data_PCOD8239845
_publ_section_title
;
Structure prediction by ZEFSAII (Michael W. Deem and Ramdas Pophale) SiO2 
 PCOD8239845
Probable space group: P M M N
;
_chemical_formula_sum "Si O2"
_cell_formula_units_Z 40
_cell_length_a 27.991887
_cell_length_b 7.714771
_cell_length_c 10.297764
_cell_angle_alpha 90.000000
_cell_angle_beta 90.000000
_cell_angle_gamma 90.000000
_cell_volume 2223.812414
_symmetry_space_group_name_H-M "P M M N"
_symmetry_group_IT_number 59
_space_group.IT_coordinate_system_code '2'
_symmetry_cell_setting 'orthorhombic'
loop_
_space_group_symop_operation_xyz
x,y,z
1/2-x,1/2-y,z
1/2+x,-y,-z
-x,1/2+y,-z
-x,-y,-z
1/2+x,1/2+y,-z
1/2-x,y,z
x,1/2-y,z
loop_
_atom_site_type_symbol
_atom_site_label
_atom_site_fract_x
_atom_site_fract_y
_atom_site_fract_z
Si Si1 0.976951 0.952538 0.135697
Si Si2 0.966606 0.453990 0.618802
Si Si3 0.868650 0.558375 0.516160
Si Si4 0.873801 0.950865 0.213657
Si Si5 0.697137 0.250000 0.517540
Si Si6 0.196438 0.750000 0.790524
O O1 0.975403 0.750000 0.158733
O O2 0.922191 0.017452 0.143388
O O3 0.009321 0.031458 0.250742
O O4 0.000000 0.000000 0.000000
O O5 0.957869 0.250000 0.626535
O O6 0.915910 0.546609 0.602778
O O7 0.000000 0.500000 0.500000
O O8 0.846393 0.750000 0.531923
O O9 0.882507 0.523242 0.366796
O O10 0.829896 0.421347 0.567126
O O11 0.861235 0.750000 0.180818
O O12 0.831122 0.075410 0.163777
O O13 0.750000 0.250000 0.578748
O O14 0.700196 0.250000 0.363419
O O15 0.250000 0.750000 0.850744
#
# Coordination Sequence:
#
# PCOD8239845 Si02
#       6
#     8   8   8   8   4   4
#     4  10  22  35  49  75 109 145 181 217 269 321
#     4  11  20  32  51  77 106 140 182 221 260 319
#     4  10  18  31  50  75 103 137 179 218 264 319
#     4   9  18  32  48  72 106 136 172 220 262 314
#     4   9  18  32  48  73 109 139 173 225 272 313
#     4   9  18  30  50  75  99 139 181 213 270 321
#
# _framework density 17.987127999999998
#
# number of rings (size 3 to 8) (size 9 to 14) (size 15 to 20)
#    0.000    2.200    3.000    0.600    1.400    2.400 
#    0.000    4.000    0.000    0.000    0.000    2.800 
#    0.000    3.200    0.000    0.000    0.000    0.000 
#
# Total GULP energy -495925.038005 kJ/mol
# GULP energy per Si atom -12398.125950 kJ/mol
# Density = 1.794619 g / cm^3
# Si number density = 17.987128 Si / 1000 Ang^3
#
#
#
# Elastic Constant Matrix: (Units=GPa)
#
#
# Indices 1 2 3 4 5 6 
#
# 1 170.4063 67.8081 42.7546 0.0000 0.0000 0.0000
# 2 67.8081 106.5692 18.0032 0.0000 0.0000 0.0000
# 3 42.7546 18.0032 73.7888 0.0000 0.0000 0.0000
# 4 0.0000 0.0000 0.0000 16.4537 0.0000 0.0000
# 5 0.0000 0.0000 0.0000 0.0000 15.9270 0.0000
# 6 0.0000 0.0000 0.0000 0.0000 0.0000 27.1813
#
#
#
# Elastic Compliance Matrix: (Units=1/GPa)
#
#
# Indices 1 2 3 4 5 6 
#
# 1 0.008817 -0.004951 -0.003901 0.000000 0.000000 0.000000
# 2 -0.004951 0.012567 -0.000197 0.000000 0.000000 0.000000
# 3 -0.003901 -0.000197 0.015861 0.000000 0.000000 0.000000
# 4 0.000000 0.000000 0.000000 0.060777 0.000000 0.000000
# 5 0.000000 0.000000 0.000000 0.000000 0.062787 0.000000
# 6 0.000000 0.000000 0.000000 0.000000 0.000000 0.036790
#
#
# Mechanical properties :
#
#
# Convention : Reuss Voigt Hill
#
# Bulk Modulus (GPa) = 52.22972 67.54400 59.88686
# Shear Modulus (GPa) = 22.51446 26.72561 24.62004
#
# Velocity S-wave (km/s) = 3.54177 3.85881 3.70369
# Velocity P-wave (km/s) = 6.76948 7.58200 7.18723
#
# Compressibility (1/GPa) = 0.01914619
#
# Stress axis : x y z
#
# Youngs Moduli (GPa) = 113.41409 79.57152 63.04944
#
# Poissons Ratio (x) = 0.39398 0.24595
# Poissons Ratio (y) = 0.56154 0.01244
# Poissons Ratio (z) = 0.44241 0.01570
#
# Static dielectric constant tensor:
#      x y z
#    x 3.600470 0.000000 0.000000 
#    y 0.000000 3.524880 0.000000 
#    z 0.000000 0.000000 2.838120 
# 
# 
# High freq. dielectric constant tensor:
#      x y z
#    x 1.694980 0.000000 0.000000 
#    y 0.000000 1.709140 0.000000 
#    z 0.000000 0.000000 1.643030 
# 
# From -- ./inp_files/5937.got.cif
#   From: 2010.03.12/outbox.cif.g09.slc.cpg/sg59_3_cif.got.tgz:5937.got - 2010.04.16 16:29:54.
