data_PCOD8239828
_publ_section_title
;
Structure prediction by ZEFSAII (Michael W. Deem and Ramdas Pophale) SiO2 
 PCOD8239828
Probable space group: P M M N
;
_chemical_formula_sum "Si O2"
_cell_formula_units_Z 64
_cell_length_a 29.420186
_cell_length_b 8.642221
_cell_length_c 14.868970
_cell_angle_alpha 90.000000
_cell_angle_beta 90.000000
_cell_angle_gamma 90.000000
_cell_volume 3780.521108
_symmetry_space_group_name_H-M "P M M N"
_symmetry_group_IT_number 59
_space_group.IT_coordinate_system_code '2'
_symmetry_cell_setting 'orthorhombic'
loop_
_space_group_symop_operation_xyz
x,y,z
1/2-x,1/2-y,z
1/2+x,-y,-z
-x,1/2+y,-z
-x,-y,-z
1/2+x,1/2+y,-z
1/2-x,y,z
x,1/2-y,z
loop_
_atom_site_type_symbol
_atom_site_label
_atom_site_fract_x
_atom_site_fract_y
_atom_site_fract_z
Si Si1 0.388456 0.070775 0.712860
Si Si2 0.468979 0.568314 0.372355
Si Si3 0.698837 0.429949 0.999372
Si Si4 0.062510 0.070063 0.540958
Si Si5 0.534621 0.432964 0.829604
Si Si6 0.800189 0.574217 0.187702
Si Si7 0.892521 0.569017 0.956897
Si Si8 0.059517 0.931179 0.872860
O O1 0.401584 0.250000 0.730092
O O2 0.395740 0.029952 0.607682
O O3 0.335975 0.035055 0.734176
O O4 0.421578 0.968226 0.773997
O O5 0.467216 0.750000 0.366736
O O6 0.430955 0.511765 0.444129
O O7 0.517546 0.508151 0.407924
O O8 0.460388 0.502710 0.272346
O O9 0.750000 0.481255 0.969979
O O10 0.691175 0.250000 0.980237
O O11 0.692353 0.458676 0.105388
O O12 0.660841 0.526495 0.945569
O O13 0.058477 0.250000 0.521036
O O14 0.526380 0.250000 0.832028
O O15 0.580423 0.475245 0.881404
O O16 0.492614 0.514987 0.879750
O O17 0.750000 0.552951 0.229541
O O18 0.807153 0.750000 0.152113
O O19 0.899433 0.750000 0.941791
O O20 0.909721 0.522297 0.055706
O O21 0.062476 0.750000 0.893936
#
# Coordination Sequence:
#
# PCOD8239828 Si02
#       8
#     8   8   8   8   8   8   8   8
#     4  10  18  31  49  71 101 135 167 204 247 295
#     4   9  18  32  49  70  95 125 160 204 251 292
#     4  10  20  34  52  75 101 129 166 209 252 296
#     4   9  17  30  48  70  96 128 163 199 246 294
#     4  11  22  38  54  70  99 134 172 214 256 298
#     4   9  17  29  48  72  98 131 167 203 246 294
#     4  12  24  37  52  73 101 135 173 208 250 302
#     4  12  23  34  49  72 101 136 174 207 245 294
#
# _framework density 16.928885000000001
#
# number of rings (size 3 to 8) (size 9 to 14) (size 15 to 20)
#    0.000    1.750    2.500    3.375    0.000    2.250 
#    0.000    0.000    0.000    0.000    0.000    0.875 
#    0.000    3.000    0.000    0.000    0.000    0.000 
#
# Total GULP energy -793576.317281 kJ/mol
# GULP energy per Si atom -12399.629958 kJ/mol
# Density = 1.689035 g / cm^3
# Si number density = 16.928885 Si / 1000 Ang^3
#
#
#
# Elastic Constant Matrix: (Units=GPa)
#
#
# Indices 1 2 3 4 5 6 
#
# 1 100.4164 17.3314 30.5192 0.0000 0.0000 0.0000
# 2 17.3314 46.2304 12.2866 0.0000 0.0000 0.0000
# 3 30.5192 12.2866 65.1482 0.0000 0.0000 0.0000
# 4 0.0000 0.0000 0.0000 24.6999 0.0000 0.0000
# 5 0.0000 0.0000 0.0000 0.0000 22.5299 0.0000
# 6 0.0000 0.0000 0.0000 0.0000 0.0000 22.1788
#
#
#
# Elastic Compliance Matrix: (Units=1/GPa)
#
#
# Indices 1 2 3 4 5 6 
#
# 1 0.012038 -0.003173 -0.005041 0.000000 0.000000 0.000000
# 2 -0.003173 0.023609 -0.002966 0.000000 0.000000 0.000000
# 3 -0.005041 -0.002966 0.018270 0.000000 0.000000 0.000000
# 4 0.000000 0.000000 0.000000 0.040486 0.000000 0.000000
# 5 0.000000 0.000000 0.000000 0.000000 0.044385 0.000000
# 6 0.000000 0.000000 0.000000 0.000000 0.000000 0.045088
#
#
# Mechanical properties :
#
#
# Convention : Reuss Voigt Hill
#
# Bulk Modulus (GPa) = 31.68866 36.89662 34.29264
# Shear Modulus (GPa) = 23.06735 23.99223 23.52979
#
# Velocity S-wave (km/s) = 3.69535 3.76870 3.73221
# Velocity P-wave (km/s) = 6.08003 6.38591 6.23485
#
# Compressibility (1/GPa) = 0.03155703
#
# Stress axis : x y z
#
# Youngs Moduli (GPa) = 83.06803 42.35728 54.73320
#
# Poissons Ratio (x) = 0.13441 0.27591
# Poissons Ratio (y) = 0.26360 0.16233
# Poissons Ratio (z) = 0.41874 0.12563
#
# Static dielectric constant tensor:
#      x y z
#    x 3.266510 0.000000 0.000000 
#    y 0.000000 3.143880 0.000000 
#    z 0.000000 0.000000 3.141840 
# 
# 
# High freq. dielectric constant tensor:
#      x y z
#    x 1.640450 0.000000 0.000000 
#    y 0.000000 1.655310 0.000000 
#    z 0.000000 0.000000 1.629640 
# 
# From -- ./inp_files/25002.got.cif
#   From: 2010.03.12/outbox.cif.g09.slc.cpg/sg59_13_cif.got.tgz:25002.got - 2010.04.16 16:29:54.
