data_PCOD8239489
_publ_section_title
;
Structure prediction by ZEFSAII (Michael W. Deem and Ramdas Pophale) SiO2 
 PCOD8239489
Probable space group: P M M N
;
_chemical_formula_sum "Si O2"
_cell_formula_units_Z 64
_cell_length_a 9.221398
_cell_length_b 30.017377
_cell_length_c 15.002451
_cell_angle_alpha 90.000000
_cell_angle_beta 90.000000
_cell_angle_gamma 90.000000
_cell_volume 4152.711146
_symmetry_space_group_name_H-M "P M M N"
_symmetry_group_IT_number 59
_space_group.IT_coordinate_system_code '2'
_symmetry_cell_setting 'orthorhombic'
loop_
_space_group_symop_operation_xyz
x,y,z
1/2-x,1/2-y,z
1/2+x,-y,-z
-x,1/2+y,-z
-x,-y,-z
1/2+x,1/2+y,-z
1/2-x,y,z
x,1/2-y,z
loop_
_atom_site_type_symbol
_atom_site_label
_atom_site_fract_x
_atom_site_fract_y
_atom_site_fract_z
Si Si1 0.920803 0.798494 0.796318
Si Si2 0.579846 0.884416 0.708611
Si Si3 0.917277 0.555289 0.556772
Si Si4 0.581844 0.971858 0.367414
Si Si5 0.081621 0.895315 0.033435
Si Si6 0.419278 0.960131 0.188458
Si Si7 0.917657 0.299339 0.020856
Si Si8 0.921260 0.557138 0.871792
O O1 0.750000 0.802702 0.810737
O O2 0.963632 0.750000 0.758494
O O3 0.982209 0.834954 0.726754
O O4 0.990360 0.807237 0.891372
O O5 0.750000 0.882920 0.721221
O O6 0.540121 0.899165 0.608118
O O7 0.520108 0.919044 0.782143
O O8 0.750000 0.541844 0.576143
O O9 0.941829 0.561997 0.451054
O O10 0.019035 0.518513 0.600260
O O11 0.750000 0.977938 0.344446
O O12 0.502379 0.952922 0.281077
O O13 0.250000 0.903163 0.012141
O O14 0.040164 0.917940 0.127212
O O15 0.046517 0.842026 0.042130
O O16 0.994127 0.919781 0.956098
O O17 0.250000 0.962363 0.211357
O O18 0.466923 0.005322 0.137366
O O19 0.750000 0.300274 0.047976
O O20 0.954808 0.250000 0.978434
O O21 0.750000 0.562027 0.884278
#
# Coordination Sequence:
#
# PCOD8239489 Si02
#       8
#     8   8   8   8   8   8   8   8
#     4   9  16  26  42  63  84 108 141 174 202 245
#     4   9  15  26  44  63  85 115 142 165 207 256
#     4   9  17  31  47  62  86 115 140 171 215 259
#     4  10  19  29  45  67  85 108 145 183 213 246
#     4  10  20  31  44  63  85 115 150 181 213 253
#     4  10  20  33  45  58  86 122 149 177 216 254
#     4   9  17  29  43  60  84 110 138 177 220 254
#     4  10  18  29  44  61  86 121 148 170 208 251
#
# _framework density 15.411619
#
# number of rings (size 3 to 8) (size 9 to 14) (size 15 to 20)
#    0.000    2.500    2.500    0.750    0.000    1.500 
#    0.000    0.625    0.000    0.000    0.000    0.875 
#    0.000    1.000    0.000    0.000    0.000    0.000 
#
# Total GULP energy -793036.187288 kJ/mol
# GULP energy per Si atom -12391.190426 kJ/mol
# Density = 1.537654 g / cm^3
# Si number density = 15.411619 Si / 1000 Ang^3
#
#
#
# Elastic Constant Matrix: (Units=GPa)
#
#
# Indices 1 2 3 4 5 6 
#
# 1 36.5294 29.9491 35.9384 0.0000 0.0000 0.0000
# 2 29.9491 137.0507 69.0449 0.0000 0.0000 0.0000
# 3 35.9384 69.0449 103.5308 0.0000 0.0000 0.0000
# 4 0.0000 0.0000 0.0000 22.7836 0.0000 0.0000
# 5 0.0000 0.0000 0.0000 0.0000 23.2300 0.0000
# 6 0.0000 0.0000 0.0000 0.0000 0.0000 13.3976
#
#
#
# Elastic Compliance Matrix: (Units=1/GPa)
#
#
# Indices 1 2 3 4 5 6 
#
# 1 0.042264 -0.002778 -0.012818 0.000000 0.000000 0.000000
# 2 -0.002778 0.011171 -0.006486 0.000000 0.000000 0.000000
# 3 -0.012818 -0.006486 0.018434 0.000000 0.000000 0.000000
# 4 0.000000 0.000000 0.000000 0.043891 0.000000 0.000000
# 5 0.000000 0.000000 0.000000 0.000000 0.043048 0.000000
# 6 0.000000 0.000000 0.000000 0.000000 0.000000 0.074640
#
#
# Mechanical properties :
#
#
# Convention : Reuss Voigt Hill
#
# Bulk Modulus (GPa) = 36.09492 60.77510 48.43501
# Shear Modulus (GPa) = 17.43093 21.36081 19.39587
#
# Velocity S-wave (km/s) = 3.36672 3.72697 3.55141
# Velocity P-wave (km/s) = 6.21164 7.61844 6.95072
#
# Compressibility (1/GPa) = 0.02770473
#
# Stress axis : x y z
#
# Youngs Moduli (GPa) = 23.66100 89.51699 54.24807
#
# Poissons Ratio (x) = 0.24868 0.69536
# Poissons Ratio (y) = 0.06573 0.35184
# Poissons Ratio (z) = 0.30329 0.58058
#
# Static dielectric constant tensor:
#      x y z
#    x 2.905390 0.000000 0.000000 
#    y 0.000000 3.338930 0.000000 
#    z 0.000000 0.000000 2.969080 
# 
# 
# High freq. dielectric constant tensor:
#      x y z
#    x 1.583740 0.000000 0.000000 
#    y 0.000000 1.585790 0.000000 
#    z 0.000000 0.000000 1.570220 
# 
# From -- ./inp_files/21941.got.cif
#   From: 2010.03.12/outbox.cif.g09.slc.cpg/sg59_11_cif.got.tgz:21941.got - 2010.04.16 16:29:54.
