data_PCOD8239794
_publ_section_title
;
Structure prediction by ZEFSAII (Michael W. Deem and Ramdas Pophale) SiO2 
 PCOD8239794
Probable space group: P M M N
;
_chemical_formula_sum "Si O2"
_cell_formula_units_Z 64
_cell_length_a 14.063572
_cell_length_b 18.384185
_cell_length_c 12.943855
_cell_angle_alpha 90.000000
_cell_angle_beta 90.000000
_cell_angle_gamma 90.000000
_cell_volume 3346.598884
_symmetry_space_group_name_H-M "P M M N"
_symmetry_group_IT_number 59
_space_group.IT_coordinate_system_code '2'
_symmetry_cell_setting 'orthorhombic'
loop_
_space_group_symop_operation_xyz
x,y,z
1/2-x,1/2-y,z
1/2+x,-y,-z
-x,1/2+y,-z
-x,-y,-z
1/2+x,1/2+y,-z
1/2-x,y,z
x,1/2-y,z
loop_
_atom_site_type_symbol
_atom_site_label
_atom_site_fract_x
_atom_site_fract_y
_atom_site_fract_z
Si Si1 0.645154 0.669788 0.417982
Si Si2 0.456832 0.666756 0.312057
Si Si3 0.353781 0.462339 0.440262
Si Si4 0.496122 0.916028 0.699134
Si Si5 0.142576 0.885194 0.524432
Si Si6 0.354979 0.331478 0.179463
Si Si7 0.141506 0.451170 0.012164
Si Si8 0.990541 0.458467 0.845634
O O1 0.750000 0.653278 0.372125
O O2 0.640929 0.750000 0.468886
O O3 0.570205 0.664056 0.326195
O O4 0.618857 0.612846 0.505581
O O5 0.426637 0.750000 0.279570
O O6 0.403384 0.648512 0.420556
O O7 0.441077 0.605962 0.223402
O O8 0.250000 0.458016 0.386159
O O9 0.437653 0.475054 0.360148
O O10 0.354227 0.527748 0.520705
O O11 0.417066 0.873661 0.630300
O O12 0.564602 0.852582 0.738791
O O13 0.461065 0.971255 0.787695
O O14 0.250000 0.853584 0.536388
O O15 0.250000 0.339920 0.231011
O O16 0.374586 0.250000 0.143695
O O17 0.360487 0.377954 0.076808
O O18 0.250000 0.473242 0.983317
O O19 0.094646 0.516311 0.078883
O O20 0.080263 0.430746 0.911105
#
# Coordination Sequence:
#
# PCOD8239794 Si02
#       8
#     8   8   8   8   8   8   8   8
#     4   9  18  31  48  75 110 144 178 217 269 326
#     4  11  22  37  55  77 112 151 189 230 268 313
#     4  10  18  30  52  75 101 143 182 221 267 310
#     4  11  19  33  56  80 113 144 184 227 270 315
#     4  11  23  36  51  74 109 155 197 229 261 304
#     4   9  19  35  57  86 112 136 171 216 278 349
#     4   9  20  39  61  84 112 140 167 221 289 342
#     4  10  21  36  59  87 108 137 184 229 273 338
#
# _framework density 19.123892999999999
#
# number of rings (size 3 to 8) (size 9 to 14) (size 15 to 20)
#    0.000    2.000    2.500    1.500    0.000    3.750 
#    0.000    1.250    0.000    0.000    0.000    0.000 
#    0.000    0.000    0.000    0.000    0.000    0.000 
#
# Total GULP energy -792874.293901 kJ/mol
# GULP energy per Si atom -12388.660842 kJ/mol
# Density = 1.908037 g / cm^3
# Si number density = 19.123893 Si / 1000 Ang^3
#
#
#
# Elastic Constant Matrix: (Units=GPa)
#
#
# Indices 1 2 3 4 5 6 
#
# 1 113.1554 35.3348 47.1700 0.0000 0.0000 0.0000
# 2 35.3348 98.1458 29.4711 0.0000 0.0000 0.0000
# 3 47.1700 29.4711 74.3251 0.0000 0.0000 0.0000
# 4 0.0000 0.0000 0.0000 16.8584 0.0000 0.0000
# 5 0.0000 0.0000 0.0000 0.0000 19.1163 0.0000
# 6 0.0000 0.0000 0.0000 0.0000 0.0000 10.4655
#
#
#
# Elastic Compliance Matrix: (Units=1/GPa)
#
#
# Indices 1 2 3 4 5 6 
#
# 1 0.012497 -0.002404 -0.006978 0.000000 0.000000 0.000000
# 2 -0.002404 0.012028 -0.003244 0.000000 0.000000 0.000000
# 3 -0.006978 -0.003244 0.019169 0.000000 0.000000 0.000000
# 4 0.000000 0.000000 0.000000 0.059317 0.000000 0.000000
# 5 0.000000 0.000000 0.000000 0.000000 0.052311 0.000000
# 6 0.000000 0.000000 0.000000 0.000000 0.000000 0.095552
#
#
# Mechanical properties :
#
#
# Convention : Reuss Voigt Hill
#
# Bulk Modulus (GPa) = 54.22057 56.61977 55.42017
# Shear Modulus (GPa) = 17.71329 20.86476 19.28902
#
# Velocity S-wave (km/s) = 3.04672 3.30666 3.17935
# Velocity P-wave (km/s) = 6.38674 6.65205 6.52074
#
# Compressibility (1/GPa) = 0.01844319
#
# Stress axis : x y z
#
# Youngs Moduli (GPa) = 80.02013 83.13635 52.16725
#
# Poissons Ratio (x) = 0.19985 0.36402
# Poissons Ratio (y) = 0.19236 0.16922
# Poissons Ratio (z) = 0.55837 0.26968
#
# Static dielectric constant tensor:
#      x y z
#    x 3.754530 0.000000 0.000000 
#    y 0.000000 3.512440 0.000000 
#    z 0.000000 0.000000 3.340980 
# 
# 
# High freq. dielectric constant tensor:
#      x y z
#    x 1.748240 0.000000 0.000000 
#    y 0.000000 1.743390 0.000000 
#    z 0.000000 0.000000 1.717490 
# 
# From -- ./inp_files/17226.got.cif
#   From: 2010.03.12/outbox.cif.g09.slc.cpg/sg59_9_cif.got.tgz:17226.got - 2010.04.16 16:29:54.
