data_PCOD8239880
_publ_section_title
;
Structure prediction by ZEFSAII (Michael W. Deem and Ramdas Pophale) SiO2 
 PCOD8239880
Probable space group: P M M N
;
_chemical_formula_sum "Si O2"
_cell_formula_units_Z 48
_cell_length_a 14.830370
_cell_length_b 9.556538
_cell_length_c 18.905356
_cell_angle_alpha 90.000000
_cell_angle_beta 90.000000
_cell_angle_gamma 90.000000
_cell_volume 2679.399285
_symmetry_space_group_name_H-M "P M M N"
_symmetry_group_IT_number 59
_space_group.IT_coordinate_system_code '2'
_symmetry_cell_setting 'orthorhombic'
loop_
_space_group_symop_operation_xyz
x,y,z
1/2-x,1/2-y,z
1/2+x,-y,-z
-x,1/2+y,-z
-x,-y,-z
1/2+x,1/2+y,-z
1/2-x,y,z
x,1/2-y,z
loop_
_atom_site_type_symbol
_atom_site_label
_atom_site_fract_x
_atom_site_fract_y
_atom_site_fract_z
Si Si1 0.088819 0.087701 0.005125
Si Si2 0.991384 0.414315 0.761788
Si Si3 0.991234 0.088129 0.599127
Si Si4 0.346408 0.085139 0.854247
Si Si5 0.352646 0.093335 0.158989
Si Si6 0.644369 0.913646 0.510733
O O1 0.062732 0.250000 0.003232
O O2 0.140789 0.047712 0.076855
O O3 0.148010 0.047317 0.937086
O O4 0.000000 0.000000 0.000000
O O5 0.979700 0.250000 0.774558
O O6 0.073706 0.480001 0.807303
O O7 0.008812 0.449664 0.680323
O O8 0.901635 0.487701 0.788775
O O9 0.965345 0.250000 0.588462
O O10 0.085796 0.053352 0.559755
O O11 0.905104 0.998750 0.573118
O O12 0.250000 0.026703 0.827116
O O13 0.349924 0.250000 0.843134
O O14 0.250000 0.088521 0.182693
O O15 0.392001 0.250000 0.168439
O O16 0.750000 0.959523 0.501362
O O17 0.640169 0.750000 0.529650
#
# Coordination Sequence:
#
# PCOD8239880 Si02
#       6
#     8   8   8   8   8   8
#     4  10  18  31  52  73  96 128 169 214 255 295
#     4  10  20  34  52  76 104 133 166 206 252 299
#     4   9  19  34  52  77 107 133 162 204 250 295
#     4   9  17  30  50  74  98 127 165 207 251 298
#     4  10  21  35  51  72 100 136 174 211 253 299
#     4   9  18  34  56  79 102 131 167 204 243 293
#
# _framework density 17.914465
#
# number of rings (size 3 to 8) (size 9 to 14) (size 15 to 20)
#    0.000    2.500    1.667    0.500    0.000    4.667 
#    0.000    6.667    0.000    3.000    0.000    2.333 
#    0.000    0.000    0.000    0.000    0.000    0.000 
#
# Total GULP energy -594977.362315 kJ/mol
# GULP energy per Si atom -12395.361715 kJ/mol
# Density = 1.787369 g / cm^3
# Si number density = 17.914465 Si / 1000 Ang^3
#
#
#
# Elastic Constant Matrix: (Units=GPa)
#
#
# Indices 1 2 3 4 5 6 
#
# 1 125.1324 40.2007 40.8346 0.0000 0.0000 0.0000
# 2 40.2007 39.0950 40.3488 0.0000 0.0000 0.0000
# 3 40.8346 40.3488 99.8770 0.0000 0.0000 0.0000
# 4 0.0000 0.0000 0.0000 23.4606 0.0000 0.0000
# 5 0.0000 0.0000 0.0000 0.0000 9.7830 0.0000
# 6 0.0000 0.0000 0.0000 0.0000 0.0000 25.9950
#
#
#
# Elastic Compliance Matrix: (Units=1/GPa)
#
#
# Indices 1 2 3 4 5 6 
#
# 1 0.011935 -0.012411 0.000134 0.000000 0.000000 0.000000
# 2 -0.012411 0.056776 -0.017863 0.000000 0.000000 0.000000
# 3 0.000134 -0.017863 0.017174 0.000000 0.000000 0.000000
# 4 0.000000 0.000000 0.000000 0.042625 0.000000 0.000000
# 5 0.000000 0.000000 0.000000 0.000000 0.102218 0.000000
# 6 0.000000 0.000000 0.000000 0.000000 0.000000 0.038469
#
#
# Mechanical properties :
#
#
# Convention : Reuss Voigt Hill
#
# Bulk Modulus (GPa) = 39.05303 56.31919 47.68611
# Shear Modulus (GPa) = 14.79242 21.36240 18.07741
#
# Velocity S-wave (km/s) = 2.87666 3.45696 3.18007
# Velocity P-wave (km/s) = 5.73416 6.88768 6.33722
#
# Compressibility (1/GPa) = 0.02560621
#
# Stress axis : x y z
#
# Youngs Moduli (GPa) = 83.78729 17.61296 58.22899
#
# Poissons Ratio (x) = 0.21860 -0.00782
# Poissons Ratio (y) = 1.03990 1.04012
# Poissons Ratio (z) = -0.01125 0.31461
#
# Static dielectric constant tensor:
#      x y z
#    x 3.323820 0.000000 0.000000 
#    y 0.000000 3.145310 0.000000 
#    z 0.000000 0.000000 1.555080 
# 
# 
# High freq. dielectric constant tensor:
#      x y z
#    x 1.698920 0.000000 0.000000 
#    y 0.000000 1.669620 0.000000 
#    z 0.000000 0.000000 1.694170 
# 
# From -- ./inp_files/25495.got.cif
#   From: 2010.03.12/outbox.cif.g09.slc.cpg/sg59_13_cif.got.tgz:25495.got - 2010.04.16 16:29:54.
