data_PCOD8239443
_publ_section_title
;
Structure prediction by ZEFSAII (Michael W. Deem and Ramdas Pophale) SiO2 
 PCOD8239443
Probable space group: P M M N
;
_chemical_formula_sum "Si O2"
_cell_formula_units_Z 64
_cell_length_a 8.996532
_cell_length_b 17.959001
_cell_length_c 22.995487
_cell_angle_alpha 90.000000
_cell_angle_beta 90.000000
_cell_angle_gamma 90.000000
_cell_volume 3715.351566
_symmetry_space_group_name_H-M "P M M N"
_symmetry_group_IT_number 59
_space_group.IT_coordinate_system_code '2'
_symmetry_cell_setting 'orthorhombic'
loop_
_space_group_symop_operation_xyz
x,y,z
1/2-x,1/2-y,z
1/2+x,-y,-z
-x,1/2+y,-z
-x,-y,-z
1/2+x,1/2+y,-z
1/2-x,y,z
x,1/2-y,z
loop_
_atom_site_type_symbol
_atom_site_label
_atom_site_fract_x
_atom_site_fract_y
_atom_site_fract_z
Si Si1 0.424128 0.333296 0.440657
Si Si2 0.925311 0.596733 0.929196
Si Si3 0.924522 0.938945 0.460628
Si Si4 0.074317 0.024276 0.367781
Si Si5 0.076385 0.039467 0.872068
Si Si6 0.421244 0.528252 0.752545
Si Si7 0.581882 0.332243 0.173220
Si Si8 0.574500 0.832202 0.047797
O O1 0.250000 0.326989 0.430137
O O2 0.494937 0.250000 0.431021
O O3 0.455374 0.359424 0.507686
O O4 0.484744 0.396864 0.395645
O O5 0.750000 0.588168 0.929994
O O6 0.994792 0.517182 0.914883
O O7 0.971264 0.656257 0.880393
O O8 0.987659 0.625436 0.991034
O O9 0.750000 0.953762 0.455276
O O10 0.000000 0.000000 0.500000
O O11 0.000462 0.950994 0.397858
O O12 0.250000 0.018702 0.375414
O O13 0.030538 0.016799 0.300910
O O14 0.250000 0.022704 0.879129
O O15 0.032262 0.028654 0.804428
O O16 0.033750 0.122174 0.893607
O O17 0.250000 0.516147 0.733705
O O18 0.450535 0.611822 0.774348
O O19 0.750000 0.344558 0.150378
O O20 0.557668 0.250000 0.198702
O O21 0.750000 0.824888 0.041139
O O22 0.502676 0.750000 0.052964
#
# Coordination Sequence:
#
# PCOD8239443 Si02
#       8
#     8   8   8   8   8   8   8   8
#     4   8  15  28  46  70  97 120 144 178 219 260
#     4  10  18  28  46  71  96 120 149 188 234 286
#     4   9  16  28  48  70  94 123 152 184 220 260
#     4  10  19  30  47  69  93 124 158 191 226 266
#     4   9  18  33  50  66  89 123 158 193 236 284
#     4   9  18  31  46  64  87 119 160 198 228 264
#     4   9  18  32  47  64  92 128 159 189 230 281
#     4   9  17  29  47  71  94 115 146 194 247 292
#
# _framework density 17.225826999999999
#
# number of rings (size 3 to 8) (size 9 to 14) (size 15 to 20)
#    0.000    2.875    0.000    3.375    0.000    3.250 
#    0.000    0.625    0.000   15.750    0.000    3.500 
#    0.000    0.000    0.000    0.000    0.000    0.000 
#
# Total GULP energy -793028.579867 kJ/mol
# GULP energy per Si atom -12391.071560 kJ/mol
# Density = 1.718662 g / cm^3
# Si number density = 17.225827 Si / 1000 Ang^3
#
#
#
# Elastic Constant Matrix: (Units=GPa)
#
#
# Indices 1 2 3 4 5 6 
#
# 1 48.1975 25.5523 33.2866 0.0000 0.0000 0.0000
# 2 25.5523 82.2995 58.3766 0.0000 0.0000 0.0000
# 3 33.2866 58.3766 116.2090 0.0000 0.0000 0.0000
# 4 0.0000 0.0000 0.0000 15.7840 0.0000 0.0000
# 5 0.0000 0.0000 0.0000 0.0000 25.5537 0.0000
# 6 0.0000 0.0000 0.0000 0.0000 0.0000 17.5701
#
#
#
# Elastic Compliance Matrix: (Units=1/GPa)
#
#
# Indices 1 2 3 4 5 6 
#
# 1 0.026888 -0.004482 -0.005450 0.000000 0.000000 0.000000
# 2 -0.004482 0.019624 -0.008574 0.000000 0.000000 0.000000
# 3 -0.005450 -0.008574 0.014473 0.000000 0.000000 0.000000
# 4 0.000000 0.000000 0.000000 0.063355 0.000000 0.000000
# 5 0.000000 0.000000 0.000000 0.000000 0.039133 0.000000
# 6 0.000000 0.000000 0.000000 0.000000 0.000000 0.056915
#
#
# Mechanical properties :
#
#
# Convention : Reuss Voigt Hill
#
# Bulk Modulus (GPa) = 41.71408 53.45966 47.58687
# Shear Modulus (GPa) = 18.83993 20.41426 19.62710
#
# Velocity S-wave (km/s) = 3.31071 3.44626 3.37916
# Velocity P-wave (km/s) = 6.23562 6.85110 6.55059
#
# Compressibility (1/GPa) = 0.02397272
#
# Stress axis : x y z
#
# Youngs Moduli (GPa) = 37.19082 50.95734 69.09196
#
# Poissons Ratio (x) = 0.22841 0.37656
# Poissons Ratio (y) = 0.16670 0.59241
# Poissons Ratio (z) = 0.20269 0.43692
#
# Static dielectric constant tensor:
#      x y z
#    x 3.103950 0.000000 0.000000 
#    y 0.000000 3.564420 0.000000 
#    z 0.000000 0.000000 3.262940 
# 
# 
# High freq. dielectric constant tensor:
#      x y z
#    x 1.646280 0.000000 0.000000 
#    y 0.000000 1.653200 0.000000 
#    z 0.000000 0.000000 1.656000 
# 
# From -- ./inp_files/31724.got.cif
#   From: 2010.03.12/outbox.cif.g09.slc.cpg/sg59_16_cif.got.tgz:31724.got - 2010.04.16 16:29:54.
