data_PCOD8239241
_publ_section_title
;
Structure prediction by ZEFSAII (Michael W. Deem and Ramdas Pophale) SiO2 
 PCOD8239241
Probable space group: P M M N
;
_chemical_formula_sum "Si O2"
_cell_formula_units_Z 64
_cell_length_a 9.064004
_cell_length_b 22.651774
_cell_length_c 20.468187
_cell_angle_alpha 90.000000
_cell_angle_beta 90.000000
_cell_angle_gamma 90.000000
_cell_volume 4202.441577
_symmetry_space_group_name_H-M "P M M N"
_symmetry_group_IT_number 59
_space_group.IT_coordinate_system_code '2'
_symmetry_cell_setting 'orthorhombic'
loop_
_space_group_symop_operation_xyz
x,y,z
1/2-x,1/2-y,z
1/2+x,-y,-z
-x,1/2+y,-z
-x,-y,-z
1/2+x,1/2+y,-z
1/2-x,y,z
x,1/2-y,z
loop_
_atom_site_type_symbol
_atom_site_label
_atom_site_fract_x
_atom_site_fract_y
_atom_site_fract_z
Si Si1 0.915092 0.581108 0.046987
Si Si2 0.575320 0.479628 0.209767
Si Si3 0.585249 0.442342 0.074710
Si Si4 0.577875 0.474717 0.351594
Si Si5 0.421615 0.901109 0.173313
Si Si6 0.574883 0.897656 0.394455
Si Si7 0.575375 0.437830 0.486650
Si Si8 0.419656 0.818275 0.291948
O O1 0.750000 0.606318 0.047869
O O2 0.918494 0.511700 0.060098
O O3 0.008396 0.614350 0.102768
O O4 0.982067 0.593648 0.975007
O O5 0.750000 0.491734 0.204650
O O6 0.529696 0.435661 0.150229
O O7 0.527099 0.451593 0.279875
O O8 0.495796 0.542069 0.205213
O O9 0.750000 0.417287 0.066183
O O10 0.750000 0.486107 0.349217
O O11 0.512386 0.539990 0.366533
O O12 0.541973 0.426927 0.408804
O O13 0.250000 0.914098 0.162760
O O14 0.451356 0.846546 0.221311
O O15 0.750000 0.895205 0.401958
O O16 0.501444 0.889139 0.466819
O O17 0.522734 0.845522 0.347626
O O18 0.500000 0.500000 0.500000
O O19 0.750000 0.440319 0.500217
O O20 0.250000 0.828384 0.312225
O O21 0.460053 0.750000 0.285931
#
# Coordination Sequence:
#
# PCOD8239241 Si02
#       8
#     8   8   8   8   8   8   8   8
#     4   9  16  25  37  50  70  98 127 160 193 227
#     4   9  15  25  39  55  78 105 131 161 195 229
#     4   8  14  22  34  52  73  98 127 158 188 222
#     4   8  14  24  39  58  79 104 132 162 195 235
#     4  10  18  27  40  56  72  96 130 166 202 241
#     4  10  18  29  44  59  77 103 135 171 207 245
#     4   9  16  26  40  59  81 105 134 166 201 241
#     4  10  21  34  45  59  79 103 133 173 217 253
#
# _framework density 15.229241999999999
#
# number of rings (size 3 to 8) (size 9 to 14) (size 15 to 20)
#    0.000    2.875    1.250    3.000    0.000    3.750 
#    0.000    0.625    0.000    0.000    0.000    0.000 
#    0.000    0.000    0.000    1.125    0.000   23.250 
#
# Total GULP energy -792915.924793 kJ/mol
# GULP energy per Si atom -12389.311325 kJ/mol
# Density = 1.519458 g / cm^3
# Si number density = 15.229242 Si / 1000 Ang^3
#
#
#
# Elastic Constant Matrix: (Units=GPa)
#
#
# Indices 1 2 3 4 5 6 
#
# 1 75.2313 21.0242 57.0166 0.0000 0.0000 0.0000
# 2 21.0242 29.6014 32.9734 0.0000 0.0000 0.0000
# 3 57.0166 32.9734 166.6766 0.0000 0.0000 0.0000
# 4 0.0000 0.0000 0.0000 13.3732 0.0000 0.0000
# 5 0.0000 0.0000 0.0000 0.0000 24.5425 0.0000
# 6 0.0000 0.0000 0.0000 0.0000 0.0000 11.7250
#
#
#
# Elastic Compliance Matrix: (Units=1/GPa)
#
#
# Indices 1 2 3 4 5 6 
#
# 1 0.019375 -0.008181 -0.005009 0.000000 0.000000 0.000000
# 2 -0.008181 0.046785 -0.006457 0.000000 0.000000 0.000000
# 3 -0.005009 -0.006457 0.008991 0.000000 0.000000 0.000000
# 4 0.000000 0.000000 0.000000 0.074776 0.000000 0.000000
# 5 0.000000 0.000000 0.000000 0.000000 0.040746 0.000000
# 6 0.000000 0.000000 0.000000 0.000000 0.000000 0.085288
#
#
# Mechanical properties :
#
#
# Convention : Reuss Voigt Hill
#
# Bulk Modulus (GPa) = 27.88910 54.83752 41.36331
# Shear Modulus (GPa) = 15.28082 20.62781 17.95432
#
# Velocity S-wave (km/s) = 3.17106 3.68433 3.43729
# Velocity P-wave (km/s) = 5.63561 7.36106 6.55536
#
# Compressibility (1/GPa) = 0.03585630
#
# Stress axis : x y z
#
# Youngs Moduli (GPa) = 51.61253 21.37430 111.22722
#
# Poissons Ratio (x) = 0.17486 0.55718
# Poissons Ratio (y) = 0.42224 0.71818
# Poissons Ratio (z) = 0.25855 0.13801
#
# Static dielectric constant tensor:
#      x y z
#    x 2.996480 0.000000 0.000000 
#    y 0.000000 2.332740 0.000000 
#    z 0.000000 0.000000 3.685890 
# 
# 
# High freq. dielectric constant tensor:
#      x y z
#    x 1.587350 0.000000 0.000000 
#    y 0.000000 1.495980 0.000000 
#    z 0.000000 0.000000 1.607500 
# 
# From -- ./inp_files/29848.got.cif
#   From: 2010.03.12/outbox.cif.g09.slc.cpg/sg59_15_cif.got.tgz:29848.got - 2010.04.16 16:29:54.
