data_PCOD8239769
_publ_section_title
;
Structure prediction by ZEFSAII (Michael W. Deem and Ramdas Pophale) SiO2 
 PCOD8239769
Probable space group: P M M N
;
_chemical_formula_sum "Si O2"
_cell_formula_units_Z 64
_cell_length_a 29.240168
_cell_length_b 8.706282
_cell_length_c 12.470147
_cell_angle_alpha 90.000000
_cell_angle_beta 90.000000
_cell_angle_gamma 90.000000
_cell_volume 3174.564582
_symmetry_space_group_name_H-M "P M M N"
_symmetry_group_IT_number 59
_space_group.IT_coordinate_system_code '2'
_symmetry_cell_setting 'orthorhombic'
loop_
_space_group_symop_operation_xyz
x,y,z
1/2-x,1/2-y,z
1/2+x,-y,-z
-x,1/2+y,-z
-x,-y,-z
1/2+x,1/2+y,-z
1/2-x,y,z
x,1/2-y,z
loop_
_atom_site_type_symbol
_atom_site_label
_atom_site_fract_x
_atom_site_fract_y
_atom_site_fract_z
Si Si1 0.602520 0.069261 0.621408
Si Si2 0.078533 0.076666 0.592848
Si Si3 0.200945 0.569859 0.440206
Si Si4 0.699707 0.424608 0.126281
Si Si5 0.680148 0.922835 0.344425
Si Si6 0.538541 0.569840 0.188603
Si Si7 0.106717 0.570542 0.977589
Si Si8 0.057564 0.429730 0.172857
O O1 0.600230 0.250000 0.645796
O O2 0.655042 0.003819 0.616173
O O3 0.576777 0.037358 0.508548
O O4 0.577407 0.976125 0.712782
O O5 0.071102 0.250000 0.550195
O O6 0.125728 0.061412 0.656859
O O7 0.041054 0.033213 0.683381
O O8 0.250000 0.513129 0.389746
O O9 0.197469 0.750000 0.429092
O O10 0.201842 0.529803 0.565234
O O11 0.750000 0.442384 0.071512
O O12 0.691207 0.250000 0.164239
O O13 0.699138 0.531497 0.229647
O O14 0.659958 0.470758 0.043195
O O15 0.695560 0.750000 0.369799
O O16 0.545988 0.750000 0.166590
O O17 0.576831 0.475679 0.125096
O O18 0.489005 0.519759 0.147361
O O19 0.099857 0.750000 0.001870
O O20 0.093491 0.472900 0.081342
O O21 0.047347 0.250000 0.171082
#
# Coordination Sequence:
#
# PCOD8239769 Si02
#       8
#     8   8   8   8   8   8   8   8
#     4  10  21  38  60  85 116 155 198 242 290 346
#     4   9  19  35  57  86 122 156 186 230 287 344
#     4   9  18  33  54  81 113 151 195 240 287 343
#     4  10  21  36  56  84 118 155 193 234 284 343
#     4  10  18  30  50  82 120 155 189 231 284 339
#     4  11  22  40  65  92 121 152 192 240 293 352
#     4  11  23  41  64  88 118 154 197 244 291 343
#     4  12  26  43  62  84 114 153 198 246 297 352
#
# _framework density 20.160245
#
# number of rings (size 3 to 8) (size 9 to 14) (size 15 to 20)
#    0.000    1.750    1.250    3.375    0.000    5.000 
#    0.000    0.625    0.000    3.750    0.000    0.000 
#    0.000    0.000    0.000    0.000    0.000    0.000 
#
# Total GULP energy -793511.046932 kJ/mol
# GULP energy per Si atom -12398.610108 kJ/mol
# Density = 2.011436 g / cm^3
# Si number density = 20.160245 Si / 1000 Ang^3
#
#
#
# Elastic Constant Matrix: (Units=GPa)
#
#
# Indices 1 2 3 4 5 6 
#
# 1 108.0662 20.5523 36.2761 0.0000 0.0000 0.0000
# 2 20.5523 38.7143 17.3016 0.0000 0.0000 0.0000
# 3 36.2761 17.3016 77.8343 0.0000 0.0000 0.0000
# 4 0.0000 0.0000 0.0000 33.5924 0.0000 0.0000
# 5 0.0000 0.0000 0.0000 0.0000 16.1735 0.0000
# 6 0.0000 0.0000 0.0000 0.0000 0.0000 23.0832
#
#
#
# Elastic Compliance Matrix: (Units=1/GPa)
#
#
# Indices 1 2 3 4 5 6 
#
# 1 0.011536 -0.004132 -0.004458 0.000000 0.000000 0.000000
# 2 -0.004132 0.030159 -0.004778 0.000000 0.000000 0.000000
# 3 -0.004458 -0.004778 0.015988 0.000000 0.000000 0.000000
# 4 0.000000 0.000000 0.000000 0.029769 0.000000 0.000000
# 5 0.000000 0.000000 0.000000 0.000000 0.061829 0.000000
# 6 0.000000 0.000000 0.000000 0.000000 0.000000 0.043322
#
#
# Mechanical properties :
#
#
# Convention : Reuss Voigt Hill
#
# Bulk Modulus (GPa) = 32.31386 41.43052 36.87219
# Shear Modulus (GPa) = 21.77187 24.60214 23.18701
#
# Velocity S-wave (km/s) = 3.28981 3.49711 3.39504
# Velocity P-wave (km/s) = 5.52212 6.07467 5.80497
#
# Compressibility (1/GPa) = 0.03094647
#
# Stress axis : x y z
#
# Youngs Moduli (GPa) = 86.68611 33.15750 62.54798
#
# Poissons Ratio (x) = 0.13700 0.27884
# Poissons Ratio (y) = 0.35816 0.29887
# Poissons Ratio (z) = 0.38645 0.15844
#
# Static dielectric constant tensor:
#      x y z
#    x 4.084630 0.000000 0.000000 
#    y 0.000000 3.640440 0.000000 
#    z 0.000000 0.000000 3.410180 
# 
# 
# High freq. dielectric constant tensor:
#      x y z
#    x 1.800190 0.000000 0.000000 
#    y 0.000000 1.786060 0.000000 
#    z 0.000000 0.000000 1.763820 
# 
# From -- ./inp_files/19233.got.cif
#   From: 2010.03.12/outbox.cif.g09.slc.cpg/sg59_10_cif.got.tgz:19233.got - 2010.04.16 16:29:54.
