data_PCOD8239837
_publ_section_title
;
Structure prediction by ZEFSAII (Michael W. Deem and Ramdas Pophale) SiO2 
 PCOD8239837
Probable space group: P M M N
;
_chemical_formula_sum "Si O2"
_cell_formula_units_Z 64
_cell_length_a 19.776392
_cell_length_b 8.773975
_cell_length_c 20.125780
_cell_angle_alpha 90.000000
_cell_angle_beta 90.000000
_cell_angle_gamma 90.000000
_cell_volume 3492.176420
_symmetry_space_group_name_H-M "P M M N"
_symmetry_group_IT_number 59
_space_group.IT_coordinate_system_code '2'
_symmetry_cell_setting 'orthorhombic'
loop_
_space_group_symop_operation_xyz
x,y,z
1/2-x,1/2-y,z
1/2+x,-y,-z
-x,1/2+y,-z
-x,-y,-z
1/2+x,1/2+y,-z
1/2-x,y,z
x,1/2-y,z
loop_
_atom_site_type_symbol
_atom_site_label
_atom_site_fract_x
_atom_site_fract_y
_atom_site_fract_z
Si Si1 0.171428 0.073963 0.888400
Si Si2 0.044555 0.069537 0.656100
Si Si3 0.673901 0.072213 0.739661
Si Si4 0.600797 0.427433 0.612908
Si Si5 0.937555 0.429524 0.202749
Si Si6 0.825279 0.568722 0.961767
Si Si7 0.580826 0.929357 0.846284
Si Si8 0.430704 0.929942 0.525976
O O1 0.250000 0.050235 0.871251
O O2 0.150843 0.250000 0.879360
O O3 0.127958 0.970240 0.839765
O O4 0.156380 0.018319 0.963550
O O5 0.048957 0.250000 0.660068
O O6 0.969554 0.001946 0.641049
O O7 0.070890 0.004268 0.725373
O O8 0.091916 0.010136 0.594875
O O9 0.750000 0.028649 0.758243
O O10 0.659057 0.250000 0.752689
O O11 0.661864 0.029331 0.662171
O O12 0.624082 0.970974 0.782280
O O13 0.585638 0.250000 0.614674
O O14 0.619596 0.470463 0.536318
O O15 0.942675 0.250000 0.212294
O O16 0.004704 0.492211 0.164270
O O17 0.750000 0.507325 0.942496
O O18 0.823519 0.750000 0.958121
O O19 0.882019 0.500351 0.911638
O O20 0.578741 0.750000 0.854293
O O21 0.436831 0.750000 0.538025
O O22 0.500000 0.000000 0.500000
#
# Coordination Sequence:
#
# PCOD8239837 Si02
#       8
#     8   8   8   8   8   8   8   8
#     4   9  19  37  59  78  96 129 174 212 255 318
#     4  10  18  31  50  71  99 134 170 212 261 309
#     4  10  19  31  48  71 102 141 180 213 250 303
#     4   8  15  28  45  67  96 130 167 209 255 300
#     4  11  22  33  50  79 110 137 166 213 267 313
#     4   8  15  31  54  75  99 135 177 214 249 300
#     4  10  20  33  50  75 106 138 174 214 256 304
#     4   9  16  27  45  69  97 129 169 214 258 309
#
# _framework density 18.326681000000001
#
# number of rings (size 3 to 8) (size 9 to 14) (size 15 to 20)
#    0.000    2.625    1.250    3.000    0.000    2.000 
#    0.000    1.250    0.000    1.500    0.000    1.750 
#    0.000    0.000    0.000    0.000    0.000    0.000 
#
# Total GULP energy -793037.424293 kJ/mol
# GULP energy per Si atom -12391.209755 kJ/mol
# Density = 1.828497 g / cm^3
# Si number density = 18.326681 Si / 1000 Ang^3
#
#
#
# Elastic Constant Matrix: (Units=GPa)
#
#
# Indices 1 2 3 4 5 6 
#
# 1 64.5237 14.3752 51.6693 0.0000 0.0000 0.0000
# 2 14.3752 35.6772 29.5779 0.0000 0.0000 0.0000
# 3 51.6693 29.5779 147.7483 0.0000 0.0000 0.0000
# 4 0.0000 0.0000 0.0000 25.8165 0.0000 0.0000
# 5 0.0000 0.0000 0.0000 0.0000 22.9996 0.0000
# 6 0.0000 0.0000 0.0000 0.0000 0.0000 16.2420
#
#
#
# Elastic Compliance Matrix: (Units=1/GPa)
#
#
# Indices 1 2 3 4 5 6 
#
# 1 0.021783 -0.002951 -0.007027 0.000000 0.000000 0.000000
# 2 -0.002951 0.034006 -0.005776 0.000000 0.000000 0.000000
# 3 -0.007027 -0.005776 0.010382 0.000000 0.000000 0.000000
# 4 0.000000 0.000000 0.000000 0.038735 0.000000 0.000000
# 5 0.000000 0.000000 0.000000 0.000000 0.043479 0.000000
# 6 0.000000 0.000000 0.000000 0.000000 0.000000 0.061569
#
#
# Mechanical properties :
#
#
# Convention : Reuss Voigt Hill
#
# Bulk Modulus (GPa) = 28.84881 48.79934 38.82408
# Shear Modulus (GPa) = 19.76164 23.16676 21.46420
#
# Velocity S-wave (km/s) = 3.28731 3.55928 3.42599
# Velocity P-wave (km/s) = 5.49401 6.60125 6.07292
#
# Compressibility (1/GPa) = 0.03466347
#
# Stress axis : x y z
#
# Youngs Moduli (GPa) = 45.90818 29.40615 96.32170
#
# Poissons Ratio (x) = 0.08678 0.67684
# Poissons Ratio (y) = 0.13548 0.55633
# Poissons Ratio (z) = 0.32259 0.16984
#
# Static dielectric constant tensor:
#      x y z
#    x 3.281360 0.000000 0.000000 
#    y 0.000000 3.147690 0.000000 
#    z 0.000000 0.000000 3.826190 
# 
# 
# High freq. dielectric constant tensor:
#      x y z
#    x 1.677240 0.000000 0.000000 
#    y 0.000000 1.687640 0.000000 
#    z 0.000000 0.000000 1.727250 
# 
# From -- ./inp_files/30819.got.cif
#   From: 2010.03.12/outbox.cif.g09.slc.cpg/sg59_16_cif.got.tgz:30819.got - 2010.04.16 16:29:54.
