data_PCOD8239152
_publ_section_title
;
Structure prediction by ZEFSAII (Michael W. Deem and Ramdas Pophale) SiO2 
 PCOD8239152
Probable space group: P M M N
;
_chemical_formula_sum "Si O2"
_cell_formula_units_Z 64
_cell_length_a 9.175200
_cell_length_b 23.437442
_cell_length_c 18.982012
_cell_angle_alpha 90.000000
_cell_angle_beta 90.000000
_cell_angle_gamma 90.000000
_cell_volume 4081.952942
_symmetry_space_group_name_H-M "P M M N"
_symmetry_group_IT_number 59
_space_group.IT_coordinate_system_code '2'
_symmetry_cell_setting 'orthorhombic'
loop_
_space_group_symop_operation_xyz
x,y,z
1/2-x,1/2-y,z
1/2+x,-y,-z
-x,1/2+y,-z
-x,-y,-z
1/2+x,1/2+y,-z
1/2-x,y,z
x,1/2-y,z
loop_
_atom_site_type_symbol
_atom_site_label
_atom_site_fract_x
_atom_site_fract_y
_atom_site_fract_z
Si Si1 0.417053 0.513062 0.100558
Si Si2 0.581496 0.999555 0.743795
Si Si3 0.580177 0.412312 0.028921
Si Si4 0.577802 0.687358 0.611421
Si Si5 0.919008 0.919455 0.528337
Si Si6 0.422978 0.369597 0.247237
Si Si7 0.080157 0.017294 0.608831
Si Si8 0.422305 0.184333 0.101777
O O1 0.250000 0.492177 0.091014
O O2 0.445174 0.531060 0.181523
O O3 0.519063 0.460003 0.081760
O O4 0.449677 0.567591 0.051424
O O5 0.750000 0.000691 0.721904
O O6 0.491959 0.032883 0.683617
O O7 0.523365 0.934806 0.750804
O O8 0.750000 0.404413 0.044252
O O9 0.499266 0.352253 0.040408
O O10 0.750000 0.692009 0.619377
O O11 0.510768 0.750000 0.596339
O O12 0.537753 0.645671 0.546351
O O13 0.513129 0.662983 0.684609
O O14 0.750000 0.931518 0.546235
O O15 0.951469 0.931276 0.446126
O O16 0.012521 0.959439 0.578846
O O17 0.250000 0.367789 0.247509
O O18 0.480517 0.338204 0.177177
O O19 0.250000 0.007546 0.620040
O O20 0.250000 0.176436 0.095035
O O21 0.468086 0.250000 0.092680
#
# Coordination Sequence:
#
# PCOD8239152 Si02
#       8
#     8   8   8   8   8   8   8   8
#     4   9  18  32  48  65  88 120 154 186 226 278
#     4  10  17  29  48  65  87 119 151 181 217 266
#     4  10  19  30  46  68  92 117 150 193 233 267
#     4   9  15  24  42  65  84 108 148 187 211 239
#     4   9  17  30  44  62  87 117 149 182 220 263
#     4   9  15  25  42  64  88 115 149 183 206 244
#     4  10  19  28  42  64  91 116 145 183 224 266
#     4  10  19  31  47  66  91 125 160 187 217 265
#
# _framework density 15.67877
#
# number of rings (size 3 to 8) (size 9 to 14) (size 15 to 20)
#    0.000    2.500    2.500    1.125    0.000    3.250 
#    0.000    0.000    0.000    0.375    0.000    0.875 
#    0.000    3.000    0.000    0.000    0.000    0.000 
#
# Total GULP energy -793430.622544 kJ/mol
# GULP energy per Si atom -12397.353477 kJ/mol
# Density = 1.564308 g / cm^3
# Si number density = 15.678770 Si / 1000 Ang^3
#
#
#
# Elastic Constant Matrix: (Units=GPa)
#
#
# Indices 1 2 3 4 5 6 
#
# 1 46.8186 29.1421 42.0682 0.0000 0.0000 0.0000
# 2 29.1421 95.1015 62.6126 0.0000 0.0000 0.0000
# 3 42.0682 62.6126 124.6088 0.0000 0.0000 0.0000
# 4 0.0000 0.0000 0.0000 24.3635 0.0000 0.0000
# 5 0.0000 0.0000 0.0000 0.0000 24.3964 0.0000
# 6 0.0000 0.0000 0.0000 0.0000 0.0000 18.1323
#
#
#
# Elastic Compliance Matrix: (Units=1/GPa)
#
#
# Indices 1 2 3 4 5 6 
#
# 1 0.031636 -0.003979 -0.008681 0.000000 0.000000 0.000000
# 2 -0.003979 0.016214 -0.006804 0.000000 0.000000 0.000000
# 3 -0.008681 -0.006804 0.014375 0.000000 0.000000 0.000000
# 4 0.000000 0.000000 0.000000 0.041045 0.000000 0.000000
# 5 0.000000 0.000000 0.000000 0.000000 0.040990 0.000000
# 6 0.000000 0.000000 0.000000 0.000000 0.000000 0.055150
#
#
# Mechanical properties :
#
#
# Convention : Reuss Voigt Hill
#
# Bulk Modulus (GPa) = 42.92410 59.35274 51.13842
# Shear Modulus (GPa) = 20.31679 22.22550 21.27115
#
# Velocity S-wave (km/s) = 3.60365 3.76913 3.68732
# Velocity P-wave (km/s) = 6.68967 7.54184 7.12850
#
# Compressibility (1/GPa) = 0.02329693
#
# Stress axis : x y z
#
# Youngs Moduli (GPa) = 31.60968 61.67625 69.56744
#
# Poissons Ratio (x) = 0.24540 0.60392
# Poissons Ratio (y) = 0.12577 0.47332
# Poissons Ratio (z) = 0.27441 0.41963
#
# Static dielectric constant tensor:
#      x y z
#    x 2.817060 0.000000 0.000000 
#    y 0.000000 2.953450 0.000000 
#    z 0.000000 0.000000 3.149120 
# 
# 
# High freq. dielectric constant tensor:
#      x y z
#    x 1.582050 0.000000 0.000000 
#    y 0.000000 1.575180 0.000000 
#    z 0.000000 0.000000 1.601000 
# 
# From -- ./inp_files/29742.got.cif
#   From: 2010.03.12/outbox.cif.g09.slc.cpg/sg59_15_cif.got.tgz:29742.got - 2010.04.16 16:29:54.
