data_PCOD8239175
_publ_section_title
;
Structure prediction by ZEFSAII (Michael W. Deem and Ramdas Pophale) SiO2 
 PCOD8239175
Probable space group: P M M N
;
_chemical_formula_sum "Si O2"
_cell_formula_units_Z 56
_cell_length_a 23.882855
_cell_length_b 23.238545
_cell_length_c 6.492373
_cell_angle_alpha 90.000000
_cell_angle_beta 90.000000
_cell_angle_gamma 90.000000
_cell_volume 3603.285198
_symmetry_space_group_name_H-M "P M M N"
_symmetry_group_IT_number 59
_space_group.IT_coordinate_system_code '2'
_symmetry_cell_setting 'orthorhombic'
loop_
_space_group_symop_operation_xyz
x,y,z
1/2-x,1/2-y,z
1/2+x,-y,-z
-x,1/2+y,-z
-x,-y,-z
1/2+x,1/2+y,-z
1/2-x,y,z
x,1/2-y,z
loop_
_atom_site_type_symbol
_atom_site_label
_atom_site_fract_x
_atom_site_fract_y
_atom_site_fract_z
Si Si1 0.365178 0.352822 0.742150
Si Si2 0.540417 0.815919 0.569441
Si Si3 0.923163 0.519153 0.608066
Si Si4 0.007714 0.913668 0.340495
Si Si5 0.951078 0.604171 0.946810
Si Si6 0.684227 0.811556 0.870574
Si Si7 0.686122 0.917257 0.598559
O O1 0.404368 0.321519 0.573599
O O2 0.317808 0.390852 0.629538
O O3 0.400077 0.393542 0.893877
O O4 0.332355 0.308666 0.888892
O O5 0.521185 0.750000 0.581353
O O6 0.490384 0.853739 0.467431
O O7 0.550194 0.838739 0.802558
O O8 0.937167 0.451277 0.606856
O O9 0.949943 0.546368 0.813503
O O10 0.855914 0.528295 0.611196
O O11 0.951452 0.551417 0.413320
O O12 0.005761 0.900006 0.095564
O O13 0.750000 0.814421 0.844544
O O14 0.662800 0.750000 0.773959
O O15 0.661216 0.868227 0.753778
O O16 0.750000 0.936321 0.646460
#
# Coordination Sequence:
#
# PCOD8239175 Si02
#       7
#     8   8   8   8   8   8   8
#     4  11  18  32  44  63  86 122 157 190 232 268
#     4  10  20  31  45  70  95 118 154 195 232 273
#     4  10  17  34  48  69  90 113 158 192 231 279
#     4   9  19  31  52  67  88 121 150 191 233 277
#     4  10  17  30  46  67  86 119 150 190 225 272
#     4  10  21  33  43  57  81 119 165 204 235 267
#     4  11  21  33  47  66  92 120 155 200 238 271
#
# _framework density 15.541372000000001
#
# number of rings (size 3 to 8) (size 9 to 14) (size 15 to 20)
#    0.000    1.857    5.714    1.286    0.000    5.143 
#    0.000    1.429    0.000    0.000    0.000    0.000 
#    0.000    0.571    0.000    0.286    0.000    0.000 
#
# Total GULP energy -693742.064130 kJ/mol
# GULP energy per Si atom -12388.251145 kJ/mol
# Density = 1.550600 g / cm^3
# Si number density = 15.541372 Si / 1000 Ang^3
#
#
#
# Elastic Constant Matrix: (Units=GPa)
#
#
# Indices 1 2 3 4 5 6 
#
# 1 62.4355 38.4626 18.8922 0.0000 0.0000 0.0000
# 2 38.4626 76.7753 25.6644 0.0000 0.0000 0.0000
# 3 18.8922 25.6644 87.7262 0.0000 0.0000 0.0000
# 4 0.0000 0.0000 0.0000 15.0700 0.0000 0.0000
# 5 0.0000 0.0000 0.0000 0.0000 16.3913 0.0000
# 6 0.0000 0.0000 0.0000 0.0000 0.0000 16.4605
#
#
#
# Elastic Compliance Matrix: (Units=1/GPa)
#
#
# Indices 1 2 3 4 5 6 
#
# 1 0.023416 -0.011134 -0.001785 0.000000 0.000000 0.000000
# 2 -0.011134 0.019731 -0.003375 0.000000 0.000000 0.000000
# 3 -0.001785 -0.003375 0.012771 0.000000 0.000000 0.000000
# 4 0.000000 0.000000 0.000000 0.066357 0.000000 0.000000
# 5 0.000000 0.000000 0.000000 0.000000 0.061008 0.000000
# 6 0.000000 0.000000 0.000000 0.000000 0.000000 0.060752
#
#
# Mechanical properties :
#
#
# Convention : Reuss Voigt Hill
#
# Bulk Modulus (GPa) = 42.86394 43.66395 43.26394
# Shear Modulus (GPa) = 17.58098 19.17887 18.37993
#
# Velocity S-wave (km/s) = 3.36704 3.51672 3.44269
# Velocity P-wave (km/s) = 6.53883 6.68177 6.61069
#
# Compressibility (1/GPa) = 0.02332964
#
# Stress axis : x y z
#
# Youngs Moduli (GPa) = 42.70653 50.68209 78.30339
#
# Poissons Ratio (x) = 0.56429 0.13981
# Poissons Ratio (y) = 0.47549 0.26424
# Poissons Ratio (z) = 0.07625 0.17103
#
# Static dielectric constant tensor:
#      x y z
#    x 2.723040 0.000000 0.000000 
#    y 0.000000 2.949690 0.000000 
#    z 0.000000 0.000000 3.410030 
# 
# 
# High freq. dielectric constant tensor:
#      x y z
#    x 1.553680 0.000000 0.000000 
#    y 0.000000 1.568490 0.000000 
#    z 0.000000 0.000000 1.619220 
# 
# From -- ./inp_files/3906.got.cif
#   From: 2010.03.12/outbox.cif.g09.slc.cpg/sg59_2_cif.got.tgz:3906.got - 2010.04.16 16:29:54.
