data_PCOD8239357
_publ_section_title
;
Structure prediction by ZEFSAII (Michael W. Deem and Ramdas Pophale) SiO2 
 PCOD8239357
Probable space group: P M M N
;
_chemical_formula_sum "Si O2"
_cell_formula_units_Z 64
_cell_length_a 9.192271
_cell_length_b 24.470202
_cell_length_c 18.535835
_cell_angle_alpha 90.000000
_cell_angle_beta 90.000000
_cell_angle_gamma 90.000000
_cell_volume 4169.390080
_symmetry_space_group_name_H-M "P M M N"
_symmetry_group_IT_number 59
_space_group.IT_coordinate_system_code '2'
_symmetry_cell_setting 'orthorhombic'
loop_
_space_group_symop_operation_xyz
x,y,z
1/2-x,1/2-y,z
1/2+x,-y,-z
-x,1/2+y,-z
-x,-y,-z
1/2+x,1/2+y,-z
1/2-x,y,z
x,1/2-y,z
loop_
_atom_site_type_symbol
_atom_site_label
_atom_site_fract_x
_atom_site_fract_y
_atom_site_fract_z
Si Si1 0.914484 0.578860 0.532100
Si Si2 0.412983 0.185817 0.224250
Si Si3 0.918040 0.501571 0.272241
Si Si4 0.085839 0.958422 0.402690
Si Si5 0.581568 0.382718 0.336083
Si Si6 0.079158 0.011971 0.891202
Si Si7 0.081763 0.812058 0.918945
Si Si8 0.418583 0.581711 0.000293
O O1 0.750000 0.600732 0.523565
O O2 0.913707 0.517996 0.562667
O O3 0.993523 0.581346 0.454552
O O4 0.003339 0.617211 0.586498
O O5 0.250000 0.160892 0.226520
O O6 0.407176 0.250000 0.232998
O O7 0.509000 0.164343 0.289531
O O8 0.485914 0.169909 0.148727
O O9 0.750000 0.518601 0.279866
O O10 0.940574 0.439070 0.294000
O O11 0.976246 0.508333 0.190897
O O12 0.011775 0.540709 0.324019
O O13 0.250000 0.936061 0.395232
O O14 0.750000 0.369326 0.348504
O O15 0.250000 0.020809 0.893061
O O16 0.034564 0.956326 0.932623
O O17 0.006748 0.064571 0.928721
O O18 0.250000 0.817280 0.895583
O O19 0.046280 0.750000 0.944697
O O20 0.046265 0.854843 0.982774
O O21 0.250000 0.573248 0.017560
#
# Coordination Sequence:
#
# PCOD8239357 Si02
#       8
#     8   8   8   8   8   8   8   8
#     4   9  16  26  39  56  80 108 136 165 198 234
#     4  10  20  31  42  59  83 108 136 172 210 246
#     4   9  17  28  41  58  81 109 140 172 206 245
#     4   9  16  25  38  57  80 106 136 167 198 234
#     4  10  18  28  43  60  80 108 141 174 205 241
#     4   9  17  28  41  58  82 112 141 169 206 251
#     4   9  17  30  47  63  80 106 139 174 212 251
#     4   9  17  29  43  60  82 107 138 174 209 248
#
# _framework density 15.349966999999999
#
# number of rings (size 3 to 8) (size 9 to 14) (size 15 to 20)
#    0.000    2.750    0.000    2.250    0.000    7.250 
#    0.000    2.500    0.000    0.000    0.000    0.000 
#    0.000    1.000    0.000    6.500    0.000    4.500 
#
# Total GULP energy -793551.254646 kJ/mol
# GULP energy per Si atom -12399.238354 kJ/mol
# Density = 1.531503 g / cm^3
# Si number density = 15.349967 Si / 1000 Ang^3
#
#
#
# Elastic Constant Matrix: (Units=GPa)
#
#
# Indices 1 2 3 4 5 6 
#
# 1 86.0490 18.8264 45.5308 0.0000 0.0000 0.0000
# 2 18.8264 35.9318 22.8916 0.0000 0.0000 0.0000
# 3 45.5308 22.8916 105.3133 0.0000 0.0000 0.0000
# 4 0.0000 0.0000 0.0000 23.3676 0.0000 0.0000
# 5 0.0000 0.0000 0.0000 0.0000 30.1101 0.0000
# 6 0.0000 0.0000 0.0000 0.0000 0.0000 19.1873
#
#
#
# Elastic Compliance Matrix: (Units=1/GPa)
#
#
# Indices 1 2 3 4 5 6 
#
# 1 0.015677 -0.004522 -0.005795 0.000000 0.000000 0.000000
# 2 -0.004522 0.033608 -0.005350 0.000000 0.000000 0.000000
# 3 -0.005795 -0.005350 0.013164 0.000000 0.000000 0.000000
# 4 0.000000 0.000000 0.000000 0.042794 0.000000 0.000000
# 5 0.000000 0.000000 0.000000 0.000000 0.033211 0.000000
# 6 0.000000 0.000000 0.000000 0.000000 0.000000 0.052118
#
#
# Mechanical properties :
#
#
# Convention : Reuss Voigt Hill
#
# Bulk Modulus (GPa) = 32.13909 44.64352 38.39131
# Shear Modulus (GPa) = 21.52590 23.86935 22.69762
#
# Velocity S-wave (km/s) = 3.74885 3.94764 3.84953
# Velocity P-wave (km/s) = 6.30250 7.06579 6.69503
#
# Compressibility (1/GPa) = 0.03111475
#
# Stress axis : x y z
#
# Youngs Moduli (GPa) = 63.78863 29.75444 75.96641
#
# Poissons Ratio (x) = 0.13455 0.44020
# Poissons Ratio (y) = 0.28846 0.40644
# Poissons Ratio (z) = 0.36964 0.15920
#
# Static dielectric constant tensor:
#      x y z
#    x 3.129910 0.000000 0.000000 
#    y 0.000000 2.659100 0.000000 
#    z 0.000000 0.000000 2.951670 
# 
# 
# High freq. dielectric constant tensor:
#      x y z
#    x 1.601280 0.000000 0.000000 
#    y 0.000000 1.543180 0.000000 
#    z 0.000000 0.000000 1.580450 
# 
# From -- ./inp_files/26574.got.cif
#   From: 2010.03.12/outbox.cif.g09.slc.cpg/sg59_14_cif.got.tgz:26574.got - 2010.04.16 16:29:54.
