data_PCOD8239560
_publ_section_title
;
Structure prediction by ZEFSAII (Michael W. Deem and Ramdas Pophale) SiO2 
 PCOD8239560
Probable space group: P M M N
;
_chemical_formula_sum "Si O2"
_cell_formula_units_Z 64
_cell_length_a 9.163820
_cell_length_b 18.653496
_cell_length_c 21.876644
_cell_angle_alpha 90.000000
_cell_angle_beta 90.000000
_cell_angle_gamma 90.000000
_cell_volume 3739.534015
_symmetry_space_group_name_H-M "P M M N"
_symmetry_group_IT_number 59
_space_group.IT_coordinate_system_code '2'
_symmetry_cell_setting 'orthorhombic'
loop_
_space_group_symop_operation_xyz
x,y,z
1/2-x,1/2-y,z
1/2+x,-y,-z
-x,1/2+y,-z
-x,-y,-z
1/2+x,1/2+y,-z
1/2-x,y,z
x,1/2-y,z
loop_
_atom_site_type_symbol
_atom_site_label
_atom_site_fract_x
_atom_site_fract_y
_atom_site_fract_z
Si Si1 0.079209 0.167551 0.360457
Si Si2 0.587909 0.607341 0.017684
Si Si3 0.579647 0.332499 0.870805
Si Si4 0.578650 0.826827 0.503287
Si Si5 0.077034 0.042279 0.804745
Si Si6 0.589137 0.044319 0.081864
Si Si7 0.420671 0.466350 0.556927
Si Si8 0.422324 0.964723 0.681979
O O1 0.250000 0.152292 0.354056
O O2 0.043323 0.250000 0.343108
O O3 0.020203 0.150577 0.429324
O O4 0.995578 0.113760 0.314614
O O5 0.750000 0.640875 0.011736
O O6 0.491669 0.656069 0.062632
O O7 0.598863 0.527334 0.042281
O O8 0.514842 0.603103 0.950246
O O9 0.750000 0.351885 0.875492
O O10 0.556359 0.250000 0.850829
O O11 0.505122 0.383483 0.820018
O O12 0.750000 0.818810 0.512496
O O13 0.511034 0.750000 0.484139
O O14 0.542193 0.881846 0.449025
O O15 0.250000 0.057134 0.810310
O O16 0.029758 0.978943 0.851487
O O17 0.029611 0.014836 0.738184
O O18 0.750000 0.078915 0.087410
O O19 0.500000 0.500000 0.500000
O O20 0.250000 0.481904 0.550351
O O21 0.479597 0.494504 0.621393
O O22 0.250000 0.953832 0.682163
#
# Coordination Sequence:
#
# PCOD8239560 Si02
#       8
#     8   8   8   8   8   8   8   8
#     4   9  17  30  49  71  93 121 157 194 239 301
#     4   9  16  26  45  72  97 121 151 192 241 285
#     4  10  20  33  50  73 100 132 172 212 248 290
#     4   8  14  26  44  65  90 120 154 191 235 292
#     4   9  19  34  49  69  99 135 173 208 248 298
#     4   8  14  26  44  65  92 123 154 192 233 279
#     4  10  18  29  47  70  96 124 157 201 252 300
#     4  10  20  32  48  74 102 127 163 210 254 301
#
# _framework density 17.114431
#
# number of rings (size 3 to 8) (size 9 to 14) (size 15 to 20)
#    0.000    2.875    1.250    2.250    0.000    4.750 
#    0.000    0.625    0.000    3.375    0.000    1.750 
#    0.000    0.000    0.000    0.000    0.000    0.000 
#
# Total GULP energy -793132.128250 kJ/mol
# GULP energy per Si atom -12392.689504 kJ/mol
# Density = 1.707548 g / cm^3
# Si number density = 17.114431 Si / 1000 Ang^3
#
#
#
# Elastic Constant Matrix: (Units=GPa)
#
#
# Indices 1 2 3 4 5 6 
#
# 1 66.1452 45.8883 43.5816 0.0000 0.0000 0.0000
# 2 45.8883 97.4233 59.5567 0.0000 0.0000 0.0000
# 3 43.5816 59.5567 116.3426 0.0000 0.0000 0.0000
# 4 0.0000 0.0000 0.0000 19.6496 0.0000 0.0000
# 5 0.0000 0.0000 0.0000 0.0000 21.2576 0.0000
# 6 0.0000 0.0000 0.0000 0.0000 0.0000 23.9098
#
#
#
# Elastic Compliance Matrix: (Units=1/GPa)
#
#
# Indices 1 2 3 4 5 6 
#
# 1 0.024088 -0.008485 -0.004680 0.000000 0.000000 0.000000
# 2 -0.008485 0.017929 -0.005999 0.000000 0.000000 0.000000
# 3 -0.004680 -0.005999 0.013419 0.000000 0.000000 0.000000
# 4 0.000000 0.000000 0.000000 0.050892 0.000000 0.000000
# 5 0.000000 0.000000 0.000000 0.000000 0.047042 0.000000
# 6 0.000000 0.000000 0.000000 0.000000 0.000000 0.041824
#
#
# Mechanical properties :
#
#
# Convention : Reuss Voigt Hill
#
# Bulk Modulus (GPa) = 58.45277 64.21826 61.33552
# Shear Modulus (GPa) = 20.90082 21.68902 21.29492
#
# Velocity S-wave (km/s) = 3.49841 3.56377 3.53124
# Velocity P-wave (km/s) = 7.10963 7.38500 7.24862
#
# Compressibility (1/GPa) = 0.01710783
#
# Stress axis : x y z
#
# Youngs Moduli (GPa) = 41.51390 55.77650 74.51893
#
# Poissons Ratio (x) = 0.47328 0.34873
# Poissons Ratio (y) = 0.35226 0.44706
# Poissons Ratio (z) = 0.19427 0.33462
#
# Static dielectric constant tensor:
#      x y z
#    x 3.191070 0.000000 0.000000 
#    y 0.000000 2.865220 0.000000 
#    z 0.000000 0.000000 3.260620 
# 
# 
# High freq. dielectric constant tensor:
#      x y z
#    x 1.650330 0.000000 0.000000 
#    y 0.000000 1.646470 0.000000 
#    z 0.000000 0.000000 1.640550 
# 
# From -- ./inp_files/31735.got.cif
#   From: 2010.03.12/outbox.cif.g09.slc.cpg/sg59_16_cif.got.tgz:31735.got - 2010.04.16 16:29:54.
