data_PCOD8239099
_publ_section_title
;
Structure prediction by ZEFSAII (Michael W. Deem and Ramdas Pophale) SiO2 
 PCOD8239099
Probable space group: P M M N
;
_chemical_formula_sum "Si O2"
_cell_formula_units_Z 56
_cell_length_a 8.801765
_cell_length_b 27.151742
_cell_length_c 14.424558
_cell_angle_alpha 90.000000
_cell_angle_beta 90.000000
_cell_angle_gamma 90.000000
_cell_volume 3447.227786
_symmetry_space_group_name_H-M "P M M N"
_symmetry_group_IT_number 59
_space_group.IT_coordinate_system_code '2'
_symmetry_cell_setting 'orthorhombic'
loop_
_space_group_symop_operation_xyz
x,y,z
1/2-x,1/2-y,z
1/2+x,-y,-z
-x,1/2+y,-z
-x,-y,-z
1/2+x,1/2+y,-z
1/2-x,y,z
x,1/2-y,z
loop_
_atom_site_type_symbol
_atom_site_label
_atom_site_fract_x
_atom_site_fract_y
_atom_site_fract_z
Si Si1 0.078944 0.118785 0.485350
Si Si2 0.077287 0.044456 0.644557
Si Si3 0.074216 0.033301 0.120923
Si Si4 0.068873 0.194015 0.631406
Si Si5 0.927640 0.377108 0.770718
Si Si6 0.573173 0.932345 0.076604
Si Si7 0.928455 0.556980 0.676255
O O1 0.250000 0.136727 0.471561
O O2 0.068082 0.068360 0.543271
O O3 0.999702 0.163497 0.542860
O O4 0.013254 0.105003 0.382861
O O5 0.250000 0.046822 0.682234
O O6 0.968862 0.073946 0.714032
O O7 0.020911 0.989058 0.637513
O O8 0.250000 0.016800 0.115165
O O9 0.041116 0.064648 0.214152
O O10 0.031496 0.067124 0.032730
O O11 0.973722 0.984225 0.122808
O O12 0.250000 0.189517 0.634792
O O13 0.013298 0.250000 0.622764
O O14 0.006886 0.170902 0.726734
O O15 0.750000 0.367845 0.770885
O O16 0.985272 0.386655 0.875842
O O17 0.750000 0.924285 0.093248
O O18 0.750000 0.548452 0.656568
#
# Coordination Sequence:
#
# PCOD8239099 Si02
#       7
#     8   8   8   8   8   8   8
#     4   8  16  28  43  64  89 116 147 181 221 269
#     4  10  18  28  41  61  89 122 156 185 217 262
#     4   9  18  28  41  62  89 123 159 191 224 259
#     4   9  18  34  53  71  91 115 145 183 229 280
#     4  11  20  30  46  67  91 119 153 191 231 275
#     4  10  18  29  43  61  88 122 158 194 227 265
#     4  10  17  27  42  62  90 122 153 186 221 261
#
# _framework density 16.244938000000001
#
# number of rings (size 3 to 8) (size 9 to 14) (size 15 to 20)
#    0.000    2.429    1.429    3.429    0.000    0.857 
#    0.000    2.857    0.000    0.000    0.000    1.000 
#    0.000    5.714    0.000    0.000    0.000    0.429 
#
# Total GULP energy -693986.215539 kJ/mol
# GULP energy per Si atom -12392.610992 kJ/mol
# Density = 1.620796 g / cm^3
# Si number density = 16.244938 Si / 1000 Ang^3
#
#
#
# Elastic Constant Matrix: (Units=GPa)
#
#
# Indices 1 2 3 4 5 6 
#
# 1 43.3248 23.9363 27.1013 0.0000 0.0000 0.0000
# 2 23.9363 96.4246 61.7406 0.0000 0.0000 0.0000
# 3 27.1013 61.7406 117.6461 0.0000 0.0000 0.0000
# 4 0.0000 0.0000 0.0000 17.2426 0.0000 0.0000
# 5 0.0000 0.0000 0.0000 0.0000 16.2813 0.0000
# 6 0.0000 0.0000 0.0000 0.0000 0.0000 17.1241
#
#
#
# Elastic Compliance Matrix: (Units=1/GPa)
#
#
# Indices 1 2 3 4 5 6 
#
# 1 0.028084 -0.004261 -0.004233 0.000000 0.000000 0.000000
# 2 -0.004261 0.016266 -0.007555 0.000000 0.000000 0.000000
# 3 -0.004233 -0.007555 0.013440 0.000000 0.000000 0.000000
# 4 0.000000 0.000000 0.000000 0.057996 0.000000 0.000000
# 5 0.000000 0.000000 0.000000 0.000000 0.061420 0.000000
# 6 0.000000 0.000000 0.000000 0.000000 0.000000 0.058397
#
#
# Mechanical properties :
#
#
# Convention : Reuss Voigt Hill
#
# Bulk Modulus (GPa) = 38.92324 53.66132 46.29228
# Shear Modulus (GPa) = 18.09859 19.77075 18.93467
#
# Velocity S-wave (km/s) = 3.34144 3.49240 3.41775
# Velocity P-wave (km/s) = 6.23693 7.02615 6.64327
#
# Compressibility (1/GPa) = 0.02569159
#
# Stress axis : x y z
#
# Youngs Moduli (GPa) = 35.60795 61.47875 74.40482
#
# Poissons Ratio (x) = 0.26195 0.31498
# Poissons Ratio (y) = 0.15172 0.56211
# Poissons Ratio (z) = 0.15074 0.46446
#
# Static dielectric constant tensor:
#      x y z
#    x 2.976800 0.000000 0.000000 
#    y 0.000000 2.852870 0.000000 
#    z 0.000000 0.000000 3.383200 
# 
# 
# High freq. dielectric constant tensor:
#      x y z
#    x 1.616470 0.000000 0.000000 
#    y 0.000000 1.577010 0.000000 
#    z 0.000000 0.000000 1.631430 
# 
# From -- ./inp_files/21775.got.cif
#   From: 2010.03.12/outbox.cif.g09.slc.cpg/sg59_11_cif.got.tgz:21775.got - 2010.04.16 16:29:54.
