data_PCOD8239575
_publ_section_title
;
Structure prediction by ZEFSAII (Michael W. Deem and Ramdas Pophale) SiO2 
 PCOD8239575
Probable space group: P M M N
;
_chemical_formula_sum "Si O2"
_cell_formula_units_Z 64
_cell_length_a 9.210548
_cell_length_b 27.736050
_cell_length_c 14.593586
_cell_angle_alpha 90.000000
_cell_angle_beta 90.000000
_cell_angle_gamma 90.000000
_cell_volume 3728.139062
_symmetry_space_group_name_H-M "P M M N"
_symmetry_group_IT_number 59
_space_group.IT_coordinate_system_code '2'
_symmetry_cell_setting 'orthorhombic'
loop_
_space_group_symop_operation_xyz
x,y,z
1/2-x,1/2-y,z
1/2+x,-y,-z
-x,1/2+y,-z
-x,-y,-z
1/2+x,1/2+y,-z
1/2-x,y,z
x,1/2-y,z
loop_
_atom_site_type_symbol
_atom_site_label
_atom_site_fract_x
_atom_site_fract_y
_atom_site_fract_z
Si Si1 0.084123 0.077362 0.164900
Si Si2 0.077495 0.196775 0.851697
Si Si3 0.918913 0.465833 0.842196
Si Si4 0.920258 0.888168 0.482164
Si Si5 0.922274 0.696295 0.353244
Si Si6 0.080245 0.106894 0.966087
Si Si7 0.580375 0.420262 0.344373
Si Si8 0.082411 0.468682 0.661474
O O1 0.250000 0.082965 0.197653
O O2 0.981240 0.096151 0.246004
O O3 0.050530 0.021999 0.140622
O O4 0.052210 0.109163 0.074921
O O5 0.250000 0.196995 0.851359
O O6 0.021052 0.250000 0.881436
O O7 0.020150 0.184666 0.749254
O O8 0.020078 0.156649 0.922506
O O9 0.750000 0.453340 0.840423
O O10 0.993700 0.437834 0.924887
O O11 0.987489 0.449317 0.745777
O O12 0.750000 0.882923 0.502237
O O13 0.982776 0.842856 0.424677
O O14 0.954533 0.937080 0.427170
O O15 0.004281 0.888712 0.577723
O O16 0.750000 0.692931 0.351819
O O17 0.972435 0.750000 0.383144
O O18 0.250000 0.099074 0.944886
O O19 0.750000 0.409693 0.346381
O O20 0.543397 0.476286 0.362064
O O21 0.250000 0.462999 0.690168
#
# Coordination Sequence:
#
# PCOD8239575 Si02
#       8
#     8   8   8   8   8   8   8   8
#     4   9  19  33  46  63  90 125 161 194 228 267
#     4   8  14  26  46  72  97 117 142 181 227 273
#     4  10  19  29  43  66  96 126 155 188 225 269
#     4  10  18  29  48  69  90 118 151 187 228 273
#     4   8  14  25  43  69  96 117 140 175 221 272
#     4  10  18  29  48  70  92 120 154 190 229 273
#     4  10  20  32  46  65  91 122 156 193 229 269
#     4   9  18  31  46  66  92 123 156 188 226 272
#
# _framework density 17.166740999999998
#
# number of rings (size 3 to 8) (size 9 to 14) (size 15 to 20)
#    0.000    2.750    0.000    3.000    0.000    4.000 
#    0.000    0.000    0.000    1.500    0.000    5.250 
#    0.000    0.000    0.000    0.000    0.000    0.000 
#
# Total GULP energy -793555.492195 kJ/mol
# GULP energy per Si atom -12399.304566 kJ/mol
# Density = 1.712767 g / cm^3
# Si number density = 17.166741 Si / 1000 Ang^3
#
#
#
# Elastic Constant Matrix: (Units=GPa)
#
#
# Indices 1 2 3 4 5 6 
#
# 1 50.7251 27.0249 47.8078 0.0000 0.0000 0.0000
# 2 27.0249 83.9182 66.1709 0.0000 0.0000 0.0000
# 3 47.8078 66.1709 129.2257 0.0000 0.0000 0.0000
# 4 0.0000 0.0000 0.0000 28.2784 0.0000 0.0000
# 5 0.0000 0.0000 0.0000 0.0000 25.4452 0.0000
# 6 0.0000 0.0000 0.0000 0.0000 0.0000 12.6140
#
#
#
# Elastic Compliance Matrix: (Units=1/GPa)
#
#
# Indices 1 2 3 4 5 6 
#
# 1 0.030387 -0.001545 -0.010450 0.000000 0.000000 0.000000
# 2 -0.001545 0.020065 -0.009703 0.000000 0.000000 0.000000
# 3 -0.010450 -0.009703 0.016573 0.000000 0.000000 0.000000
# 4 0.000000 0.000000 0.000000 0.035363 0.000000 0.000000
# 5 0.000000 0.000000 0.000000 0.000000 0.039300 0.000000
# 6 0.000000 0.000000 0.000000 0.000000 0.000000 0.079277
#
#
# Mechanical properties :
#
#
# Convention : Reuss Voigt Hill
#
# Bulk Modulus (GPa) = 42.32333 60.65292 51.48812
# Shear Modulus (GPa) = 18.36638 21.45855 19.91247
#
# Velocity S-wave (km/s) = 3.27445 3.53938 3.40949
# Velocity P-wave (km/s) = 6.24531 7.21882 6.74963
#
# Compressibility (1/GPa) = 0.02362763
#
# Stress axis : x y z
#
# Youngs Moduli (GPa) = 32.90891 49.83899 60.33963
#
# Poissons Ratio (x) = 0.07702 0.63058
# Poissons Ratio (y) = 0.05086 0.58545
# Poissons Ratio (z) = 0.34391 0.48356
#
# Static dielectric constant tensor:
#      x y z
#    x 2.957810 0.000000 0.000000 
#    y 0.000000 3.281040 0.000000 
#    z 0.000000 0.000000 3.218370 
# 
# 
# High freq. dielectric constant tensor:
#      x y z
#    x 1.636840 0.000000 0.000000 
#    y 0.000000 1.644380 0.000000 
#    z 0.000000 0.000000 1.661990 
# 
# From -- ./inp_files/21926.got.cif
#   From: 2010.03.12/outbox.cif.g09.slc.cpg/sg59_11_cif.got.tgz:21926.got - 2010.04.16 16:29:54.
