data_PCOD8239654
_publ_section_title
;
Structure prediction by ZEFSAII (Michael W. Deem and Ramdas Pophale) SiO2 
 PCOD8239654
Probable space group: P M M N
;
_chemical_formula_sum "Si O2"
_cell_formula_units_Z 56
_cell_length_a 22.275473
_cell_length_b 12.318777
_cell_length_c 12.685903
_cell_angle_alpha 90.000000
_cell_angle_beta 90.000000
_cell_angle_gamma 90.000000
_cell_volume 3481.095313
_symmetry_space_group_name_H-M "P M M N"
_symmetry_group_IT_number 59
_space_group.IT_coordinate_system_code '2'
_symmetry_cell_setting 'orthorhombic'
loop_
_space_group_symop_operation_xyz
x,y,z
1/2-x,1/2-y,z
1/2+x,-y,-z
-x,1/2+y,-z
-x,-y,-z
1/2+x,1/2+y,-z
1/2-x,y,z
x,1/2-y,z
loop_
_atom_site_type_symbol
_atom_site_label
_atom_site_fract_x
_atom_site_fract_y
_atom_site_fract_z
Si Si1 0.012748 0.983223 0.152681
Si Si2 0.923038 0.625878 0.004175
Si Si3 0.820425 0.549574 0.150570
Si Si4 0.522225 0.378768 0.629695
Si Si5 0.595476 0.126238 0.223750
Si Si6 0.913302 0.025702 0.441428
Si Si7 0.818748 0.870506 0.380717
O O1 0.965146 0.076821 0.177572
O O2 0.978521 0.891878 0.084495
O O3 0.039393 0.924675 0.255622
O O4 0.068032 0.041045 0.092234
O O5 0.924722 0.750000 0.964251
O O6 0.858046 0.604654 0.056628
O O7 0.750000 0.545701 0.120478
O O8 0.845661 0.429125 0.172783
O O9 0.832848 0.618314 0.256331
O O10 0.512973 0.250000 0.633514
O O11 0.575318 0.410925 0.549700
O O12 0.462235 0.434868 0.587791
O O13 0.598668 0.250000 0.190358
O O14 0.593694 0.114697 0.349975
O O15 0.852368 0.957715 0.453067
O O16 0.750000 0.893119 0.403077
O O17 0.837904 0.750000 0.415117
#
# Coordination Sequence:
#
# PCOD8239654 Si02
#       7
#     8   8   8   8   8   8   8
#     4   9  19  30  44  68  89 116 155 186 219 268
#     4  10  18  30  47  65  90 118 146 186 229 265
#     4   9  18  29  44  69  93 116 151 186 221 272
#     4  10  18  30  47  66  94 124 148 181 223 265
#     4   9  16  28  44  63  94 125 147 179 221 264
#     4   9  18  28  44  72  94 115 151 184 215 264
#     4   9  16  28  46  67  93 120 144 178 224 270
#
# _framework density 16.08689
#
# number of rings (size 3 to 8) (size 9 to 14) (size 15 to 20)
#    0.000    2.714    0.000    3.000    0.000    1.143 
#    0.000    2.857    0.000    2.143    0.000    0.000 
#    0.000    0.000    0.000    0.000    0.000    0.000 
#
# Total GULP energy -694244.688739 kJ/mol
# GULP energy per Si atom -12397.226585 kJ/mol
# Density = 1.605028 g / cm^3
# Si number density = 16.086890 Si / 1000 Ang^3
#
#
#
# Elastic Constant Matrix: (Units=GPa)
#
#
# Indices 1 2 3 4 5 6 
#
# 1 59.8274 26.6549 18.4422 0.0000 0.0000 0.0000
# 2 26.6549 95.9076 25.5162 0.0000 0.0000 0.0000
# 3 18.4422 25.5162 70.5462 0.0000 0.0000 0.0000
# 4 0.0000 0.0000 0.0000 16.8385 0.0000 0.0000
# 5 0.0000 0.0000 0.0000 0.0000 22.9177 0.0000
# 6 0.0000 0.0000 0.0000 0.0000 0.0000 17.9168
#
#
#
# Elastic Compliance Matrix: (Units=1/GPa)
#
#
# Indices 1 2 3 4 5 6 
#
# 1 0.019842 -0.004575 -0.003532 0.000000 0.000000 0.000000
# 2 -0.004575 0.012592 -0.003358 0.000000 0.000000 0.000000
# 3 -0.003532 -0.003358 0.016313 0.000000 0.000000 0.000000
# 4 0.000000 0.000000 0.000000 0.059388 0.000000 0.000000
# 5 0.000000 0.000000 0.000000 0.000000 0.043634 0.000000
# 6 0.000000 0.000000 0.000000 0.000000 0.000000 0.055813
#
#
# Mechanical properties :
#
#
# Convention : Reuss Voigt Hill
#
# Bulk Modulus (GPa) = 38.73613 40.83419 39.78516
# Shear Modulus (GPa) = 20.91013 21.91246 21.41130
#
# Velocity S-wave (km/s) = 3.60922 3.69471 3.65221
# Velocity P-wave (km/s) = 6.44207 6.60604 6.52457
#
# Compressibility (1/GPa) = 0.02581569
#
# Stress axis : x y z
#
# Youngs Moduli (GPa) = 50.39864 79.41794 61.29978
#
# Poissons Ratio (x) = 0.36331 0.21654
# Poissons Ratio (y) = 0.23056 0.20587
# Poissons Ratio (z) = 0.17803 0.26672
#
# Static dielectric constant tensor:
#      x y z
#    x 2.988060 0.000000 0.000000 
#    y 0.000000 3.029310 0.000000 
#    z 0.000000 0.000000 3.022860 
# 
# 
# High freq. dielectric constant tensor:
#      x y z
#    x 1.599200 0.000000 0.000000 
#    y 0.000000 1.625700 0.000000 
#    z 0.000000 0.000000 1.598890 
# 
# From -- ./inp_files/18696.got.cif
#   From: 2010.03.12/outbox.cif.g09.slc.cpg/sg59_10_cif.got.tgz:18696.got - 2010.04.16 16:29:54.
