data_PCOD8239189
_publ_section_title
;
Structure prediction by ZEFSAII (Michael W. Deem and Ramdas Pophale) SiO2 
 PCOD8239189
Probable space group: P M M N
;
_chemical_formula_sum "Si O2"
_cell_formula_units_Z 32
_cell_length_a 18.783768
_cell_length_b 7.925036
_cell_length_c 11.904235
_cell_angle_alpha 90.000000
_cell_angle_beta 90.000000
_cell_angle_gamma 90.000000
_cell_volume 1772.088678
_symmetry_space_group_name_H-M "P M M N"
_symmetry_group_IT_number 59
_space_group.IT_coordinate_system_code '2'
_symmetry_cell_setting 'orthorhombic'
loop_
_space_group_symop_operation_xyz
x,y,z
1/2-x,1/2-y,z
1/2+x,-y,-z
-x,1/2+y,-z
-x,-y,-z
1/2+x,1/2+y,-z
1/2-x,y,z
x,1/2-y,z
loop_
_atom_site_type_symbol
_atom_site_label
_atom_site_fract_x
_atom_site_fract_y
_atom_site_fract_z
Si Si1 0.332294 0.938318 0.336145
Si Si2 0.834287 0.750000 0.516290
Si Si3 0.068994 0.063151 0.888426
Si Si4 0.420047 0.058706 0.136161
Si Si5 0.334386 0.250000 0.737968
O O1 0.250000 0.974873 0.308632
O O2 0.341787 0.750000 0.388212
O O3 0.361956 0.080112 0.422144
O O4 0.375799 0.943225 0.220638
O O5 0.750000 0.750000 0.511972
O O6 0.863059 0.750000 0.389251
O O7 0.036671 0.250000 0.912906
O O8 0.134353 0.081485 0.799653
O O9 0.095775 0.992787 0.009046
O O10 0.004936 0.951893 0.838255
O O11 0.394034 0.250000 0.153522
O O12 0.250000 0.250000 0.747548
#
# Coordination Sequence:
#
# PCOD8239189 Si02
#       5
#     8   4   8   8   4
#     4  10  20  33  54  81 108 142 182 228 273 318
#     4   9  18  35  55  77 107 143 187 224 274 320
#     4   8  18  32  51  77 103 142 176 213 269 332
#     4  10  17  31  53  78 110 144 171 221 271 326
#     4   9  18  35  57  77 102 143 187 228 265 322
#
# _framework density 18.057787000000001
#
# number of rings (size 3 to 8) (size 9 to 14) (size 15 to 20)
#    0.750    2.000    1.250    0.750    0.000    2.000 
#    0.000    2.500    0.000    2.250    0.000    0.000 
#    0.000    0.000    0.000    0.000    0.000    0.000 
#
# Total GULP energy -396510.521249 kJ/mol
# GULP energy per Si atom -12390.953789 kJ/mol
# Density = 1.801669 g / cm^3
# Si number density = 18.057787 Si / 1000 Ang^3
#
#
#
# Elastic Constant Matrix: (Units=GPa)
#
#
# Indices 1 2 3 4 5 6 
#
# 1 66.2666 23.6190 57.6176 0.0000 0.0000 0.0000
# 2 23.6190 82.0237 42.4933 0.0000 0.0000 0.0000
# 3 57.6176 42.4933 137.2646 0.0000 0.0000 0.0000
# 4 0.0000 0.0000 0.0000 16.0555 0.0000 0.0000
# 5 0.0000 0.0000 0.0000 0.0000 19.4682 0.0000
# 6 0.0000 0.0000 0.0000 0.0000 0.0000 26.8479
#
#
#
# Elastic Compliance Matrix: (Units=1/GPa)
#
#
# Indices 1 2 3 4 5 6 
#
# 1 0.024041 -0.002018 -0.009466 0.000000 0.000000 0.000000
# 2 -0.002018 0.014690 -0.003700 0.000000 0.000000 0.000000
# 3 -0.009466 -0.003700 0.012404 0.000000 0.000000 0.000000
# 4 0.000000 0.000000 0.000000 0.062284 0.000000 0.000000
# 5 0.000000 0.000000 0.000000 0.000000 0.051366 0.000000
# 6 0.000000 0.000000 0.000000 0.000000 0.000000 0.037247
#
#
# Mechanical properties :
#
#
# Convention : Reuss Voigt Hill
#
# Bulk Modulus (GPa) = 48.15890 59.22387 53.69138
# Shear Modulus (GPa) = 20.89219 23.26263 22.07741
#
# Velocity S-wave (km/s) = 3.40511 3.59309 3.50036
# Velocity P-wave (km/s) = 6.49514 7.07685 6.79223
#
# Compressibility (1/GPa) = 0.02076460
#
# Stress axis : x y z
#
# Youngs Moduli (GPa) = 41.59577 68.07444 80.61716
#
# Poissons Ratio (x) = 0.13741 0.76316
# Poissons Ratio (y) = 0.08396 0.29831
# Poissons Ratio (z) = 0.39376 0.25190
#
# Static dielectric constant tensor:
#      x y z
#    x 3.007850 0.000000 0.000000 
#    y 0.000000 3.273100 0.000000 
#    z 0.000000 0.000000 3.354110 
# 
# 
# High freq. dielectric constant tensor:
#      x y z
#    x 1.672950 0.000000 0.000000 
#    y 0.000000 1.690070 0.000000 
#    z 0.000000 0.000000 1.692390 
# 
# From -- ./inp_files/13787.got.cif
#   From: 2010.03.12/outbox.cif.g09.slc.cpg/sg59_7_cif.got.tgz:13787.got - 2010.04.16 16:29:54.
