data_PCOD8239282
_publ_section_title
;
Structure prediction by ZEFSAII (Michael W. Deem and Ramdas Pophale) SiO2 
 PCOD8239282
Probable space group: P M M N
;
_chemical_formula_sum "Si O2"
_cell_formula_units_Z 64
_cell_length_a 9.614150
_cell_length_b 13.854580
_cell_length_c 31.621574
_cell_angle_alpha 90.000000
_cell_angle_beta 90.000000
_cell_angle_gamma 90.000000
_cell_volume 4211.993983
_symmetry_space_group_name_H-M "P M M N"
_symmetry_group_IT_number 59
_space_group.IT_coordinate_system_code '2'
_symmetry_cell_setting 'orthorhombic'
loop_
_space_group_symop_operation_xyz
x,y,z
1/2-x,1/2-y,z
1/2+x,-y,-z
-x,1/2+y,-z
-x,-y,-z
1/2+x,1/2+y,-z
1/2-x,y,z
x,1/2-y,z
loop_
_atom_site_type_symbol
_atom_site_label
_atom_site_fract_x
_atom_site_fract_y
_atom_site_fract_z
Si Si1 0.085721 0.855256 0.438918
Si Si2 0.411885 0.980472 0.937912
Si Si3 0.595873 0.363813 0.468425
Si Si4 0.095359 0.635187 0.766695
Si Si5 0.084625 0.642444 0.859681
Si Si6 0.910840 0.361589 0.978627
Si Si7 0.086120 0.045332 0.397033
Si Si8 0.088805 0.362500 0.310080
O O1 0.250000 0.844224 0.441714
O O2 0.020365 0.750000 0.427600
O O3 0.036290 0.893848 0.485125
O O4 0.044391 0.932851 0.403096
O O5 0.250000 0.008073 0.934603
O O6 0.497299 0.078694 0.945221
O O7 0.469831 0.931893 0.894972
O O8 0.438220 0.902642 0.974672
O O9 0.750000 0.408950 0.460152
O O10 0.609631 0.250000 0.468297
O O11 0.488974 0.392931 0.432512
O O12 0.250000 0.593851 0.758179
O O13 0.099773 0.750000 0.766074
O O14 0.040540 0.603216 0.813166
O O15 0.993403 0.596070 0.730370
O O16 0.250000 0.649578 0.862077
O O17 0.022789 0.750000 0.867809
O O18 0.750000 0.372970 0.965943
O O19 0.957018 0.250000 0.977709
O O20 0.250000 0.063197 0.402354
O O21 0.036178 0.078790 0.350888
O O22 0.250000 0.380862 0.301090
O O23 0.057493 0.250000 0.318038
#
# Coordination Sequence:
#
# PCOD8239282 Si02
#       8
#     8   8   8   8   8   8   8   8
#     4   8  15  28  43  58  77 101 130 164 198 228
#     4   9  16  26  42  62  81 105 140 176 205 236
#     4   9  17  28  41  58  81 106 129 156 192 231
#     4   8  14  25  41  59  78 102 130 157 189 234
#     4   8  13  23  41  63  83 103 132 169 202 233
#     4   9  17  28  40  56  83 116 142 166 203 245
#     4  10  18  27  42  61  79 103 134 163 191 227
#     4   9  17  27  37  54  82 107 125 152 192 235
#
# _framework density 15.194704
#
# number of rings (size 3 to 8) (size 9 to 14) (size 15 to 20)
#    0.000    3.250    0.000    2.625    0.000    3.000 
#    0.000    1.875    0.000    3.000    0.000    0.875 
#    0.000    3.000    0.000    0.000    0.000    0.000 
#
# Total GULP energy -793188.870908 kJ/mol
# GULP energy per Si atom -12393.576108 kJ/mol
# Density = 1.516012 g / cm^3
# Si number density = 15.194704 Si / 1000 Ang^3
#
#
#
# Elastic Constant Matrix: (Units=GPa)
#
#
# Indices 1 2 3 4 5 6 
#
# 1 38.7636 30.5708 42.8376 0.0000 0.0000 0.0000
# 2 30.5708 73.6867 58.5580 0.0000 0.0000 0.0000
# 3 42.8376 58.5580 130.1750 0.0000 0.0000 0.0000
# 4 0.0000 0.0000 0.0000 23.5591 0.0000 0.0000
# 5 0.0000 0.0000 0.0000 0.0000 22.0402 0.0000
# 6 0.0000 0.0000 0.0000 0.0000 0.0000 16.8812
#
#
#
# Elastic Compliance Matrix: (Units=1/GPa)
#
#
# Indices 1 2 3 4 5 6 
#
# 1 0.045518 -0.010865 -0.010092 0.000000 0.000000 0.000000
# 2 -0.010865 0.023715 -0.007093 0.000000 0.000000 0.000000
# 3 -0.010092 -0.007093 0.014193 0.000000 0.000000 0.000000
# 4 0.000000 0.000000 0.000000 0.042446 0.000000 0.000000
# 5 0.000000 0.000000 0.000000 0.000000 0.045372 0.000000
# 6 0.000000 0.000000 0.000000 0.000000 0.000000 0.059238
#
#
# Mechanical properties :
#
#
# Convention : Reuss Voigt Hill
#
# Bulk Modulus (GPa) = 36.59172 56.28425 46.43799
# Shear Modulus (GPa) = 16.90966 19.87335 18.39151
#
# Velocity S-wave (km/s) = 3.33958 3.62043 3.48284
# Velocity P-wave (km/s) = 6.24537 7.38912 6.84119
#
# Compressibility (1/GPa) = 0.02732858
#
# Stress axis : x y z
#
# Youngs Moduli (GPa) = 21.96939 42.16766 70.45519
#
# Poissons Ratio (x) = 0.45814 0.71100
# Poissons Ratio (y) = 0.23869 0.49971
# Poissons Ratio (z) = 0.22171 0.29908
#
# Static dielectric constant tensor:
#      x y z
#    x 2.798380 0.000000 0.000000 
#    y 0.000000 2.897390 0.000000 
#    z 0.000000 0.000000 3.110160 
# 
# 
# High freq. dielectric constant tensor:
#      x y z
#    x 1.561110 0.000000 0.000000 
#    y 0.000000 1.559190 0.000000 
#    z 0.000000 0.000000 1.576880 
# 
# From -- ./inp_files/33200.got.cif
#   From: 2010.03.12/outbox.cif.g09.slc.cpg/sg59_17_cif.got.tgz:33200.got - 2010.04.16 16:29:54.
