data_PCOD8239974
_publ_section_title
;
Structure prediction by ZEFSAII (Michael W. Deem and Ramdas Pophale) SiO2 
 PCOD8239974
Probable space group: P M M N
;
_chemical_formula_sum "Si O2"
_cell_formula_units_Z 64
_cell_length_a 9.331085
_cell_length_b 22.987367
_cell_length_c 18.898604
_cell_angle_alpha 90.000000
_cell_angle_beta 90.000000
_cell_angle_gamma 90.000000
_cell_volume 4053.695287
_symmetry_space_group_name_H-M "P M M N"
_symmetry_group_IT_number 59
_space_group.IT_coordinate_system_code '2'
_symmetry_cell_setting 'orthorhombic'
loop_
_space_group_symop_operation_xyz
x,y,z
1/2-x,1/2-y,z
1/2+x,-y,-z
-x,1/2+y,-z
-x,-y,-z
1/2+x,1/2+y,-z
1/2-x,y,z
x,1/2-y,z
loop_
_atom_site_type_symbol
_atom_site_label
_atom_site_fract_x
_atom_site_fract_y
_atom_site_fract_z
Si Si1 0.586254 0.025106 0.097821
Si Si2 0.415154 0.011800 0.748639
Si Si3 0.583837 0.317698 0.901161
Si Si4 0.914701 0.683439 0.377915
Si Si5 0.084010 0.413780 0.515943
Si Si6 0.914486 0.029555 0.401748
Si Si7 0.080818 0.631064 0.250348
Si Si8 0.582813 0.909634 0.013780
O O1 0.750000 0.041116 0.079469
O O2 0.556899 0.026461 0.181551
O O3 0.550629 0.960364 0.070272
O O4 0.483675 0.072418 0.061779
O O5 0.250000 0.033702 0.745791
O O6 0.518239 0.066700 0.747201
O O7 0.449268 0.970472 0.681794
O O8 0.750000 0.330712 0.915994
O O9 0.547963 0.250000 0.907853
O O10 0.540151 0.339053 0.823452
O O11 0.490471 0.350823 0.959541
O O12 0.750000 0.668304 0.358302
O O13 0.932834 0.750000 0.400622
O O14 0.964365 0.645175 0.445030
O O15 0.013016 0.670859 0.310790
O O16 0.250000 0.413193 0.497480
O O17 0.042247 0.466429 0.568125
O O18 0.002972 0.420006 0.441132
O O19 0.750000 0.043234 0.416636
O O20 0.250000 0.627864 0.262141
O O21 0.750000 0.898059 0.003394
#
# Coordination Sequence:
#
# PCOD8239974 Si02
#       8
#     8   8   8   8   8   8   8   8
#     4   9  18  31  49  69  95 125 154 193 242 287
#     4  10  18  32  50  70  96 128 162 192 231 284
#     4  10  21  35  48  65  95 132 165 196 233 277
#     4  10  20  34  50  66  90 128 166 196 229 275
#     4   9  17  30  46  66  92 120 154 195 235 277
#     4   9  17  29  47  67  92 121 153 193 234 276
#     4  11  21  31  46  69  99 129 161 198 234 271
#     4  10  19  31  49  71  94 122 159 199 237 279
#
# _framework density 15.788062999999999
#
# number of rings (size 3 to 8) (size 9 to 14) (size 15 to 20)
#    0.000    2.250    2.500    1.125    0.000    3.500 
#    0.000    0.000    0.000    0.000    0.000    0.875 
#    0.000    5.000    0.000    0.000    0.000    0.000 
#
# Total GULP energy -793735.266280 kJ/mol
# GULP energy per Si atom -12402.113536 kJ/mol
# Density = 1.575213 g / cm^3
# Si number density = 15.788063 Si / 1000 Ang^3
#
#
#
# Elastic Constant Matrix: (Units=GPa)
#
#
# Indices 1 2 3 4 5 6 
#
# 1 64.1284 43.7157 48.1602 0.0000 0.0000 0.0000
# 2 43.7157 79.4757 52.8685 0.0000 0.0000 0.0000
# 3 48.1602 52.8685 114.9899 0.0000 0.0000 0.0000
# 4 0.0000 0.0000 0.0000 19.1617 0.0000 0.0000
# 5 0.0000 0.0000 0.0000 0.0000 26.7585 0.0000
# 6 0.0000 0.0000 0.0000 0.0000 0.0000 22.5101
#
#
#
# Elastic Compliance Matrix: (Units=1/GPa)
#
#
# Indices 1 2 3 4 5 6 
#
# 1 0.028152 -0.011009 -0.006729 0.000000 0.000000 0.000000
# 2 -0.011009 0.022431 -0.005702 0.000000 0.000000 0.000000
# 3 -0.006729 -0.005702 0.014137 0.000000 0.000000 0.000000
# 4 0.000000 0.000000 0.000000 0.052188 0.000000 0.000000
# 5 0.000000 0.000000 0.000000 0.000000 0.037371 0.000000
# 6 0.000000 0.000000 0.000000 0.000000 0.000000 0.044424
#
#
# Mechanical properties :
#
#
# Convention : Reuss Voigt Hill
#
# Bulk Modulus (GPa) = 56.05697 60.89811 58.47754
# Shear Modulus (GPa) = 19.87840 21.27604 20.57722
#
# Velocity S-wave (km/s) = 3.55220 3.67495 3.61410
# Velocity P-wave (km/s) = 7.23928 7.52748 7.38479
#
# Compressibility (1/GPa) = 0.01783900
#
# Stress axis : x y z
#
# Youngs Moduli (GPa) = 35.52182 44.58098 70.73870
#
# Poissons Ratio (x) = 0.49077 0.47601
# Poissons Ratio (y) = 0.39104 0.40338
# Poissons Ratio (z) = 0.23903 0.25422
#
# Static dielectric constant tensor:
#      x y z
#    x 3.048130 0.000000 0.000000 
#    y 0.000000 2.799610 0.000000 
#    z 0.000000 0.000000 3.066530 
# 
# 
# High freq. dielectric constant tensor:
#      x y z
#    x 1.611480 0.000000 0.000000 
#    y 0.000000 1.577490 0.000000 
#    z 0.000000 0.000000 1.601890 
# 
# From -- ./inp_files/26484.got.cif
#   From: 2010.03.12/outbox.cif.g09.slc.cpg/sg59_14_cif.got.tgz:26484.got - 2010.04.16 16:29:54.
