data_PCOD8239032
_publ_section_title
;
Structure prediction by ZEFSAII (Michael W. Deem and Ramdas Pophale) SiO2 
 PCOD8239032
Probable space group: P M M N
;
_chemical_formula_sum "Si O2"
_cell_formula_units_Z 48
_cell_length_a 18.004519
_cell_length_b 14.781751
_cell_length_c 9.717253
_cell_angle_alpha 90.000000
_cell_angle_beta 90.000000
_cell_angle_gamma 90.000000
_cell_volume 2586.133357
_symmetry_space_group_name_H-M "P M M N"
_symmetry_group_IT_number 59
_space_group.IT_coordinate_system_code '2'
_symmetry_cell_setting 'orthorhombic'
loop_
_space_group_symop_operation_xyz
x,y,z
1/2-x,1/2-y,z
1/2+x,-y,-z
-x,1/2+y,-z
-x,-y,-z
1/2+x,1/2+y,-z
1/2-x,y,z
x,1/2-y,z
loop_
_atom_site_type_symbol
_atom_site_label
_atom_site_fract_x
_atom_site_fract_y
_atom_site_fract_z
Si Si1 0.922033 0.020314 0.567226
Si Si2 0.432826 0.148417 0.280038
Si Si3 0.061765 0.649737 0.175773
Si Si4 0.061875 0.076888 0.982868
Si Si5 0.164737 0.925093 0.938207
Si Si6 0.106881 0.647889 0.663226
O O1 0.930962 0.079678 0.702372
O O2 0.871947 0.075683 0.457509
O O3 0.890277 0.922386 0.617706
O O4 0.000000 0.000000 0.500000
O O5 0.406000 0.250000 0.315565
O O6 0.521030 0.138215 0.296234
O O7 0.413595 0.125368 0.123055
O O8 0.077685 0.750000 0.231938
O O9 0.120271 0.627586 0.056207
O O10 0.976432 0.648531 0.119814
O O11 0.134428 0.027936 0.919824
O O12 0.000000 0.000000 0.000000
O O13 0.250000 0.928689 0.982457
O O14 0.157149 0.872196 0.794960
O O15 0.123642 0.750000 0.611846
#
# Coordination Sequence:
#
# PCOD8239032 Si02
#       6
#     8   8   8   8   8   8
#     4  10  19  33  51  82 119 145 185 233 287 339
#     4  10  17  30  55  83 109 139 185 238 283 328
#     4  11  20  34  60  88 114 145 188 239 283 336
#     4  10  16  32  54  82 108 141 185 233 283 325
#     4  11  22  36  56  82 117 155 189 228 282 344
#     4  10  19  32  51  79 116 150 178 221 281 343
#
# _framework density 18.560528000000001
#
# number of rings (size 3 to 8) (size 9 to 14) (size 15 to 20)
#    0.000    1.667    6.667    2.500    0.000    2.000 
#    0.000    0.833    0.000    4.000    0.000    0.000 
#    0.000    0.000    0.000    0.000    0.000    0.000 
#
# Total GULP energy -594829.344096 kJ/mol
# GULP energy per Si atom -12392.278002 kJ/mol
# Density = 1.851828 g / cm^3
# Si number density = 18.560528 Si / 1000 Ang^3
#
#
#
# Elastic Constant Matrix: (Units=GPa)
#
#
# Indices 1 2 3 4 5 6 
#
# 1 34.4366 33.1828 2.8497 0.0000 0.0000 0.0000
# 2 33.1828 149.7661 60.3768 0.0000 0.0000 0.0000
# 3 2.8497 60.3768 104.7809 0.0000 0.0000 0.0000
# 4 0.0000 0.0000 0.0000 27.9971 0.0000 0.0000
# 5 0.0000 0.0000 0.0000 0.0000 9.2559 0.0000
# 6 0.0000 0.0000 0.0000 0.0000 0.0000 10.0627
#
#
#
# Elastic Compliance Matrix: (Units=1/GPa)
#
#
# Indices 1 2 3 4 5 6 
#
# 1 0.038900 -0.010671 0.005091 0.000000 0.000000 0.000000
# 2 -0.010671 0.011625 -0.006408 0.000000 0.000000 0.000000
# 3 0.005091 -0.006408 0.013098 0.000000 0.000000 0.000000
# 4 0.000000 0.000000 0.000000 0.035718 0.000000 0.000000
# 5 0.000000 0.000000 0.000000 0.000000 0.108039 0.000000
# 6 0.000000 0.000000 0.000000 0.000000 0.000000 0.099377
#
#
# Mechanical properties :
#
#
# Convention : Reuss Voigt Hill
#
# Bulk Modulus (GPa) = 25.22316 53.53355 39.37836
# Shear Modulus (GPa) = 14.53699 22.30141 18.41920
#
# Velocity S-wave (km/s) = 2.80164 3.47010 3.15363
# Velocity P-wave (km/s) = 4.90763 6.70528 5.87561
#
# Compressibility (1/GPa) = 0.03964610
#
# Stress axis : x y z
#
# Youngs Moduli (GPa) = 25.70666 86.02219 76.34844
#
# Poissons Ratio (x) = 0.91797 -0.38870
# Poissons Ratio (y) = 0.27432 0.48926
# Poissons Ratio (z) = -0.13088 0.55125
#
# Static dielectric constant tensor:
#      x y z
#    x 3.031200 0.000000 0.000000 
#    y 0.000000 3.941050 0.000000 
#    z 0.000000 0.000000 3.509690 
# 
# 
# High freq. dielectric constant tensor:
#      x y z
#    x 1.653520 0.000000 0.000000 
#    y 0.000000 1.735620 0.000000 
#    z 0.000000 0.000000 1.724660 
# 
# From -- ./inp_files/10264.got.cif
#   From: 2010.03.12/outbox.cif.g09.slc.cpg/sg59_6_cif.got.tgz:10264.got - 2010.04.16 16:29:54.
