data_PCOD8239345
_publ_section_title
;
Structure prediction by ZEFSAII (Michael W. Deem and Ramdas Pophale) SiO2 
 PCOD8239345
Probable space group: P M M N
;
_chemical_formula_sum "Si O2"
_cell_formula_units_Z 64
_cell_length_a 26.127866
_cell_length_b 9.090275
_cell_length_c 18.439790
_cell_angle_alpha 90.000000
_cell_angle_beta 90.000000
_cell_angle_gamma 90.000000
_cell_volume 4379.625065
_symmetry_space_group_name_H-M "P M M N"
_symmetry_group_IT_number 59
_space_group.IT_coordinate_system_code '2'
_symmetry_cell_setting 'orthorhombic'
loop_
_space_group_symop_operation_xyz
x,y,z
1/2-x,1/2-y,z
1/2+x,-y,-z
-x,1/2+y,-z
-x,-y,-z
1/2+x,1/2+y,-z
1/2-x,y,z
x,1/2-y,z
loop_
_atom_site_type_symbol
_atom_site_label
_atom_site_fract_x
_atom_site_fract_y
_atom_site_fract_z
Si Si1 0.000143 0.923974 0.171043
Si Si2 0.955696 0.082941 0.461404
Si Si3 0.601997 0.422221 0.595831
Si Si4 0.806900 0.923443 0.833817
Si Si5 0.190748 0.420032 0.330527
Si Si6 0.543104 0.420572 0.045390
Si Si7 0.008459 0.423480 0.322972
Si Si8 0.895820 0.082613 0.910379
O O1 0.991767 0.750000 0.173017
O O2 0.054738 0.967401 0.136052
O O3 0.996023 0.990692 0.250280
O O4 0.954433 0.997612 0.123115
O O5 0.971305 0.250000 0.470758
O O6 0.904071 0.050939 0.507987
O O7 0.958573 0.046050 0.375348
O O8 0.000000 0.000000 0.500000
O O9 0.596755 0.250000 0.615274
O O10 0.658105 0.479126 0.615672
O O11 0.560013 0.512647 0.641366
O O12 0.750000 0.983270 0.852172
O O13 0.807278 0.750000 0.840865
O O14 0.821760 0.968241 0.751872
O O15 0.846953 0.986903 0.890596
O O16 0.250000 0.447670 0.348295
O O17 0.176460 0.250000 0.342545
O O18 0.528973 0.250000 0.056777
O O19 0.500000 0.500000 0.000000
O O20 0.594661 0.435629 0.997096
O O21 0.016290 0.250000 0.307718
O O22 0.883157 0.250000 0.890774
#
# Coordination Sequence:
#
# PCOD8239345 Si02
#       8
#     8   8   8   8   8   8   8   8
#     4  10  19  29  41  61  85 107 137 173 205 240
#     4   8  16  28  40  56  79 106 135 167 201 240
#     4  10  18  28  42  60  82 107 138 174 207 240
#     4   9  18  30  42  57  78 105 137 170 201 234
#     4   9  18  31  43  57  80 109 141 174 205 240
#     4   9  17  29  42  58  81 108 137 167 201 241
#     4  10  18  28  42  59  81 111 141 166 201 246
#     4   9  18  29  41  58  80 106 135 166 199 236
#
# _framework density 14.613123
#
# number of rings (size 3 to 8) (size 9 to 14) (size 15 to 20)
#    0.000    2.750    0.000    3.750    0.000    7.000 
#    0.000    1.250    0.000    0.000    0.000    0.000 
#    0.000    1.000    0.000    9.500    0.000    5.500 
#
# Total GULP energy -792915.954721 kJ/mol
# GULP energy per Si atom -12389.311793 kJ/mol
# Density = 1.457986 g / cm^3
# Si number density = 14.613123 Si / 1000 Ang^3
#
#
#
# Elastic Constant Matrix: (Units=GPa)
#
#
# Indices 1 2 3 4 5 6 
#
# 1 62.8890 34.5459 47.0392 0.0000 0.0000 0.0000
# 2 34.5459 71.5404 49.4001 0.0000 0.0000 0.0000
# 3 47.0392 49.4001 107.7850 0.0000 0.0000 0.0000
# 4 0.0000 0.0000 0.0000 25.1339 0.0000 0.0000
# 5 0.0000 0.0000 0.0000 0.0000 21.2446 0.0000
# 6 0.0000 0.0000 0.0000 0.0000 0.0000 22.7253
#
#
#
# Elastic Compliance Matrix: (Units=1/GPa)
#
#
# Indices 1 2 3 4 5 6 
#
# 1 0.025700 -0.006825 -0.008088 0.000000 0.000000 0.000000
# 2 -0.006825 0.022263 -0.007225 0.000000 0.000000 0.000000
# 3 -0.008088 -0.007225 0.016119 0.000000 0.000000 0.000000
# 4 0.000000 0.000000 0.000000 0.039787 0.000000 0.000000
# 5 0.000000 0.000000 0.000000 0.000000 0.047071 0.000000
# 6 0.000000 0.000000 0.000000 0.000000 0.000000 0.044004
#
#
# Mechanical properties :
#
#
# Convention : Reuss Voigt Hill
#
# Bulk Modulus (GPa) = 50.49089 56.02053 53.25571
# Shear Modulus (GPa) = 20.34009 21.23602 20.78805
#
# Velocity S-wave (km/s) = 3.73487 3.81624 3.77578
# Velocity P-wave (km/s) = 7.29560 7.60508 7.45195
#
# Compressibility (1/GPa) = 0.01980555
#
# Stress axis : x y z
#
# Youngs Moduli (GPa) = 38.91114 44.91775 62.04033
#
# Poissons Ratio (x) = 0.30658 0.50175
# Poissons Ratio (y) = 0.26558 0.44823
# Poissons Ratio (z) = 0.31469 0.32452
#
# Static dielectric constant tensor:
#      x y z
#    x 2.755230 0.000000 0.000000 
#    y 0.000000 2.957200 0.000000 
#    z 0.000000 0.000000 3.191510 
# 
# 
# High freq. dielectric constant tensor:
#      x y z
#    x 1.519850 0.000000 0.000000 
#    y 0.000000 1.573220 0.000000 
#    z 0.000000 0.000000 1.553880 
# 
# From -- ./inp_files/26447.got.cif
#   From: 2010.03.12/outbox.cif.g09.slc.cpg/sg59_14_cif.got.tgz:26447.got - 2010.04.16 16:29:54.
