data_PCOD8239640
_publ_section_title
;
Structure prediction by ZEFSAII (Michael W. Deem and Ramdas Pophale) SiO2 
 PCOD8239640
Probable space group: P M M N
;
_chemical_formula_sum "Si O2"
_cell_formula_units_Z 56
_cell_length_a 27.831643
_cell_length_b 9.331624
_cell_length_c 13.411694
_cell_angle_alpha 90.000000
_cell_angle_beta 90.000000
_cell_angle_gamma 90.000000
_cell_volume 3483.210433
_symmetry_space_group_name_H-M "P M M N"
_symmetry_group_IT_number 59
_space_group.IT_coordinate_system_code '2'
_symmetry_cell_setting 'orthorhombic'
loop_
_space_group_symop_operation_xyz
x,y,z
1/2-x,1/2-y,z
1/2+x,-y,-z
-x,1/2+y,-z
-x,-y,-z
1/2+x,1/2+y,-z
1/2-x,y,z
x,1/2-y,z
loop_
_atom_site_type_symbol
_atom_site_label
_atom_site_fract_x
_atom_site_fract_y
_atom_site_fract_z
Si Si1 0.102348 0.411174 0.312930
Si Si2 0.979261 0.080271 0.594501
Si Si3 0.050038 0.411077 0.104589
Si Si4 0.304040 0.084281 0.212301
Si Si5 0.194944 0.915890 0.010754
Si Si6 0.528116 0.585281 0.202661
Si Si7 0.614802 0.584207 0.077866
O O1 0.095893 0.250000 0.356191
O O2 0.074656 0.522628 0.384245
O O3 0.082556 0.420959 0.201926
O O4 0.158994 0.451930 0.302679
O O5 0.977238 0.250000 0.575966
O O6 0.014535 0.036496 0.685653
O O7 0.000000 0.000000 0.500000
O O8 0.032897 0.250000 0.083373
O O9 0.002400 0.504612 0.118420
O O10 0.081168 0.468114 0.012699
O O11 0.250000 0.053595 0.251104
O O12 0.310425 0.250000 0.180166
O O13 0.315937 0.989159 0.116362
O O14 0.250000 0.938142 0.978901
O O15 0.181547 0.750000 0.020417
O O16 0.162812 0.988361 0.923892
O O17 0.514554 0.750000 0.189198
O O18 0.584787 0.558814 0.180533
O O19 0.629544 0.750000 0.066227
#
# Coordination Sequence:
#
# PCOD8239640 Si02
#       7
#     8   8   8   8   8   8   8
#     4   9  16  28  45  68  94 122 154 188 224 269
#     4  10  20  34  50  69  91 118 150 190 237 283
#     4   9  16  26  41  63  92 123 152 178 215 262
#     4   9  16  28  46  66  92 127 161 189 222 266
#     4  10  20  30  41  62  92 125 161 196 226 259
#     4   9  19  31  45  66  90 115 149 188 225 268
#     4  10  18  30  45  63  89 122 156 188 223 264
#
# _framework density 16.077121999999999
#
# number of rings (size 3 to 8) (size 9 to 14) (size 15 to 20)
#    0.000    2.571    1.429    1.286    0.000    3.143 
#    0.000    0.000    0.000    0.000    0.000    1.000 
#    0.000    3.429    0.000    0.000    0.000    0.000 
#
# Total GULP energy -694213.903323 kJ/mol
# GULP energy per Si atom -12396.676845 kJ/mol
# Density = 1.604053 g / cm^3
# Si number density = 16.077122 Si / 1000 Ang^3
#
#
#
# Elastic Constant Matrix: (Units=GPa)
#
#
# Indices 1 2 3 4 5 6 
#
# 1 111.0173 56.5280 41.5616 0.0000 0.0000 0.0000
# 2 56.5280 77.8814 33.3159 0.0000 0.0000 0.0000
# 3 41.5616 33.3159 54.3618 0.0000 0.0000 0.0000
# 4 0.0000 0.0000 0.0000 16.3760 0.0000 0.0000
# 5 0.0000 0.0000 0.0000 0.0000 20.1195 0.0000
# 6 0.0000 0.0000 0.0000 0.0000 0.0000 28.6884
#
#
#
# Elastic Compliance Matrix: (Units=1/GPa)
#
#
# Indices 1 2 3 4 5 6 
#
# 1 0.016011 -0.008653 -0.006938 0.000000 0.000000 0.000000
# 2 -0.008653 0.022079 -0.006916 0.000000 0.000000 0.000000
# 3 -0.006938 -0.006916 0.027938 0.000000 0.000000 0.000000
# 4 0.000000 0.000000 0.000000 0.061065 0.000000 0.000000
# 5 0.000000 0.000000 0.000000 0.000000 0.049703 0.000000
# 6 0.000000 0.000000 0.000000 0.000000 0.000000 0.034857
#
#
# Mechanical properties :
#
#
# Convention : Reuss Voigt Hill
#
# Bulk Modulus (GPa) = 47.58605 56.23018 51.90811
# Shear Modulus (GPa) = 18.96303 20.49379 19.72841
#
# Velocity S-wave (km/s) = 3.43812 3.57419 3.50681
# Velocity P-wave (km/s) = 6.73971 7.21695 6.98241
#
# Compressibility (1/GPa) = 0.02101456
#
# Stress axis : x y z
#
# Youngs Moduli (GPa) = 62.45703 45.29172 35.79396
#
# Poissons Ratio (x) = 0.39192 0.24833
# Poissons Ratio (y) = 0.54046 0.24753
# Poissons Ratio (z) = 0.43331 0.31322
#
# Static dielectric constant tensor:
#      x y z
#    x 3.284860 0.000000 0.000000 
#    y 0.000000 3.145570 0.000000 
#    z 0.000000 0.000000 2.771560 
# 
# 
# High freq. dielectric constant tensor:
#      x y z
#    x 1.618980 0.000000 0.000000 
#    y 0.000000 1.622330 0.000000 
#    z 0.000000 0.000000 1.572340 
# 
# From -- ./inp_files/21713.got.cif
#   From: 2010.03.12/outbox.cif.g09.slc.cpg/sg59_11_cif.got.tgz:21713.got - 2010.04.16 16:29:54.
