data_PCOD8239577
_publ_section_title
;
Structure prediction by ZEFSAII (Michael W. Deem and Ramdas Pophale) SiO2 
 PCOD8239577
Probable space group: P M M N
;
_chemical_formula_sum "Si O2"
_cell_formula_units_Z 64
_cell_length_a 9.077398
_cell_length_b 29.243173
_cell_length_c 14.911637
_cell_angle_alpha 90.000000
_cell_angle_beta 90.000000
_cell_angle_gamma 90.000000
_cell_volume 3958.322674
_symmetry_space_group_name_H-M "P M M N"
_symmetry_group_IT_number 59
_space_group.IT_coordinate_system_code '2'
_symmetry_cell_setting 'orthorhombic'
loop_
_space_group_symop_operation_xyz
x,y,z
1/2-x,1/2-y,z
1/2+x,-y,-z
-x,1/2+y,-z
-x,-y,-z
1/2+x,1/2+y,-z
1/2-x,y,z
x,1/2-y,z
loop_
_atom_site_type_symbol
_atom_site_label
_atom_site_fract_x
_atom_site_fract_y
_atom_site_fract_z
Si Si1 0.917418 0.624873 0.704308
Si Si2 0.075263 0.611110 0.035897
Si Si3 0.576359 0.466448 0.622144
Si Si4 0.580431 0.562596 0.873866
Si Si5 0.421355 0.436908 0.456980
Si Si6 0.575298 0.463290 0.822300
Si Si7 0.576759 0.698234 0.988665
Si Si8 0.582565 0.198215 0.196589
O O1 0.750000 0.643057 0.705592
O O2 0.936277 0.584449 0.776037
O O3 0.959381 0.605800 0.606526
O O4 0.027661 0.666515 0.722782
O O5 0.250000 0.615740 0.033286
O O6 0.021668 0.578985 0.117253
O O7 0.020554 0.590101 0.942665
O O8 0.004668 0.661407 0.052026
O O9 0.750000 0.459948 0.620152
O O10 0.506337 0.430967 0.551135
O O11 0.527650 0.517375 0.594529
O O12 0.512915 0.456590 0.721716
O O13 0.750000 0.564400 0.906684
O O14 0.520118 0.510677 0.866849
O O15 0.250000 0.439453 0.478770
O O16 0.750000 0.466348 0.817056
O O17 0.750000 0.689240 0.991010
O O18 0.538190 0.750000 0.020101
O O19 0.522144 0.689713 0.887963
O O20 0.750000 0.185879 0.169446
O O21 0.571289 0.250000 0.230784
#
# Coordination Sequence:
#
# PCOD8239577 Si02
#       8
#     8   8   8   8   8   8   8   8
#     4  10  18  29  48  69  94 129 160 187 226 279
#     4  11  21  31  46  70  96 124 159 200 237 274
#     4   9  16  30  48  65  89 123 157 191 229 273
#     4  10  18  31  47  64  93 133 167 190 219 272
#     4   9  17  29  46  69  93 119 153 192 231 268
#     4   9  18  32  48  66  94 131 165 194 233 277
#     4  10  20  34  50  66  88 121 158 193 235 287
#     4  10  20  32  47  69  96 121 150 195 240 276
#
# _framework density 16.168465000000001
#
# number of rings (size 3 to 8) (size 9 to 14) (size 15 to 20)
#    0.000    2.250    2.500    1.500    0.000    2.000 
#    0.000    2.500    0.000    0.000    0.000    0.875 
#    0.000    1.000    0.000    0.000    0.000    0.000 
#
# Total GULP energy -793570.834561 kJ/mol
# GULP energy per Si atom -12399.544290 kJ/mol
# Density = 1.613167 g / cm^3
# Si number density = 16.168465 Si / 1000 Ang^3
#
#
#
# Elastic Constant Matrix: (Units=GPa)
#
#
# Indices 1 2 3 4 5 6 
#
# 1 53.0880 40.5174 23.7879 0.0000 0.0000 0.0000
# 2 40.5174 107.6937 40.0087 0.0000 0.0000 0.0000
# 3 23.7879 40.0087 67.3140 0.0000 0.0000 0.0000
# 4 0.0000 0.0000 0.0000 19.5316 0.0000 0.0000
# 5 0.0000 0.0000 0.0000 0.0000 22.0999 0.0000
# 6 0.0000 0.0000 0.0000 0.0000 0.0000 25.7338
#
#
#
# Elastic Compliance Matrix: (Units=1/GPa)
#
#
# Indices 1 2 3 4 5 6 
#
# 1 0.027481 -0.008639 -0.004577 0.000000 0.000000 0.000000
# 2 -0.008639 0.014633 -0.005644 0.000000 0.000000 0.000000
# 3 -0.004577 -0.005644 0.019828 0.000000 0.000000 0.000000
# 4 0.000000 0.000000 0.000000 0.051199 0.000000 0.000000
# 5 0.000000 0.000000 0.000000 0.000000 0.045249 0.000000
# 6 0.000000 0.000000 0.000000 0.000000 0.000000 0.038859
#
#
# Mechanical properties :
#
#
# Convention : Reuss Voigt Hill
#
# Bulk Modulus (GPa) = 41.28547 48.52484 44.90516
# Shear Modulus (GPa) = 20.57261 21.72518 21.14890
#
# Velocity S-wave (km/s) = 3.57093 3.66960 3.62060
# Velocity P-wave (km/s) = 6.52626 6.93049 6.73141
#
# Compressibility (1/GPa) = 0.02422160
#
# Stress axis : x y z
#
# Youngs Moduli (GPa) = 36.38933 68.34084 50.43420
#
# Poissons Ratio (x) = 0.59037 0.23083
# Poissons Ratio (y) = 0.31435 0.28466
# Poissons Ratio (z) = 0.16655 0.38573
#
# Static dielectric constant tensor:
#      x y z
#    x 2.982480 0.000000 0.000000 
#    y 0.000000 3.154590 0.000000 
#    z 0.000000 0.000000 3.015470 
# 
# 
# High freq. dielectric constant tensor:
#      x y z
#    x 1.616450 0.000000 0.000000 
#    y 0.000000 1.612630 0.000000 
#    z 0.000000 0.000000 1.599200 
# 
# From -- ./inp_files/21891.got.cif
#   From: 2010.03.12/outbox.cif.g09.slc.cpg/sg59_11_cif.got.tgz:21891.got - 2010.04.16 16:29:54.
