data_PCOD8239542
_publ_section_title
;
Structure prediction by ZEFSAII (Michael W. Deem and Ramdas Pophale) SiO2 
 PCOD8239542
Probable space group: P M M N
;
_chemical_formula_sum "Si O2"
_cell_formula_units_Z 64
_cell_length_a 13.803050
_cell_length_b 17.347214
_cell_length_c 16.879825
_cell_angle_alpha 90.000000
_cell_angle_beta 90.000000
_cell_angle_gamma 90.000000
_cell_volume 4041.780619
_symmetry_space_group_name_H-M "P M M N"
_symmetry_group_IT_number 59
_space_group.IT_coordinate_system_code '2'
_symmetry_cell_setting 'orthorhombic'
loop_
_space_group_symop_operation_xyz
x,y,z
1/2-x,1/2-y,z
1/2+x,-y,-z
-x,1/2+y,-z
-x,-y,-z
1/2+x,1/2+y,-z
1/2-x,y,z
x,1/2-y,z
loop_
_atom_site_type_symbol
_atom_site_label
_atom_site_fract_x
_atom_site_fract_y
_atom_site_fract_z
Si Si1 0.361966 0.053247 0.773660
Si Si2 0.857968 0.609569 0.054582
Si Si3 0.634474 0.661417 0.706747
Si Si4 0.961224 0.163598 0.026574
Si Si5 0.644420 0.658921 0.535082
Si Si6 0.865965 0.836447 0.365140
Si Si7 0.860285 0.469397 0.943740
Si Si8 0.511821 0.563833 0.827751
O O1 0.250000 0.029022 0.761650
O O2 0.373200 0.105933 0.851599
O O3 0.402605 0.104246 0.701145
O O4 0.425165 0.975741 0.778807
O O5 0.750000 0.638806 0.033577
O O6 0.875665 0.523656 0.020340
O O7 0.932264 0.667507 0.013177
O O8 0.750000 0.650314 0.710597
O O9 0.607633 0.750000 0.725876
O O10 0.593403 0.637377 0.618770
O O11 0.584671 0.606580 0.769594
O O12 0.920857 0.250000 0.034808
O O13 0.965985 0.126030 0.113056
O O14 0.889580 0.116405 0.969433
O O15 0.750000 0.619183 0.535678
O O16 0.658439 0.750000 0.533754
O O17 0.591881 0.636048 0.451830
O O18 0.750000 0.835809 0.368632
O O19 0.903099 0.750000 0.344633
O O20 0.750000 0.469789 0.913995
O O21 0.928469 0.497535 0.872941
#
# Coordination Sequence:
#
# PCOD8239542 Si02
#       8
#     8   8   8   8   8   8   8   8
#     4  10  18  29  47  66  91 124 153 181 219 269
#     4   9  17  32  49  64  86 116 145 180 227 271
#     4   9  17  29  48  72  93 116 147 183 225 268
#     4  11  21  32  46  65  87 112 149 190 226 266
#     4   7  11  23  42  64  92 119 142 174 219 268
#     4   8  14  25  43  67  91 117 148 182 221 261
#     4  10  19  34  50  62  83 117 154 185 222 269
#     4  11  19  33  46  68  91 121 146 186 227 271
#
# _framework density 15.834604000000001
#
# number of rings (size 3 to 8) (size 9 to 14) (size 15 to 20)
#    0.000    2.625    2.500    3.000    0.000    1.500 
#    0.000    1.875    0.000    1.125    0.000    0.000 
#    0.000    0.000    0.000    6.750    0.000    0.500 
#
# Total GULP energy -793107.617422 kJ/mol
# GULP energy per Si atom -12392.306522 kJ/mol
# Density = 1.579856 g / cm^3
# Si number density = 15.834604 Si / 1000 Ang^3
#
#
#
# Elastic Constant Matrix: (Units=GPa)
#
#
# Indices 1 2 3 4 5 6 
#
# 1 45.0082 27.7103 25.4555 0.0000 0.0000 0.0000
# 2 27.7103 87.8087 48.9010 0.0000 0.0000 0.0000
# 3 25.4555 48.9010 107.9135 0.0000 0.0000 0.0000
# 4 0.0000 0.0000 0.0000 21.2841 0.0000 0.0000
# 5 0.0000 0.0000 0.0000 0.0000 12.3580 0.0000
# 6 0.0000 0.0000 0.0000 0.0000 0.0000 16.9628
#
#
#
# Elastic Compliance Matrix: (Units=1/GPa)
#
#
# Indices 1 2 3 4 5 6 
#
# 1 0.028557 -0.007036 -0.003548 0.000000 0.000000 0.000000
# 2 -0.007036 0.016966 -0.006028 0.000000 0.000000 0.000000
# 3 -0.003548 -0.006028 0.012835 0.000000 0.000000 0.000000
# 4 0.000000 0.000000 0.000000 0.046983 0.000000 0.000000
# 5 0.000000 0.000000 0.000000 0.000000 0.080919 0.000000
# 6 0.000000 0.000000 0.000000 0.000000 0.000000 0.058952
#
#
# Mechanical properties :
#
#
# Convention : Reuss Voigt Hill
#
# Bulk Modulus (GPa) = 39.78755 49.42935 44.60845
# Shear Modulus (GPa) = 17.43281 19.36523 18.39902
#
# Velocity S-wave (km/s) = 3.32163 3.50089 3.41244
# Velocity P-wave (km/s) = 6.31605 6.90112 6.61506
#
# Compressibility (1/GPa) = 0.02513349
#
# Stress axis : x y z
#
# Youngs Moduli (GPa) = 35.01818 58.94127 77.90979
#
# Poissons Ratio (x) = 0.41471 0.27641
# Poissons Ratio (y) = 0.24639 0.46968
# Poissons Ratio (z) = 0.12424 0.35532
#
# Static dielectric constant tensor:
#      x y z
#    x 2.813420 0.000000 0.000000 
#    y 0.000000 2.767140 0.000000 
#    z 0.000000 0.000000 3.317550 
# 
# 
# High freq. dielectric constant tensor:
#      x y z
#    x 1.576790 0.000000 0.000000 
#    y 0.000000 1.583210 0.000000 
#    z 0.000000 0.000000 1.615310 
# 
# From -- ./inp_files/23445.got.cif
#   From: 2010.03.12/outbox.cif.g09.slc.cpg/sg59_12_cif.got.tgz:23445.got - 2010.04.16 16:29:54.
