data_PCOD8239903
_publ_section_title
;
Structure prediction by ZEFSAII (Michael W. Deem and Ramdas Pophale) SiO2 
 PCOD8239903
Probable space group: P M M N
;
_chemical_formula_sum "Si O2"
_cell_formula_units_Z 64
_cell_length_a 8.822125
_cell_length_b 14.598524
_cell_length_c 24.728217
_cell_angle_alpha 90.000000
_cell_angle_beta 90.000000
_cell_angle_gamma 90.000000
_cell_volume 3184.747155
_symmetry_space_group_name_H-M "P M M N"
_symmetry_group_IT_number 59
_space_group.IT_coordinate_system_code '2'
_symmetry_cell_setting 'orthorhombic'
loop_
_space_group_symop_operation_xyz
x,y,z
1/2-x,1/2-y,z
1/2+x,-y,-z
-x,1/2+y,-z
-x,-y,-z
1/2+x,1/2+y,-z
1/2-x,y,z
x,1/2-y,z
loop_
_atom_site_type_symbol
_atom_site_label
_atom_site_fract_x
_atom_site_fract_y
_atom_site_fract_z
Si Si1 0.572018 0.153871 0.592072
Si Si2 0.426239 0.143451 0.773564
Si Si3 0.429398 0.647642 0.637995
Si Si4 0.929089 0.023002 0.681486
Si Si5 0.426848 0.908840 0.520923
Si Si6 0.927169 0.533851 0.118153
Si Si7 0.428674 0.353650 0.091401
Si Si8 0.074459 0.646122 0.023636
O O1 0.750000 0.146982 0.601344
O O2 0.510691 0.250000 0.616599
O O3 0.503945 0.069520 0.626213
O O4 0.535660 0.159359 0.528327
O O5 0.250000 0.134915 0.758767
O O6 0.477211 0.250000 0.774375
O O7 0.522732 0.086173 0.730929
O O8 0.461649 0.098269 0.831074
O O9 0.250000 0.638480 0.638490
O O10 0.479568 0.750000 0.654460
O O11 0.498481 0.578272 0.682286
O O12 0.494648 0.627557 0.577503
O O13 0.750000 0.011832 0.682459
O O14 0.250000 0.924657 0.528525
O O15 0.500000 0.000000 0.500000
O O16 0.750000 0.530989 0.104971
O O17 0.987487 0.429927 0.128520
O O18 0.017052 0.575602 0.068028
O O19 0.250000 0.367253 0.096729
O O20 0.475127 0.250000 0.109609
O O21 0.477541 0.370609 0.029907
O O22 0.250000 0.626516 0.010653
O O23 0.050911 0.750000 0.044621
#
# Coordination Sequence:
#
# PCOD8239903 Si02
#       8
#     8   8   8   8   8   8   8   8
#     4   9  17  30  50  77 108 141 176 215 267 328
#     4  10  23  43  64  86 114 148 186 231 284 342
#     4  10  21  37  58  82 111 151 194 234 280 337
#     4  11  22  37  59  85 112 144 184 234 288 338
#     4  10  18  31  52  78 111 147 183 224 273 330
#     4  11  22  37  59  85 115 152 193 238 289 343
#     4  10  21  37  57  83 118 158 197 238 284 335
#     4  10  20  34  55  85 121 159 198 239 283 337
#
# _framework density 20.095786
#
# number of rings (size 3 to 8) (size 9 to 14) (size 15 to 20)
#    0.000    1.875    1.250    3.000    0.000    5.500 
#    0.000    0.625    0.000    2.625    0.000    0.000 
#    0.000    0.000    0.000    0.000    0.000    0.000 
#
# Total GULP energy -793271.332247 kJ/mol
# GULP energy per Si atom -12394.864566 kJ/mol
# Density = 2.005005 g / cm^3
# Si number density = 20.095786 Si / 1000 Ang^3
#
#
#
# Elastic Constant Matrix: (Units=GPa)
#
#
# Indices 1 2 3 4 5 6 
#
# 1 44.7506 40.9827 24.3396 0.0000 0.0000 0.0000
# 2 40.9827 171.9304 49.3553 0.0000 0.0000 0.0000
# 3 24.3396 49.3553 53.9634 0.0000 0.0000 0.0000
# 4 0.0000 0.0000 0.0000 29.3614 0.0000 0.0000
# 5 0.0000 0.0000 0.0000 0.0000 26.8058 0.0000
# 6 0.0000 0.0000 0.0000 0.0000 0.0000 31.1932
#
#
#
# Elastic Compliance Matrix: (Units=1/GPa)
#
#
# Indices 1 2 3 4 5 6 
#
# 1 0.032250 -0.004762 -0.010191 0.000000 0.000000 0.000000
# 2 -0.004762 0.008590 -0.005709 0.000000 0.000000 0.000000
# 3 -0.010191 -0.005709 0.028349 0.000000 0.000000 0.000000
# 4 0.000000 0.000000 0.000000 0.034058 0.000000 0.000000
# 5 0.000000 0.000000 0.000000 0.000000 0.037305 0.000000
# 6 0.000000 0.000000 0.000000 0.000000 0.000000 0.032058
#
#
# Mechanical properties :
#
#
# Convention : Reuss Voigt Hill
#
# Bulk Modulus (GPa) = 35.88607 55.55551 45.72079
# Shear Modulus (GPa) = 22.39924 27.86986 25.13455
#
# Velocity S-wave (km/s) = 3.34222 3.72808 3.54041
# Velocity P-wave (km/s) = 5.72627 6.79977 6.28598
#
# Compressibility (1/GPa) = 0.02786596
#
# Stress axis : x y z
#
# Youngs Moduli (GPa) = 31.00809 116.41155 35.27493
#
# Poissons Ratio (x) = 0.55434 0.35947
# Poissons Ratio (y) = 0.14766 0.20138
# Poissons Ratio (z) = 0.31599 0.66458
#
# Static dielectric constant tensor:
#      x y z
#    x 3.491850 0.000000 0.000000 
#    y 0.000000 3.788370 0.000000 
#    z 0.000000 0.000000 3.602890 
# 
# 
# High freq. dielectric constant tensor:
#      x y z
#    x 1.770140 0.000000 0.000000 
#    y 0.000000 1.806590 0.000000 
#    z 0.000000 0.000000 1.763460 
# 
# From -- ./inp_files/31447.got.cif
#   From: 2010.03.12/outbox.cif.g09.slc.cpg/sg59_16_cif.got.tgz:31447.got - 2010.04.16 16:29:54.
