data_PCOD8239262
_publ_section_title
;
Structure prediction by ZEFSAII (Michael W. Deem and Ramdas Pophale) SiO2 
 PCOD8239262
Probable space group: P M M N
;
_chemical_formula_sum "Si O2"
_cell_formula_units_Z 64
_cell_length_a 25.062651
_cell_length_b 9.124916
_cell_length_c 18.487525
_cell_angle_alpha 90.000000
_cell_angle_beta 90.000000
_cell_angle_gamma 90.000000
_cell_volume 4227.996860
_symmetry_space_group_name_H-M "P M M N"
_symmetry_group_IT_number 59
_space_group.IT_coordinate_system_code '2'
_symmetry_cell_setting 'orthorhombic'
loop_
_space_group_symop_operation_xyz
x,y,z
1/2-x,1/2-y,z
1/2+x,-y,-z
-x,1/2+y,-z
-x,-y,-z
1/2+x,1/2+y,-z
1/2-x,y,z
x,1/2-y,z
loop_
_atom_site_type_symbol
_atom_site_label
_atom_site_fract_x
_atom_site_fract_y
_atom_site_fract_z
Si Si1 0.074729 0.087151 0.537489
Si Si2 0.001173 0.923884 0.259801
Si Si3 0.993408 0.921517 0.887114
Si Si4 0.920796 0.920152 0.020587
Si Si5 0.308996 0.078048 0.926623
Si Si6 0.690006 0.415715 0.217443
Si Si7 0.401289 0.920313 0.674076
Si Si8 0.454132 0.588303 0.408241
O O1 0.099505 0.250000 0.537972
O O2 0.013650 0.092490 0.561027
O O3 0.105924 0.983941 0.593528
O O4 0.080762 0.023302 0.456119
O O5 0.994038 0.750000 0.251075
O O6 0.043451 0.960326 0.324028
O O7 0.944565 0.993576 0.279058
O O8 0.022590 0.995443 0.186215
O O9 0.001598 0.750000 0.871711
O O10 0.944451 0.951925 0.941499
O O11 0.048403 0.984104 0.919652
O O12 0.928517 0.750000 0.041722
O O13 0.857688 0.963684 0.019180
O O14 0.250000 0.015306 0.950667
O O15 0.304149 0.250000 0.920289
O O16 0.326113 0.019355 0.848512
O O17 0.750000 0.446707 0.242792
O O18 0.682309 0.250000 0.189750
O O19 0.654619 0.447151 0.287189
O O20 0.417559 0.750000 0.669365
O O21 0.428624 0.750000 0.414702
#
# Coordination Sequence:
#
# PCOD8239262 Si02
#       8
#     8   8   8   8   8   8   8   8
#     4   9  16  25  38  56  78 103 130 161 194 226
#     4  10  19  29  41  58  81 107 135 168 202 237
#     4  10  19  29  42  60  82 110 140 168 203 246
#     4   9  18  31  44  59  82 109 137 170 204 243
#     4   9  17  29  45  62  79 103 135 170 207 243
#     4   9  18  30  41  56  79 105 134 168 202 234
#     4  10  18  27  41  58  78 107 139 168 198 237
#     4   8  15  26  38  53  75 103 131 158 190 227
#
# _framework density 15.137193
#
# number of rings (size 3 to 8) (size 9 to 14) (size 15 to 20)
#    0.000    2.750    0.000    3.000    0.000    7.500 
#    0.000    0.000    0.000    0.000    0.000    0.000 
#    0.000    1.000    0.000    5.750    0.000    3.875 
#
# Total GULP energy -793281.097501 kJ/mol
# GULP energy per Si atom -12395.017148 kJ/mol
# Density = 1.510274 g / cm^3
# Si number density = 15.137193 Si / 1000 Ang^3
#
#
#
# Elastic Constant Matrix: (Units=GPa)
#
#
# Indices 1 2 3 4 5 6 
#
# 1 72.9807 33.8193 43.6746 0.0000 0.0000 0.0000
# 2 33.8193 73.3015 50.9588 0.0000 0.0000 0.0000
# 3 43.6746 50.9588 110.7047 0.0000 0.0000 0.0000
# 4 0.0000 0.0000 0.0000 28.6596 0.0000 0.0000
# 5 0.0000 0.0000 0.0000 0.0000 15.0722 0.0000
# 6 0.0000 0.0000 0.0000 0.0000 0.0000 14.8240
#
#
#
# Elastic Compliance Matrix: (Units=1/GPa)
#
#
# Indices 1 2 3 4 5 6 
#
# 1 0.019239 -0.005294 -0.005153 0.000000 0.000000 0.000000
# 2 -0.005294 0.021519 -0.007817 0.000000 0.000000 0.000000
# 3 -0.005153 -0.007817 0.014664 0.000000 0.000000 0.000000
# 4 0.000000 0.000000 0.000000 0.034892 0.000000 0.000000
# 5 0.000000 0.000000 0.000000 0.000000 0.066348 0.000000
# 6 0.000000 0.000000 0.000000 0.000000 0.000000 0.067458
#
#
# Mechanical properties :
#
#
# Convention : Reuss Voigt Hill
#
# Bulk Modulus (GPa) = 52.92596 57.09914 55.01255
# Shear Modulus (GPa) = 18.73028 20.28011 19.50519
#
# Velocity S-wave (km/s) = 3.52144 3.66424 3.59355
# Velocity P-wave (km/s) = 7.18151 7.46359 7.32391
#
# Compressibility (1/GPa) = 0.01889432
#
# Stress axis : x y z
#
# Youngs Moduli (GPa) = 51.97646 46.47040 68.19250
#
# Poissons Ratio (x) = 0.24601 0.35142
# Poissons Ratio (y) = 0.27516 0.53306
# Poissons Ratio (z) = 0.26785 0.36326
#
# Static dielectric constant tensor:
#      x y z
#    x 2.794740 0.000000 0.000000 
#    y 0.000000 3.094360 0.000000 
#    z 0.000000 0.000000 3.001130 
# 
# 
# High freq. dielectric constant tensor:
#      x y z
#    x 1.537280 0.000000 0.000000 
#    y 0.000000 1.593460 0.000000 
#    z 0.000000 0.000000 1.572610 
# 
# From -- ./inp_files/28515.got.cif
#   From: 2010.03.12/outbox.cif.g09.slc.cpg/sg59_15_cif.got.tgz:28515.got - 2010.04.16 16:29:54.
