data_PCOD8239923
_publ_section_title
;
Structure prediction by ZEFSAII (Michael W. Deem and Ramdas Pophale) SiO2 
 PCOD8239923
Probable space group: P M M N
;
_chemical_formula_sum "Si O2"
_cell_formula_units_Z 56
_cell_length_a 8.864198
_cell_length_b 25.534256
_cell_length_c 14.226068
_cell_angle_alpha 90.000000
_cell_angle_beta 90.000000
_cell_angle_gamma 90.000000
_cell_volume 3219.938203
_symmetry_space_group_name_H-M "P M M N"
_symmetry_group_IT_number 59
_space_group.IT_coordinate_system_code '2'
_symmetry_cell_setting 'orthorhombic'
loop_
_space_group_symop_operation_xyz
x,y,z
1/2-x,1/2-y,z
1/2+x,-y,-z
-x,1/2+y,-z
-x,-y,-z
1/2+x,1/2+y,-z
1/2-x,y,z
x,1/2-y,z
loop_
_atom_site_type_symbol
_atom_site_label
_atom_site_fract_x
_atom_site_fract_y
_atom_site_fract_z
Si Si1 0.428602 0.649444 0.719722
Si Si2 0.426002 0.447377 0.607090
Si Si3 0.574196 0.556588 0.608448
Si Si4 0.426570 0.310238 0.099863
Si Si5 0.070660 0.750000 0.396132
Si Si6 0.929521 0.250000 0.392432
Si Si7 0.426515 0.647159 0.290053
Si Si8 0.077458 0.809927 0.089898
O O1 0.250000 0.649331 0.722100
O O2 0.484480 0.596438 0.673223
O O3 0.489618 0.653212 0.825457
O O4 0.491572 0.698671 0.660249
O O5 0.250000 0.459325 0.620198
O O6 0.519305 0.498705 0.634504
O O7 0.462136 0.430563 0.500171
O O8 0.477200 0.401886 0.676487
O O9 0.750000 0.561210 0.630807
O O10 0.250000 0.317315 0.112874
O O11 0.477484 0.250000 0.114384
O O12 0.472773 0.328867 0.995648
O O13 0.250000 0.750000 0.393557
O O14 0.006488 0.750000 0.501899
O O15 0.011329 0.801724 0.343939
O O16 0.750000 0.250000 0.393642
O O17 0.250000 0.638163 0.311740
O O18 0.456221 0.653767 0.179312
O O19 0.250000 0.815571 0.057411
O O20 0.042609 0.750000 0.118546
#
# Coordination Sequence:
#
# PCOD8239923 Si02
#       8
#     8   8   8   8   4   4   8   8
#     4  11  20  33  53  78 106 138 175 217 263 314
#     4  10  21  36  54  77 105 139 179 220 262 309
#     4  10  21  37  55  76 103 138 181 223 262 307
#     4  10  20  33  50  74 105 141 176 216 262 310
#     4   9  16  28  46  73 106 138 171 205 250 307
#     4   9  18  28  44  73 106 138 169 203 250 309
#     4  10  18  31  53  78 106 139 175 217 261 307
#     4   9  17  31  51  76 104 137 177 217 256 306
#
# _framework density 17.391638
#
# number of rings (size 3 to 8) (size 9 to 14) (size 15 to 20)
#    0.000    2.143    1.429    2.571    0.000    4.000 
#    0.000    0.357    0.000    3.429    0.000    0.000 
#    0.000    0.000    0.000    0.000    0.000    0.000 
#
# Total GULP energy -694595.542940 kJ/mol
# GULP energy per Si atom -12403.491838 kJ/mol
# Density = 1.735205 g / cm^3
# Si number density = 17.391638 Si / 1000 Ang^3
#
#
#
# Elastic Constant Matrix: (Units=GPa)
#
#
# Indices 1 2 3 4 5 6 
#
# 1 59.9595 28.2594 39.2031 0.0000 0.0000 0.0000
# 2 28.2594 81.3822 53.1224 0.0000 0.0000 0.0000
# 3 39.2031 53.1224 107.1441 0.0000 0.0000 0.0000
# 4 0.0000 0.0000 0.0000 21.8170 0.0000 0.0000
# 5 0.0000 0.0000 0.0000 0.0000 26.8532 0.0000
# 6 0.0000 0.0000 0.0000 0.0000 0.0000 28.6203
#
#
#
# Elastic Compliance Matrix: (Units=1/GPa)
#
#
# Indices 1 2 3 4 5 6 
#
# 1 0.022624 -0.003626 -0.006480 0.000000 0.000000 0.000000
# 2 -0.003626 0.018748 -0.007969 0.000000 0.000000 0.000000
# 3 -0.006480 -0.007969 0.015655 0.000000 0.000000 0.000000
# 4 0.000000 0.000000 0.000000 0.045836 0.000000 0.000000
# 5 0.000000 0.000000 0.000000 0.000000 0.037240 0.000000
# 6 0.000000 0.000000 0.000000 0.000000 0.000000 0.034940
#
#
# Mechanical properties :
#
#
# Convention : Reuss Voigt Hill
#
# Bulk Modulus (GPa) = 47.89828 54.40619 51.15223
# Shear Modulus (GPa) = 22.91979 23.98481 23.45230
#
# Velocity S-wave (km/s) = 3.63418 3.71765 3.67615
# Velocity P-wave (km/s) = 6.72387 7.05541 6.89163
#
# Compressibility (1/GPa) = 0.02087758
#
# Stress axis : x y z
#
# Youngs Moduli (GPa) = 44.20138 53.33765 63.87671
#
# Poissons Ratio (x) = 0.19341 0.41392
# Poissons Ratio (y) = 0.16028 0.50902
# Poissons Ratio (z) = 0.28643 0.42504
#
# Static dielectric constant tensor:
#      x y z
#    x 3.101520 0.000000 0.000000 
#    y 0.000000 3.097080 0.000000 
#    z 0.000000 0.000000 3.263550 
# 
# 
# High freq. dielectric constant tensor:
#      x y z
#    x 1.665970 0.000000 0.000000 
#    y 0.000000 1.655550 0.000000 
#    z 0.000000 0.000000 1.673430 
# 
# From -- ./inp_files/21124.got.cif
#   From: 2010.03.12/outbox.cif.g09.slc.cpg/sg59_11_cif.got.tgz:21124.got - 2010.04.16 16:29:54.
