data_PCOD8239156
_publ_section_title
;
Structure prediction by ZEFSAII (Michael W. Deem and Ramdas Pophale) SiO2 
 PCOD8239156
Probable space group: P M M N
;
_chemical_formula_sum "Si O2"
_cell_formula_units_Z 56
_cell_length_a 13.725958
_cell_length_b 19.815109
_cell_length_c 12.766662
_cell_angle_alpha 90.000000
_cell_angle_beta 90.000000
_cell_angle_gamma 90.000000
_cell_volume 3472.294016
_symmetry_space_group_name_H-M "P M M N"
_symmetry_group_IT_number 59
_space_group.IT_coordinate_system_code '2'
_symmetry_cell_setting 'orthorhombic'
loop_
_space_group_symop_operation_xyz
x,y,z
1/2-x,1/2-y,z
1/2+x,-y,-z
-x,1/2+y,-z
-x,-y,-z
1/2+x,1/2+y,-z
1/2-x,y,z
x,1/2-y,z
loop_
_atom_site_type_symbol
_atom_site_label
_atom_site_fract_x
_atom_site_fract_y
_atom_site_fract_z
Si Si1 0.639545 0.452343 0.977523
Si Si2 0.358165 0.329096 0.881407
Si Si3 0.052223 0.095509 0.063951
Si Si4 0.860442 0.428924 0.738016
Si Si5 0.862479 0.673176 0.525593
Si Si6 0.635067 0.581877 0.718553
Si Si7 0.020717 0.171012 0.683686
O O1 0.750000 0.443396 0.019533
O O2 0.613533 0.530925 0.973443
O O3 0.628923 0.420183 0.862656
O O4 0.564412 0.415362 0.055498
O O5 0.250000 0.361436 0.883652
O O6 0.349162 0.250000 0.869111
O O7 0.415525 0.357191 0.780416
O O8 0.416038 0.344273 0.987861
O O9 0.077980 0.114039 0.183076
O O10 0.750000 0.417559 0.701954
O O11 0.895157 0.503806 0.703891
O O12 0.922169 0.372100 0.679095
O O13 0.750000 0.660686 0.498619
O O14 0.880007 0.750000 0.562446
O O15 0.897864 0.623622 0.617292
O O16 0.922036 0.656131 0.422274
O O17 0.750000 0.588196 0.740965
O O18 0.995157 0.250000 0.696168
#
# Coordination Sequence:
#
# PCOD8239156 Si02
#       7
#     8   8   8   8   8   8   8
#     4   9  17  29  47  69  94 126 159 189 229 283
#     4  10  19  29  43  68  99 123 148 192 243 286
#     4  10  17  29  48  69  95 124 155 190 234 279
#     4   9  17  31  48  68  95 123 156 200 237 272
#     4   9  18  33  51  69  92 123 155 189 233 290
#     4   9  18  31  48  71  95 123 159 194 234 282
#     4  10  19  31  47  68  92 123 160 193 234 285
#
# _framework density 16.127666999999999
#
# number of rings (size 3 to 8) (size 9 to 14) (size 15 to 20)
#    0.000    2.571    1.429    2.571    0.000    3.143 
#    0.000    1.429    0.000    1.286    0.000    0.000 
#    0.000    0.000    0.000    0.000    0.000    0.000 
#
# Total GULP energy -694395.360317 kJ/mol
# GULP energy per Si atom -12399.917149 kJ/mol
# Density = 1.609096 g / cm^3
# Si number density = 16.127667 Si / 1000 Ang^3
#
#
#
# Elastic Constant Matrix: (Units=GPa)
#
#
# Indices 1 2 3 4 5 6 
#
# 1 97.4680 37.3077 50.8009 0.0000 0.0000 0.0000
# 2 37.3077 50.3033 45.7606 0.0000 0.0000 0.0000
# 3 50.8009 45.7606 100.0099 0.0000 0.0000 0.0000
# 4 0.0000 0.0000 0.0000 24.6282 0.0000 0.0000
# 5 0.0000 0.0000 0.0000 0.0000 25.9220 0.0000
# 6 0.0000 0.0000 0.0000 0.0000 0.0000 23.5581
#
#
#
# Elastic Compliance Matrix: (Units=1/GPa)
#
#
# Indices 1 2 3 4 5 6 
#
# 1 0.015402 -0.007376 -0.004448 0.000000 0.000000 0.000000
# 2 -0.007376 0.037586 -0.013451 0.000000 0.000000 0.000000
# 3 -0.004448 -0.013451 0.018413 0.000000 0.000000 0.000000
# 4 0.000000 0.000000 0.000000 0.040604 0.000000 0.000000
# 5 0.000000 0.000000 0.000000 0.000000 0.038577 0.000000
# 6 0.000000 0.000000 0.000000 0.000000 0.000000 0.042448
#
#
# Mechanical properties :
#
#
# Convention : Reuss Voigt Hill
#
# Bulk Modulus (GPa) = 47.96178 57.27997 52.62088
# Shear Modulus (GPa) = 19.95749 22.41579 21.18664
#
# Velocity S-wave (km/s) = 3.52158 3.73218 3.62841
# Velocity P-wave (km/s) = 6.80726 7.35975 7.08889
#
# Compressibility (1/GPa) = 0.02084993
#
# Stress axis : x y z
#
# Youngs Moduli (GPa) = 64.92820 26.60534 54.30812
#
# Poissons Ratio (x) = 0.19624 0.24159
# Poissons Ratio (y) = 0.47891 0.73052
# Poissons Ratio (z) = 0.28883 0.35788
#
# Static dielectric constant tensor:
#      x y z
#    x 3.108480 0.000000 0.000000 
#    y 0.000000 2.909880 0.000000 
#    z 0.000000 0.000000 2.976510 
# 
# 
# High freq. dielectric constant tensor:
#      x y z
#    x 1.616610 0.000000 0.000000 
#    y 0.000000 1.606020 0.000000 
#    z 0.000000 0.000000 1.608020 
# 
# From -- ./inp_files/16021.got.cif
#   From: 2010.03.12/outbox.cif.g09.slc.cpg/sg59_9_cif.got.tgz:16021.got - 2010.04.16 16:29:54.
