data_PCOD8239645
_publ_section_title
;
Structure prediction by ZEFSAII (Michael W. Deem and Ramdas Pophale) SiO2 
 PCOD8239645
Probable space group: P M M N
;
_chemical_formula_sum "Si O2"
_cell_formula_units_Z 64
_cell_length_a 9.206512
_cell_length_b 23.282614
_cell_length_c 19.299451
_cell_angle_alpha 90.000000
_cell_angle_beta 90.000000
_cell_angle_gamma 90.000000
_cell_volume 4136.869459
_symmetry_space_group_name_H-M "P M M N"
_symmetry_group_IT_number 59
_space_group.IT_coordinate_system_code '2'
_symmetry_cell_setting 'orthorhombic'
loop_
_space_group_symop_operation_xyz
x,y,z
1/2-x,1/2-y,z
1/2+x,-y,-z
-x,1/2+y,-z
-x,-y,-z
1/2+x,1/2+y,-z
1/2-x,y,z
x,1/2-y,z
loop_
_atom_site_type_symbol
_atom_site_label
_atom_site_fract_x
_atom_site_fract_y
_atom_site_fract_z
Si Si1 0.579465 0.979586 0.102387
Si Si2 0.420245 0.816234 0.602153
Si Si3 0.078901 0.997015 0.749926
Si Si4 0.578199 0.367257 0.250726
Si Si5 0.419570 0.087671 0.471464
Si Si6 0.582109 0.814752 0.877764
Si Si7 0.918688 0.581664 0.969281
Si Si8 0.918852 0.984740 0.400064
O O1 0.750000 0.990889 0.101724
O O2 0.525304 0.967983 0.181593
O O3 0.507791 0.038259 0.077699
O O4 0.538532 0.926980 0.050737
O O5 0.250000 0.826052 0.591234
O O6 0.463643 0.750000 0.593883
O O7 0.469939 0.838025 0.677475
O O8 0.504828 0.851516 0.542902
O O9 0.250000 0.991565 0.751953
O O10 0.033493 0.029873 0.679129
O O11 0.016350 0.932158 0.750509
O O12 0.750000 0.364862 0.241776
O O13 0.510368 0.331263 0.188723
O O14 0.250000 0.092249 0.454871
O O15 0.447724 0.070682 0.551953
O O16 0.487414 0.038917 0.423181
O O17 0.750000 0.821848 0.857446
O O18 0.544692 0.750000 0.900090
O O19 0.543303 0.854119 0.944515
O O20 0.750000 0.567330 0.958600
O O21 0.750000 0.003425 0.403970
#
# Coordination Sequence:
#
# PCOD8239645 Si02
#       8
#     8   8   8   8   8   8   8   8
#     4   9  16  27  44  63  81 105 139 175 211 248
#     4  10  20  33  47  61  84 120 153 179 211 253
#     4   9  15  26  46  66  84 110 141 174 210 252
#     4  10  18  30  46  63  84 114 152 182 202 239
#     4  10  19  29  45  67  88 113 144 182 220 253
#     4  10  20  31  41  57  86 120 146 172 210 250
#     4   9  17  28  41  59  83 110 139 173 210 249
#     4   9  17  31  47  63  87 116 144 175 218 265
#
# _framework density 15.470635
#
# number of rings (size 3 to 8) (size 9 to 14) (size 15 to 20)
#    0.000    2.500    2.500    0.750    0.000    2.000 
#    0.000    0.625    0.000    0.000    0.000    0.875 
#    0.000    5.000    0.000    0.625    0.000    1.375 
#
# Total GULP energy -793216.824559 kJ/mol
# GULP energy per Si atom -12394.012884 kJ/mol
# Density = 1.543542 g / cm^3
# Si number density = 15.470635 Si / 1000 Ang^3
#
#
#
# Elastic Constant Matrix: (Units=GPa)
#
#
# Indices 1 2 3 4 5 6 
#
# 1 32.0627 28.6397 33.6096 0.0000 0.0000 0.0000
# 2 28.6397 91.4865 69.6485 0.0000 0.0000 0.0000
# 3 33.6096 69.6485 149.6197 0.0000 0.0000 0.0000
# 4 0.0000 0.0000 0.0000 24.3063 0.0000 0.0000
# 5 0.0000 0.0000 0.0000 0.0000 18.6223 0.0000
# 6 0.0000 0.0000 0.0000 0.0000 0.0000 19.9596
#
#
#
# Elastic Compliance Matrix: (Units=1/GPa)
#
#
# Indices 1 2 3 4 5 6 
#
# 1 0.046181 -0.010160 -0.005644 0.000000 0.000000 0.000000
# 2 -0.010160 0.019166 -0.006639 0.000000 0.000000 0.000000
# 3 -0.005644 -0.006639 0.011042 0.000000 0.000000 0.000000
# 4 0.000000 0.000000 0.000000 0.041142 0.000000 0.000000
# 5 0.000000 0.000000 0.000000 0.000000 0.053699 0.000000
# 6 0.000000 0.000000 0.000000 0.000000 0.000000 0.050101
#
#
# Mechanical properties :
#
#
# Convention : Reuss Voigt Hill
#
# Bulk Modulus (GPa) = 31.74457 59.66271 45.70364
# Shear Modulus (GPa) = 18.06893 21.99571 20.03232
#
# Velocity S-wave (km/s) = 3.42124 3.77473 3.60232
# Velocity P-wave (km/s) = 6.01417 7.59256 6.84899
#
# Compressibility (1/GPa) = 0.03150145
#
# Stress axis : x y z
#
# Youngs Moduli (GPa) = 21.65410 52.17648 90.56149
#
# Poissons Ratio (x) = 0.53010 0.51116
# Poissons Ratio (y) = 0.22000 0.60128
# Poissons Ratio (z) = 0.12222 0.34643
#
# Static dielectric constant tensor:
#      x y z
#    x 2.887880 0.000000 0.000000 
#    y 0.000000 2.894650 0.000000 
#    z 0.000000 0.000000 3.386850 
# 
# 
# High freq. dielectric constant tensor:
#      x y z
#    x 1.584680 0.000000 0.000000 
#    y 0.000000 1.564950 0.000000 
#    z 0.000000 0.000000 1.596380 
# 
# From -- ./inp_files/29654.got.cif
#   From: 2010.03.12/outbox.cif.g09.slc.cpg/sg59_15_cif.got.tgz:29654.got - 2010.04.16 16:29:54.
