data_PCOD8239435
_publ_section_title
;
Structure prediction by ZEFSAII (Michael W. Deem and Ramdas Pophale) SiO2 
 PCOD8239435
Probable space group: P M M N
;
_chemical_formula_sum "Si O2"
_cell_formula_units_Z 64
_cell_length_a 13.952526
_cell_length_b 13.689378
_cell_length_c 18.148083
_cell_angle_alpha 90.000000
_cell_angle_beta 90.000000
_cell_angle_gamma 90.000000
_cell_volume 3466.309305
_symmetry_space_group_name_H-M "P M M N"
_symmetry_group_IT_number 59
_space_group.IT_coordinate_system_code '2'
_symmetry_cell_setting 'orthorhombic'
loop_
_space_group_symop_operation_xyz
x,y,z
1/2-x,1/2-y,z
1/2+x,-y,-z
-x,1/2+y,-z
-x,-y,-z
1/2+x,1/2+y,-z
1/2-x,y,z
x,1/2-y,z
loop_
_atom_site_type_symbol
_atom_site_label
_atom_site_fract_x
_atom_site_fract_y
_atom_site_fract_z
Si Si1 0.979443 0.866291 0.062153
Si Si2 0.960534 0.861739 0.504978
Si Si3 0.859837 0.950075 0.643866
Si Si4 0.864597 0.526035 0.940551
Si Si5 0.857403 0.865895 0.200113
Si Si6 0.356170 0.642437 0.427020
Si Si7 0.863430 0.640320 0.794995
Si Si8 0.642582 0.865813 0.361871
O O1 0.997740 0.750000 0.057414
O O2 0.934271 0.900497 0.139887
O O3 0.901545 0.897595 0.001298
O O4 0.080798 0.922132 0.051169
O O5 0.929050 0.750000 0.513389
O O6 0.923279 0.915840 0.575970
O O7 0.920217 0.908338 0.428720
O O8 0.074697 0.876864 0.496952
O O9 0.750000 0.914855 0.633103
O O10 0.902647 0.908866 0.719867
O O11 0.866998 0.067956 0.641660
O O12 0.750000 0.509920 0.948052
O O13 0.894638 0.573202 0.862790
O O14 0.750000 0.906425 0.182576
O O15 0.851596 0.750000 0.199688
O O16 0.891404 0.903685 0.281074
O O17 0.250000 0.635463 0.460791
O O18 0.378000 0.750000 0.393477
O O19 0.750000 0.645883 0.791733
O O20 0.906091 0.750000 0.802729
O O21 0.750000 0.901406 0.376194
O O22 0.635593 0.750000 0.362351
#
# Coordination Sequence:
#
# PCOD8239435 Si02
#       8
#     8   8   8   8   8   8   8   8
#     4  10  20  34  55  81 105 135 178 221 259 308
#     4  10  18  28  46  70  95 126 164 209 262 311
#     4  10  19  31  49  73  98 125 165 212 252 298
#     4  10  21  36  54  79 110 142 175 212 260 315
#     4   8  14  26  45  69  97 129 165 207 257 312
#     4   9  19  34  47  61  88 128 171 211 253 307
#     4   9  18  33  52  74 102 134 166 204 250 299
#     4   8  14  24  39  64  97 125 150 192 255 315
#
# _framework density 18.463443000000002
#
# number of rings (size 3 to 8) (size 9 to 14) (size 15 to 20)
#    0.000    2.750    0.000    2.625    0.000    3.750 
#    0.000    1.875    0.000    2.250    0.000    3.500 
#    0.000    8.000    0.000    0.000    0.000    0.000 
#
# Total GULP energy -793061.487473 kJ/mol
# GULP energy per Si atom -12391.585742 kJ/mol
# Density = 1.842142 g / cm^3
# Si number density = 18.463443 Si / 1000 Ang^3
#
#
#
# Elastic Constant Matrix: (Units=GPa)
#
#
# Indices 1 2 3 4 5 6 
#
# 1 88.4258 38.8378 49.7173 0.0000 0.0000 0.0000
# 2 38.8378 88.2198 45.4345 0.0000 0.0000 0.0000
# 3 49.7173 45.4345 132.9408 0.0000 0.0000 0.0000
# 4 0.0000 0.0000 0.0000 21.8427 0.0000 0.0000
# 5 0.0000 0.0000 0.0000 0.0000 10.0129 0.0000
# 6 0.0000 0.0000 0.0000 0.0000 0.0000 14.3330
#
#
#
# Elastic Compliance Matrix: (Units=1/GPa)
#
#
# Indices 1 2 3 4 5 6 
#
# 1 0.015806 -0.004750 -0.004288 0.000000 0.000000 0.000000
# 2 -0.004750 0.015184 -0.003413 0.000000 0.000000 0.000000
# 3 -0.004288 -0.003413 0.010292 0.000000 0.000000 0.000000
# 4 0.000000 0.000000 0.000000 0.045782 0.000000 0.000000
# 5 0.000000 0.000000 0.000000 0.000000 0.099871 0.000000
# 6 0.000000 0.000000 0.000000 0.000000 0.000000 0.069769
#
#
# Mechanical properties :
#
#
# Convention : Reuss Voigt Hill
#
# Bulk Modulus (GPa) = 61.04759 64.17395 62.61077
# Shear Modulus (GPa) = 17.41757 20.94418 19.18088
#
# Velocity S-wave (km/s) = 3.07474 3.37168 3.22663
# Velocity P-wave (km/s) = 6.76322 7.07039 6.91851
#
# Compressibility (1/GPa) = 0.01638066
#
# Stress axis : x y z
#
# Youngs Moduli (GPa) = 63.26703 65.85765 97.16198
#
# Poissons Ratio (x) = 0.31284 0.41660
# Poissons Ratio (y) = 0.30053 0.33161
# Poissons Ratio (z) = 0.27127 0.22477
#
# Static dielectric constant tensor:
#      x y z
#    x 3.389620 0.000000 0.000000 
#    y 0.000000 3.355530 0.000000 
#    z 0.000000 0.000000 3.656490 
# 
# 
# High freq. dielectric constant tensor:
#      x y z
#    x 1.707330 0.000000 0.000000 
#    y 0.000000 1.698230 0.000000 
#    z 0.000000 0.000000 1.712800 
# 
# From -- ./inp_files/27747.got.cif
#   From: 2010.03.12/outbox.cif.g09.slc.cpg/sg59_14_cif.got.tgz:27747.got - 2010.04.16 16:29:54.
