data_PCOD8239859
_publ_section_title
;
Structure prediction by ZEFSAII (Michael W. Deem and Ramdas Pophale) SiO2 
 PCOD8239859
Probable space group: P M M N
;
_chemical_formula_sum "Si O2"
_cell_formula_units_Z 64
_cell_length_a 22.961550
_cell_length_b 9.120222
_cell_length_c 18.775194
_cell_angle_alpha 90.000000
_cell_angle_beta 90.000000
_cell_angle_gamma 90.000000
_cell_volume 3931.796615
_symmetry_space_group_name_H-M "P M M N"
_symmetry_group_IT_number 59
_space_group.IT_coordinate_system_code '2'
_symmetry_cell_setting 'orthorhombic'
loop_
_space_group_symop_operation_xyz
x,y,z
1/2-x,1/2-y,z
1/2+x,-y,-z
-x,1/2+y,-z
-x,-y,-z
1/2+x,1/2+y,-z
1/2-x,y,z
x,1/2-y,z
loop_
_atom_site_type_symbol
_atom_site_label
_atom_site_fract_x
_atom_site_fract_y
_atom_site_fract_z
Si Si1 0.909223 0.079492 0.017224
Si Si2 0.682423 0.918805 0.107348
Si Si3 0.503952 0.080289 0.257045
Si Si4 0.363117 0.578488 0.755742
Si Si5 0.817522 0.417553 0.398237
Si Si6 0.474089 0.417408 0.099040
Si Si7 0.087854 0.421248 0.516441
Si Si8 0.526090 0.078579 0.604925
O O1 0.894893 0.250000 0.011238
O O2 0.960520 0.046573 0.073469
O O3 0.852010 0.996749 0.043605
O O4 0.927454 0.021115 0.939436
O O5 0.750000 0.936835 0.089368
O O6 0.663526 0.750000 0.110958
O O7 0.669273 0.991125 0.182958
O O8 0.502770 0.250000 0.280030
O O9 0.570278 0.026295 0.249886
O O10 0.470295 0.054141 0.183138
O O11 0.470617 0.985381 0.315801
O O12 0.359704 0.750000 0.774692
O O13 0.330331 0.538931 0.682990
O O14 0.750000 0.440348 0.414401
O O15 0.837180 0.250000 0.411234
O O16 0.851744 0.521869 0.451979
O O17 0.458944 0.250000 0.079808
O O18 0.092395 0.250000 0.500840
O O19 0.075841 0.502478 0.442155
O O20 0.037121 0.458363 0.572647
O O21 0.538906 0.250000 0.606925
#
# Coordination Sequence:
#
# PCOD8239859 Si02
#       8
#     8   8   8   8   8   8   8   8
#     4  10  19  33  51  72  95 128 168 206 247 291
#     4  11  23  35  48  69  99 135 172 210 249 288
#     4  10  18  31  51  74 101 132 164 199 244 298
#     4  10  19  33  50  70  99 135 174 206 237 287
#     4  10  20  33  50  71  98 134 171 207 246 287
#     4   9  18  32  49  72 100 129 160 201 250 294
#     4  10  20  33  49  70  96 130 167 207 250 291
#     4  10  20  32  49  72  98 128 164 206 251 295
#
# _framework density 16.277545
#
# number of rings (size 3 to 8) (size 9 to 14) (size 15 to 20)
#    0.000    2.000    2.500    1.875    0.000    4.750 
#    0.000    0.000    0.000    0.000    0.000    0.875 
#    0.000    1.000    0.000    0.000    0.000    0.000 
#
# Total GULP energy -793902.781272 kJ/mol
# GULP energy per Si atom -12404.730957 kJ/mol
# Density = 1.624050 g / cm^3
# Si number density = 16.277545 Si / 1000 Ang^3
#
#
#
# Elastic Constant Matrix: (Units=GPa)
#
#
# Indices 1 2 3 4 5 6 
#
# 1 69.5023 47.8333 43.8334 0.0000 0.0000 0.0000
# 2 47.8333 93.1665 56.8313 0.0000 0.0000 0.0000
# 3 43.8334 56.8313 97.2963 0.0000 0.0000 0.0000
# 4 0.0000 0.0000 0.0000 32.5140 0.0000 0.0000
# 5 0.0000 0.0000 0.0000 0.0000 22.1073 0.0000
# 6 0.0000 0.0000 0.0000 0.0000 0.0000 25.8425
#
#
#
# Elastic Compliance Matrix: (Units=1/GPa)
#
#
# Indices 1 2 3 4 5 6 
#
# 1 0.024088 -0.008929 -0.005637 0.000000 0.000000 0.000000
# 2 -0.008929 0.019984 -0.007650 0.000000 0.000000 0.000000
# 3 -0.005637 -0.007650 0.017286 0.000000 0.000000 0.000000
# 4 0.000000 0.000000 0.000000 0.030756 0.000000 0.000000
# 5 0.000000 0.000000 0.000000 0.000000 0.045234 0.000000
# 6 0.000000 0.000000 0.000000 0.000000 0.000000 0.038696
#
#
# Mechanical properties :
#
#
# Convention : Reuss Voigt Hill
#
# Bulk Modulus (GPa) = 59.07885 61.88458 60.48172
# Shear Modulus (GPa) = 22.11236 23.52391 22.81813
#
# Velocity S-wave (km/s) = 3.68972 3.80567 3.74815
# Velocity P-wave (km/s) = 7.38414 7.57705 7.48122
#
# Compressibility (1/GPa) = 0.01692653
#
# Stress axis : x y z
#
# Youngs Moduli (GPa) = 41.51458 50.03895 57.85059
#
# Poissons Ratio (x) = 0.44679 0.32608
# Poissons Ratio (y) = 0.37068 0.44258
# Poissons Ratio (z) = 0.23400 0.38282
#
# Static dielectric constant tensor:
#      x y z
#    x 2.864240 0.000000 0.000000 
#    y 0.000000 3.113180 0.000000 
#    z 0.000000 0.000000 3.012130 
# 
# 
# High freq. dielectric constant tensor:
#      x y z
#    x 1.599130 0.000000 0.000000 
#    y 0.000000 1.634900 0.000000 
#    z 0.000000 0.000000 1.620610 
# 
# From -- ./inp_files/26480.got.cif
#   From: 2010.03.12/outbox.cif.g09.slc.cpg/sg59_14_cif.got.tgz:26480.got - 2010.04.16 16:29:54.
