data_PCOD8239057
_publ_section_title
;
Structure prediction by ZEFSAII (Michael W. Deem and Ramdas Pophale) SiO2 
 PCOD8239057
Probable space group: P M M N
;
_chemical_formula_sum "Si O2"
_cell_formula_units_Z 64
_cell_length_a 18.196515
_cell_length_b 9.074959
_cell_length_c 21.599326
_cell_angle_alpha 90.000000
_cell_angle_beta 90.000000
_cell_angle_gamma 90.000000
_cell_volume 3566.753456
_symmetry_space_group_name_H-M "P M M N"
_symmetry_group_IT_number 59
_space_group.IT_coordinate_system_code '2'
_symmetry_cell_setting 'orthorhombic'
loop_
_space_group_symop_operation_xyz
x,y,z
1/2-x,1/2-y,z
1/2+x,-y,-z
-x,1/2+y,-z
-x,-y,-z
1/2+x,1/2+y,-z
1/2-x,y,z
x,1/2-y,z
loop_
_atom_site_type_symbol
_atom_site_label
_atom_site_fract_x
_atom_site_fract_y
_atom_site_fract_z
Si Si1 0.593916 0.422554 0.755048
Si Si2 0.665815 0.922003 0.249751
Si Si3 0.465663 0.079221 0.058319
Si Si4 0.923225 0.922854 0.636783
Si Si5 0.575600 0.581084 0.503919
Si Si6 0.578549 0.579223 0.370275
Si Si7 0.959348 0.421233 0.186661
Si Si8 0.666195 0.078436 0.881785
O O1 0.585236 0.250000 0.745575
O O2 0.622495 0.495062 0.691047
O O3 0.513956 0.488712 0.769333
O O4 0.650191 0.461411 0.810125
O O5 0.750000 0.970280 0.244771
O O6 0.655380 0.750000 0.235257
O O7 0.638337 0.961952 0.318725
O O8 0.621934 0.015994 0.198492
O O9 0.455725 0.250000 0.043199
O O10 0.520576 0.051948 0.115273
O O11 0.385308 0.014098 0.072719
O O12 0.500000 0.000000 0.000000
O O13 0.921275 0.750000 0.650845
O O14 0.885407 0.962648 0.569534
O O15 0.007358 0.977844 0.637755
O O16 0.500000 0.500000 0.500000
O O17 0.554665 0.750000 0.510590
O O18 0.617327 0.551850 0.438424
O O19 0.554093 0.750000 0.364310
O O20 0.964172 0.250000 0.204075
O O21 0.750000 0.036625 0.896596
O O22 0.650422 0.250000 0.893595
#
# Coordination Sequence:
#
# PCOD8239057 Si02
#       8
#     8   8   8   8   8   8   8   8
#     4  10  18  29  49  74 100 132 166 204 253 305
#     4  10  20  32  48  71  98 131 172 216 261 308
#     4  10  21  37  59  86 112 141 174 208 249 298
#     4  10  17  25  41  67  96 124 161 208 256 304
#     4   8  15  25  38  59  87 119 156 201 252 304
#     4   9  16  28  44  61  88 125 165 209 259 310
#     4  10  20  34  52  75 102 130 165 208 250 293
#     4   9  19  36  57  81 109 140 174 212 255 304
#
# _framework density 17.943487999999999
#
# number of rings (size 3 to 8) (size 9 to 14) (size 15 to 20)
#    0.000    2.500    1.250    1.500    0.000    3.000 
#    0.000    0.625    0.000    1.500    0.000    1.750 
#    0.000    0.000    0.000    0.000    0.000    0.000 
#
# Total GULP energy -793134.434040 kJ/mol
# GULP energy per Si atom -12392.725532 kJ/mol
# Density = 1.790265 g / cm^3
# Si number density = 17.943488 Si / 1000 Ang^3
#
#
#
# Elastic Constant Matrix: (Units=GPa)
#
#
# Indices 1 2 3 4 5 6 
#
# 1 84.9460 39.4881 47.9319 0.0000 0.0000 0.0000
# 2 39.4881 81.4273 58.7531 0.0000 0.0000 0.0000
# 3 47.9319 58.7531 128.4314 0.0000 0.0000 0.0000
# 4 0.0000 0.0000 0.0000 31.4094 0.0000 0.0000
# 5 0.0000 0.0000 0.0000 0.0000 18.5860 0.0000
# 6 0.0000 0.0000 0.0000 0.0000 0.0000 19.2337
#
#
#
# Elastic Compliance Matrix: (Units=1/GPa)
#
#
# Indices 1 2 3 4 5 6 
#
# 1 0.016286 -0.005243 -0.003680 0.000000 0.000000 0.000000
# 2 -0.005243 0.020020 -0.007202 0.000000 0.000000 0.000000
# 3 -0.003680 -0.007202 0.012454 0.000000 0.000000 0.000000
# 4 0.000000 0.000000 0.000000 0.031838 0.000000 0.000000
# 5 0.000000 0.000000 0.000000 0.000000 0.053804 0.000000
# 6 0.000000 0.000000 0.000000 0.000000 0.000000 0.051992
#
#
# Mechanical properties :
#
#
# Convention : Reuss Voigt Hill
#
# Bulk Modulus (GPa) = 60.56452 65.23898 62.90175
# Shear Modulus (GPa) = 22.30702 23.75458 23.03080
#
# Velocity S-wave (km/s) = 3.52970 3.64243 3.58651
# Velocity P-wave (km/s) = 7.10197 7.35708 7.23065
#
# Compressibility (1/GPa) = 0.01651132
#
# Stress axis : x y z
#
# Youngs Moduli (GPa) = 61.40409 49.95095 80.29522
#
# Poissons Ratio (x) = 0.26188 0.29545
# Poissons Ratio (y) = 0.32192 0.57826
# Poissons Ratio (z) = 0.22594 0.35973
#
# Static dielectric constant tensor:
#      x y z
#    x 2.961110 0.000000 0.000000 
#    y 0.000000 3.340660 0.000000 
#    z 0.000000 0.000000 3.773860 
# 
# 
# High freq. dielectric constant tensor:
#      x y z
#    x 1.646250 0.000000 0.000000 
#    y 0.000000 1.700900 0.000000 
#    z 0.000000 0.000000 1.710170 
# 
# From -- ./inp_files/30675.got.cif
#   From: 2010.03.12/outbox.cif.g09.slc.cpg/sg59_16_cif.got.tgz:30675.got - 2010.04.16 16:29:54.
