data_PCOD8239271
_publ_section_title
;
Structure prediction by ZEFSAII (Michael W. Deem and Ramdas Pophale) SiO2 
 PCOD8239271
Probable space group: P M M N
;
_chemical_formula_sum "Si O2"
_cell_formula_units_Z 64
_cell_length_a 9.003949
_cell_length_b 21.560065
_cell_length_c 20.218759
_cell_angle_alpha 90.000000
_cell_angle_beta 90.000000
_cell_angle_gamma 90.000000
_cell_volume 3924.981264
_symmetry_space_group_name_H-M "P M M N"
_symmetry_group_IT_number 59
_space_group.IT_coordinate_system_code '2'
_symmetry_cell_setting 'orthorhombic'
loop_
_space_group_symop_operation_xyz
x,y,z
1/2-x,1/2-y,z
1/2+x,-y,-z
-x,1/2+y,-z
-x,-y,-z
1/2+x,1/2+y,-z
1/2-x,y,z
x,1/2-y,z
loop_
_atom_site_type_symbol
_atom_site_label
_atom_site_fract_x
_atom_site_fract_y
_atom_site_fract_z
Si Si1 0.078404 0.038875 0.727396
Si Si2 0.422021 0.534376 0.403384
Si Si3 0.579880 0.393430 0.252241
Si Si4 0.918065 0.442106 0.857159
Si Si5 0.424072 0.064489 0.984526
Si Si6 0.077915 0.586429 0.542717
Si Si7 0.084913 0.089141 0.125985
Si Si8 0.076308 0.177932 0.367783
O O1 0.250000 0.057261 0.726150
O O2 0.000456 0.063667 0.660711
O O3 0.002711 0.073613 0.789155
O O4 0.054665 0.965240 0.731388
O O5 0.250000 0.522041 0.388176
O O6 0.496359 0.469304 0.420572
O O7 0.443118 0.582435 0.463769
O O8 0.750000 0.373563 0.260339
O O9 0.530449 0.379615 0.176608
O O10 0.480135 0.353125 0.300663
O O11 0.750000 0.417511 0.852508
O O12 0.923892 0.515166 0.869388
O O13 0.000440 0.407240 0.918392
O O14 0.250000 0.053874 0.971466
O O15 0.449550 0.108148 0.049466
O O16 0.500000 0.000000 0.000000
O O17 0.250000 0.582995 0.563130
O O18 0.007454 0.650296 0.568230
O O19 0.250000 0.111456 0.145693
O O20 0.250000 0.165114 0.375259
O O21 0.038376 0.250000 0.364942
#
# Coordination Sequence:
#
# PCOD8239271 Si02
#       8
#     8   8   8   8   8   8   8   8
#     4  10  18  27  41  62  86 113 146 180 218 261
#     4  10  19  30  47  67  90 115 142 181 223 267
#     4  10  19  29  43  62  82 107 143 183 220 262
#     4   9  16  24  35  52  77 109 142 175 213 251
#     4   9  15  23  34  50  73 103 139 175 210 247
#     4  10  20  33  48  68  88 112 145 180 223 269
#     4   8  15  25  37  52  74 105 138 175 214 250
#     4  11  23  36  50  66  86 115 148 185 229 273
#
# _framework density 16.305810999999999
#
# number of rings (size 3 to 8) (size 9 to 14) (size 15 to 20)
#    0.000    2.375    1.250    3.375    0.000    7.000 
#    0.000    0.000    0.000    0.000    0.000    0.000 
#    0.000    0.000    0.000    1.125    0.000   18.875 
#
# Total GULP energy -793391.654957 kJ/mol
# GULP energy per Si atom -12396.744609 kJ/mol
# Density = 1.626870 g / cm^3
# Si number density = 16.305811 Si / 1000 Ang^3
#
#
#
# Elastic Constant Matrix: (Units=GPa)
#
#
# Indices 1 2 3 4 5 6 
#
# 1 120.8339 19.9652 69.7969 0.0000 0.0000 0.0000
# 2 19.9652 24.4913 18.2025 0.0000 0.0000 0.0000
# 3 69.7969 18.2025 144.0491 0.0000 0.0000 0.0000
# 4 0.0000 0.0000 0.0000 8.0098 0.0000 0.0000
# 5 0.0000 0.0000 0.0000 0.0000 36.7983 0.0000
# 6 0.0000 0.0000 0.0000 0.0000 0.0000 13.5902
#
#
#
# Elastic Compliance Matrix: (Units=1/GPa)
#
#
# Indices 1 2 3 4 5 6 
#
# 1 0.012282 -0.006169 -0.005172 0.000000 0.000000 0.000000
# 2 -0.006169 0.048161 -0.003097 0.000000 0.000000 0.000000
# 3 -0.005172 -0.003097 0.009839 0.000000 0.000000 0.000000
# 4 0.000000 0.000000 0.000000 0.124846 0.000000 0.000000
# 5 0.000000 0.000000 0.000000 0.000000 0.027175 0.000000
# 6 0.000000 0.000000 0.000000 0.000000 0.000000 0.073583
#
#
# Mechanical properties :
#
#
# Convention : Reuss Voigt Hill
#
# Bulk Modulus (GPa) = 24.14979 56.14483 40.14731
# Shear Modulus (GPa) = 14.76823 23.77364 19.27094
#
# Velocity S-wave (km/s) = 3.01276 3.82250 3.44153
# Velocity P-wave (km/s) = 5.19085 7.34773 6.36137
#
# Compressibility (1/GPa) = 0.04140822
#
# Stress axis : x y z
#
# Youngs Moduli (GPa) = 81.41704 20.76358 101.63328
#
# Poissons Ratio (x) = 0.12809 0.52562
# Poissons Ratio (y) = 0.50225 0.31474
# Poissons Ratio (z) = 0.42107 0.06430
#
# Static dielectric constant tensor:
#      x y z
#    x 3.288530 0.000000 0.000000 
#    y 0.000000 2.532220 0.000000 
#    z 0.000000 0.000000 5.483430 
# 
# 
# High freq. dielectric constant tensor:
#      x y z
#    x 1.648800 0.000000 0.000000 
#    y 0.000000 1.535210 0.000000 
#    z 0.000000 0.000000 1.649970 
# 
# From -- ./inp_files/29783.got.cif
#   From: 2010.03.12/outbox.cif.g09.slc.cpg/sg59_15_cif.got.tgz:29783.got - 2010.04.16 16:29:54.
