data_PCOD8239878
_publ_section_title
;
Structure prediction by ZEFSAII (Michael W. Deem and Ramdas Pophale) SiO2 
 PCOD8239878
Probable space group: P M M N
;
_chemical_formula_sum "Si O2"
_cell_formula_units_Z 48
_cell_length_a 9.219003
_cell_length_b 18.239326
_cell_length_c 15.998950
_cell_angle_alpha 90.000000
_cell_angle_beta 90.000000
_cell_angle_gamma 90.000000
_cell_volume 2690.197862
_symmetry_space_group_name_H-M "P M M N"
_symmetry_group_IT_number 59
_space_group.IT_coordinate_system_code '2'
_symmetry_cell_setting 'orthorhombic'
loop_
_space_group_symop_operation_xyz
x,y,z
1/2-x,1/2-y,z
1/2+x,-y,-z
-x,1/2+y,-z
-x,-y,-z
1/2+x,1/2+y,-z
1/2-x,y,z
x,1/2-y,z
loop_
_atom_site_type_symbol
_atom_site_label
_atom_site_fract_x
_atom_site_fract_y
_atom_site_fract_z
Si Si1 0.419253 0.015816 0.630885
Si Si2 0.422238 0.389879 0.113937
Si Si3 0.078433 0.332640 0.933863
Si Si4 0.419605 0.099656 0.469016
Si Si5 0.078575 0.034362 0.820351
Si Si6 0.422471 0.250000 0.218019
Si Si7 0.078679 0.250000 0.403919
O O1 0.250000 0.998611 0.626474
O O2 0.503769 0.943065 0.606060
O O3 0.464911 0.041450 0.723020
O O4 0.464868 0.076812 0.562551
O O5 0.250000 0.401588 0.119900
O O6 0.498883 0.465614 0.138118
O O7 0.477371 0.324169 0.173505
O O8 0.472693 0.366893 0.021469
O O9 0.250000 0.325714 0.933520
O O10 0.013513 0.250000 0.920442
O O11 0.026450 0.389088 0.861945
O O12 0.250000 0.089544 0.454207
O O13 0.473725 0.182046 0.458649
O O14 0.250000 0.022892 0.832576
O O15 0.250000 0.250000 0.215229
O O16 0.488859 0.250000 0.311118
O O17 0.250000 0.250000 0.392294
#
# Coordination Sequence:
#
# PCOD8239878 Si02
#       7
#     8   8   8   8   8   4   4
#     4   9  18  32  47  68  97 127 156 191 236 286
#     4  10  18  31  52  73  94 125 166 202 235 280
#     4   9  17  32  51  71  97 130 163 197 238 284
#     4   9  17  31  50  69  93 124 158 197 238 278
#     4  10  20  32  48  73 101 127 159 198 241 290
#     4   9  16  26  45  72  96 118 153 203 243 275
#     4   9  16  26  43  70  94 112 147 199 241 269
#
# _framework density 17.842552999999999
#
# number of rings (size 3 to 8) (size 9 to 14) (size 15 to 20)
#    0.000    2.667    0.833    1.500    0.000    2.000 
#    1.500    0.833    0.000    4.500    0.000    0.000 
#    0.000    0.000    0.000    0.000    0.000    0.000 
#
# Total GULP energy -594974.619821 kJ/mol
# GULP energy per Si atom -12395.304580 kJ/mol
# Density = 1.780194 g / cm^3
# Si number density = 17.842553 Si / 1000 Ang^3
#
#
#
# Elastic Constant Matrix: (Units=GPa)
#
#
# Indices 1 2 3 4 5 6 
#
# 1 18.4705 31.1855 24.6164 0.0000 0.0000 0.0000
# 2 31.1855 174.6661 94.4150 0.0000 0.0000 0.0000
# 3 24.6164 94.4150 129.8789 0.0000 0.0000 0.0000
# 4 0.0000 0.0000 0.0000 20.6309 0.0000 0.0000
# 5 0.0000 0.0000 0.0000 0.0000 19.0545 0.0000
# 6 0.0000 0.0000 0.0000 0.0000 0.0000 23.5217
#
#
#
# Elastic Compliance Matrix: (Units=1/GPa)
#
#
# Indices 1 2 3 4 5 6 
#
# 1 0.082380 -0.010326 -0.008107 0.000000 0.000000 0.000000
# 2 -0.010326 0.010725 -0.005840 0.000000 0.000000 0.000000
# 3 -0.008107 -0.005840 0.013481 0.000000 0.000000 0.000000
# 4 0.000000 0.000000 0.000000 0.048471 0.000000 0.000000
# 5 0.000000 0.000000 0.000000 0.000000 0.052481 0.000000
# 6 0.000000 0.000000 0.000000 0.000000 0.000000 0.042514
#
#
# Mechanical properties :
#
#
# Convention : Reuss Voigt Hill
#
# Bulk Modulus (GPa) = 17.22938 69.27214 43.25076
# Shear Modulus (GPa) = 15.72600 24.16134 19.94367
#
# Velocity S-wave (km/s) = 2.97202 3.68386 3.34692
# Velocity P-wave (km/s) = 4.63190 7.55002 6.26328
#
# Compressibility (1/GPa) = 0.05804038
#
# Stress axis : x y z
#
# Youngs Moduli (GPa) = 12.13893 93.23579 74.17723
#
# Poissons Ratio (x) = 0.96276 0.60137
# Poissons Ratio (y) = 0.12535 0.43317
# Poissons Ratio (z) = 0.09841 0.54447
#
# Static dielectric constant tensor:
#      x y z
#    x 2.926170 0.000000 0.000000 
#    y 0.000000 3.849350 0.000000 
#    z 0.000000 0.000000 3.536770 
# 
# 
# High freq. dielectric constant tensor:
#      x y z
#    x 1.647140 0.000000 0.000000 
#    y 0.000000 1.698940 0.000000 
#    z 0.000000 0.000000 1.701070 
# 
# From -- ./inp_files/22411.got.cif
#   From: 2010.03.12/outbox.cif.g09.slc.cpg/sg59_12_cif.got.tgz:22411.got - 2010.04.16 16:29:54.
