data_PCOD8239483
_publ_section_title
;
Structure prediction by ZEFSAII (Michael W. Deem and Ramdas Pophale) SiO2 
 PCOD8239483
Probable space group: P M M N
;
_chemical_formula_sum "Si O2"
_cell_formula_units_Z 64
_cell_length_a 29.881370
_cell_length_b 9.398951
_cell_length_c 14.837371
_cell_angle_alpha 90.000000
_cell_angle_beta 90.000000
_cell_angle_gamma 90.000000
_cell_volume 4167.128058
_symmetry_space_group_name_H-M "P M M N"
_symmetry_group_IT_number 59
_space_group.IT_coordinate_system_code '2'
_symmetry_cell_setting 'orthorhombic'
loop_
_space_group_symop_operation_xyz
x,y,z
1/2-x,1/2-y,z
1/2+x,-y,-z
-x,1/2+y,-z
-x,-y,-z
1/2+x,1/2+y,-z
1/2-x,y,z
x,1/2-y,z
loop_
_atom_site_type_symbol
_atom_site_label
_atom_site_fract_x
_atom_site_fract_y
_atom_site_fract_z
Si Si1 0.475529 0.414155 0.625856
Si Si2 0.894536 0.582585 0.027145
Si Si3 0.461626 0.082039 0.824279
Si Si4 0.799150 0.914901 0.975281
Si Si5 0.799871 0.412880 0.795048
Si Si6 0.560466 0.586012 0.562274
Si Si7 0.383919 0.587013 0.312417
Si Si8 0.439475 0.584828 0.133447
O O1 0.492080 0.250000 0.632691
O O2 0.454097 0.465744 0.720492
O O3 0.517600 0.511451 0.605089
O O4 0.439056 0.430956 0.546326
O O5 0.902992 0.750000 0.014815
O O6 0.921269 0.521763 0.113976
O O7 0.841184 0.550584 0.041116
O O8 0.912210 0.506403 0.938085
O O9 0.461171 0.250000 0.828553
O O10 0.509377 0.028688 0.862589
O O11 0.750000 0.957278 0.016871
O O12 0.799199 0.750000 0.950324
O O13 0.807913 0.996410 0.883425
O O14 0.750000 0.433835 0.756323
O O15 0.809355 0.250000 0.822802
O O16 0.834331 0.459909 0.717981
O O17 0.559707 0.750000 0.590932
O O18 0.604411 0.511207 0.602196
O O19 0.384975 0.750000 0.344243
O O20 0.418736 0.560865 0.231773
O O21 0.436703 0.750000 0.105433
#
# Coordination Sequence:
#
# PCOD8239483 Si02
#       8
#     8   8   8   8   8   8   8   8
#     4   9  17  32  47  61  85 114 143 178 217 254
#     4  10  19  29  43  62  83 113 148 177 205 248
#     4   9  17  30  45  59  82 117 149 173 207 252
#     4   9  17  28  41  60  86 110 135 176 222 250
#     4   9  17  29  45  63  82 110 148 178 205 253
#     4  10  19  28  45  68  86 109 144 181 214 255
#     4  10  18  29  45  63  88 119 142 172 216 258
#     4  10  18  29  43  60  86 119 146 170 207 249
#
# _framework density 15.358299000000001
#
# number of rings (size 3 to 8) (size 9 to 14) (size 15 to 20)
#    0.000    2.500    2.500    0.750    0.000    1.500 
#    0.000    0.625    0.000    0.000    0.000    0.875 
#    0.000    3.000    0.000    0.000    0.000    0.000 
#
# Total GULP energy -793236.754195 kJ/mol
# GULP energy per Si atom -12394.324284 kJ/mol
# Density = 1.532334 g / cm^3
# Si number density = 15.358299 Si / 1000 Ang^3
#
#
#
# Elastic Constant Matrix: (Units=GPa)
#
#
# Indices 1 2 3 4 5 6 
#
# 1 125.1716 31.1748 49.6443 0.0000 0.0000 0.0000
# 2 31.1748 42.1983 24.7797 0.0000 0.0000 0.0000
# 3 49.6443 24.7797 64.2857 0.0000 0.0000 0.0000
# 4 0.0000 0.0000 0.0000 16.9959 0.0000 0.0000
# 5 0.0000 0.0000 0.0000 0.0000 21.2416 0.0000
# 6 0.0000 0.0000 0.0000 0.0000 0.0000 18.3676
#
#
#
# Elastic Compliance Matrix: (Units=1/GPa)
#
#
# Indices 1 2 3 4 5 6 
#
# 1 0.012137 -0.004476 -0.007647 0.000000 0.000000 0.000000
# 2 -0.004476 0.032281 -0.008987 0.000000 0.000000 0.000000
# 3 -0.007647 -0.008987 0.024925 0.000000 0.000000 0.000000
# 4 0.000000 0.000000 0.000000 0.058838 0.000000 0.000000
# 5 0.000000 0.000000 0.000000 0.000000 0.047077 0.000000
# 6 0.000000 0.000000 0.000000 0.000000 0.000000 0.054444
#
#
# Mechanical properties :
#
#
# Convention : Reuss Voigt Hill
#
# Bulk Modulus (GPa) = 36.86829 49.20592 43.03711
# Shear Modulus (GPa) = 17.79592 19.72481 18.76037
#
# Velocity S-wave (km/s) = 3.40769 3.58761 3.49881
# Velocity P-wave (km/s) = 6.28814 7.01922 6.66371
#
# Compressibility (1/GPa) = 0.02712358
#
# Stress axis : x y z
#
# Youngs Moduli (GPa) = 82.39465 30.97764 40.11983
#
# Poissons Ratio (x) = 0.13864 0.30681
# Poissons Ratio (y) = 0.36876 0.36056
# Poissons Ratio (z) = 0.63010 0.27840
#
# Static dielectric constant tensor:
#      x y z
#    x 3.243770 0.000000 0.000000 
#    y 0.000000 2.955690 0.000000 
#    z 0.000000 0.000000 3.002130 
# 
# 
# High freq. dielectric constant tensor:
#      x y z
#    x 1.584600 0.000000 0.000000 
#    y 0.000000 1.582310 0.000000 
#    z 0.000000 0.000000 1.565310 
# 
# From -- ./inp_files/21915.got.cif
#   From: 2010.03.12/outbox.cif.g09.slc.cpg/sg59_11_cif.got.tgz:21915.got - 2010.04.16 16:29:54.
