data_PCOD8239980
_publ_section_title
;
Structure prediction by ZEFSAII (Michael W. Deem and Ramdas Pophale) SiO2 
 PCOD8239980
Probable space group: P M M N
;
_chemical_formula_sum "Si O2"
_cell_formula_units_Z 64
_cell_length_a 9.066996
_cell_length_b 22.682742
_cell_length_c 17.774997
_cell_angle_alpha 90.000000
_cell_angle_beta 90.000000
_cell_angle_gamma 90.000000
_cell_volume 3655.682866
_symmetry_space_group_name_H-M "P M M N"
_symmetry_group_IT_number 59
_space_group.IT_coordinate_system_code '2'
_symmetry_cell_setting 'orthorhombic'
loop_
_space_group_symop_operation_xyz
x,y,z
1/2-x,1/2-y,z
1/2+x,-y,-z
-x,1/2+y,-z
-x,-y,-z
1/2+x,1/2+y,-z
1/2-x,y,z
x,1/2-y,z
loop_
_atom_site_type_symbol
_atom_site_label
_atom_site_fract_x
_atom_site_fract_y
_atom_site_fract_z
Si Si1 0.425344 0.315605 0.430689
Si Si2 0.920491 0.183670 0.740133
Si Si3 0.574443 0.088056 0.860173
Si Si4 0.423262 0.062641 0.002917
Si Si5 0.581938 0.853089 0.406852
Si Si6 0.419251 0.010423 0.577679
Si Si7 0.078592 0.044262 0.165309
Si Si8 0.425373 0.082492 0.323492
O O1 0.250000 0.319237 0.432702
O O2 0.480588 0.250000 0.410883
O O3 0.486993 0.334541 0.512436
O O4 0.485655 0.359256 0.365821
O O5 0.750000 0.170254 0.726727
O O6 0.945807 0.250000 0.771405
O O7 0.983097 0.136248 0.800053
O O8 0.996857 0.178809 0.659663
O O9 0.750000 0.090598 0.869644
O O10 0.513973 0.022815 0.837201
O O11 0.500881 0.104717 0.941225
O O12 0.250000 0.057560 0.985674
O O13 0.451720 0.082813 0.089717
O O14 0.500000 0.000000 0.000000
O O15 0.750000 0.831468 0.402730
O O16 0.569025 0.922534 0.396985
O O17 0.250000 0.990281 0.569613
O O18 0.500000 0.000000 0.500000
O O19 0.502336 0.974928 0.641539
O O20 0.250000 0.033522 0.176205
O O21 0.021165 0.082296 0.236414
O O22 0.250000 0.077837 0.332244
#
# Coordination Sequence:
#
# PCOD8239980 Si02
#       8
#     8   8   8   8   8   8   8   8
#     4   9  17  30  48  68  91 123 163 200 234 280
#     4  10  21  35  51  73 100 133 174 214 251 295
#     4   9  17  31  48  69  97 129 161 198 245 296
#     4   9  16  28  47  73 100 126 155 189 235 293
#     4  10  20  34  50  70  96 128 165 204 248 297
#     4  11  21  33  49  72  98 126 160 200 247 297
#     4   8  15  27  47  72  97 124 154 192 245 296
#     4  10  18  32  51  71  97 129 160 197 245 291
#
# _framework density 17.506989999999998
#
# number of rings (size 3 to 8) (size 9 to 14) (size 15 to 20)
#    0.000    2.500    1.250    2.625    0.000    3.250 
#    0.000    4.375    0.000    1.125    0.000    1.750 
#    0.000    0.000    0.000    0.000    0.000    0.000 
#
# Total GULP energy -793171.561595 kJ/mol
# GULP energy per Si atom -12393.305650 kJ/mol
# Density = 1.746714 g / cm^3
# Si number density = 17.506990 Si / 1000 Ang^3
#
#
#
# Elastic Constant Matrix: (Units=GPa)
#
#
# Indices 1 2 3 4 5 6 
#
# 1 38.4331 16.6587 33.4853 0.0000 0.0000 0.0000
# 2 16.6587 85.3061 60.6934 0.0000 0.0000 0.0000
# 3 33.4853 60.6934 164.7063 0.0000 0.0000 0.0000
# 4 0.0000 0.0000 0.0000 17.9686 0.0000 0.0000
# 5 0.0000 0.0000 0.0000 0.0000 24.7922 0.0000
# 6 0.0000 0.0000 0.0000 0.0000 0.0000 16.9066
#
#
#
# Elastic Compliance Matrix: (Units=1/GPa)
#
#
# Indices 1 2 3 4 5 6 
#
# 1 0.031919 -0.002191 -0.005682 0.000000 0.000000 0.000000
# 2 -0.002191 0.016038 -0.005465 0.000000 0.000000 0.000000
# 3 -0.005682 -0.005465 0.009240 0.000000 0.000000 0.000000
# 4 0.000000 0.000000 0.000000 0.055653 0.000000 0.000000
# 5 0.000000 0.000000 0.000000 0.000000 0.040335 0.000000
# 6 0.000000 0.000000 0.000000 0.000000 0.000000 0.059149
#
#
# Mechanical properties :
#
#
# Convention : Reuss Voigt Hill
#
# Bulk Modulus (GPa) = 32.76195 56.68002 44.72098
# Shear Modulus (GPa) = 20.06554 23.77401 21.91977
#
# Velocity S-wave (km/s) = 3.38915 3.68907 3.54228
# Velocity P-wave (km/s) = 5.83690 7.11277 6.50619
#
# Compressibility (1/GPa) = 0.03052322
#
# Stress axis : x y z
#
# Youngs Moduli (GPa) = 31.32902 62.35092 108.22168
#
# Poissons Ratio (x) = 0.13658 0.61492
# Poissons Ratio (y) = 0.06863 0.59139
# Poissons Ratio (z) = 0.17801 0.34073
#
# Static dielectric constant tensor:
#      x y z
#    x 3.024790 0.000000 0.000000 
#    y 0.000000 2.869530 0.000000 
#    z 0.000000 0.000000 3.444400 
# 
# 
# High freq. dielectric constant tensor:
#      x y z
#    x 1.652250 0.000000 0.000000 
#    y 0.000000 1.653740 0.000000 
#    z 0.000000 0.000000 1.687220 
# 
# From -- ./inp_files/26531.got.cif
#   From: 2010.03.12/outbox.cif.g09.slc.cpg/sg59_14_cif.got.tgz:26531.got - 2010.04.16 16:29:54.
