data_PCOD8239879
_publ_section_title
;
Structure prediction by ZEFSAII (Michael W. Deem and Ramdas Pophale) SiO2 
 PCOD8239879
Probable space group: P M M N
;
_chemical_formula_sum "Si O2"
_cell_formula_units_Z 64
_cell_length_a 9.191039
_cell_length_b 14.644968
_cell_length_c 26.069949
_cell_angle_alpha 90.000000
_cell_angle_beta 90.000000
_cell_angle_gamma 90.000000
_cell_volume 3509.079581
_symmetry_space_group_name_H-M "P M M N"
_symmetry_group_IT_number 59
_space_group.IT_coordinate_system_code '2'
_symmetry_cell_setting 'orthorhombic'
loop_
_space_group_symop_operation_xyz
x,y,z
1/2-x,1/2-y,z
1/2+x,-y,-z
-x,1/2+y,-z
-x,-y,-z
1/2+x,1/2+y,-z
1/2-x,y,z
x,1/2-y,z
loop_
_atom_site_type_symbol
_atom_site_label
_atom_site_fract_x
_atom_site_fract_y
_atom_site_fract_z
Si Si1 0.578841 0.490993 0.446367
Si Si2 0.919635 0.856391 0.626425
Si Si3 0.422633 0.507266 0.177522
Si Si4 0.577844 0.652174 0.892418
Si Si5 0.920860 0.594175 0.001918
Si Si6 0.411815 0.147134 0.886497
Si Si7 0.580179 0.490333 0.706629
Si Si8 0.919657 0.644543 0.365104
O O1 0.500000 0.500000 0.500000
O O2 0.750000 0.475990 0.454097
O O3 0.514536 0.401403 0.418573
O O4 0.546155 0.584854 0.415745
O O5 0.750000 0.864065 0.611535
O O6 0.963778 0.750000 0.634381
O O7 0.953219 0.913875 0.678025
O O8 0.250000 0.506483 0.176476
O O9 0.491283 0.425021 0.143858
O O10 0.477100 0.599471 0.151739
O O11 0.478964 0.498510 0.235651
O O12 0.750000 0.641688 0.890478
O O13 0.528489 0.750000 0.870233
O O14 0.525766 0.648340 0.951562
O O15 0.750000 0.577974 0.999412
O O16 0.965420 0.644979 0.054327
O O17 0.000000 0.500000 0.000000
O O18 0.250000 0.103586 0.882189
O O19 0.408096 0.250000 0.867565
O O20 0.750000 0.468031 0.705286
O O21 0.501931 0.402652 0.682101
O O22 0.750000 0.641894 0.352184
O O23 0.971493 0.750000 0.372918
#
# Coordination Sequence:
#
# PCOD8239879 Si02
#       8
#     8   8   8   8   8   8   8   8
#     4  10  20  34  53  80 113 144 176 215 258 303
#     4   9  18  34  55  77 104 140 178 216 260 308
#     4  10  20  34  52  76 103 130 164 209 259 305
#     4   9  17  30  50  74  98 126 161 200 245 300
#     4  10  18  31  52  73  96 127 163 202 247 299
#     4  10  21  35  51  72  99 132 168 205 248 303
#     4   9  19  34  52  76 104 131 166 215 263 305
#     4   9  19  36  56  76 100 136 179 215 250 298
#
# _framework density 18.238399999999999
#
# number of rings (size 3 to 8) (size 9 to 14) (size 15 to 20)
#    0.000    2.500    1.250    0.750    0.000    4.750 
#    0.000    6.250    0.000    2.250    0.000    1.750 
#    0.000    0.000    0.000    0.000    0.000    0.000 
#
# Total GULP energy -793319.049850 kJ/mol
# GULP energy per Si atom -12395.610154 kJ/mol
# Density = 1.819689 g / cm^3
# Si number density = 18.238400 Si / 1000 Ang^3
#
#
#
# Elastic Constant Matrix: (Units=GPa)
#
#
# Indices 1 2 3 4 5 6 
#
# 1 35.3566 35.6811 46.8563 0.0000 0.0000 0.0000
# 2 35.6811 141.7107 65.1583 0.0000 0.0000 0.0000
# 3 46.8563 65.1583 155.2234 0.0000 0.0000 0.0000
# 4 0.0000 0.0000 0.0000 -4.2114 0.0000 0.0000
# 5 0.0000 0.0000 0.0000 0.0000 25.1428 0.0000
# 6 0.0000 0.0000 0.0000 0.0000 0.0000 26.3760
#
#
#
# Elastic Compliance Matrix: (Units=1/GPa)
#
#
# Indices 1 2 3 4 5 6 
#
# 1 0.052714 -0.007381 -0.012814 0.000000 0.000000 0.000000
# 2 -0.007381 0.009778 -0.001876 0.000000 0.000000 0.000000
# 3 -0.012814 -0.001876 0.011098 0.000000 0.000000 0.000000
# 4 0.000000 0.000000 0.000000 -0.237449 0.000000 0.000000
# 5 0.000000 0.000000 0.000000 0.000000 0.039773 0.000000
# 6 0.000000 0.000000 0.000000 0.000000 0.000000 0.037913
#
#
# Mechanical properties :
#
#
# Convention : Reuss Voigt Hill
#
# Bulk Modulus (GPa) = 33.95944 69.74246 51.85095
# Shear Modulus (GPa) = -155.20863 21.76780 -66.72041
#
# Velocity S-wave (km/s) = -9.23497 3.45848 -6.05490
# Velocity P-wave (km/s) = 9.74950 7.36685 4.51565
#
# Compressibility (1/GPa) = 0.02944690
#
# Stress axis : x y z
#
# Youngs Moduli (GPa) = 18.97043 102.27235 90.10537
#
# Poissons Ratio (x) = 0.75485 1.15462
# Poissons Ratio (y) = 0.14002 0.16908
# Poissons Ratio (z) = 0.24309 0.19191
#
# Static dielectric constant tensor:
#      x y z
#    x 3.187640 0.000000 0.000000 
#    y 0.000000 3.463660 0.000000 
#    z 0.000000 0.000000 3.289020 
# 
# 
# High freq. dielectric constant tensor:
#      x y z
#    x 1.686390 0.000000 0.000000 
#    y 0.000000 1.712080 0.000000 
#    z 0.000000 0.000000 1.708550 
# 
# From -- ./inp_files/31594.got.cif
#   From: 2010.03.12/outbox.cif.g09.slc.cpg/sg59_16_cif.got.tgz:31594.got - 2010.04.16 16:29:54.
