data_PCOD8239510
_publ_section_title
;
Structure prediction by ZEFSAII (Michael W. Deem and Ramdas Pophale) SiO2 
 PCOD8239510
Probable space group: P M M N
;
_chemical_formula_sum "Si O2"
_cell_formula_units_Z 64
_cell_length_a 14.266466
_cell_length_b 14.141685
_cell_length_c 19.555358
_cell_angle_alpha 90.000000
_cell_angle_beta 90.000000
_cell_angle_gamma 90.000000
_cell_volume 3945.330011
_symmetry_space_group_name_H-M "P M M N"
_symmetry_group_IT_number 59
_space_group.IT_coordinate_system_code '2'
_symmetry_cell_setting 'orthorhombic'
loop_
_space_group_symop_operation_xyz
x,y,z
1/2-x,1/2-y,z
1/2+x,-y,-z
-x,1/2+y,-z
-x,-y,-z
1/2+x,1/2+y,-z
1/2-x,y,z
x,1/2-y,z
loop_
_atom_site_type_symbol
_atom_site_label
_atom_site_fract_x
_atom_site_fract_y
_atom_site_fract_z
Si Si1 0.565472 0.855671 0.704685
Si Si2 0.362281 0.645497 0.206068
Si Si3 0.009893 0.859567 0.557867
Si Si4 0.862547 0.495214 0.519135
Si Si5 0.980366 0.642696 0.857833
Si Si6 0.354311 0.958924 0.332877
Si Si7 0.357129 0.857707 0.955871
Si Si8 0.360800 0.982210 0.083611
O O1 0.608984 0.750000 0.706499
O O2 0.494129 0.864669 0.640633
O O3 0.515869 0.880647 0.776849
O O4 0.647175 0.931610 0.692059
O O5 0.250000 0.642524 0.207543
O O6 0.401384 0.750000 0.196003
O O7 0.407117 0.605172 0.276719
O O8 0.399703 0.584420 0.143548
O O9 0.019675 0.750000 0.534404
O O10 0.917852 0.903993 0.519309
O O11 0.101542 0.921866 0.538089
O O12 0.750000 0.511910 0.513192
O O13 0.895069 0.447746 0.591177
O O14 0.947644 0.750000 0.868892
O O15 0.908019 0.583203 0.903874
O O16 0.084367 0.625379 0.886920
O O17 0.250000 0.921015 0.335994
O O18 0.250000 0.876663 0.936113
O O19 0.369803 0.750000 0.983727
O O20 0.390947 0.932577 0.012935
O O21 0.250000 0.995948 0.087034
#
# Coordination Sequence:
#
# PCOD8239510 Si02
#       8
#     8   8   8   8   8   8   8   8
#     4   9  17  29  44  63  91 123 150 182 223 266
#     4   9  16  25  38  59  87 117 147 175 208 258
#     4   9  18  32  48  68  95 126 159 194 233 280
#     4   9  18  31  48  69  94 123 157 195 235 279
#     4  10  19  30  46  68  92 118 150 187 222 263
#     4   9  16  27  42  63  91 121 148 180 223 271
#     4   9  18  32  48  65  87 117 153 190 225 259
#     4  10  18  29  45  65  91 121 146 177 224 272
#
# _framework density 16.221710999999999
#
# number of rings (size 3 to 8) (size 9 to 14) (size 15 to 20)
#    0.000    2.750    1.250    0.750    0.000    3.000 
#    0.000    5.625    0.000    2.250    0.000    0.000 
#    0.000    0.000    0.000    0.250    0.000    0.000 
#
# Total GULP energy -792876.978835 kJ/mol
# GULP energy per Si atom -12388.702794 kJ/mol
# Density = 1.618479 g / cm^3
# Si number density = 16.221711 Si / 1000 Ang^3
#
#
#
# Elastic Constant Matrix: (Units=GPa)
#
#
# Indices 1 2 3 4 5 6 
#
# 1 50.3418 24.6456 22.6600 0.0000 0.0000 0.0000
# 2 24.6456 80.8481 30.1649 0.0000 0.0000 0.0000
# 3 22.6600 30.1649 70.9108 0.0000 0.0000 0.0000
# 4 0.0000 0.0000 0.0000 25.4433 0.0000 0.0000
# 5 0.0000 0.0000 0.0000 0.0000 16.5374 0.0000
# 6 0.0000 0.0000 0.0000 0.0000 0.0000 20.5624
#
#
#
# Elastic Compliance Matrix: (Units=1/GPa)
#
#
# Indices 1 2 3 4 5 6 
#
# 1 0.025132 -0.005545 -0.005672 0.000000 0.000000 0.000000
# 2 -0.005545 0.015926 -0.005003 0.000000 0.000000 0.000000
# 3 -0.005672 -0.005003 0.018043 0.000000 0.000000 0.000000
# 4 0.000000 0.000000 0.000000 0.039303 0.000000 0.000000
# 5 0.000000 0.000000 0.000000 0.000000 0.060469 0.000000
# 6 0.000000 0.000000 0.000000 0.000000 0.000000 0.048632
#
#
# Mechanical properties :
#
#
# Convention : Reuss Voigt Hill
#
# Bulk Modulus (GPa) = 37.50825 39.67129 38.58977
# Shear Modulus (GPa) = 20.09387 20.81730 20.45558
#
# Velocity S-wave (km/s) = 3.52334 3.58620 3.55491
# Velocity P-wave (km/s) = 6.30272 6.45419 6.37891
#
# Compressibility (1/GPa) = 0.02666080
#
# Stress axis : x y z
#
# Youngs Moduli (GPa) = 39.78986 62.79152 55.42305
#
# Poissons Ratio (x) = 0.34817 0.31438
# Poissons Ratio (y) = 0.22063 0.27727
# Poissons Ratio (z) = 0.22570 0.31413
#
# Static dielectric constant tensor:
#      x y z
#    x 2.733780 0.000000 0.000000 
#    y 0.000000 3.229440 0.000000 
#    z 0.000000 0.000000 3.253530 
# 
# 
# High freq. dielectric constant tensor:
#      x y z
#    x 1.580740 0.000000 0.000000 
#    y 0.000000 1.629740 0.000000 
#    z 0.000000 0.000000 1.629850 
# 
# From -- ./inp_files/27707.got.cif
#   From: 2010.03.12/outbox.cif.g09.slc.cpg/sg59_14_cif.got.tgz:27707.got - 2010.04.16 16:29:54.
