data_PCOD8239658
_publ_section_title
;
Structure prediction by ZEFSAII (Michael W. Deem and Ramdas Pophale) SiO2 
 PCOD8239658
Probable space group: P M M N
;
_chemical_formula_sum "Si O2"
_cell_formula_units_Z 56
_cell_length_a 17.223485
_cell_length_b 13.542992
_cell_length_c 14.606493
_cell_angle_alpha 90.000000
_cell_angle_beta 90.000000
_cell_angle_gamma 90.000000
_cell_volume 3407.074327
_symmetry_space_group_name_H-M "P M M N"
_symmetry_group_IT_number 59
_space_group.IT_coordinate_system_code '2'
_symmetry_cell_setting 'orthorhombic'
loop_
_space_group_symop_operation_xyz
x,y,z
1/2-x,1/2-y,z
1/2+x,-y,-z
-x,1/2+y,-z
-x,-y,-z
1/2+x,1/2+y,-z
1/2-x,y,z
x,1/2-y,z
loop_
_atom_site_type_symbol
_atom_site_label
_atom_site_fract_x
_atom_site_fract_y
_atom_site_fract_z
Si Si1 0.159271 0.133873 0.583913
Si Si2 0.334951 0.864226 0.813521
Si Si3 0.552570 0.502203 0.862764
Si Si4 0.559733 0.364013 0.023015
Si Si5 0.662729 0.859031 0.771687
Si Si6 0.939327 0.639293 0.592225
Si Si7 0.554468 0.490166 0.305860
O O1 0.250000 0.100068 0.582085
O O2 0.154522 0.250000 0.603746
O O3 0.117628 0.105139 0.488962
O O4 0.110165 0.078915 0.662527
O O5 0.250000 0.913329 0.804561
O O6 0.331036 0.750000 0.790377
O O7 0.362634 0.881232 0.917776
O O8 0.392633 0.907074 0.738952
O O9 0.509158 0.580511 0.926093
O O10 0.633127 0.555873 0.838991
O O11 0.505042 0.470417 0.771765
O O12 0.572067 0.404345 0.920399
O O13 0.536899 0.250000 0.016310
O O14 0.750000 0.884889 0.743249
O O15 0.657865 0.750000 0.817940
O O16 0.611112 0.858189 0.682379
O O17 0.972478 0.750000 0.572238
O O18 0.009079 0.560672 0.608446
#
# Coordination Sequence:
#
# PCOD8239658 Si02
#       7
#     8   8   8   8   8   8   8
#     4  10  20  32  46  66  93 123 153 183 217 262
#     4   9  17  29  46  67  88 111 142 181 224 266
#     4   9  18  29  44  66  87 113 149 186 221 265
#     4   9  17  30  45  61  85 116 147 181 222 265
#     4   9  16  27  45  67  90 114 141 180 227 268
#     4   9  17  30  48  69  91 116 148 184 222 265
#     4  10  18  30  47  67  91 117 147 183 224 261
#
# _framework density 16.436388999999998
#
# number of rings (size 3 to 8) (size 9 to 14) (size 15 to 20)
#    0.000    2.714    0.000    2.143    0.000    6.286 
#    0.000    0.000    0.000    0.000    0.000   14.000 
#    0.000    5.714    0.000    0.000    0.000    0.000 
#
# Total GULP energy -694085.115034 kJ/mol
# GULP energy per Si atom -12394.377054 kJ/mol
# Density = 1.639898 g / cm^3
# Si number density = 16.436389 Si / 1000 Ang^3
#
#
#
# Elastic Constant Matrix: (Units=GPa)
#
#
# Indices 1 2 3 4 5 6 
#
# 1 90.7017 33.8204 23.5787 0.0000 0.0000 0.0000
# 2 33.8204 61.7465 34.0267 0.0000 0.0000 0.0000
# 3 23.5787 34.0267 64.2891 0.0000 0.0000 0.0000
# 4 0.0000 0.0000 0.0000 23.7954 0.0000 0.0000
# 5 0.0000 0.0000 0.0000 0.0000 14.2357 0.0000
# 6 0.0000 0.0000 0.0000 0.0000 0.0000 26.0762
#
#
#
# Elastic Compliance Matrix: (Units=1/GPa)
#
#
# Indices 1 2 3 4 5 6 
#
# 1 0.013958 -0.006811 -0.001515 0.000000 0.000000 0.000000
# 2 -0.006811 0.026187 -0.011362 0.000000 0.000000 0.000000
# 3 -0.001515 -0.011362 0.022124 0.000000 0.000000 0.000000
# 4 0.000000 0.000000 0.000000 0.042025 0.000000 0.000000
# 5 0.000000 0.000000 0.000000 0.000000 0.070246 0.000000
# 6 0.000000 0.000000 0.000000 0.000000 0.000000 0.038349
#
#
# Mechanical properties :
#
#
# Convention : Reuss Voigt Hill
#
# Bulk Modulus (GPa) = 43.67915 44.39874 44.03895
# Shear Modulus (GPa) = 19.23845 21.17558 20.20701
#
# Velocity S-wave (km/s) = 3.42494 3.59323 3.51009
# Velocity P-wave (km/s) = 6.50174 6.65479 6.57871
#
# Compressibility (1/GPa) = 0.02289422
#
# Stress axis : x y z
#
# Youngs Moduli (GPa) = 71.64107 38.18667 45.19975
#
# Poissons Ratio (x) = 0.26008 0.06846
# Poissons Ratio (y) = 0.48793 0.51357
# Poissons Ratio (z) = 0.10851 0.43389
#
# Static dielectric constant tensor:
#      x y z
#    x 3.276900 0.000000 0.000000 
#    y 0.000000 3.086280 0.000000 
#    z 0.000000 0.000000 3.121490 
# 
# 
# High freq. dielectric constant tensor:
#      x y z
#    x 1.635830 0.000000 0.000000 
#    y 0.000000 1.620410 0.000000 
#    z 0.000000 0.000000 1.624560 
# 
# From -- ./inp_files/23290.got.cif
#   From: 2010.03.12/outbox.cif.g09.slc.cpg/sg59_12_cif.got.tgz:23290.got - 2010.04.16 16:29:54.
