data_PCOD8239008
_publ_section_title
;
Structure prediction by ZEFSAII (Michael W. Deem and Ramdas Pophale) SiO2 
 PCOD8239008
Probable space group: P N N M
;
_chemical_formula_sum "Si O2"
_cell_formula_units_Z 56
_cell_length_a 21.000000
_cell_length_b 15.000000
_cell_length_c 9.000000
_cell_angle_alpha 90.000000
_cell_angle_beta 90.000000
_cell_angle_gamma 90.000000
_cell_volume 2835.000000
_symmetry_space_group_name_H-M "P N N M"
_symmetry_group_IT_number 58
_symmetry_cell_setting 'orthorhombic'
loop_
_space_group_symop_operation_xyz
x,y,z
-x,-y,z
1/2+x,1/2-y,1/2-z
1/2-x,1/2+y,1/2-z
-x,-y,-z
x,y,-z
1/2-x,1/2+y,1/2+z
1/2+x,1/2-y,1/2+z
loop_
_atom_site_type_symbol
_atom_site_label
_atom_site_fract_x
_atom_site_fract_y
_atom_site_fract_z
Si Si1 0.202245 0.818005 0.326774
Si Si2 0.449369 0.574149 0.325688
Si Si3 0.399680 0.167561 0.826317
Si Si4 0.342205 0.827914 0.334411
Si Si5 0.685838 0.964557 0.332746
Si Si6 0.034968 0.258661 0.324716
Si Si7 0.811524 0.996377 0.175114
O O1 0.199187 0.845826 0.500000
O O2 0.149620 0.745603 0.284974
O O3 0.274235 0.781928 0.290708
O O4 0.185240 0.902301 0.227447
O O5 0.500000 0.500000 0.276384
O O6 0.453015 0.591762 0.500000
O O7 0.471141 0.661274 0.241005
O O8 0.377603 0.549817 0.277269
O O9 0.375235 0.080397 0.742676
O O10 0.471662 0.188123 0.772146
O O11 0.398808 0.147764 0.000000
O O12 0.362486 0.796970 0.500000
O O13 0.399584 0.805036 0.225014
O O14 0.328634 0.931823 0.328741
O O15 0.693248 0.929055 0.500000
O O16 0.752092 0.943918 0.247986
O O17 0.035709 0.251668 0.500000
O O18 0.801769 0.993684 0.000000
#
# Coordination Sequence:
#
# PCOD8239008 Si02
#       7
#     8   8   8   8   8   8   8
#     4   9  19  37  60  83 113 152 192 236 287 344
#     4  10  22  39  59  84 118 158 196 233 284 351
#     4  10  22  39  58  84 118 153 191 238 295 345
#     4   9  20  39  59  81 113 151 193 239 288 348
#     4  10  22  39  60  86 112 148 196 242 290 345
#     4  11  24  38  57  87 119 153 193 242 293 342
#     4  10  20  35  58  86 115 149 189 238 292 341
#
# _framework density 19.753086
#
# number of rings (size 3 to 8) (size 9 to 14) (size 15 to 20)
#    0.000    2.143    0.000    3.000    2.000    6.571 
#    0.000    2.857    0.000    0.000    0.000    0.000 
#    0.000    0.000    0.000    0.000    0.000    0.000 
#
# Total GULP energy -694399.309406 kJ/mol
# GULP energy per Si atom -12399.987668 kJ/mol
# Density = 1.970813 g / cm^3
# Si number density = 19.753086 Si / 1000 Ang^3
#
#
#
# Elastic Constant Matrix: (Units=GPa)
#
#
# Indices 1 2 3 4 5 6 
#
# 1 134.3235 21.1303 38.1141 0.0000 0.0000 0.0000
# 2 21.1303 29.9738 20.0258 0.0000 0.0000 0.0000
# 3 38.1141 20.0258 51.5583 0.0000 0.0000 0.0000
# 4 0.0000 0.0000 0.0000 32.3401 0.0000 0.0000
# 5 0.0000 0.0000 0.0000 0.0000 -39.0322 0.0000
# 6 0.0000 0.0000 0.0000 0.0000 0.0000 36.6847
#
#
#
# Elastic Compliance Matrix: (Units=1/GPa)
#
#
# Indices 1 2 3 4 5 6 
#
# 1 0.009584 -0.002732 -0.006024 0.000000 0.000000 0.000000
# 2 -0.002732 0.045833 -0.015783 0.000000 0.000000 0.000000
# 3 -0.006024 -0.015783 0.029979 0.000000 0.000000 0.000000
# 4 0.000000 0.000000 0.000000 0.030921 0.000000 0.000000
# 5 0.000000 0.000000 0.000000 0.000000 -0.025620 0.000000
# 6 0.000000 0.000000 0.000000 0.000000 0.000000 0.027259
#
#
# Mechanical properties :
#
#
# Convention : Reuss Voigt Hill
#
# Bulk Modulus (GPa) = 27.53362 41.59956 34.56659
# Shear Modulus (GPa) = 27.91151 15.10422 21.50786
#
# Velocity S-wave (km/s) = 3.76309 2.76823 3.30333
# Velocity P-wave (km/s) = 5.73152 5.59669 5.66451
#
# Compressibility (1/GPa) = 0.03631923
#
# Stress axis : x y z
#
# Youngs Moduli (GPa) = 104.34469 21.81852 33.35718
#
# Poissons Ratio (x) = 0.05960 0.20093
# Poissons Ratio (y) = 0.28503 0.52646
# Poissons Ratio (z) = 0.62854 0.34435
#
# Static dielectric constant tensor:
#      x y z
#    x 4.145320 0.000000 0.000000 
#    y 0.000000 3.408010 0.000000 
#    z 0.000000 0.000000 3.587310 
# 
# 
# High freq. dielectric constant tensor:
#      x y z
#    x 1.795980 0.000000 0.000000 
#    y 0.000000 1.760450 0.000000 
#    z 0.000000 0.000000 1.766920 
# 
# From -- ./inp_files/8967.got.cif
#   From: 2010.06.25/outbox.ucp.g09.slc.cvg/sg58_5_cif.got.tgz:8967.got - 2010.06.28 15:54:47.
