data_PCOD8239075
_publ_section_title
;
Structure prediction by ZEFSAII (Michael W. Deem and Ramdas Pophale) SiO2 
 PCOD8239075
Probable space group: P M M N
;
_chemical_formula_sum "Si O2"
_cell_formula_units_Z 64
_cell_length_a 9.043753
_cell_length_b 21.893185
_cell_length_c 20.303929
_cell_angle_alpha 90.000000
_cell_angle_beta 90.000000
_cell_angle_gamma 90.000000
_cell_volume 4020.108046
_symmetry_space_group_name_H-M "P M M N"
_symmetry_group_IT_number 59
_space_group.IT_coordinate_system_code '2'
_symmetry_cell_setting 'orthorhombic'
loop_
_space_group_symop_operation_xyz
x,y,z
1/2-x,1/2-y,z
1/2+x,-y,-z
-x,1/2+y,-z
-x,-y,-z
1/2+x,1/2+y,-z
1/2-x,y,z
x,1/2-y,z
loop_
_atom_site_type_symbol
_atom_site_label
_atom_site_fract_x
_atom_site_fract_y
_atom_site_fract_z
Si Si1 0.074966 0.031494 0.727127
Si Si2 0.423279 0.540726 0.406969
Si Si3 0.577888 0.392419 0.247563
Si Si4 0.919111 0.446786 0.855937
Si Si5 0.424687 0.063263 0.982859
Si Si6 0.922933 0.588933 0.531200
Si Si7 0.085333 0.090947 0.122581
Si Si8 0.922302 0.178500 0.373997
O O1 0.250000 0.041216 0.726475
O O2 0.004303 0.057841 0.660696
O O3 0.004561 0.068497 0.788244
O O4 0.030128 0.960484 0.732163
O O5 0.250000 0.553692 0.400292
O O6 0.456266 0.470366 0.424532
O O7 0.490590 0.584476 0.462552
O O8 0.750000 0.386523 0.239595
O O9 0.514617 0.374155 0.175870
O O10 0.520034 0.346288 0.303535
O O11 0.750000 0.424649 0.850772
O O12 0.930945 0.518437 0.869649
O O13 0.000108 0.410747 0.916128
O O14 0.250000 0.053421 0.971771
O O15 0.453749 0.107607 0.046255
O O16 0.500000 0.000000 0.000000
O O17 0.750000 0.596040 0.516553
O O18 0.983098 0.648225 0.568291
O O19 0.250000 0.112111 0.138814
O O20 0.750000 0.161736 0.383761
O O21 0.951058 0.250000 0.376699
#
# Coordination Sequence:
#
# PCOD8239075 Si02
#       8
#     8   8   8   8   8   8   8   8
#     4  10  17  26  41  60  83 110 142 178 214 256
#     4  10  19  30  46  65  87 113 141 179 222 265
#     4   9  17  27  40  58  78 104 140 177 213 257
#     4   9  16  24  34  51  76 105 137 170 207 248
#     4   9  15  23  33  48  70 100 136 170 205 243
#     4  10  20  32  47  66  86 110 142 181 221 266
#     4   8  15  24  35  50  71 100 133 172 209 242
#     4  10  20  34  49  64  86 115 146 183 225 268
#
# _framework density 15.919969999999999
#
# number of rings (size 3 to 8) (size 9 to 14) (size 15 to 20)
#    0.000    2.625    1.250    2.625    0.000    5.750 
#    0.000    0.000    0.000    0.000    0.000    0.000 
#    0.000    0.000    0.000    1.125    0.000   19.375 
#
# Total GULP energy -793319.979546 kJ/mol
# GULP energy per Si atom -12395.624680 kJ/mol
# Density = 1.588374 g / cm^3
# Si number density = 15.919970 Si / 1000 Ang^3
#
#
#
# Elastic Constant Matrix: (Units=GPa)
#
#
# Indices 1 2 3 4 5 6 
#
# 1 82.9860 21.0944 67.8235 0.0000 0.0000 0.0000
# 2 21.0944 30.7803 29.4461 0.0000 0.0000 0.0000
# 3 67.8235 29.4461 160.2026 0.0000 0.0000 0.0000
# 4 0.0000 0.0000 0.0000 10.5835 0.0000 0.0000
# 5 0.0000 0.0000 0.0000 0.0000 37.0991 0.0000
# 6 0.0000 0.0000 0.0000 0.0000 0.0000 12.2735
#
#
#
# Elastic Compliance Matrix: (Units=1/GPa)
#
#
# Indices 1 2 3 4 5 6 
#
# 1 0.019479 -0.006625 -0.007029 0.000000 0.000000 0.000000
# 2 -0.006625 0.041673 -0.004855 0.000000 0.000000 0.000000
# 3 -0.007029 -0.004855 0.010110 0.000000 0.000000 0.000000
# 4 0.000000 0.000000 0.000000 0.094487 0.000000 0.000000
# 5 0.000000 0.000000 0.000000 0.000000 0.026955 0.000000
# 6 0.000000 0.000000 0.000000 0.000000 0.000000 0.081476
#
#
# Mechanical properties :
#
#
# Convention : Reuss Voigt Hill
#
# Bulk Modulus (GPa) = 29.20182 56.74410 42.97296
# Shear Modulus (GPa) = 15.49846 22.36488 18.93167
#
# Velocity S-wave (km/s) = 3.12352 3.75218 3.45219
# Velocity P-wave (km/s) = 5.60278 7.38190 6.55300
#
# Compressibility (1/GPa) = 0.03424444
#
# Stress axis : x y z
#
# Youngs Moduli (GPa) = 51.33767 23.99625 98.90992
#
# Poissons Ratio (x) = 0.15898 0.69522
# Poissons Ratio (y) = 0.34012 0.48020
# Poissons Ratio (z) = 0.36085 0.11650
#
# Static dielectric constant tensor:
#      x y z
#    x 3.099420 0.000000 0.000000 
#    y 0.000000 2.438240 0.000000 
#    z 0.000000 0.000000 3.651830 
# 
# 
# High freq. dielectric constant tensor:
#      x y z
#    x 1.624670 0.000000 0.000000 
#    y 0.000000 1.524020 0.000000 
#    z 0.000000 0.000000 1.633070 
# 
# From -- ./inp_files/29782.got.cif
#   From: 2010.03.12/outbox.cif.g09.slc.cpg/sg59_15_cif.got.tgz:29782.got - 2010.04.16 16:29:54.
