data_PCOD8239790
_publ_section_title
;
Structure prediction by ZEFSAII (Michael W. Deem and Ramdas Pophale) SiO2 
 PCOD8239790
Probable space group: P M M N
;
_chemical_formula_sum "Si O2"
_cell_formula_units_Z 48
_cell_length_a 31.126595
_cell_length_b 8.623502
_cell_length_c 9.081410
_cell_angle_alpha 90.000000
_cell_angle_beta 90.000000
_cell_angle_gamma 90.000000
_cell_volume 2437.634381
_symmetry_space_group_name_H-M "P M M N"
_symmetry_group_IT_number 59
_space_group.IT_coordinate_system_code '2'
_symmetry_cell_setting 'orthorhombic'
loop_
_space_group_symop_operation_xyz
x,y,z
1/2-x,1/2-y,z
1/2+x,-y,-z
-x,1/2+y,-z
-x,-y,-z
1/2+x,1/2+y,-z
1/2-x,y,z
x,1/2-y,z
loop_
_atom_site_type_symbol
_atom_site_label
_atom_site_fract_x
_atom_site_fract_y
_atom_site_fract_z
Si Si1 0.337368 0.931866 0.835069
Si Si2 0.663934 0.932476 0.842976
Si Si3 0.250000 0.567997 0.145713
Si Si4 0.084479 0.431636 0.667745
Si Si5 0.750000 0.568046 0.175236
Si Si6 0.421207 0.429991 0.325884
Si Si7 0.000634 0.068629 0.838859
O O1 0.334016 0.750000 0.863984
O O2 0.375578 0.970099 0.724832
O O3 0.293286 0.992180 0.758303
O O4 0.345677 0.015409 0.990534
O O5 0.671857 0.750000 0.839970
O O6 0.624206 0.981617 0.741578
O O7 0.705976 0.018081 0.772791
O O8 0.250000 0.750000 0.112156
O O9 0.250000 0.467358 0.997556
O O10 0.093099 0.250000 0.694898
O O11 0.078400 0.469418 0.497166
O O12 0.042217 0.492650 0.751373
O O13 0.750000 0.750000 0.207187
O O14 0.430093 0.250000 0.294978
O O15 0.458121 0.527254 0.249216
O O16 0.003725 0.250000 0.855020
O O17 0.000000 0.000000 0.000000
#
# Coordination Sequence:
#
# PCOD8239790 Si02
#       7
#     8   8   4   8   4   8   8
#     4  11  21  34  55  84 113 144 184 231 274 322
#     4  10  19  34  56  81 108 143 183 226 272 324
#     4  10  18  30  51  80 111 142 178 226 272 318
#     4  10  22  40  57  79 111 149 185 223 274 332
#     4  10  18  32  55  80 109 146 184 228 276 324
#     4  10  22  39  59  81 110 145 185 227 273 328
#     4  11  23  38  60  85 112 143 182 228 275 327
#
# _framework density 19.691220999999999
#
# number of rings (size 3 to 8) (size 9 to 14) (size 15 to 20)
#    0.000    1.667    0.000    7.500    0.000    7.333 
#    0.000    0.833    0.000    2.000    0.000    0.000 
#    0.000    0.000    0.000    0.000    0.000    0.000 
#
# Total GULP energy -595286.023532 kJ/mol
# GULP energy per Si atom -12401.792157 kJ/mol
# Density = 1.964640 g / cm^3
# Si number density = 19.691221 Si / 1000 Ang^3
#
#
#
# Elastic Constant Matrix: (Units=GPa)
#
#
# Indices 1 2 3 4 5 6 
#
# 1 178.7622 53.9910 66.1049 0.0000 0.0000 0.0000
# 2 53.9910 60.2803 25.0938 0.0000 0.0000 0.0000
# 3 66.1049 25.0938 94.1802 0.0000 0.0000 0.0000
# 4 0.0000 0.0000 0.0000 21.3480 0.0000 0.0000
# 5 0.0000 0.0000 0.0000 0.0000 0.5055 0.0000
# 6 0.0000 0.0000 0.0000 0.0000 0.0000 36.8515
#
#
#
# Elastic Compliance Matrix: (Units=1/GPa)
#
#
# Indices 1 2 3 4 5 6 
#
# 1 0.009288 -0.006304 -0.004839 0.000000 0.000000 0.000000
# 2 -0.006304 0.022938 -0.001687 0.000000 0.000000 0.000000
# 3 -0.004839 -0.001687 0.014464 0.000000 0.000000 0.000000
# 4 0.000000 0.000000 0.000000 0.046843 0.000000 0.000000
# 5 0.000000 0.000000 0.000000 0.000000 1.978328 0.000000
# 6 0.000000 0.000000 0.000000 0.000000 0.000000 0.027136
#
#
# Mechanical properties :
#
#
# Convention : Reuss Voigt Hill
#
# Bulk Modulus (GPa) = 47.55327 69.28915 58.42121
# Shear Modulus (GPa) = 2.34558 24.27652 13.31105
#
# Velocity S-wave (km/s) = 1.09260 3.51502 2.60280
# Velocity P-wave (km/s) = 5.07874 7.19292 6.22622
#
# Compressibility (1/GPa) = 0.02102905
#
# Stress axis : x y z
#
# Youngs Moduli (GPa) = 107.67150 43.59642 69.13707
#
# Poissons Ratio (x) = 0.27483 0.33457
# Poissons Ratio (y) = 0.67876 0.11662
# Poissons Ratio (z) = 0.52105 0.07354
#
# Static dielectric constant tensor:
#      x y z
#    x 4.131200 0.000000 0.000000 
#    y 0.000000 3.565560 0.000000 
#    z 0.000000 0.000000 3.474100 
# 
# 
# High freq. dielectric constant tensor:
#      x y z
#    x 1.793670 0.000000 0.000000 
#    y 0.000000 1.772390 0.000000 
#    z 0.000000 0.000000 1.743000 
# 
# From -- ./inp_files/13053.got.cif
#   From: 2010.03.12/outbox.cif.g09.slc.cpg/sg59_7_cif.got.tgz:13053.got - 2010.04.16 16:29:54.
