data_PCOD8239482
_publ_section_title
;
Structure prediction by ZEFSAII (Michael W. Deem and Ramdas Pophale) SiO2 
 PCOD8239482
Probable space group: P M M N
;
_chemical_formula_sum "Si O2"
_cell_formula_units_Z 40
_cell_length_a 17.603163
_cell_length_b 29.191641
_cell_length_c 5.233209
_cell_angle_alpha 90.000000
_cell_angle_beta 90.000000
_cell_angle_gamma 90.000000
_cell_volume 2689.164067
_symmetry_space_group_name_H-M "P M M N"
_symmetry_group_IT_number 59
_space_group.IT_coordinate_system_code '2'
_symmetry_cell_setting 'orthorhombic'
loop_
_space_group_symop_operation_xyz
x,y,z
1/2-x,1/2-y,z
1/2+x,-y,-z
-x,1/2+y,-z
-x,-y,-z
1/2+x,1/2+y,-z
1/2-x,y,z
x,1/2-y,z
loop_
_atom_site_type_symbol
_atom_site_label
_atom_site_fract_x
_atom_site_fract_y
_atom_site_fract_z
Si Si1 0.839183 0.971145 0.289606
Si Si2 0.920693 0.960812 0.798580
Si Si3 0.840219 0.145268 0.966600
Si Si4 0.082555 0.551091 0.939249
Si Si5 0.659779 0.198608 0.466729
O O1 0.750000 0.966255 0.323238
O O2 0.867989 0.944077 0.036551
O O3 0.862083 0.025014 0.262931
O O4 0.879259 0.948802 0.535374
O O5 0.934199 0.016088 0.824297
O O6 0.002436 0.935777 0.806198
O O7 0.750000 0.139745 0.965820
O O8 0.876811 0.095470 0.951611
O O9 0.869326 0.171376 0.218785
O O10 0.869092 0.173367 0.721216
O O11 0.750000 0.200910 0.465036
O O12 0.626137 0.250000 0.461509
#
# Coordination Sequence:
#
# PCOD8239482 Si02
#       5
#     8   8   8   8   8
#     4  10  18  29  43  59  78 109 145 178 204 238
#     4   9  20  30  43  56  86 115 134 179 220 253
#     4  10  19  27  44  64  78 106 146 183 204 235
#     4   9  20  30  43  60  86 108 145 178 215 246
#     4   9  18  31  42  57  82 107 134 173 220 254
#
# _framework density 14.874511
#
# number of rings (size 3 to 8) (size 9 to 14) (size 15 to 20)
#    1.200    1.400    0.000    2.400    2.800    2.400 
#    0.000    0.000    0.000    0.000    0.000    0.000 
#    0.000    0.000    0.000    0.000    0.000   70.000 
#
# Total GULP energy -495718.647376 kJ/mol
# GULP energy per Si atom -12392.966184 kJ/mol
# Density = 1.484066 g / cm^3
# Si number density = 14.874511 Si / 1000 Ang^3
#
#
#
# Elastic Constant Matrix: (Units=GPa)
#
#
# Indices 1 2 3 4 5 6 
#
# 1 49.3355 1.8397 6.8379 0.0000 0.0000 0.0000
# 2 1.8397 45.7140 16.5152 0.0000 0.0000 0.0000
# 3 6.8379 16.5152 98.2891 0.0000 0.0000 0.0000
# 4 0.0000 0.0000 0.0000 13.8327 0.0000 0.0000
# 5 0.0000 0.0000 0.0000 0.0000 16.6879 0.0000
# 6 0.0000 0.0000 0.0000 0.0000 0.0000 11.4821
#
#
#
# Elastic Compliance Matrix: (Units=1/GPa)
#
#
# Indices 1 2 3 4 5 6 
#
# 1 0.020471 -0.000329 -0.001369 0.000000 0.000000 0.000000
# 2 -0.000329 0.023294 -0.003891 0.000000 0.000000 0.000000
# 3 -0.001369 -0.003891 0.010923 0.000000 0.000000 0.000000
# 4 0.000000 0.000000 0.000000 0.072292 0.000000 0.000000
# 5 0.000000 0.000000 0.000000 0.000000 0.059924 0.000000
# 6 0.000000 0.000000 0.000000 0.000000 0.000000 0.087092
#
#
# Mechanical properties :
#
#
# Convention : Reuss Voigt Hill
#
# Bulk Modulus (GPa) = 22.98321 27.08047 25.03184
# Shear Modulus (GPa) = 16.68454 19.61025 18.14740
#
# Velocity S-wave (km/s) = 3.35279 3.63489 3.49669
# Velocity P-wave (km/s) = 5.52026 5.98849 5.75914
#
# Compressibility (1/GPa) = 0.04351003
#
# Stress axis : x y z
#
# Youngs Moduli (GPa) = 48.84864 42.92925 91.54894
#
# Poissons Ratio (x) = 0.01414 0.12532
# Poissons Ratio (y) = 0.01609 0.35623
# Poissons Ratio (z) = 0.06687 0.16704
#
# Static dielectric constant tensor:
#      x y z
#    x 2.636980 0.000000 0.000000 
#    y 0.000000 2.548580 0.000000 
#    z 0.000000 0.000000 2.958480 
# 
# 
# High freq. dielectric constant tensor:
#      x y z
#    x 1.543150 0.000000 0.000000 
#    y 0.000000 1.521630 0.000000 
#    z 0.000000 0.000000 1.583780 
# 
# From -- ./inp_files/2073.got.cif
#   From: 2010.03.12/outbox.cif.g09.slc.cpg/sg59_2_cif.got.tgz:2073.got - 2010.04.16 16:29:54.
