data_PCOD8239683
_publ_section_title
;
Structure prediction by ZEFSAII (Michael W. Deem and Ramdas Pophale) SiO2 
 PCOD8239683
Probable space group: P M M N
;
_chemical_formula_sum "Si O2"
_cell_formula_units_Z 48
_cell_length_a 7.581000
_cell_length_b 34.336110
_cell_length_c 10.725382
_cell_angle_alpha 90.000000
_cell_angle_beta 90.000000
_cell_angle_gamma 90.000000
_cell_volume 2791.838921
_symmetry_space_group_name_H-M "P M M N"
_symmetry_group_IT_number 59
_space_group.IT_coordinate_system_code '2'
_symmetry_cell_setting 'orthorhombic'
loop_
_space_group_symop_operation_xyz
x,y,z
1/2-x,1/2-y,z
1/2+x,-y,-z
-x,1/2+y,-z
-x,-y,-z
1/2+x,1/2+y,-z
1/2-x,y,z
x,1/2-y,z
loop_
_atom_site_type_symbol
_atom_site_label
_atom_site_fract_x
_atom_site_fract_y
_atom_site_fract_z
Si Si1 0.750000 0.645006 0.389621
Si Si2 0.451019 0.881228 0.553617
Si Si3 0.250000 0.101052 0.993003
Si Si4 0.250000 0.062836 0.744770
Si Si5 0.951106 0.037825 0.576888
Si Si6 0.953402 0.128990 0.159886
Si Si7 0.948789 0.293059 0.023941
Si Si8 0.250000 0.317574 0.857799
O O1 0.575102 0.647484 0.474454
O O2 0.750000 0.605449 0.312647
O O3 0.750000 0.681029 0.292814
O O4 0.250000 0.868178 0.530101
O O5 0.483207 0.925760 0.514431
O O6 0.503577 0.877327 0.697325
O O7 0.425840 0.100094 0.077897
O O8 0.250000 0.064798 0.896047
O O9 0.250000 0.139359 0.910888
O O10 0.424944 0.040242 0.698657
O O11 0.750000 0.036257 0.624135
O O12 0.000000 0.000000 0.500000
O O13 0.750000 0.118347 0.133026
O O14 0.995546 0.174179 0.126637
O O15 0.750000 0.299322 0.974820
O O16 0.970489 0.250000 0.084988
O O17 0.075123 0.295593 0.904174
#
# Coordination Sequence:
#
# PCOD8239683 Si02
#       8
#     4   8   4   4   8   8   8   4
#     4   9  17  29  45  66  94 118 149 188 234 268
#     4   9  18  30  47  71  93 120 156 197 234 282
#     4   9  17  29  46  68  94 122 152 190 232 276
#     4   9  18  30  45  69  94 117 153 194 231 280
#     4  10  18  30  48  70  90 119 157 198 243 282
#     4   9  17  30  48  71  94 121 155 192 234 275
#     4   9  17  29  47  69  92 119 153 188 226 272
#     4   9  17  28  44  67  93 121 148 188 228 268
#
# _framework density 17.192969000000002
#
# number of rings (size 3 to 8) (size 9 to 14) (size 15 to 20)
#    0.000    2.833    0.833    0.750    0.000    1.333 
#    0.000    6.667    0.000    3.000    0.000    2.333 
#    0.000    0.000    0.000    0.000    0.000    0.000 
#
# Total GULP energy -595024.515578 kJ/mol
# GULP energy per Si atom -12396.344075 kJ/mol
# Density = 1.715384 g / cm^3
# Si number density = 17.192969 Si / 1000 Ang^3
#
#
#
# Elastic Constant Matrix: (Units=GPa)
#
#
# Indices 1 2 3 4 5 6 
#
# 1 119.0176 25.9391 60.6486 0.0000 0.0000 0.0000
# 2 25.9391 42.1676 26.9448 0.0000 0.0000 0.0000
# 3 60.6486 26.9448 109.6208 0.0000 0.0000 0.0000
# 4 0.0000 0.0000 0.0000 18.6824 0.0000 0.0000
# 5 0.0000 0.0000 0.0000 0.0000 27.3427 0.0000
# 6 0.0000 0.0000 0.0000 0.0000 0.0000 17.4671
#
#
#
# Elastic Compliance Matrix: (Units=1/GPa)
#
#
# Indices 1 2 3 4 5 6 
#
# 1 0.012189 -0.003783 -0.005814 0.000000 0.000000 0.000000
# 2 -0.003783 0.029308 -0.005111 0.000000 0.000000 0.000000
# 3 -0.005814 -0.005111 0.013595 0.000000 0.000000 0.000000
# 4 0.000000 0.000000 0.000000 0.053526 0.000000 0.000000
# 5 0.000000 0.000000 0.000000 0.000000 0.036573 0.000000
# 6 0.000000 0.000000 0.000000 0.000000 0.000000 0.057250
#
#
# Mechanical properties :
#
#
# Convention : Reuss Voigt Hill
#
# Bulk Modulus (GPa) = 38.94600 55.31900 47.13250
# Shear Modulus (GPa) = 20.79725 23.18335 21.99030
#
# Velocity S-wave (km/s) = 3.48176 3.67607 3.58023
# Velocity P-wave (km/s) = 6.23418 7.08965 6.67563
#
# Compressibility (1/GPa) = 0.02567658
#
# Stress axis : x y z
#
# Youngs Moduli (GPa) = 82.03945 34.12061 73.55534
#
# Poissons Ratio (x) = 0.12908 0.42765
# Poissons Ratio (y) = 0.31036 0.37593
# Poissons Ratio (z) = 0.47697 0.17438
#
# Static dielectric constant tensor:
#      x y z
#    x 3.477350 0.000000 0.000000 
#    y 0.000000 3.071440 0.000000 
#    z 0.000000 0.000000 3.286420 
# 
# 
# High freq. dielectric constant tensor:
#      x y z
#    x 1.683770 0.000000 0.000000 
#    y 0.000000 1.633180 0.000000 
#    z 0.000000 0.000000 1.646190 
# 
# From -- ./inp_files/6470.got.cif
#   From: 2010.03.12/outbox.cif.g09.slc.cpg/sg59_4_cif.got.tgz:6470.got - 2010.04.16 16:29:54.
