data_PCOD8239730
_publ_section_title
;
Structure prediction by ZEFSAII (Michael W. Deem and Ramdas Pophale) SiO2 
 PCOD8239730
Probable space group: P M M N
;
_chemical_formula_sum "Si O2"
_cell_formula_units_Z 48
_cell_length_a 8.736845
_cell_length_b 18.078133
_cell_length_c 16.556704
_cell_angle_alpha 90.000000
_cell_angle_beta 90.000000
_cell_angle_gamma 90.000000
_cell_volume 2615.062619
_symmetry_space_group_name_H-M "P M M N"
_symmetry_group_IT_number 59
_space_group.IT_coordinate_system_code '2'
_symmetry_cell_setting 'orthorhombic'
loop_
_space_group_symop_operation_xyz
x,y,z
1/2-x,1/2-y,z
1/2+x,-y,-z
-x,1/2+y,-z
-x,-y,-z
1/2+x,1/2+y,-z
1/2-x,y,z
x,1/2-y,z
loop_
_atom_site_type_symbol
_atom_site_label
_atom_site_fract_x
_atom_site_fract_y
_atom_site_fract_z
Si Si1 0.930796 0.026951 0.416947
Si Si2 0.427023 0.399417 0.178841
Si Si3 0.932257 0.580838 0.995323
Si Si4 0.572285 0.048683 0.734406
Si Si5 0.930610 0.664948 0.154074
Si Si6 0.568821 0.833507 0.659113
O O1 0.750000 0.026505 0.422186
O O2 0.987848 0.110676 0.402146
O O3 0.000000 0.000000 0.500000
O O4 0.983663 0.970912 0.347277
O O5 0.250000 0.380829 0.176521
O O6 0.493325 0.382983 0.089295
O O7 0.457539 0.485353 0.199192
O O8 0.497001 0.348260 0.250005
O O9 0.750000 0.574413 0.994384
O O10 0.989614 0.631072 0.069297
O O11 0.000000 0.500000 0.000000
O O12 0.750000 0.056373 0.712943
O O13 0.510358 0.125200 0.770434
O O14 0.750000 0.654831 0.162436
O O15 0.980128 0.750000 0.156358
O O16 0.750000 0.849263 0.656430
O O17 0.529378 0.750000 0.633251
#
# Coordination Sequence:
#
# PCOD8239730 Si02
#       6
#     8   8   8   8   8   8
#     4  11  22  38  61  87 114 143 179 222 269 329
#     4   8  15  28  49  76 103 138 181 222 263 316
#     4  10  18  30  49  74 105 145 190 232 273 318
#     4  10  19  35  57  79 104 138 182 226 272 328
#     4  10  21  34  49  75 111 148 187 232 281 329
#     4   9  18  34  56  83 116 149 182 223 272 324
#
# _framework density 18.355201000000001
#
# number of rings (size 3 to 8) (size 9 to 14) (size 15 to 20)
#    0.000    2.333    1.667    3.000    0.000    1.333 
#    0.000    4.167    0.000    5.000    0.000    2.333 
#    0.000    0.000    0.000    0.000    0.000    0.000 
#
# Total GULP energy -595024.316002 kJ/mol
# GULP energy per Si atom -12396.339917 kJ/mol
# Density = 1.831342 g / cm^3
# Si number density = 18.355201 Si / 1000 Ang^3
#
#
#
# Elastic Constant Matrix: (Units=GPa)
#
#
# Indices 1 2 3 4 5 6 
#
# 1 72.1817 55.1127 51.5466 0.0000 0.0000 0.0000
# 2 55.1127 130.7937 72.6435 0.0000 0.0000 0.0000
# 3 51.5466 72.6435 142.5398 0.0000 0.0000 0.0000
# 4 0.0000 0.0000 0.0000 21.1376 0.0000 0.0000
# 5 0.0000 0.0000 0.0000 0.0000 23.9797 0.0000
# 6 0.0000 0.0000 0.0000 0.0000 0.0000 27.5415
#
#
#
# Elastic Compliance Matrix: (Units=1/GPa)
#
#
# Indices 1 2 3 4 5 6 
#
# 1 0.022387 -0.006886 -0.004586 0.000000 0.000000 0.000000
# 2 -0.006886 0.012782 -0.004024 0.000000 0.000000 0.000000
# 3 -0.004586 -0.004024 0.010725 0.000000 0.000000 0.000000
# 4 0.000000 0.000000 0.000000 0.047309 0.000000 0.000000
# 5 0.000000 0.000000 0.000000 0.000000 0.041702 0.000000
# 6 0.000000 0.000000 0.000000 0.000000 0.000000 0.036309
#
#
# Mechanical properties :
#
#
# Convention : Reuss Voigt Hill
#
# Bulk Modulus (GPa) = 67.10903 78.23563 72.67233
# Shear Modulus (GPa) = 24.13436 25.61258 24.87347
#
# Velocity S-wave (km/s) = 3.63002 3.73954 3.68519
# Velocity P-wave (km/s) = 7.36275 7.83334 7.60169
#
# Compressibility (1/GPa) = 0.01490112
#
# Stress axis : x y z
#
# Youngs Moduli (GPa) = 44.66940 78.23426 93.23982
#
# Poissons Ratio (x) = 0.53870 0.42764
# Poissons Ratio (y) = 0.30758 0.37521
# Poissons Ratio (z) = 0.20487 0.31483
#
# Static dielectric constant tensor:
#      x y z
#    x 3.205370 0.000000 0.000000 
#    y 0.000000 3.316260 0.000000 
#    z 0.000000 0.000000 3.594680 
# 
# 
# High freq. dielectric constant tensor:
#      x y z
#    x 1.693190 0.000000 0.000000 
#    y 0.000000 1.701640 0.000000 
#    z 0.000000 0.000000 1.716550 
# 
# From -- ./inp_files/20398.got.cif
#   From: 2010.03.12/outbox.cif.g09.slc.cpg/sg59_11_cif.got.tgz:20398.got - 2010.04.16 16:29:54.
