data_PCOD8239186
_publ_section_title
;
Structure prediction by ZEFSAII (Michael W. Deem and Ramdas Pophale) SiO2 
 PCOD8239186
Probable space group: P M M N
;
_chemical_formula_sum "Si O2"
_cell_formula_units_Z 64
_cell_length_a 8.955628
_cell_length_b 15.540180
_cell_length_c 23.997172
_cell_angle_alpha 90.000000
_cell_angle_beta 90.000000
_cell_angle_gamma 90.000000
_cell_volume 3339.736129
_symmetry_space_group_name_H-M "P M M N"
_symmetry_group_IT_number 59
_space_group.IT_coordinate_system_code '2'
_symmetry_cell_setting 'orthorhombic'
loop_
_space_group_symop_operation_xyz
x,y,z
1/2-x,1/2-y,z
1/2+x,-y,-z
-x,1/2+y,-z
-x,-y,-z
1/2+x,1/2+y,-z
1/2-x,y,z
x,1/2-y,z
loop_
_atom_site_type_symbol
_atom_site_label
_atom_site_fract_x
_atom_site_fract_y
_atom_site_fract_z
Si Si1 0.421919 0.845404 0.135176
Si Si2 0.072748 0.399924 0.756080
Si Si3 0.073239 0.497404 0.059843
Si Si4 0.573816 0.406715 0.245680
Si Si5 0.576770 0.347375 0.126516
Si Si6 0.572957 0.845110 0.364272
Si Si7 0.572461 0.345091 0.363258
Si Si8 0.927758 0.000163 0.440042
O O1 0.250000 0.864705 0.148076
O O2 0.442809 0.750000 0.108420
O O3 0.508969 0.845181 0.193247
O O4 0.483991 0.918286 0.093321
O O5 0.250000 0.394890 0.758783
O O6 0.012386 0.497010 0.761646
O O7 0.011741 0.362101 0.697865
O O8 0.250000 0.498069 0.053086
O O9 0.024211 0.410600 0.090589
O O10 0.000000 0.500000 0.000000
O O11 0.750000 0.409860 0.252916
O O12 0.528496 0.352223 0.191360
O O13 0.505855 0.364692 0.301706
O O14 0.750000 0.374155 0.119648
O O15 0.550281 0.250000 0.105679
O O16 0.750000 0.852263 0.362447
O O17 0.521227 0.750000 0.383926
O O18 0.511844 0.916245 0.407191
O O19 0.750000 0.349171 0.360649
O O20 0.518202 0.250000 0.381845
O O21 0.514475 0.415264 0.407379
O O22 0.750000 0.999424 0.445505
O O23 0.000000 0.000000 0.500000
#
# Coordination Sequence:
#
# PCOD8239186 Si02
#       8
#     8   8   8   8   8   8   8   8
#     4  10  22  39  57  80 112 147 178 214 271 332
#     4  10  17  30  56  85 109 134 171 218 264 317
#     4  11  24  41  60  81 109 147 190 234 274 318
#     4   9  15  27  51  82 111 136 168 212 263 317
#     4  10  20  35  58  87 117 146 176 217 273 333
#     4   9  17  30  50  76 103 132 168 212 262 311
#     4   9  16  28  49  76 104 133 168 213 261 309
#     4  10  20  34  50  70  97 133 175 218 260 306
#
# _framework density 19.16319
#
# number of rings (size 3 to 8) (size 9 to 14) (size 15 to 20)
#    0.000    2.250    2.500    1.125    0.000    4.000 
#    0.000    1.875    0.000    1.500    0.000    0.000 
#    0.000    0.000    0.000    0.000    0.000    0.000 
#
# Total GULP energy -793476.473802 kJ/mol
# GULP energy per Si atom -12398.069903 kJ/mol
# Density = 1.911957 g / cm^3
# Si number density = 19.163190 Si / 1000 Ang^3
#
#
#
# Elastic Constant Matrix: (Units=GPa)
#
#
# Indices 1 2 3 4 5 6 
#
# 1 28.9599 26.4508 33.0031 0.0000 0.0000 0.0000
# 2 26.4508 161.4588 74.0668 0.0000 0.0000 0.0000
# 3 33.0031 74.0668 152.7352 0.0000 0.0000 0.0000
# 4 0.0000 0.0000 0.0000 16.0669 0.0000 0.0000
# 5 0.0000 0.0000 0.0000 0.0000 26.7094 0.0000
# 6 0.0000 0.0000 0.0000 0.0000 0.0000 19.5075
#
#
#
# Elastic Compliance Matrix: (Units=1/GPa)
#
#
# Indices 1 2 3 4 5 6 
#
# 1 0.047711 -0.003970 -0.008384 0.000000 0.000000 0.000000
# 2 -0.003970 0.008296 -0.003165 0.000000 0.000000 0.000000
# 3 -0.008384 -0.003165 0.009894 0.000000 0.000000 0.000000
# 4 0.000000 0.000000 0.000000 0.062240 0.000000 0.000000
# 5 0.000000 0.000000 0.000000 0.000000 0.037440 0.000000
# 6 0.000000 0.000000 0.000000 0.000000 0.000000 0.051262
#
#
# Mechanical properties :
#
#
# Convention : Reuss Voigt Hill
#
# Bulk Modulus (GPa) = 28.68439 67.79946 48.24193
# Shear Modulus (GPa) = 19.26761 26.43231 22.84996
#
# Velocity S-wave (km/s) = 3.17432 3.71796 3.45684
# Velocity P-wave (km/s) = 5.33255 7.34083 6.41576
#
# Compressibility (1/GPa) = 0.03486216
#
# Stress axis : x y z
#
# Youngs Moduli (GPa) = 20.95936 120.54186 101.07323
#
# Poissons Ratio (x) = 0.47856 0.84742
# Poissons Ratio (y) = 0.08321 0.31991
# Poissons Ratio (z) = 0.17573 0.38153
#
# Static dielectric constant tensor:
#      x y z
#    x 2.961360 0.000000 0.000000 
#    y 0.000000 2.001050 0.000000 
#    z 0.000000 0.000000 3.746840 
# 
# 
# High freq. dielectric constant tensor:
#      x y z
#    x 1.692550 0.000000 0.000000 
#    y 0.000000 1.764830 0.000000 
#    z 0.000000 0.000000 1.745610 
# 
# From -- ./inp_files/31428.got.cif
#   From: 2010.03.12/outbox.cif.g09.slc.cpg/sg59_16_cif.got.tgz:31428.got - 2010.04.16 16:29:54.
