data_PCOD8239230
_publ_section_title
;
Structure prediction by ZEFSAII (Michael W. Deem and Ramdas Pophale) SiO2 
 PCOD8239230
Probable space group: P M M N
;
_chemical_formula_sum "Si O2"
_cell_formula_units_Z 56
_cell_length_a 9.226062
_cell_length_b 22.379983
_cell_length_c 17.468182
_cell_angle_alpha 90.000000
_cell_angle_beta 90.000000
_cell_angle_gamma 90.000000
_cell_volume 3606.814685
_symmetry_space_group_name_H-M "P M M N"
_symmetry_group_IT_number 59
_space_group.IT_coordinate_system_code '2'
_symmetry_cell_setting 'orthorhombic'
loop_
_space_group_symop_operation_xyz
x,y,z
1/2-x,1/2-y,z
1/2+x,-y,-z
-x,1/2+y,-z
-x,-y,-z
1/2+x,1/2+y,-z
1/2-x,y,z
x,1/2-y,z
loop_
_atom_site_type_symbol
_atom_site_label
_atom_site_fract_x
_atom_site_fract_y
_atom_site_fract_z
Si Si1 0.921191 0.317818 0.241547
Si Si2 0.082344 0.439016 0.514162
Si Si3 0.080115 0.964752 0.172393
Si Si4 0.585495 0.968383 0.321433
Si Si5 0.914393 0.899759 0.870422
Si Si6 0.081588 0.600821 0.620138
Si Si7 0.917913 0.557277 0.030419
O O1 0.750000 0.321491 0.233941
O O2 0.977365 0.250000 0.243452
O O3 0.972101 0.349574 0.319766
O O4 0.984792 0.350496 0.167626
O O5 0.250000 0.446641 0.491810
O O6 0.066685 0.424610 0.604810
O O7 0.000000 0.500000 0.500000
O O8 0.008788 0.389575 0.458840
O O9 0.250000 0.952019 0.166187
O O10 0.023119 0.945981 0.255907
O O11 0.997056 0.923558 0.109355
O O12 0.040935 0.034017 0.157512
O O13 0.750000 0.965421 0.290596
O O14 0.547425 0.036236 0.344190
O O15 0.750000 0.887137 0.845294
O O16 0.930845 0.893442 0.962831
O O17 0.250000 0.607825 0.600003
O O18 0.750000 0.542045 0.046403
O O19 0.000000 0.500000 0.000000
#
# Coordination Sequence:
#
# PCOD8239230 Si02
#       7
#     8   8   8   8   8   8   8
#     4  10  20  32  46  63  83 112 150 186 218 252
#     4   9  17  27  40  59  81 109 142 173 210 254
#     4  10  18  26  40  63  86 112 143 171 207 254
#     4   9  16  26  40  59  83 113 142 171 208 250
#     4   9  18  30  42  59  82 110 143 178 215 251
#     4   9  17  29  42  58  81 111 144 178 217 253
#     4   9  17  28  41  59  82 109 141 173 209 253
#
# _framework density 15.526164
#
# number of rings (size 3 to 8) (size 9 to 14) (size 15 to 20)
#    0.000    2.714    1.429    3.000    0.000    6.571 
#    0.000    0.000    0.000    0.000    0.000    0.000 
#    0.000    1.143    0.000    8.571    0.000    4.429 
#
# Total GULP energy -694051.872920 kJ/mol
# GULP energy per Si atom -12393.783445 kJ/mol
# Density = 1.549083 g / cm^3
# Si number density = 15.526164 Si / 1000 Ang^3
#
#
#
# Elastic Constant Matrix: (Units=GPa)
#
#
# Indices 1 2 3 4 5 6 
#
# 1 84.7608 22.4499 64.4014 0.0000 0.0000 0.0000
# 2 22.4499 42.3045 34.7086 0.0000 0.0000 0.0000
# 3 64.4014 34.7086 128.9811 0.0000 0.0000 0.0000
# 4 0.0000 0.0000 0.0000 14.0097 0.0000 0.0000
# 5 0.0000 0.0000 0.0000 0.0000 35.0301 0.0000
# 6 0.0000 0.0000 0.0000 0.0000 0.0000 13.8420
#
#
#
# Elastic Compliance Matrix: (Units=1/GPa)
#
#
# Indices 1 2 3 4 5 6 
#
# 1 0.019301 -0.002998 -0.008831 0.000000 0.000000 0.000000
# 2 -0.002998 0.030801 -0.006792 0.000000 0.000000 0.000000
# 3 -0.008831 -0.006792 0.013990 0.000000 0.000000 0.000000
# 4 0.000000 0.000000 0.000000 0.071379 0.000000 0.000000
# 5 0.000000 0.000000 0.000000 0.000000 0.028547 0.000000
# 6 0.000000 0.000000 0.000000 0.000000 0.000000 0.072244
#
#
# Mechanical properties :
#
#
# Convention : Reuss Voigt Hill
#
# Bulk Modulus (GPa) = 37.24071 55.46289 46.35180
# Shear Modulus (GPa) = 17.70203 21.54215 19.62209
#
# Velocity S-wave (km/s) = 3.38026 3.72892 3.55886
# Velocity P-wave (km/s) = 6.26680 7.37154 6.84150
#
# Compressibility (1/GPa) = 0.02685233
#
# Stress axis : x y z
#
# Youngs Moduli (GPa) = 51.80956 32.46628 71.47971
#
# Poissons Ratio (x) = 0.09732 0.63122
# Poissons Ratio (y) = 0.15531 0.48548
# Poissons Ratio (z) = 0.45752 0.22050
#
# Static dielectric constant tensor:
#      x y z
#    x 3.123750 0.000000 0.000000 
#    y 0.000000 2.564510 0.000000 
#    z 0.000000 0.000000 3.591640 
# 
# 
# High freq. dielectric constant tensor:
#      x y z
#    x 1.607130 0.000000 0.000000 
#    y 0.000000 1.518100 0.000000 
#    z 0.000000 0.000000 1.611200 
# 
# From -- ./inp_files/26389.got.cif
#   From: 2010.03.12/outbox.cif.g09.slc.cpg/sg59_14_cif.got.tgz:26389.got - 2010.04.16 16:29:54.
