data_PCOD8239692
_publ_section_title
;
Structure prediction by ZEFSAII (Michael W. Deem and Ramdas Pophale) SiO2 
 PCOD8239692
Probable space group: P M M N
;
_chemical_formula_sum "Si O2"
_cell_formula_units_Z 56
_cell_length_a 19.050786
_cell_length_b 9.034704
_cell_length_c 17.566991
_cell_angle_alpha 90.000000
_cell_angle_beta 90.000000
_cell_angle_gamma 90.000000
_cell_volume 3023.599090
_symmetry_space_group_name_H-M "P M M N"
_symmetry_group_IT_number 59
_space_group.IT_coordinate_system_code '2'
_symmetry_cell_setting 'orthorhombic'
loop_
_space_group_symop_operation_xyz
x,y,z
1/2-x,1/2-y,z
1/2+x,-y,-z
-x,1/2+y,-z
-x,-y,-z
1/2+x,1/2+y,-z
1/2-x,y,z
x,1/2-y,z
loop_
_atom_site_type_symbol
_atom_site_label
_atom_site_fract_x
_atom_site_fract_y
_atom_site_fract_z
Si Si1 0.539806 0.424297 0.814742
Si Si2 0.327505 0.417598 0.741746
Si Si3 0.575249 0.924750 0.397401
Si Si4 0.938751 0.576607 0.657731
Si Si5 0.568886 0.080810 0.975127
Si Si6 0.102570 0.578305 0.864912
Si Si7 0.828713 0.923324 0.533813
O O1 0.536874 0.250000 0.796515
O O2 0.569379 0.505940 0.740927
O O3 0.590809 0.462876 0.888202
O O4 0.462560 0.480167 0.836159
O O5 0.250000 0.434552 0.705958
O O6 0.340668 0.250000 0.768658
O O7 0.383982 0.464885 0.679480
O O8 0.331947 0.525041 0.814861
O O9 0.561965 0.750000 0.406127
O O10 0.621696 0.988598 0.467039
O O11 0.500845 0.006745 0.393056
O O12 0.953737 0.750000 0.665872
O O13 0.865472 0.544831 0.614746
O O14 0.547000 0.250000 0.971414
O O15 0.623088 0.052279 0.045112
O O16 0.500000 0.000000 0.000000
O O17 0.085380 0.750000 0.850125
O O18 0.750000 0.993886 0.533108
O O19 0.821642 0.750000 0.518750
#
# Coordination Sequence:
#
# PCOD8239692 Si02
#       7
#     8   8   8   8   8   8   8
#     4  10  18  31  50  73 102 135 170 209 254 306
#     4  10  20  32  48  72 103 141 179 211 252 312
#     4  10  19  34  56  77 101 136 174 212 256 312
#     4  11  21  32  52  81 109 134 168 218 265 305
#     4   8  16  28  45  69  96 128 164 203 248 298
#     4  10  18  30  48  72 102 132 168 214 262 306
#     4   9  19  36  56  77 102 136 176 213 255 310
#
# _framework density 18.520973000000001
#
# number of rings (size 3 to 8) (size 9 to 14) (size 15 to 20)
#    0.000    2.286    1.429    2.143    0.000    3.143 
#    0.000    0.714    0.000    5.571    0.000    4.000 
#    0.000    0.000    0.000    0.000    0.000    0.000 
#
# Total GULP energy -693816.327401 kJ/mol
# GULP energy per Si atom -12389.577275 kJ/mol
# Density = 1.847882 g / cm^3
# Si number density = 18.520973 Si / 1000 Ang^3
#
#
#
# Elastic Constant Matrix: (Units=GPa)
#
#
# Indices 1 2 3 4 5 6 
#
# 1 70.5252 26.1792 43.3336 0.0000 0.0000 0.0000
# 2 26.1792 59.8938 47.9385 0.0000 0.0000 0.0000
# 3 43.3336 47.9385 143.5761 0.0000 0.0000 0.0000
# 4 0.0000 0.0000 0.0000 23.3225 0.0000 0.0000
# 5 0.0000 0.0000 0.0000 0.0000 16.5405 0.0000
# 6 0.0000 0.0000 0.0000 0.0000 0.0000 18.2295
#
#
#
# Elastic Compliance Matrix: (Units=1/GPa)
#
#
# Indices 1 2 3 4 5 6 
#
# 1 0.018409 -0.004912 -0.003916 0.000000 0.000000 0.000000
# 2 -0.004912 0.024096 -0.006563 0.000000 0.000000 0.000000
# 3 -0.003916 -0.006563 0.010338 0.000000 0.000000 0.000000
# 4 0.000000 0.000000 0.000000 0.042877 0.000000 0.000000
# 5 0.000000 0.000000 0.000000 0.000000 0.060458 0.000000
# 6 0.000000 0.000000 0.000000 0.000000 0.000000 0.054856
#
#
# Mechanical properties :
#
#
# Convention : Reuss Voigt Hill
#
# Bulk Modulus (GPa) = 45.32845 56.54420 50.93633
# Shear Modulus (GPa) = 20.06662 22.05474 21.06068
#
# Velocity S-wave (km/s) = 3.29516 3.45454 3.37579
# Velocity P-wave (km/s) = 6.24537 6.81967 6.53883
#
# Compressibility (1/GPa) = 0.02206120
#
# Stress axis : x y z
#
# Youngs Moduli (GPa) = 54.32169 41.50041 96.72914
#
# Poissons Ratio (x) = 0.20385 0.37879
# Poissons Ratio (y) = 0.26683 0.63482
# Poissons Ratio (z) = 0.21272 0.27236
#
# Static dielectric constant tensor:
#      x y z
#    x 3.195610 0.000000 0.000000 
#    y 0.000000 3.202240 0.000000 
#    z 0.000000 0.000000 3.997990 
# 
# 
# High freq. dielectric constant tensor:
#      x y z
#    x 1.678380 0.000000 0.000000 
#    y 0.000000 1.708000 0.000000 
#    z 0.000000 0.000000 1.739900 
# 
# From -- ./inp_files/28080.got.cif
#   From: 2010.03.12/outbox.cif.g09.slc.cpg/sg59_15_cif.got.tgz:28080.got - 2010.04.16 16:29:54.
