data_PCOD8239646
_publ_section_title
;
Structure prediction by ZEFSAII (Michael W. Deem and Ramdas Pophale) SiO2 
 PCOD8239646
Probable space group: P M M N
;
_chemical_formula_sum "Si O2"
_cell_formula_units_Z 64
_cell_length_a 8.905817
_cell_length_b 28.825583
_cell_length_c 15.776658
_cell_angle_alpha 90.000000
_cell_angle_beta 90.000000
_cell_angle_gamma 90.000000
_cell_volume 4050.110550
_symmetry_space_group_name_H-M "P M M N"
_symmetry_group_IT_number 59
_space_group.IT_coordinate_system_code '2'
_symmetry_cell_setting 'orthorhombic'
loop_
_space_group_symop_operation_xyz
x,y,z
1/2-x,1/2-y,z
1/2+x,-y,-z
-x,1/2+y,-z
-x,-y,-z
1/2+x,1/2+y,-z
1/2-x,y,z
x,1/2-y,z
loop_
_atom_site_type_symbol
_atom_site_label
_atom_site_fract_x
_atom_site_fract_y
_atom_site_fract_z
Si Si1 0.071387 0.553899 0.827108
Si Si2 0.927738 0.300742 0.409677
Si Si3 0.073483 0.450149 0.006244
Si Si4 0.071461 0.949792 0.497424
Si Si5 0.926306 0.603027 0.342066
Si Si6 0.577291 0.698681 0.413364
Si Si7 0.928115 0.394533 0.337892
Si Si8 0.074145 0.448583 0.821746
O O1 0.250000 0.556000 0.834292
O O2 0.007770 0.583997 0.748887
O O3 0.011517 0.501209 0.814474
O O4 0.002002 0.575900 0.913718
O O5 0.750000 0.301164 0.412548
O O6 0.987252 0.250000 0.379463
O O7 0.985077 0.341164 0.346519
O O8 0.980615 0.312027 0.504024
O O9 0.250000 0.454708 0.021559
O O10 0.039106 0.426138 0.914660
O O11 0.000000 0.500000 0.000000
O O12 0.250000 0.953765 0.494428
O O13 0.014498 0.923523 0.581587
O O14 0.015273 0.922194 0.416066
O O15 0.000000 0.000000 0.500000
O O16 0.750000 0.592178 0.352778
O O17 0.957208 0.658552 0.344580
O O18 0.991277 0.584141 0.252425
O O19 0.750000 0.696729 0.441517
O O20 0.538267 0.750000 0.375883
O O21 0.750000 0.396798 0.335117
O O22 0.250000 0.452259 0.808240
#
# Coordination Sequence:
#
# PCOD8239646 Si02
#       8
#     8   8   8   8   8   8   8   8
#     4   9  16  28  44  60  82 111 142 176 214 254
#     4   9  16  28  46  64  83 111 148 184 216 255
#     4   9  16  28  44  62  83 107 139 177 217 256
#     4  11  21  32  43  59  87 120 151 178 210 250
#     4  10  18  30  46  63  85 116 149 176 210 258
#     4   9  17  28  43  64  88 111 139 181 224 254
#     4   9  17  29  44  62  86 116 146 176 214 257
#     4   8  15  27  43  60  81 112 142 170 211 257
#
# _framework density 15.802038
#
# number of rings (size 3 to 8) (size 9 to 14) (size 15 to 20)
#    0.000    2.750    1.250    2.250    0.000    2.000 
#    0.000    7.500    0.000    0.000    0.000    0.875 
#    0.000    1.000    0.000    0.000    0.000    0.000 
#
# Total GULP energy -792993.614320 kJ/mol
# GULP energy per Si atom -12390.525224 kJ/mol
# Density = 1.576607 g / cm^3
# Si number density = 15.802038 Si / 1000 Ang^3
#
#
#
# Elastic Constant Matrix: (Units=GPa)
#
#
# Indices 1 2 3 4 5 6 
#
# 1 29.0631 21.3680 26.9088 0.0000 0.0000 0.0000
# 2 21.3680 114.6128 72.9648 0.0000 0.0000 0.0000
# 3 26.9088 72.9648 150.4866 0.0000 0.0000 0.0000
# 4 0.0000 0.0000 0.0000 12.5285 0.0000 0.0000
# 5 0.0000 0.0000 0.0000 0.0000 22.5269 0.0000
# 6 0.0000 0.0000 0.0000 0.0000 0.0000 15.0490
#
#
#
# Elastic Compliance Matrix: (Units=1/GPa)
#
#
# Indices 1 2 3 4 5 6 
#
# 1 0.042776 -0.004492 -0.005471 0.000000 0.000000 0.000000
# 2 -0.004492 0.013092 -0.005545 0.000000 0.000000 0.000000
# 3 -0.005471 -0.005545 0.010312 0.000000 0.000000 0.000000
# 4 0.000000 0.000000 0.000000 0.079818 0.000000 0.000000
# 5 0.000000 0.000000 0.000000 0.000000 0.044391 0.000000
# 6 0.000000 0.000000 0.000000 0.000000 0.000000 0.066450
#
#
# Mechanical properties :
#
#
# Convention : Reuss Voigt Hill
#
# Bulk Modulus (GPa) = 28.43753 59.62729 44.03241
# Shear Modulus (GPa) = 16.69024 21.54894 19.11959
#
# Velocity S-wave (km/s) = 3.25346 3.69681 3.48220
# Velocity P-wave (km/s) = 5.66997 7.48584 6.64027
#
# Compressibility (1/GPa) = 0.03516479
#
# Stress axis : x y z
#
# Youngs Moduli (GPa) = 23.37760 76.38018 96.97669
#
# Poissons Ratio (x) = 0.34311 0.53054
# Poissons Ratio (y) = 0.10502 0.53771
# Poissons Ratio (z) = 0.12789 0.42351
#
# Static dielectric constant tensor:
#      x y z
#    x 2.925920 0.000000 0.000000 
#    y 0.000000 2.791970 0.000000 
#    z 0.000000 0.000000 3.400370 
# 
# 
# High freq. dielectric constant tensor:
#      x y z
#    x 1.589880 0.000000 0.000000 
#    y 0.000000 1.590670 0.000000 
#    z 0.000000 0.000000 1.599470 
# 
# From -- ./inp_files/21803.got.cif
#   From: 2010.03.12/outbox.cif.g09.slc.cpg/sg59_11_cif.got.tgz:21803.got - 2010.04.16 16:29:54.
