data_PCOD8239694
_publ_section_title
;
Structure prediction by ZEFSAII (Michael W. Deem and Ramdas Pophale) SiO2 
 PCOD8239694
Probable space group: P M M N
;
_chemical_formula_sum "Si O2"
_cell_formula_units_Z 64
_cell_length_a 21.702711
_cell_length_b 18.814907
_cell_length_c 9.211761
_cell_angle_alpha 90.000000
_cell_angle_beta 90.000000
_cell_angle_gamma 90.000000
_cell_volume 3761.479722
_symmetry_space_group_name_H-M "P M M N"
_symmetry_group_IT_number 59
_space_group.IT_coordinate_system_code '2'
_symmetry_cell_setting 'orthorhombic'
loop_
_space_group_symop_operation_xyz
x,y,z
1/2-x,1/2-y,z
1/2+x,-y,-z
-x,1/2+y,-z
-x,-y,-z
1/2+x,1/2+y,-z
1/2-x,y,z
x,1/2-y,z
loop_
_atom_site_type_symbol
_atom_site_label
_atom_site_fract_x
_atom_site_fract_y
_atom_site_fract_z
Si Si1 0.887959 0.168117 0.080904
Si Si2 0.180019 0.946192 0.071006
Si Si3 0.991920 0.385132 0.586467
Si Si4 0.181141 0.947154 0.404217
Si Si5 0.938144 0.541795 0.948631
Si Si6 0.011343 0.168257 0.904781
Si Si7 0.384411 0.830001 0.586328
Si Si8 0.927333 0.536592 0.619052
O O1 0.871351 0.250000 0.062151
O O2 0.898138 0.147356 0.248396
O O3 0.829309 0.124758 0.022745
O O4 0.947926 0.147904 0.986339
O O5 0.250000 0.975747 0.044273
O O6 0.171764 0.922439 0.237926
O O7 0.126296 0.000968 0.020759
O O8 0.006644 0.345389 0.734304
O O9 0.949174 0.332201 0.496105
O O10 0.960013 0.460455 0.609463
O O11 0.052598 0.402252 0.492596
O O12 0.250000 0.968910 0.440851
O O13 0.163319 0.883615 0.512285
O O14 0.143289 0.020357 0.423026
O O15 0.940549 0.563586 0.780464
O O16 0.000000 0.500000 0.000000
O O17 0.935498 0.616480 0.034516
O O18 0.029368 0.250000 0.933781
O O19 0.357523 0.750000 0.577655
#
# Coordination Sequence:
#
# PCOD8239694 Si02
#       8
#     8   8   8   8   8   8   8   8
#     4  10  20  33  49  73 107 144 179 214 257 313
#     4  10  21  35  53  77 104 137 177 219 264 316
#     4  10  18  30  48  73 102 129 168 215 263 307
#     4   9  19  35  51  70  98 131 171 213 256 310
#     4  11  18  33  57  79 102 136 175 223 264 314
#     4  11  21  33  52  78 107 140 175 218 272 321
#     4  10  20  31  46  69 100 137 174 211 250 299
#     4   9  18  30  50  77  98 130 167 215 265 303
#
# _framework density 17.014579999999999
#
# number of rings (size 3 to 8) (size 9 to 14) (size 15 to 20)
#    0.000    2.000    2.500    2.625    0.000    3.500 
#    0.000    3.125    0.000    0.375    0.000    0.000 
#    0.000    3.500    0.000    0.000    0.000    0.000 
#
# Total GULP energy -793254.372679 kJ/mol
# GULP energy per Si atom -12394.599573 kJ/mol
# Density = 1.697585 g / cm^3
# Si number density = 17.014580 Si / 1000 Ang^3
#
#
#
# Elastic Constant Matrix: (Units=GPa)
#
#
# Indices 1 2 3 4 5 6 
#
# 1 115.1095 44.8440 50.8246 0.0000 0.0000 0.0000
# 2 44.8440 64.3458 31.3531 0.0000 0.0000 0.0000
# 3 50.8246 31.3531 101.0343 0.0000 0.0000 0.0000
# 4 0.0000 0.0000 0.0000 30.7713 0.0000 0.0000
# 5 0.0000 0.0000 0.0000 0.0000 22.8841 0.0000
# 6 0.0000 0.0000 0.0000 0.0000 0.0000 17.1919
#
#
#
# Elastic Compliance Matrix: (Units=1/GPa)
#
#
# Indices 1 2 3 4 5 6 
#
# 1 0.013501 -0.007187 -0.004561 0.000000 0.000000 0.000000
# 2 -0.007187 0.022135 -0.003254 0.000000 0.000000 0.000000
# 3 -0.004561 -0.003254 0.013202 0.000000 0.000000 0.000000
# 4 0.000000 0.000000 0.000000 0.032498 0.000000 0.000000
# 5 0.000000 0.000000 0.000000 0.000000 0.043698 0.000000
# 6 0.000000 0.000000 0.000000 0.000000 0.000000 0.058167
#
#
# Mechanical properties :
#
#
# Convention : Reuss Voigt Hill
#
# Bulk Modulus (GPa) = 53.09460 59.39256 56.24358
# Shear Modulus (GPa) = 22.78077 24.40065 23.59071
#
# Velocity S-wave (km/s) = 3.66306 3.79106 3.72761
# Velocity P-wave (km/s) = 7.01169 7.35836 7.18712
#
# Compressibility (1/GPa) = 0.01883431
#
# Stress axis : x y z
#
# Youngs Moduli (GPa) = 74.06763 45.17735 75.74622
#
# Poissons Ratio (x) = 0.32467 0.34552
# Poissons Ratio (y) = 0.53230 0.24646
# Poissons Ratio (z) = 0.33786 0.14700
#
# Static dielectric constant tensor:
#      x y z
#    x 3.251230 0.000000 0.000000 
#    y 0.000000 3.092810 0.000000 
#    z 0.000000 0.000000 3.353770 
# 
# 
# High freq. dielectric constant tensor:
#      x y z
#    x 1.633580 0.000000 0.000000 
#    y 0.000000 1.638120 0.000000 
#    z 0.000000 0.000000 1.672290 
# 
# From -- ./inp_files/11739.got.cif
#   From: 2010.03.12/outbox.cif.g09.slc.cpg/sg59_6_cif.got.tgz:11739.got - 2010.04.16 16:29:54.
