data_PCOD8239194
_publ_section_title
;
Structure prediction by ZEFSAII (Michael W. Deem and Ramdas Pophale) SiO2 
 PCOD8239194
Probable space group: P M M N
;
_chemical_formula_sum "Si O2"
_cell_formula_units_Z 64
_cell_length_a 20.736163
_cell_length_b 18.028428
_cell_length_c 10.036395
_cell_angle_alpha 90.000000
_cell_angle_beta 90.000000
_cell_angle_gamma 90.000000
_cell_volume 3752.010139
_symmetry_space_group_name_H-M "P M M N"
_symmetry_group_IT_number 59
_space_group.IT_coordinate_system_code '2'
_symmetry_cell_setting 'orthorhombic'
loop_
_space_group_symop_operation_xyz
x,y,z
1/2-x,1/2-y,z
1/2+x,-y,-z
-x,1/2+y,-z
-x,-y,-z
1/2+x,1/2+y,-z
1/2-x,y,z
x,1/2-y,z
loop_
_atom_site_type_symbol
_atom_site_label
_atom_site_fract_x
_atom_site_fract_y
_atom_site_fract_z
Si Si1 0.456314 0.664422 0.157874
Si Si2 0.325206 0.471246 0.811458
Si Si3 0.000542 0.079741 0.338707
Si Si4 0.444314 0.552382 0.937428
Si Si5 0.901454 0.668085 0.230666
Si Si6 0.321244 0.021703 0.505276
Si Si7 0.110479 0.334611 0.467660
Si Si8 0.932710 0.431306 0.599770
O O1 0.437070 0.750000 0.142024
O O2 0.533348 0.652135 0.149772
O O3 0.427305 0.635864 0.297246
O O4 0.425354 0.617243 0.039137
O O5 0.250000 0.481909 0.855630
O O6 0.376008 0.512250 0.907758
O O7 0.343604 0.384477 0.816536
O O8 0.336025 0.497715 0.659647
O O9 0.061801 0.133886 0.356212
O O10 0.970475 0.092960 0.194516
O O11 0.950665 0.101093 0.455181
O O12 0.015033 0.991683 0.349858
O O13 0.500000 0.500000 0.000000
O O14 0.874849 0.750000 0.202264
O O15 0.922189 0.660394 0.386190
O O16 0.250000 0.998304 0.467536
O O17 0.328633 0.109867 0.474536
O O18 0.364927 0.973063 0.408922
O O19 0.131184 0.250000 0.432611
#
# Coordination Sequence:
#
# PCOD8239194 Si02
#       8
#     8   8   8   8   8   8   8   8
#     4  11  22  35  55  82 111 140 176 226 282 328
#     4  10  19  33  53  80 109 147 189 225 271 328
#     4  10  18  29  53  79 104 142 179 217 271 312
#     4  12  21  35  55  81 112 148 183 232 275 321
#     4   9  16  29  49  80 115 142 171 216 269 324
#     4   9  18  31  52  79 107 141 185 227 267 325
#     4   9  17  28  48  79 113 141 169 214 268 323
#     4  10  17  32  53  77 105 134 180 227 271 312
#
# _framework density 17.057521999999999
#
# number of rings (size 3 to 8) (size 9 to 14) (size 15 to 20)
#    0.000    2.000    5.000    0.000    0.000    1.000 
#    0.000    3.125    0.000    1.500    0.000    1.750 
#    0.000    0.000    0.000    0.000    0.000    0.000 
#
# Total GULP energy -793277.773531 kJ/mol
# GULP energy per Si atom -12394.965211 kJ/mol
# Density = 1.701870 g / cm^3
# Si number density = 17.057522 Si / 1000 Ang^3
#
#
#
# Elastic Constant Matrix: (Units=GPa)
#
#
# Indices 1 2 3 4 5 6 
#
# 1 90.6184 42.6708 39.1818 0.0000 0.0000 0.0000
# 2 42.6708 96.5244 47.0887 0.0000 0.0000 0.0000
# 3 39.1818 47.0887 95.6687 0.0000 0.0000 0.0000
# 4 0.0000 0.0000 0.0000 26.6110 0.0000 0.0000
# 5 0.0000 0.0000 0.0000 0.0000 19.3372 0.0000
# 6 0.0000 0.0000 0.0000 0.0000 0.0000 17.5169
#
#
#
# Elastic Compliance Matrix: (Units=1/GPa)
#
#
# Indices 1 2 3 4 5 6 
#
# 1 0.014900 -0.004750 -0.003764 0.000000 0.000000 0.000000
# 2 -0.004750 0.015148 -0.005511 0.000000 0.000000 0.000000
# 3 -0.003764 -0.005511 0.014707 0.000000 0.000000 0.000000
# 4 0.000000 0.000000 0.000000 0.037578 0.000000 0.000000
# 5 0.000000 0.000000 0.000000 0.000000 0.051714 0.000000
# 6 0.000000 0.000000 0.000000 0.000000 0.000000 0.057088
#
#
# Mechanical properties :
#
#
# Convention : Reuss Voigt Hill
#
# Bulk Modulus (GPa) = 59.86372 60.07710 59.97041
# Shear Modulus (GPa) = 22.24662 22.95104 22.59883
#
# Velocity S-wave (km/s) = 3.61531 3.67210 3.64381
# Velocity P-wave (km/s) = 7.25249 7.29903 7.27580
#
# Compressibility (1/GPa) = 0.01670461
#
# Stress axis : x y z
#
# Youngs Moduli (GPa) = 67.11526 66.01357 67.99648
#
# Poissons Ratio (x) = 0.31360 0.25594
# Poissons Ratio (y) = 0.31883 0.37470
# Poissons Ratio (z) = 0.25263 0.36377
#
# Static dielectric constant tensor:
#      x y z
#    x 2.962330 0.000000 0.000000 
#    y 0.000000 3.130280 0.000000 
#    z 0.000000 0.000000 3.102130 
# 
# 
# High freq. dielectric constant tensor:
#      x y z
#    x 1.634560 0.000000 0.000000 
#    y 0.000000 1.648480 0.000000 
#    z 0.000000 0.000000 1.643890 
# 
# From -- ./inp_files/12291.got.cif
#   From: 2010.03.12/outbox.cif.g09.slc.cpg/sg59_7_cif.got.tgz:12291.got - 2010.04.16 16:29:54.
