data_PCOD8239051
_publ_section_title
;
Structure prediction by ZEFSAII (Michael W. Deem and Ramdas Pophale) SiO2 
 PCOD8239051
Probable space group: P M M N
;
_chemical_formula_sum "Si O2"
_cell_formula_units_Z 64
_cell_length_a 19.099818
_cell_length_b 8.755365
_cell_length_c 20.961947
_cell_angle_alpha 90.000000
_cell_angle_beta 90.000000
_cell_angle_gamma 90.000000
_cell_volume 3505.379992
_symmetry_space_group_name_H-M "P M M N"
_symmetry_group_IT_number 59
_space_group.IT_coordinate_system_code '2'
_symmetry_cell_setting 'orthorhombic'
loop_
_space_group_symop_operation_xyz
x,y,z
1/2-x,1/2-y,z
1/2+x,-y,-z
-x,1/2+y,-z
-x,-y,-z
1/2+x,1/2+y,-z
1/2-x,y,z
x,1/2-y,z
loop_
_atom_site_type_symbol
_atom_site_label
_atom_site_fract_x
_atom_site_fract_y
_atom_site_fract_z
Si Si1 0.079525 0.428419 0.691432
Si Si2 0.929718 0.574616 0.691700
Si Si3 0.579613 0.073725 0.570730
Si Si4 0.329894 0.573411 0.062458
Si Si5 0.831808 0.926212 0.068623
Si Si6 0.581623 0.427900 0.179431
Si Si7 0.580377 0.575538 0.831490
Si Si8 0.428188 0.929014 0.567071
O O1 0.092973 0.250000 0.685187
O O2 0.112305 0.486731 0.758075
O O3 0.114849 0.512525 0.629450
O O4 0.997587 0.467816 0.692783
O O5 0.953569 0.750000 0.684571
O O6 0.884487 0.522396 0.629201
O O7 0.889763 0.553617 0.759086
O O8 0.587004 0.250000 0.588607
O O9 0.613016 0.041152 0.500228
O O10 0.498599 0.028045 0.566054
O O11 0.250000 0.532525 0.079831
O O12 0.338388 0.750000 0.044794
O O13 0.377209 0.535803 0.123027
O O14 0.355524 0.475498 0.002050
O O15 0.750000 0.958948 0.077933
O O16 0.850808 0.750000 0.078673
O O17 0.873245 0.027008 0.118792
O O18 0.588536 0.250000 0.192964
O O19 0.500995 0.471513 0.166246
O O20 0.590851 0.750000 0.853963
O O21 0.446079 0.750000 0.573179
#
# Coordination Sequence:
#
# PCOD8239051 Si02
#       8
#     8   8   8   8   8   8   8   8
#     4  10  17  25  39  59  85 118 155 192 234 280
#     4   9  16  26  39  57  85 118 153 192 234 280
#     4   9  15  21  32  51  76 111 153 191 230 276
#     4  10  21  36  54  75  97 124 158 195 237 283
#     4  10  21  37  56  76  98 125 157 193 234 281
#     4  10  20  34  51  72  99 128 160 197 237 283
#     4   9  19  33  49  71  97 128 162 196 238 284
#     4   9  15  22  32  49  77 113 152 191 230 275
#
# _framework density 18.257649000000001
#
# number of rings (size 3 to 8) (size 9 to 14) (size 15 to 20)
#    0.000    2.500    0.000    5.625    0.000    6.500 
#    0.000    0.000    0.000    0.000    0.000    0.000 
#    0.000    1.000    0.000    7.000    0.000    8.250 
#
# Total GULP energy -793035.933331 kJ/mol
# GULP energy per Si atom -12391.186458 kJ/mol
# Density = 1.821609 g / cm^3
# Si number density = 18.257649 Si / 1000 Ang^3
#
#
#
# Elastic Constant Matrix: (Units=GPa)
#
#
# Indices 1 2 3 4 5 6 
#
# 1 24.3039 18.5427 35.5055 0.0000 0.0000 0.0000
# 2 18.5427 68.3891 43.2090 0.0000 0.0000 0.0000
# 3 35.5055 43.2090 157.0203 0.0000 0.0000 0.0000
# 4 0.0000 0.0000 0.0000 39.3062 0.0000 0.0000
# 5 0.0000 0.0000 0.0000 0.0000 -3.3956 0.0000
# 6 0.0000 0.0000 0.0000 0.0000 0.0000 16.1302
#
#
#
# Elastic Compliance Matrix: (Units=1/GPa)
#
#
# Indices 1 2 3 4 5 6 
#
# 1 0.067054 -0.010411 -0.012297 0.000000 0.000000 0.000000
# 2 -0.010411 0.019316 -0.002961 0.000000 0.000000 0.000000
# 3 -0.012297 -0.002961 0.009964 0.000000 0.000000 0.000000
# 4 0.000000 0.000000 0.000000 0.025441 0.000000 0.000000
# 5 0.000000 0.000000 0.000000 0.000000 -0.294498 0.000000
# 6 0.000000 0.000000 0.000000 0.000000 0.000000 0.061995
#
#
# Mechanical properties :
#
#
# Convention : Reuss Voigt Hill
#
# Bulk Modulus (GPa) = 22.22481 49.35862 35.79172
# Shear Modulus (GPa) = -112.63732 20.57190 -46.03271
#
# Velocity S-wave (km/s) = -7.86302 3.36036 -5.02669
# Velocity P-wave (km/s) = 8.38075 6.49224 3.74751
#
# Compressibility (1/GPa) = 0.04499475
#
# Stress axis : x y z
#
# Youngs Moduli (GPa) = 14.91338 51.77066 100.35978
#
# Poissons Ratio (x) = 0.53899 1.23416
# Poissons Ratio (y) = 0.15526 0.29719
# Poissons Ratio (z) = 0.18339 0.15330
#
# Static dielectric constant tensor:
#      x y z
#    x 2.690850 0.000000 0.000000 
#    y 0.000000 3.393000 0.000000 
#    z 0.000000 0.000000 4.236880 
# 
# 
# High freq. dielectric constant tensor:
#      x y z
#    x 1.619140 0.000000 0.000000 
#    y 0.000000 1.721240 0.000000 
#    z 0.000000 0.000000 1.742590 
# 
# From -- ./inp_files/30893.got.cif
#   From: 2010.03.12/outbox.cif.g09.slc.cpg/sg59_16_cif.got.tgz:30893.got - 2010.04.16 16:29:54.
