data_PCOD8239369
_publ_section_title
;
Structure prediction by ZEFSAII (Michael W. Deem and Ramdas Pophale) SiO2 
 PCOD8239369
Probable space group: P M M N
;
_chemical_formula_sum "Si O2"
_cell_formula_units_Z 56
_cell_length_a 8.688533
_cell_length_b 18.490130
_cell_length_c 21.151868
_cell_angle_alpha 90.000000
_cell_angle_beta 90.000000
_cell_angle_gamma 90.000000
_cell_volume 3398.092112
_symmetry_space_group_name_H-M "P M M N"
_symmetry_group_IT_number 59
_space_group.IT_coordinate_system_code '2'
_symmetry_cell_setting 'orthorhombic'
loop_
_space_group_symop_operation_xyz
x,y,z
1/2-x,1/2-y,z
1/2+x,-y,-z
-x,1/2+y,-z
-x,-y,-z
1/2+x,1/2+y,-z
1/2-x,y,z
x,1/2-y,z
loop_
_atom_site_type_symbol
_atom_site_label
_atom_site_fract_x
_atom_site_fract_y
_atom_site_fract_z
Si Si1 0.930817 0.598494 0.875262
Si Si2 0.067831 0.169107 0.995777
Si Si3 0.067178 0.410312 0.377842
Si Si4 0.069299 0.833687 0.501170
Si Si5 0.070285 0.959990 0.059324
Si Si6 0.066643 0.331723 0.251733
Si Si7 0.433015 0.039392 0.561053
O O1 0.750000 0.612718 0.873729
O O2 0.996951 0.640746 0.936618
O O3 0.965282 0.511843 0.880298
O O4 0.003495 0.629795 0.810815
O O5 0.250000 0.165557 0.995078
O O6 0.007016 0.250000 0.984646
O O7 0.005540 0.119627 0.937642
O O8 0.250000 0.416724 0.381235
O O9 0.008421 0.375108 0.312811
O O10 0.011149 0.358824 0.434310
O O11 0.993907 0.491256 0.380309
O O12 0.250000 0.848375 0.507240
O O13 0.031925 0.750000 0.488726
O O14 0.000876 0.878982 0.441340
O O15 0.250000 0.950687 0.049446
O O16 0.000000 0.000000 0.000000
O O17 0.250000 0.331763 0.249960
O O18 0.003450 0.250000 0.254792
O O19 0.250000 0.041884 0.560526
O O20 0.500000 0.000000 0.500000
#
# Coordination Sequence:
#
# PCOD8239369 Si02
#       7
#     8   8   8   8   8   8   8
#     4   8  14  25  40  59  84 113 144 176 208 245
#     4   9  16  26  42  63  86 112 141 176 218 259
#     4  10  18  28  43  63  88 115 144 176 208 246
#     4  10  19  30  45  65  89 114 139 172 214 255
#     4   9  16  26  41  60  83 111 142 177 216 256
#     4   9  16  25  40  63  87 112 144 178 207 239
#     4  10  18  29  45  62  84 113 144 176 210 250
#
# _framework density 16.479835999999999
#
# number of rings (size 3 to 8) (size 9 to 14) (size 15 to 20)
#    0.000    2.714    0.000    6.000    0.000    3.714 
#    0.000    0.000    0.000    8.571    0.000    1.000 
#    0.000    3.429    0.000    0.000    0.000    0.000 
#
# Total GULP energy -693903.848850 kJ/mol
# GULP energy per Si atom -12391.140158 kJ/mol
# Density = 1.644233 g / cm^3
# Si number density = 16.479836 Si / 1000 Ang^3
#
#
#
# Elastic Constant Matrix: (Units=GPa)
#
#
# Indices 1 2 3 4 5 6 
#
# 1 60.1869 41.6614 19.2110 0.0000 0.0000 0.0000
# 2 41.6614 162.5351 65.4464 0.0000 0.0000 0.0000
# 3 19.2110 65.4464 73.6524 0.0000 0.0000 0.0000
# 4 0.0000 0.0000 0.0000 29.8430 0.0000 0.0000
# 5 0.0000 0.0000 0.0000 0.0000 13.3373 0.0000
# 6 0.0000 0.0000 0.0000 0.0000 0.0000 26.8779
#
#
#
# Elastic Compliance Matrix: (Units=1/GPa)
#
#
# Indices 1 2 3 4 5 6 
#
# 1 0.020250 -0.004771 -0.001043 0.000000 0.000000 0.000000
# 2 -0.004771 0.010704 -0.008267 0.000000 0.000000 0.000000
# 3 -0.001043 -0.008267 0.021195 0.000000 0.000000 0.000000
# 4 0.000000 0.000000 0.000000 0.033509 0.000000 0.000000
# 5 0.000000 0.000000 0.000000 0.000000 0.074978 0.000000
# 6 0.000000 0.000000 0.000000 0.000000 0.000000 0.037205
#
#
# Mechanical properties :
#
#
# Convention : Reuss Voigt Hill
#
# Bulk Modulus (GPa) = 41.68692 61.00135 51.34413
# Shear Modulus (GPa) = 21.36762 25.34866 23.35814
#
# Velocity S-wave (km/s) = 3.60473 3.92620 3.76889
# Velocity P-wave (km/s) = 6.53269 7.59272 7.08257
#
# Compressibility (1/GPa) = 0.02398834
#
# Stress axis : x y z
#
# Youngs Moduli (GPa) = 49.38273 93.42068 47.17987
#
# Poissons Ratio (x) = 0.44568 0.04920
# Poissons Ratio (y) = 0.23559 0.39005
# Poissons Ratio (z) = 0.05149 0.77234
#
# Static dielectric constant tensor:
#      x y z
#    x 2.957640 0.000000 0.000000 
#    y 0.000000 3.749300 0.000000 
#    z 0.000000 0.000000 3.119650 
# 
# 
# High freq. dielectric constant tensor:
#      x y z
#    x 1.622280 0.000000 0.000000 
#    y 0.000000 1.645490 0.000000 
#    z 0.000000 0.000000 1.590580 
# 
# From -- ./inp_files/31693.got.cif
#   From: 2010.03.12/outbox.cif.g09.slc.cpg/sg59_16_cif.got.tgz:31693.got - 2010.04.16 16:29:54.
