data_PCOD8239910
_publ_section_title
;
Structure prediction by ZEFSAII (Michael W. Deem and Ramdas Pophale) SiO2 
 PCOD8239910
Probable space group: P M M N
;
_chemical_formula_sum "Si O2"
_cell_formula_units_Z 40
_cell_length_a 18.879272
_cell_length_b 9.135407
_cell_length_c 12.592293
_cell_angle_alpha 90.000000
_cell_angle_beta 90.000000
_cell_angle_gamma 90.000000
_cell_volume 2171.790678
_symmetry_space_group_name_H-M "P M M N"
_symmetry_group_IT_number 59
_space_group.IT_coordinate_system_code '2'
_symmetry_cell_setting 'orthorhombic'
loop_
_space_group_symop_operation_xyz
x,y,z
1/2-x,1/2-y,z
1/2+x,-y,-z
-x,1/2+y,-z
-x,-y,-z
1/2+x,1/2+y,-z
1/2-x,y,z
x,1/2-y,z
loop_
_atom_site_type_symbol
_atom_site_label
_atom_site_fract_x
_atom_site_fract_y
_atom_site_fract_z
Si Si1 0.828506 0.422942 0.874815
Si Si2 0.440664 0.577252 0.706439
Si Si3 0.434152 0.921405 0.948210
Si Si4 0.585908 0.424058 0.671606
Si Si5 0.170843 0.576614 0.534102
O O1 0.750000 0.492987 0.870823
O O2 0.822502 0.250000 0.862763
O O3 0.875818 0.483048 0.777911
O O4 0.863911 0.466471 0.986807
O O5 0.453518 0.750000 0.696646
O O6 0.423988 0.529323 0.826898
O O7 0.509387 0.496447 0.662090
O O8 0.373820 0.525746 0.636482
O O9 0.448625 0.750000 0.957259
O O10 0.500000 0.000000 0.000000
O O11 0.576281 0.250000 0.672594
O O12 0.632638 0.478546 0.572624
O O13 0.250000 0.508982 0.540737
O O14 0.176227 0.750000 0.530982
#
# Coordination Sequence:
#
# PCOD8239910 Si02
#       5
#     8   8   8   8   8
#     4   9  17  29  48  74  97 122 164 209 243 280
#     4  10  20  32  50  75 102 131 163 203 251 298
#     4  10  19  32  50  72  99 131 163 201 246 292
#     4  10  18  31  53  75  97 130 167 204 244 291
#     4   9  18  32  50  74 102 130 164 206 248 289
#
# _framework density 18.41798
#
# number of rings (size 3 to 8) (size 9 to 14) (size 15 to 20)
#    0.000    2.400    2.000    1.200    0.000    3.200 
#    0.000    4.000    0.000    6.000    0.000    2.800 
#    0.000    0.000    0.000    0.000    0.000    0.000 
#
# Total GULP energy -495982.830652 kJ/mol
# GULP energy per Si atom -12399.570766 kJ/mol
# Density = 1.837606 g / cm^3
# Si number density = 18.417980 Si / 1000 Ang^3
#
#
#
# Elastic Constant Matrix: (Units=GPa)
#
#
# Indices 1 2 3 4 5 6 
#
# 1 169.9952 25.3452 95.9383 0.0000 0.0000 0.0000
# 2 25.3452 15.9462 22.3982 0.0000 0.0000 0.0000
# 3 95.9383 22.3982 166.7138 0.0000 0.0000 0.0000
# 4 0.0000 0.0000 0.0000 16.4850 0.0000 0.0000
# 5 0.0000 0.0000 0.0000 0.0000 35.4602 0.0000
# 6 0.0000 0.0000 0.0000 0.0000 0.0000 24.1494
#
#
#
# Elastic Compliance Matrix: (Units=1/GPa)
#
#
# Indices 1 2 3 4 5 6 
#
# 1 0.009728 -0.009366 -0.004340 0.000000 0.000000 0.000000
# 2 -0.009366 0.086316 -0.006207 0.000000 0.000000 0.000000
# 3 -0.004340 -0.006207 0.009330 0.000000 0.000000 0.000000
# 4 0.000000 0.000000 0.000000 0.060661 0.000000 0.000000
# 5 0.000000 0.000000 0.000000 0.000000 0.028201 0.000000
# 6 0.000000 0.000000 0.000000 0.000000 0.000000 0.041409
#
#
# Mechanical properties :
#
#
# Convention : Reuss Voigt Hill
#
# Bulk Modulus (GPa) = 15.25605 71.11318 43.18461
# Shear Modulus (GPa) = 16.81694 29.15047 22.98371
#
# Velocity S-wave (km/s) = 3.02499 3.98266 3.53639
# Velocity P-wave (km/s) = 4.52791 7.73584 6.33819
#
# Compressibility (1/GPa) = 0.06554777
#
# Stress axis : x y z
#
# Youngs Moduli (GPa) = 102.79335 11.58539 107.18532
#
# Poissons Ratio (x) = 0.10851 0.46517
# Poissons Ratio (y) = 0.96280 0.66525
# Poissons Ratio (z) = 0.44611 0.07191
#
# Static dielectric constant tensor:
#      x y z
#    x 6.753490 0.000000 0.000000 
#    y 0.000000 2.935510 0.000000 
#    z 0.000000 0.000000 3.712150 
# 
# 
# High freq. dielectric constant tensor:
#      x y z
#    x 1.723910 0.000000 0.000000 
#    y 0.000000 1.661000 0.000000 
#    z 0.000000 0.000000 1.732210 
# 
# From -- ./inp_files/13841.got.cif
#   From: 2010.03.12/outbox.cif.g09.slc.cpg/sg59_7_cif.got.tgz:13841.got - 2010.04.16 16:29:54.
