data_PCOD8239430
_publ_section_title
;
Structure prediction by ZEFSAII (Michael W. Deem and Ramdas Pophale) SiO2 
 PCOD8239430
Probable space group: P M M N
;
_chemical_formula_sum "Si O2"
_cell_formula_units_Z 48
_cell_length_a 13.766459
_cell_length_b 9.401031
_cell_length_c 21.181004
_cell_angle_alpha 90.000000
_cell_angle_beta 90.000000
_cell_angle_gamma 90.000000
_cell_volume 2741.222404
_symmetry_space_group_name_H-M "P M M N"
_symmetry_group_IT_number 59
_space_group.IT_coordinate_system_code '2'
_symmetry_cell_setting 'orthorhombic'
loop_
_space_group_symop_operation_xyz
x,y,z
1/2-x,1/2-y,z
1/2+x,-y,-z
-x,1/2+y,-z
-x,-y,-z
1/2+x,1/2+y,-z
1/2-x,y,z
x,1/2-y,z
loop_
_atom_site_type_symbol
_atom_site_label
_atom_site_fract_x
_atom_site_fract_y
_atom_site_fract_z
Si Si1 0.638486 0.915578 0.465238
Si Si2 0.864487 0.092754 0.956188
Si Si3 0.359709 0.080657 0.284191
Si Si4 0.643856 0.081621 0.094400
Si Si5 0.471537 0.083913 0.407206
Si Si6 0.547888 0.581772 0.845076
O O1 0.750000 0.965492 0.459453
O O2 0.627769 0.750000 0.449382
O O3 0.602228 0.948484 0.535854
O O4 0.573429 0.002590 0.415630
O O5 0.750000 0.107660 0.957648
O O6 0.910172 0.250000 0.943645
O O7 0.892208 0.983861 0.902023
O O8 0.895427 0.031534 0.025383
O O9 0.250000 0.020129 0.286579
O O10 0.356921 0.250000 0.284985
O O11 0.419887 0.025079 0.344296
O O12 0.412625 0.022750 0.221370
O O13 0.750000 0.015330 0.111149
O O14 0.654074 0.250000 0.091043
O O15 0.565525 0.037281 0.147581
O O16 0.495725 0.250000 0.402110
O O17 0.562092 0.750000 0.848948
#
# Coordination Sequence:
#
# PCOD8239430 Si02
#       6
#     8   8   8   8   8   8
#     4   9  17  30  49  71  94 121 152 187 228 267
#     4   9  17  29  44  62  87 118 147 179 225 273
#     4   9  17  29  45  67  95 121 144 176 221 269
#     4   8  15  28  44  62  86 116 148 182 223 268
#     4   9  17  30  48  69  93 123 156 185 217 263
#     4  10  18  28  46  69  89 113 148 187 221 257
#
# _framework density 17.510437
#
# number of rings (size 3 to 8) (size 9 to 14) (size 15 to 20)
#    0.000    3.000    0.000    2.500    0.000    3.333 
#    0.000    1.667    0.000    7.000    0.000    0.000 
#    0.000    0.000    0.000    0.000    0.000    0.000 
#
# Total GULP energy -594965.080471 kJ/mol
# GULP energy per Si atom -12395.105843 kJ/mol
# Density = 1.747058 g / cm^3
# Si number density = 17.510437 Si / 1000 Ang^3
#
#
#
# Elastic Constant Matrix: (Units=GPa)
#
#
# Indices 1 2 3 4 5 6 
#
# 1 133.5677 31.5023 86.1754 0.0000 0.0000 0.0000
# 2 31.5023 26.1513 27.3068 0.0000 0.0000 0.0000
# 3 86.1754 27.3068 127.0686 0.0000 0.0000 0.0000
# 4 0.0000 0.0000 0.0000 19.7825 0.0000 0.0000
# 5 0.0000 0.0000 0.0000 0.0000 30.2680 0.0000
# 6 0.0000 0.0000 0.0000 0.0000 0.0000 21.9529
#
#
#
# Elastic Compliance Matrix: (Units=1/GPa)
#
#
# Indices 1 2 3 4 5 6 
#
# 1 0.014967 -0.009580 -0.008091 0.000000 0.000000 0.000000
# 2 -0.009580 0.055434 -0.005416 0.000000 0.000000 0.000000
# 3 -0.008091 -0.005416 0.014521 0.000000 0.000000 0.000000
# 4 0.000000 0.000000 0.000000 0.050550 0.000000 0.000000
# 5 0.000000 0.000000 0.000000 0.000000 0.033038 0.000000
# 6 0.000000 0.000000 0.000000 0.000000 0.000000 0.045552
#
#
# Mechanical properties :
#
#
# Convention : Reuss Voigt Hill
#
# Bulk Modulus (GPa) = 25.80799 64.08405 44.94602
# Shear Modulus (GPa) = 18.30477 23.85422 21.07950
#
# Velocity S-wave (km/s) = 3.23672 3.69492 3.47338
# Velocity P-wave (km/s) = 5.36088 7.40813 6.46604
#
# Compressibility (1/GPa) = 0.03874769
#
# Stress axis : x y z
#
# Youngs Moduli (GPa) = 66.81461 18.03931 68.86588
#
# Poissons Ratio (x) = 0.17282 0.55722
# Poissons Ratio (y) = 0.64011 0.37295
# Poissons Ratio (z) = 0.54062 0.09769
#
# Static dielectric constant tensor:
#      x y z
#    x 3.506690 0.000000 0.000000 
#    y 0.000000 2.929990 0.000000 
#    z 0.000000 0.000000 3.323850 
# 
# 
# High freq. dielectric constant tensor:
#      x y z
#    x 1.686810 0.000000 0.000000 
#    y 0.000000 1.636620 0.000000 
#    z 0.000000 0.000000 1.667450 
# 
# From -- ./inp_files/26889.got.cif
#   From: 2010.03.12/outbox.cif.g09.slc.cpg/sg59_14_cif.got.tgz:26889.got - 2010.04.16 16:29:54.
