data_PCOD8239275
_publ_section_title
;
Structure prediction by ZEFSAII (Michael W. Deem and Ramdas Pophale) SiO2 
 PCOD8239275
Probable space group: P M M N
;
_chemical_formula_sum "Si O2"
_cell_formula_units_Z 64
_cell_length_a 30.842595
_cell_length_b 8.787444
_cell_length_c 12.440521
_cell_angle_alpha 90.000000
_cell_angle_beta 90.000000
_cell_angle_gamma 90.000000
_cell_volume 3371.724255
_symmetry_space_group_name_H-M "P M M N"
_symmetry_group_IT_number 59
_space_group.IT_coordinate_system_code '2'
_symmetry_cell_setting 'orthorhombic'
loop_
_space_group_symop_operation_xyz
x,y,z
1/2-x,1/2-y,z
1/2+x,-y,-z
-x,1/2+y,-z
-x,-y,-z
1/2+x,1/2+y,-z
1/2-x,y,z
x,1/2-y,z
loop_
_atom_site_type_symbol
_atom_site_label
_atom_site_fract_x
_atom_site_fract_y
_atom_site_fract_z
Si Si1 0.516494 0.426879 0.184016
Si Si2 0.884523 0.429586 0.201105
Si Si3 0.860083 0.928754 0.992720
Si Si4 0.297712 0.071209 0.192132
Si Si5 0.383188 0.083157 0.580385
Si Si6 0.930703 0.429595 0.844172
Si Si7 0.483931 0.082130 0.603018
Si Si8 0.875304 0.568185 0.661415
O O1 0.511997 0.250000 0.158084
O O2 0.566247 0.482297 0.170410
O O3 0.479413 0.518808 0.118793
O O4 0.502931 0.464503 0.305359
O O5 0.880379 0.250000 0.193606
O O6 0.853558 0.510270 0.113874
O O7 0.867977 0.477844 0.320100
O O8 0.869630 0.750000 0.991937
O O9 0.816740 0.967958 0.925618
O O10 0.900474 0.014020 0.939923
O O11 0.250000 0.995104 0.204256
O O12 0.293256 0.250000 0.205514
O O13 0.330374 0.011440 0.284244
O O14 0.360508 0.250000 0.588215
O O15 0.433485 0.106643 0.593828
O O16 0.374132 0.009951 0.462455
O O17 0.929002 0.250000 0.837670
O O18 0.915289 0.497792 0.728911
O O19 0.505456 0.250000 0.620683
O O20 0.500000 0.000000 0.500000
O O21 0.880638 0.750000 0.665964
#
# Coordination Sequence:
#
# PCOD8239275 Si02
#       8
#     8   8   8   8   8   8   8   8
#     4  10  20  33  46  63  92 130 173 218 260 299
#     4  10  21  35  51  71  97 133 177 219 253 292
#     4  10  20  35  55  75 100 133 166 207 256 303
#     4   8  15  30  55  85 108 126 155 198 247 298
#     4   9  18  31  47  68  96 132 170 204 244 293
#     4  11  21  32  49  73 101 132 170 215 260 306
#     4  10  18  27  41  62  90 126 169 215 254 291
#     4   9  17  31  52  77 105 135 165 202 250 301
#
# _framework density 18.981385
#
# number of rings (size 3 to 8) (size 9 to 14) (size 15 to 20)
#    0.000    2.375    0.000    4.125    0.000    4.000 
#    0.000    0.000    0.000   10.125    0.000    3.500 
#    0.000    0.000    0.000    0.000    0.000    0.000 
#
# Total GULP energy -793033.622714 kJ/mol
# GULP energy per Si atom -12391.150355 kJ/mol
# Density = 1.893818 g / cm^3
# Si number density = 18.981385 Si / 1000 Ang^3
#
#
#
# Elastic Constant Matrix: (Units=GPa)
#
#
# Indices 1 2 3 4 5 6 
#
# 1 62.4886 21.1759 22.8506 0.0000 0.0000 0.0000
# 2 21.1759 71.0763 32.0669 0.0000 0.0000 0.0000
# 3 22.8506 32.0669 104.1142 0.0000 0.0000 0.0000
# 4 0.0000 0.0000 0.0000 25.1805 0.0000 0.0000
# 5 0.0000 0.0000 0.0000 0.0000 15.9855 0.0000
# 6 0.0000 0.0000 0.0000 0.0000 0.0000 11.3401
#
#
#
# Elastic Compliance Matrix: (Units=1/GPa)
#
#
# Indices 1 2 3 4 5 6 
#
# 1 0.018448 -0.004262 -0.002736 0.000000 0.000000 0.000000
# 2 -0.004262 0.017324 -0.004401 0.000000 0.000000 0.000000
# 3 -0.002736 -0.004401 0.011561 0.000000 0.000000 0.000000
# 4 0.000000 0.000000 0.000000 0.039713 0.000000 0.000000
# 5 0.000000 0.000000 0.000000 0.000000 0.062557 0.000000
# 6 0.000000 0.000000 0.000000 0.000000 0.000000 0.088183
#
#
# Mechanical properties :
#
#
# Convention : Reuss Voigt Hill
#
# Bulk Modulus (GPa) = 40.75655 43.31844 42.03749
# Shear Modulus (GPa) = 18.60389 21.27360 19.93874
#
# Velocity S-wave (km/s) = 3.13407 3.35141 3.24456
# Velocity P-wave (km/s) = 5.88345 6.15199 6.01922
#
# Compressibility (1/GPa) = 0.02453594
#
# Stress axis : x y z
#
# Youngs Moduli (GPa) = 54.20738 57.72197 86.49970
#
# Poissons Ratio (x) = 0.24599 0.23669
# Poissons Ratio (y) = 0.23101 0.38065
# Poissons Ratio (z) = 0.14833 0.25401
#
# Static dielectric constant tensor:
#      x y z
#    x 3.284240 0.000000 0.000000 
#    y 0.000000 3.447370 0.000000 
#    z 0.000000 0.000000 3.623330 
# 
# 
# High freq. dielectric constant tensor:
#      x y z
#    x 1.699370 0.000000 0.000000 
#    y 0.000000 1.728600 0.000000 
#    z 0.000000 0.000000 1.743800 
# 
# From -- ./inp_files/19359.got.cif
#   From: 2010.03.12/outbox.cif.g09.slc.cpg/sg59_10_cif.got.tgz:19359.got - 2010.04.16 16:29:54.
