data_PCOD8239939
_publ_section_title
;
Structure prediction by ZEFSAII (Michael W. Deem and Ramdas Pophale) SiO2 
 PCOD8239939
Probable space group: P M M N
;
_chemical_formula_sum "Si O2"
_cell_formula_units_Z 64
_cell_length_a 9.084076
_cell_length_b 19.507927
_cell_length_c 20.035924
_cell_angle_alpha 90.000000
_cell_angle_beta 90.000000
_cell_angle_gamma 90.000000
_cell_volume 3550.595975
_symmetry_space_group_name_H-M "P M M N"
_symmetry_group_IT_number 59
_space_group.IT_coordinate_system_code '2'
_symmetry_cell_setting 'orthorhombic'
loop_
_space_group_symop_operation_xyz
x,y,z
1/2-x,1/2-y,z
1/2+x,-y,-z
-x,1/2+y,-z
-x,-y,-z
1/2+x,1/2+y,-z
1/2-x,y,z
x,1/2-y,z
loop_
_atom_site_type_symbol
_atom_site_label
_atom_site_fract_x
_atom_site_fract_y
_atom_site_fract_z
Si Si1 0.082942 0.672311 0.271102
Si Si2 0.575271 0.826980 0.902243
Si Si3 0.076801 0.426168 0.212103
Si Si4 0.925165 0.571250 0.018192
Si Si5 0.422836 0.927918 0.153521
Si Si6 0.922934 0.893995 0.386524
Si Si7 0.081147 0.546760 0.654986
Si Si8 0.421265 0.928496 0.509950
O O1 0.250000 0.654099 0.292154
O O2 0.069404 0.750000 0.246297
O O3 0.031379 0.624541 0.210953
O O4 0.976851 0.662159 0.334057
O O5 0.750000 0.823837 0.901847
O O6 0.508837 0.750000 0.905681
O O7 0.520419 0.863786 0.834256
O O8 0.522728 0.870774 0.965937
O O9 0.250000 0.424416 0.221389
O O10 0.028898 0.496511 0.176509
O O11 0.009211 0.418999 0.285500
O O12 0.750000 0.561952 0.017260
O O13 0.000000 0.500000 0.000000
O O14 0.981829 0.594886 0.090179
O O15 0.250000 0.924814 0.136065
O O16 0.750000 0.888673 0.397766
O O17 0.001961 0.876834 0.457532
O O18 0.970814 0.968843 0.359246
O O19 0.250000 0.546029 0.677032
O O20 0.058204 0.592657 0.587803
O O21 0.250000 0.935969 0.492591
O O22 0.500000 0.000000 0.500000
#
# Coordination Sequence:
#
# PCOD8239939 Si02
#       8
#     8   8   8   8   8   8   8   8
#     4  10  21  36  53  73 104 146 181 217 272 332
#     4   9  19  36  55  77 105 136 174 215 258 312
#     4  10  18  31  54  78 101 136 174 214 262 309
#     4  11  21  35  57  82 107 140 176 217 264 314
#     4  10  20  35  53  79 107 134 177 222 262 317
#     4  10  19  31  49  74 104 138 178 225 269 313
#     4   9  18  30  47  76 107 134 169 216 266 310
#     4   9  17  29  46  72 105 137 171 216 268 319
#
# _framework density 18.025141999999999
#
# number of rings (size 3 to 8) (size 9 to 14) (size 15 to 20)
#    0.000    2.250    2.500    1.875    0.000    4.250 
#    0.000    0.000    0.000    3.750    0.000    3.500 
#    0.000    0.000    0.000    0.000    0.000    0.000 
#
# Total GULP energy -793488.828331 kJ/mol
# GULP energy per Si atom -12398.262943 kJ/mol
# Density = 1.798412 g / cm^3
# Si number density = 18.025142 Si / 1000 Ang^3
#
#
#
# Elastic Constant Matrix: (Units=GPa)
#
#
# Indices 1 2 3 4 5 6 
#
# 1 67.0139 28.9209 55.9147 0.0000 0.0000 0.0000
# 2 28.9209 101.8026 58.2334 0.0000 0.0000 0.0000
# 3 55.9147 58.2334 150.4768 0.0000 0.0000 0.0000
# 4 0.0000 0.0000 0.0000 21.9843 0.0000 0.0000
# 5 0.0000 0.0000 0.0000 0.0000 38.5802 0.0000
# 6 0.0000 0.0000 0.0000 0.0000 0.0000 16.1498
#
#
#
# Elastic Compliance Matrix: (Units=1/GPa)
#
#
# Indices 1 2 3 4 5 6 
#
# 1 0.021945 -0.002016 -0.007374 0.000000 0.000000 0.000000
# 2 -0.002016 0.012801 -0.004205 0.000000 0.000000 0.000000
# 3 -0.007374 -0.004205 0.011013 0.000000 0.000000 0.000000
# 4 0.000000 0.000000 0.000000 0.045487 0.000000 0.000000
# 5 0.000000 0.000000 0.000000 0.000000 0.025920 0.000000
# 6 0.000000 0.000000 0.000000 0.000000 0.000000 0.061920
#
#
# Mechanical properties :
#
#
# Convention : Reuss Voigt Hill
#
# Bulk Modulus (GPa) = 53.85364 67.27014 60.56189
# Shear Modulus (GPa) = 23.53318 27.09115 25.31217
#
# Velocity S-wave (km/s) = 3.61719 3.88101 3.75142
# Velocity P-wave (km/s) = 6.88384 7.58184 7.24125
#
# Compressibility (1/GPa) = 0.01856885
#
# Stress axis : x y z
#
# Youngs Moduli (GPa) = 45.56785 78.11977 90.80280
#
# Poissons Ratio (x) = 0.15750 0.66960
# Poissons Ratio (y) = 0.09187 0.38180
# Poissons Ratio (z) = 0.33603 0.32847
#
# Static dielectric constant tensor:
#      x y z
#    x 3.270980 0.000000 0.000000 
#    y 0.000000 3.193140 0.000000 
#    z 0.000000 0.000000 3.505460 
# 
# 
# High freq. dielectric constant tensor:
#      x y z
#    x 1.688390 0.000000 0.000000 
#    y 0.000000 1.664820 0.000000 
#    z 0.000000 0.000000 1.712900 
# 
# From -- ./inp_files/29671.got.cif
#   From: 2010.03.12/outbox.cif.g09.slc.cpg/sg59_15_cif.got.tgz:29671.got - 2010.04.16 16:29:54.
