data_PCOD8239549
_publ_section_title
;
Structure prediction by ZEFSAII (Michael W. Deem and Ramdas Pophale) SiO2 
 PCOD8239549
Probable space group: P M M N
;
_chemical_formula_sum "Si O2"
_cell_formula_units_Z 48
_cell_length_a 8.677674
_cell_length_b 25.634386
_cell_length_c 12.681224
_cell_angle_alpha 90.000000
_cell_angle_beta 90.000000
_cell_angle_gamma 90.000000
_cell_volume 2820.898268
_symmetry_space_group_name_H-M "P M M N"
_symmetry_group_IT_number 59
_space_group.IT_coordinate_system_code '2'
_symmetry_cell_setting 'orthorhombic'
loop_
_space_group_symop_operation_xyz
x,y,z
1/2-x,1/2-y,z
1/2+x,-y,-z
-x,1/2+y,-z
-x,-y,-z
1/2+x,1/2+y,-z
1/2-x,y,z
x,1/2-y,z
loop_
_atom_site_type_symbol
_atom_site_label
_atom_site_fract_x
_atom_site_fract_y
_atom_site_fract_z
Si Si1 0.579633 0.311934 0.990297
Si Si2 0.066485 0.500453 0.383119
Si Si3 0.068774 0.191716 0.778280
Si Si4 0.566318 0.308177 0.219763
Si Si5 0.433453 0.894652 0.617602
Si Si6 0.066508 0.393740 0.614477
O O1 0.750000 0.335943 0.975512
O O2 0.588676 0.250000 0.990503
O O3 0.477093 0.331574 0.892534
O O4 0.508657 0.328357 0.104300
O O5 0.250000 0.500434 0.382295
O O6 0.000000 0.500000 0.500000
O O7 0.001043 0.447750 0.329613
O O8 0.001075 0.553507 0.331166
O O9 0.250000 0.194355 0.773676
O O10 0.999139 0.250000 0.761088
O O11 0.007639 0.154120 0.686133
O O12 0.750000 0.306516 0.216143
O O13 0.502395 0.250000 0.244891
O O14 0.507602 0.347302 0.309632
O O15 0.250000 0.898343 0.611893
O O16 0.499736 0.884660 0.501644
O O17 0.250000 0.397721 0.608714
#
# Coordination Sequence:
#
# PCOD8239549 Si02
#       6
#     8   8   8   8   8   8
#     4   8  14  27  47  67  87 115 152 187 216 255
#     4  10  18  30  47  65  87 115 152 191 223 261
#     4   9  18  31  46  66  93 122 148 180 225 269
#     4   8  15  28  46  69  95 121 148 181 222 265
#     4  10  18  29  47  69  93 120 150 183 221 266
#     4  10  19  31  46  65  92 122 151 183 221 266
#
# _framework density 17.015857
#
# number of rings (size 3 to 8) (size 9 to 14) (size 15 to 20)
#    0.000    2.833    0.000    5.500    0.000    2.000 
#    0.000    1.667    0.000    4.500    0.000    0.000 
#    0.000    0.000    0.000    0.000    0.000    0.000 
#
# Total GULP energy -594786.155564 kJ/mol
# GULP energy per Si atom -12391.378241 kJ/mol
# Density = 1.697713 g / cm^3
# Si number density = 17.015857 Si / 1000 Ang^3
#
#
#
# Elastic Constant Matrix: (Units=GPa)
#
#
# Indices 1 2 3 4 5 6 
#
# 1 61.0068 35.5526 27.0924 0.0000 0.0000 0.0000
# 2 35.5526 127.6642 76.0513 0.0000 0.0000 0.0000
# 3 27.0924 76.0513 108.9854 0.0000 0.0000 0.0000
# 4 0.0000 0.0000 0.0000 5.3679 0.0000 0.0000
# 5 0.0000 0.0000 0.0000 0.0000 19.6891 0.0000
# 6 0.0000 0.0000 0.0000 0.0000 0.0000 20.4047
#
#
#
# Elastic Compliance Matrix: (Units=1/GPa)
#
#
# Indices 1 2 3 4 5 6 
#
# 1 0.019780 -0.004414 -0.001837 0.000000 0.000000 0.000000
# 2 -0.004414 0.014391 -0.008945 0.000000 0.000000 0.000000
# 3 -0.001837 -0.008945 0.015874 0.000000 0.000000 0.000000
# 4 0.000000 0.000000 0.000000 0.186294 0.000000 0.000000
# 5 0.000000 0.000000 0.000000 0.000000 0.050789 0.000000
# 6 0.000000 0.000000 0.000000 0.000000 0.000000 0.049008
#
#
# Mechanical properties :
#
#
# Convention : Reuss Voigt Hill
#
# Bulk Modulus (GPa) = 50.88266 63.89436 57.38851
# Shear Modulus (GPa) = 13.40201 19.68967 16.54584
#
# Velocity S-wave (km/s) = 2.80950 3.40536 3.12168
# Velocity P-wave (km/s) = 6.36336 7.28652 6.84053
#
# Compressibility (1/GPa) = 0.01965306
#
# Stress axis : x y z
#
# Youngs Moduli (GPa) = 50.55685 69.48832 62.99634
#
# Poissons Ratio (x) = 0.30674 0.11571
# Poissons Ratio (y) = 0.22317 0.56349
# Poissons Ratio (z) = 0.09286 0.62156
#
# Static dielectric constant tensor:
#      x y z
#    x 3.280290 0.000000 0.000000 
#    y 0.000000 3.865640 0.000000 
#    z 0.000000 0.000000 3.285430 
# 
# 
# High freq. dielectric constant tensor:
#      x y z
#    x 1.647960 0.000000 0.000000 
#    y 0.000000 1.648520 0.000000 
#    z 0.000000 0.000000 1.637650 
# 
# From -- ./inp_files/21256.got.cif
#   From: 2010.03.12/outbox.cif.g09.slc.cpg/sg59_11_cif.got.tgz:21256.got - 2010.04.16 16:29:54.
