data_PCOD8239456
_publ_section_title
;
Structure prediction by ZEFSAII (Michael W. Deem and Ramdas Pophale) SiO2 
 PCOD8239456
Probable space group: P M M N
;
_chemical_formula_sum "Si O2"
_cell_formula_units_Z 40
_cell_length_a 9.132347
_cell_length_b 18.745757
_cell_length_c 12.983043
_cell_angle_alpha 90.000000
_cell_angle_beta 90.000000
_cell_angle_gamma 90.000000
_cell_volume 2222.602935
_symmetry_space_group_name_H-M "P M M N"
_symmetry_group_IT_number 59
_space_group.IT_coordinate_system_code '2'
_symmetry_cell_setting 'orthorhombic'
loop_
_space_group_symop_operation_xyz
x,y,z
1/2-x,1/2-y,z
1/2+x,-y,-z
-x,1/2+y,-z
-x,-y,-z
1/2+x,1/2+y,-z
1/2-x,y,z
x,1/2-y,z
loop_
_atom_site_type_symbol
_atom_site_label
_atom_site_fract_x
_atom_site_fract_y
_atom_site_fract_z
Si Si1 0.411850 0.914558 0.093350
Si Si2 0.076323 0.923429 0.696916
Si Si3 0.423596 0.572548 0.319364
Si Si4 0.086754 0.084342 0.099374
Si Si5 0.076758 0.670530 0.504518
O O1 0.250000 0.884670 0.069390
O O2 0.461779 0.891887 0.208394
O O3 0.409338 0.999715 0.090932
O O4 0.520114 0.883476 0.006483
O O5 0.250000 0.931779 0.707280
O O6 0.029037 0.867542 0.609629
O O7 0.012665 0.893083 0.803969
O O8 0.008390 0.998872 0.665418
O O9 0.250000 0.556685 0.326658
O O10 0.481301 0.626303 0.406471
O O11 0.250000 0.115330 0.113548
O O12 0.250000 0.674886 0.497653
O O13 0.008638 0.750000 0.502075
#
# Coordination Sequence:
#
# PCOD8239456 Si02
#       5
#     8   8   8   8   8
#     4   8  14  24  40  65  93 119 148 183 226 272
#     4  10  18  28  47  72  96 122 153 191 229 269
#     4   9  17  30  49  71  95 122 152 189 230 274
#     4   9  16  26  42  65  94 124 151 184 227 272
#     4   9  18  32  49  69  93 122 156 193 232 272
#
# _framework density 17.996915999999999
#
# number of rings (size 3 to 8) (size 9 to 14) (size 15 to 20)
#    0.000    3.000    0.000    3.000    0.000    4.800 
#    0.000    1.000    0.000    6.600    0.000    5.600 
#    0.000    0.000    0.000    0.000    0.000    0.000 
#
# Total GULP energy -495822.904979 kJ/mol
# GULP energy per Si atom -12395.572624 kJ/mol
# Density = 1.795595 g / cm^3
# Si number density = 17.996916 Si / 1000 Ang^3
#
#
#
# Elastic Constant Matrix: (Units=GPa)
#
#
# Indices 1 2 3 4 5 6 
#
# 1 80.7950 34.3806 62.6484 0.0000 0.0000 0.0000
# 2 34.3806 66.4033 60.2756 0.0000 0.0000 0.0000
# 3 62.6484 60.2756 172.3202 0.0000 0.0000 0.0000
# 4 0.0000 0.0000 0.0000 2.0525 0.0000 0.0000
# 5 0.0000 0.0000 0.0000 0.0000 26.2743 0.0000
# 6 0.0000 0.0000 0.0000 0.0000 0.0000 11.5891
#
#
#
# Elastic Compliance Matrix: (Units=1/GPa)
#
#
# Indices 1 2 3 4 5 6 
#
# 1 0.018319 -0.005039 -0.004897 0.000000 0.000000 0.000000
# 2 -0.005039 0.023452 -0.006371 0.000000 0.000000 0.000000
# 3 -0.004897 -0.006371 0.009812 0.000000 0.000000 0.000000
# 4 0.000000 0.000000 0.000000 0.487221 0.000000 0.000000
# 5 0.000000 0.000000 0.000000 0.000000 0.038060 0.000000
# 6 0.000000 0.000000 0.000000 0.000000 0.000000 0.086288
#
#
# Mechanical properties :
#
#
# Convention : Reuss Voigt Hill
#
# Bulk Modulus (GPa) = 52.72213 70.45864 61.59039
# Shear Modulus (GPa) = 7.12160 18.79744 12.95952
#
# Velocity S-wave (km/s) = 1.99141 3.23535 2.68637
# Velocity P-wave (km/s) = 5.88611 7.29329 6.62715
#
# Compressibility (1/GPa) = 0.01896737
#
# Stress axis : x y z
#
# Youngs Moduli (GPa) = 54.58920 42.64075 101.91496
#
# Poissons Ratio (x) = 0.21488 0.49910
# Poissons Ratio (y) = 0.27509 0.64931
# Poissons Ratio (z) = 0.26733 0.27167
#
# Static dielectric constant tensor:
#      x y z
#    x 3.294400 0.000000 0.000000 
#    y 0.000000 2.967900 0.000000 
#    z 0.000000 0.000000 3.733410 
# 
# 
# High freq. dielectric constant tensor:
#      x y z
#    x 1.682590 0.000000 0.000000 
#    y 0.000000 1.639790 0.000000 
#    z 0.000000 0.000000 1.719800 
# 
# From -- ./inp_files/18140.got.cif
#   From: 2010.03.12/outbox.cif.g09.slc.cpg/sg59_10_cif.got.tgz:18140.got - 2010.04.16 16:29:54.
