data_PCOD8239931
_publ_section_title
;
Structure prediction by ZEFSAII (Michael W. Deem and Ramdas Pophale) SiO2 
 PCOD8239931
Probable space group: P M M N
;
_chemical_formula_sum "Si O2"
_cell_formula_units_Z 48
_cell_length_a 31.107116
_cell_length_b 8.701095
_cell_length_c 9.063071
_cell_angle_alpha 90.000000
_cell_angle_beta 90.000000
_cell_angle_gamma 90.000000
_cell_volume 2453.064917
_symmetry_space_group_name_H-M "P M M N"
_symmetry_group_IT_number 59
_space_group.IT_coordinate_system_code '2'
_symmetry_cell_setting 'orthorhombic'
loop_
_space_group_symop_operation_xyz
x,y,z
1/2-x,1/2-y,z
1/2+x,-y,-z
-x,1/2+y,-z
-x,-y,-z
1/2+x,1/2+y,-z
1/2-x,y,z
x,1/2-y,z
loop_
_atom_site_type_symbol
_atom_site_label
_atom_site_fract_x
_atom_site_fract_y
_atom_site_fract_z
Si Si1 0.750000 0.928971 0.326279
Si Si2 0.670075 0.429661 0.161394
Si Si3 0.414584 0.568386 0.667171
Si Si4 0.665124 0.070986 0.823492
Si Si5 0.250000 0.573074 0.358905
Si Si6 0.001205 0.567424 0.336628
Si Si7 0.412473 0.430741 0.344804
O O1 0.750000 0.750000 0.307555
O O2 0.792508 0.990513 0.250493
O O3 0.750000 0.968968 0.497821
O O4 0.677365 0.250000 0.179847
O O5 0.624414 0.480333 0.227804
O O6 0.672082 0.479442 0.991696
O O7 0.420824 0.750000 0.658327
O O8 0.457473 0.493011 0.740088
O O9 0.404905 0.506761 0.503878
O O10 0.652425 0.250000 0.810941
O O11 0.708593 0.033547 0.737705
O O12 0.627578 0.967087 0.758309
O O13 0.250000 0.750000 0.408771
O O14 0.002549 0.750000 0.335595
O O15 0.044819 0.500100 0.264537
O O16 0.000000 0.500000 0.500000
O O17 0.418053 0.250000 0.365849
#
# Coordination Sequence:
#
# PCOD8239931 Si02
#       7
#     4   8   8   8   4   8   8
#     4  12  25  38  58  86 116 144 181 228 272 322
#     4  10  22  40  61  82 111 148 186 225 275 333
#     4  10  19  34  57  84 111 144 186 233 279 329
#     4  10  21  39  60  83 109 144 186 228 273 327
#     4  10  21  38  62  84 108 142 183 226 270 322
#     4  10  18  31  53  80 110 145 185 232 278 325
#     4  11  21  34  54  82 114 148 185 229 276 328
#
# _framework density 19.567357999999999
#
# number of rings (size 3 to 8) (size 9 to 14) (size 15 to 20)
#    0.000    1.667    0.000    7.750    0.000    8.000 
#    0.000    1.667    0.000    0.000    0.000    0.000 
#    0.000    0.000    0.000    0.000    0.000    0.000 
#
# Total GULP energy -595267.285324 kJ/mol
# GULP energy per Si atom -12401.401778 kJ/mol
# Density = 1.952282 g / cm^3
# Si number density = 19.567358 Si / 1000 Ang^3
#
#
#
# Elastic Constant Matrix: (Units=GPa)
#
#
# Indices 1 2 3 4 5 6 
#
# 1 176.0902 61.3986 57.5211 0.0000 0.0000 0.0000
# 2 61.3986 77.0405 16.3532 0.0000 0.0000 0.0000
# 3 57.5211 16.3532 87.6019 0.0000 0.0000 0.0000
# 4 0.0000 0.0000 0.0000 11.1561 0.0000 0.0000
# 5 0.0000 0.0000 0.0000 0.0000 -63.7563 0.0000
# 6 0.0000 0.0000 0.0000 0.0000 0.0000 36.2016
#
#
#
# Elastic Compliance Matrix: (Units=1/GPa)
#
#
# Indices 1 2 3 4 5 6 
#
# 1 0.009649 -0.006607 -0.005103 0.000000 0.000000 0.000000
# 2 -0.006607 0.018040 0.000971 0.000000 0.000000 0.000000
# 3 -0.005103 0.000971 0.014585 0.000000 0.000000 0.000000
# 4 0.000000 0.000000 0.000000 0.089637 0.000000 0.000000
# 5 0.000000 0.000000 0.000000 0.000000 -0.015685 0.000000
# 6 0.000000 0.000000 0.000000 0.000000 0.000000 0.027623
#
#
# Mechanical properties :
#
#
# Convention : Reuss Voigt Hill
#
# Bulk Modulus (GPa) = 48.08663 67.91983 58.00323
# Shear Modulus (GPa) = 29.02596 10.41758 19.72177
#
# Velocity S-wave (km/s) = 3.85565 2.30987 3.17817
# Velocity P-wave (km/s) = 6.66706 6.47303 6.57076
#
# Compressibility (1/GPa) = 0.02079580
#
# Stress axis : x y z
#
# Youngs Moduli (GPa) = 103.63233 55.43296 68.56567
#
# Poissons Ratio (x) = 0.36626 0.34987
# Poissons Ratio (y) = 0.68472 -0.06656
# Poissons Ratio (z) = 0.52880 -0.05381
#
# Static dielectric constant tensor:
#      x y z
#    x 4.258830 0.000000 0.000000 
#    y 0.000000 3.550420 0.000000 
#    z 0.000000 0.000000 3.401250 
# 
# 
# High freq. dielectric constant tensor:
#      x y z
#    x 1.789590 0.000000 0.000000 
#    y 0.000000 1.765030 0.000000 
#    z 0.000000 0.000000 1.738960 
# 
# From -- ./inp_files/13004.got.cif
#   From: 2010.03.12/outbox.cif.g09.slc.cpg/sg59_7_cif.got.tgz:13004.got - 2010.04.16 16:29:54.
