data_PCOD8239749
_publ_section_title
;
Structure prediction by ZEFSAII (Michael W. Deem and Ramdas Pophale) SiO2 
 PCOD8239749
Probable space group: P M M N
;
_chemical_formula_sum "Si O2"
_cell_formula_units_Z 64
_cell_length_a 9.107865
_cell_length_b 23.044335
_cell_length_c 18.892297
_cell_angle_alpha 90.000000
_cell_angle_beta 90.000000
_cell_angle_gamma 90.000000
_cell_volume 3965.203941
_symmetry_space_group_name_H-M "P M M N"
_symmetry_group_IT_number 59
_space_group.IT_coordinate_system_code '2'
_symmetry_cell_setting 'orthorhombic'
loop_
_space_group_symop_operation_xyz
x,y,z
1/2-x,1/2-y,z
1/2+x,-y,-z
-x,1/2+y,-z
-x,-y,-z
1/2+x,1/2+y,-z
1/2-x,y,z
x,1/2-y,z
loop_
_atom_site_type_symbol
_atom_site_label
_atom_site_fract_x
_atom_site_fract_y
_atom_site_fract_z
Si Si1 0.919981 0.984011 0.894915
Si Si2 0.421779 0.682741 0.108551
Si Si3 0.079542 0.132472 0.756367
Si Si4 0.918701 0.485325 0.397358
Si Si5 0.580025 0.088016 0.529136
Si Si6 0.082218 0.996309 0.759635
Si Si7 0.579370 0.912321 0.029543
Si Si8 0.077426 0.183813 0.606560
O O1 0.750000 0.001885 0.892633
O O2 0.977171 0.965762 0.817386
O O3 0.013692 0.039254 0.918726
O O4 0.945273 0.930133 0.947938
O O5 0.250000 0.669349 0.107464
O O6 0.455877 0.750000 0.096298
O O7 0.485293 0.662766 0.183289
O O8 0.498620 0.648307 0.044043
O O9 0.250000 0.146371 0.770198
O O10 0.048157 0.064388 0.755021
O O11 0.026707 0.159031 0.682162
O O12 0.750000 0.506719 0.403996
O O13 0.948460 0.429987 0.447466
O O14 0.952961 0.467494 0.316500
O O15 0.020343 0.538606 0.418916
O O16 0.750000 0.096026 0.545583
O O17 0.499362 0.148561 0.543355
O O18 0.250000 0.984919 0.781708
O O19 0.750000 0.906197 0.048633
O O20 0.250000 0.177036 0.597159
O O21 0.026083 0.250000 0.600412
#
# Coordination Sequence:
#
# PCOD8239749 Si02
#       8
#     8   8   8   8   8   8   8   8
#     4  10  20  32  49  72  98 122 154 199 241 280
#     4  11  23  35  48  69  97 128 162 202 240 272
#     4  10  19  32  49  68  93 130 170 197 224 274
#     4   9  18  33  49  67  95 127 159 193 236 290
#     4  10  19  30  48  71  94 123 158 202 244 275
#     4  10  18  30  50  72  96 128 161 192 232 285
#     4  10  20  34  50  69  93 127 162 193 234 283
#     4  10  20  34  50  66  92 132 169 199 234 279
#
# _framework density 16.140405999999999
#
# number of rings (size 3 to 8) (size 9 to 14) (size 15 to 20)
#    0.000    2.000    2.500    1.875    0.000    4.750 
#    0.000    0.000    0.000    0.000    0.000    0.875 
#    0.000    1.000    0.000    0.000    0.000    0.000 
#
# Total GULP energy -793725.405057 kJ/mol
# GULP energy per Si atom -12401.959454 kJ/mol
# Density = 1.610367 g / cm^3
# Si number density = 16.140406 Si / 1000 Ang^3
#
#
#
# Elastic Constant Matrix: (Units=GPa)
#
#
# Indices 1 2 3 4 5 6 
#
# 1 80.2277 47.2817 54.9300 0.0000 0.0000 0.0000
# 2 47.2817 79.9680 55.6936 0.0000 0.0000 0.0000
# 3 54.9300 55.6936 119.2979 0.0000 0.0000 0.0000
# 4 0.0000 0.0000 0.0000 21.8084 0.0000 0.0000
# 5 0.0000 0.0000 0.0000 0.0000 28.3270 0.0000
# 6 0.0000 0.0000 0.0000 0.0000 0.0000 25.5630
#
#
#
# Elastic Compliance Matrix: (Units=1/GPa)
#
#
# Indices 1 2 3 4 5 6 
#
# 1 0.021617 -0.008667 -0.005907 0.000000 0.000000 0.000000
# 2 -0.008667 0.022005 -0.006282 0.000000 0.000000 0.000000
# 3 -0.005907 -0.006282 0.014035 0.000000 0.000000 0.000000
# 4 0.000000 0.000000 0.000000 0.045854 0.000000 0.000000
# 5 0.000000 0.000000 0.000000 0.000000 0.035302 0.000000
# 6 0.000000 0.000000 0.000000 0.000000 0.000000 0.039119
#
#
# Mechanical properties :
#
#
# Convention : Reuss Voigt Hill
#
# Bulk Modulus (GPa) = 62.71979 66.14490 64.43234
# Shear Modulus (GPa) = 22.22629 23.24556 22.73593
#
# Velocity S-wave (km/s) = 3.71490 3.79913 3.75725
# Velocity P-wave (km/s) = 7.57257 7.76623 7.67001
#
# Compressibility (1/GPa) = 0.01594393
#
# Stress axis : x y z
#
# Youngs Moduli (GPa) = 46.26000 45.44507 71.25027
#
# Poissons Ratio (x) = 0.39388 0.42089
# Poissons Ratio (y) = 0.40094 0.44759
# Poissons Ratio (z) = 0.27327 0.28549
#
# Static dielectric constant tensor:
#      x y z
#    x 3.121210 0.000000 0.000000 
#    y 0.000000 2.937140 0.000000 
#    z 0.000000 0.000000 3.222690 
# 
# 
# High freq. dielectric constant tensor:
#      x y z
#    x 1.630000 0.000000 0.000000 
#    y 0.000000 1.590650 0.000000 
#    z 0.000000 0.000000 1.618990 
# 
# From -- ./inp_files/26477.got.cif
#   From: 2010.03.12/outbox.cif.g09.slc.cpg/sg59_14_cif.got.tgz:26477.got - 2010.04.16 16:29:54.
