data_PCOD8239295
_publ_section_title
;
Structure prediction by ZEFSAII (Michael W. Deem and Ramdas Pophale) SiO2 
 PCOD8239295
Probable space group: P M M N
;
_chemical_formula_sum "Si O2"
_cell_formula_units_Z 56
_cell_length_a 9.625793
_cell_length_b 21.741483
_cell_length_c 16.823804
_cell_angle_alpha 90.000000
_cell_angle_beta 90.000000
_cell_angle_gamma 90.000000
_cell_volume 3520.869128
_symmetry_space_group_name_H-M "P M M N"
_symmetry_group_IT_number 59
_space_group.IT_coordinate_system_code '2'
_symmetry_cell_setting 'orthorhombic'
loop_
_space_group_symop_operation_xyz
x,y,z
1/2-x,1/2-y,z
1/2+x,-y,-z
-x,1/2+y,-z
-x,-y,-z
1/2+x,1/2+y,-z
1/2-x,y,z
x,1/2-y,z
loop_
_atom_site_type_symbol
_atom_site_label
_atom_site_fract_x
_atom_site_fract_y
_atom_site_fract_z
Si Si1 0.092431 0.088876 0.006328
Si Si2 0.589095 0.682210 0.591619
Si Si3 0.095043 0.969795 0.113935
Si Si4 0.592450 0.953927 0.550986
Si Si5 0.906974 0.962507 0.733488
Si Si6 0.598846 0.317713 0.087528
Si Si7 0.590520 0.348302 0.262499
O O1 0.250000 0.103712 0.984722
O O2 0.026517 0.147446 0.047358
O O3 0.077495 0.034137 0.068713
O O4 0.015359 0.077160 0.922559
O O5 0.750000 0.673675 0.616443
O O6 0.570097 0.750000 0.547904
O O7 0.546966 0.619237 0.543533
O O8 0.495997 0.686470 0.669947
O O9 0.250000 0.943552 0.100369
O O10 0.067048 0.979156 0.208365
O O11 0.750000 0.960304 0.520552
O O12 0.577825 0.978956 0.640860
O O13 0.500000 0.000000 0.500000
O O14 0.750000 0.937193 0.749584
O O15 0.024104 0.914137 0.756452
O O16 0.750000 0.349508 0.070950
O O17 0.598177 0.250000 0.050399
O O18 0.579068 0.310137 0.181956
O O19 0.750000 0.355826 0.290945
#
# Coordination Sequence:
#
# PCOD8239295 Si02
#       7
#     8   8   8   8   8   8   8
#     4  10  19  29  44  65  87 113 150 191 229 264
#     4   9  18  32  48  65  89 125 162 190 222 275
#     4   9  17  30  47  64  87 115 146 187 230 268
#     4   9  18  31  48  70  97 124 153 191 234 278
#     4   9  17  31  48  66  90 123 158 186 221 275
#     4  10  20  31  41  57  87 124 156 186 225 271
#     4  10  18  27  42  65  93 120 152 191 226 262
#
# _framework density 15.905163999999999
#
# number of rings (size 3 to 8) (size 9 to 14) (size 15 to 20)
#    0.000    2.571    1.429    2.143    0.000    5.143 
#    0.000    0.000    0.000    0.000    0.000    1.000 
#    0.000    5.714    0.000    0.000    0.000    0.000 
#
# Total GULP energy -693764.726190 kJ/mol
# GULP energy per Si atom -12388.655825 kJ/mol
# Density = 1.586896 g / cm^3
# Si number density = 15.905164 Si / 1000 Ang^3
#
#
#
# Elastic Constant Matrix: (Units=GPa)
#
#
# Indices 1 2 3 4 5 6 
#
# 1 101.9103 51.1198 35.5461 0.0000 0.0000 0.0000
# 2 51.1198 81.8725 36.1475 0.0000 0.0000 0.0000
# 3 35.5461 36.1475 56.2762 0.0000 0.0000 0.0000
# 4 0.0000 0.0000 0.0000 15.8199 0.0000 0.0000
# 5 0.0000 0.0000 0.0000 0.0000 25.5273 0.0000
# 6 0.0000 0.0000 0.0000 0.0000 0.0000 20.7072
#
#
#
# Elastic Compliance Matrix: (Units=1/GPa)
#
#
# Indices 1 2 3 4 5 6 
#
# 1 0.015194 -0.007328 -0.004890 0.000000 0.000000 0.000000
# 2 -0.007328 0.020583 -0.008593 0.000000 0.000000 0.000000
# 3 -0.004890 -0.008593 0.026378 0.000000 0.000000 0.000000
# 4 0.000000 0.000000 0.000000 0.063212 0.000000 0.000000
# 5 0.000000 0.000000 0.000000 0.000000 0.039174 0.000000
# 6 0.000000 0.000000 0.000000 0.000000 0.000000 0.048292
#
#
# Mechanical properties :
#
#
# Convention : Reuss Voigt Hill
#
# Bulk Modulus (GPa) = 48.70087 53.96508 51.33297
# Shear Modulus (GPa) = 19.13522 20.22724 19.68123
#
# Velocity S-wave (km/s) = 3.47231 3.57002 3.52150
# Velocity P-wave (km/s) = 6.83827 7.14117 6.99136
#
# Compressibility (1/GPa) = 0.02053352
#
# Stress axis : x y z
#
# Youngs Moduli (GPa) = 65.81552 48.58341 37.91098
#
# Poissons Ratio (x) = 0.35601 0.18540
# Poissons Ratio (y) = 0.48228 0.32575
# Poissons Ratio (z) = 0.32186 0.41746
#
# Static dielectric constant tensor:
#      x y z
#    x 3.179220 0.000000 0.000000 
#    y 0.000000 2.900240 0.000000 
#    z 0.000000 0.000000 2.826550 
# 
# 
# High freq. dielectric constant tensor:
#      x y z
#    x 1.624610 0.000000 0.000000 
#    y 0.000000 1.588520 0.000000 
#    z 0.000000 0.000000 1.576520 
# 
# From -- ./inp_files/26033.got.cif
#   From: 2010.03.12/outbox.cif.g09.slc.cpg/sg59_14_cif.got.tgz:26033.got - 2010.04.16 16:29:54.
