data_PCOD8239341
_publ_section_title
;
Structure prediction by ZEFSAII (Michael W. Deem and Ramdas Pophale) SiO2 
 PCOD8239341
Probable space group: P M M N
;
_chemical_formula_sum "Si O2"
_cell_formula_units_Z 64
_cell_length_a 9.689807
_cell_length_b 26.308947
_cell_length_c 16.839320
_cell_angle_alpha 90.000000
_cell_angle_beta 90.000000
_cell_angle_gamma 90.000000
_cell_volume 4292.824589
_symmetry_space_group_name_H-M "P M M N"
_symmetry_group_IT_number 59
_space_group.IT_coordinate_system_code '2'
_symmetry_cell_setting 'orthorhombic'
loop_
_space_group_symop_operation_xyz
x,y,z
1/2-x,1/2-y,z
1/2+x,-y,-z
-x,1/2+y,-z
-x,-y,-z
1/2+x,1/2+y,-z
1/2-x,y,z
x,1/2-y,z
loop_
_atom_site_type_symbol
_atom_site_label
_atom_site_fract_x
_atom_site_fract_y
_atom_site_fract_z
Si Si1 0.902770 0.614674 0.869482
Si Si2 0.403508 0.927033 0.996611
Si Si3 0.404861 0.072362 0.495728
Si Si4 0.601905 0.473117 0.607697
Si Si5 0.408824 0.618404 0.636010
Si Si6 0.498391 0.966919 0.750370
Si Si7 0.908049 0.690833 0.735919
Si Si8 0.397559 0.026740 0.892766
O O1 0.750000 0.613851 0.907409
O O2 0.930425 0.667008 0.823081
O O3 0.014129 0.611613 0.939696
O O4 0.907630 0.567739 0.807407
O O5 0.250000 0.905185 0.012642
O O6 0.394879 0.981017 0.954909
O O7 0.482048 0.934026 0.081209
O O8 0.250000 0.095756 0.506719
O O9 0.478329 0.065049 0.582104
O O10 0.503692 0.108105 0.443365
O O11 0.391037 0.018058 0.455642
O O12 0.750000 0.444338 0.605353
O O13 0.587861 0.496338 0.695237
O O14 0.250000 0.631487 0.614867
O O15 0.406013 0.569864 0.695077
O O16 0.482780 0.666622 0.675609
O O17 0.409211 0.004687 0.804259
O O18 0.750000 0.680268 0.707530
O O19 0.940085 0.750000 0.742057
O O20 0.250000 0.055260 0.897242
#
# Coordination Sequence:
#
# PCOD8239341 Si02
#       8
#     8   8   8   8   8   8   8   8
#     4   9  16  27  42  56  73 100 131 159 191 232
#     4   9  17  26  36  51  71  96 126 161 195 225
#     4   9  17  27  38  52  72 100 131 162 195 230
#     4   9  16  25  37  53  73  98 131 166 196 227
#     4  10  18  28  42  58  77 101 131 164 197 233
#     4   9  17  25  38  56  77 102 132 166 198 226
#     4   9  18  31  45  61  80 101 126 158 196 236
#     4   9  16  25  36  50  70  97 130 162 191 225
#
# _framework density 14.908599000000001
#
# number of rings (size 3 to 8) (size 9 to 14) (size 15 to 20)
#    0.000    2.875    0.000    1.875    0.000   13.250 
#    0.000    0.000    0.000    0.000    0.000    0.000 
#    0.000    0.000    0.000    1.125    0.000   14.875 
#
# Total GULP energy -792982.731246 kJ/mol
# GULP energy per Si atom -12390.355176 kJ/mol
# Density = 1.487467 g / cm^3
# Si number density = 14.908599 Si / 1000 Ang^3
#
#
#
# Elastic Constant Matrix: (Units=GPa)
#
#
# Indices 1 2 3 4 5 6 
#
# 1 140.1272 42.5321 37.3086 0.0000 0.0000 0.0000
# 2 42.5321 48.8221 30.3756 0.0000 0.0000 0.0000
# 3 37.3086 30.3756 58.0117 0.0000 0.0000 0.0000
# 4 0.0000 0.0000 0.0000 12.0986 0.0000 0.0000
# 5 0.0000 0.0000 0.0000 0.0000 14.9690 0.0000
# 6 0.0000 0.0000 0.0000 0.0000 0.0000 14.9292
#
#
#
# Elastic Compliance Matrix: (Units=1/GPa)
#
#
# Indices 1 2 3 4 5 6 
#
# 1 0.009993 -0.006982 -0.002771 0.000000 0.000000 0.000000
# 2 -0.006982 0.035257 -0.013971 0.000000 0.000000 0.000000
# 3 -0.002771 -0.013971 0.026335 0.000000 0.000000 0.000000
# 4 0.000000 0.000000 0.000000 0.082654 0.000000 0.000000
# 5 0.000000 0.000000 0.000000 0.000000 0.066805 0.000000
# 6 0.000000 0.000000 0.000000 0.000000 0.000000 0.066983
#
#
# Mechanical properties :
#
#
# Convention : Reuss Voigt Hill
#
# Bulk Modulus (GPa) = 41.42818 51.93261 46.68040
# Shear Modulus (GPa) = 14.55517 17.51570 16.03544
#
# Velocity S-wave (km/s) = 3.12796 3.43136 3.28317
# Velocity P-wave (km/s) = 6.39484 7.11397 6.76397
#
# Compressibility (1/GPa) = 0.02413816
#
# Stress axis : x y z
#
# Youngs Moduli (GPa) = 100.06693 28.36327 37.97159
#
# Poissons Ratio (x) = 0.19802 0.10523
# Poissons Ratio (y) = 0.69863 0.53050
# Poissons Ratio (z) = 0.27731 0.39626
#
# Static dielectric constant tensor:
#      x y z
#    x 3.210350 0.000000 0.000000 
#    y 0.000000 2.426850 0.000000 
#    z 0.000000 0.000000 2.830510 
# 
# 
# High freq. dielectric constant tensor:
#      x y z
#    x 1.590560 0.000000 0.000000 
#    y 0.000000 1.502170 0.000000 
#    z 0.000000 0.000000 1.552980 
# 
# From -- ./inp_files/26686.got.cif
#   From: 2010.03.12/outbox.cif.g09.slc.cpg/sg59_14_cif.got.tgz:26686.got - 2010.04.16 16:29:54.
