data_PCOD8239689
_publ_section_title
;
Structure prediction by ZEFSAII (Michael W. Deem and Ramdas Pophale) SiO2 
 PCOD8239689
Probable space group: P M M N
;
_chemical_formula_sum "Si O2"
_cell_formula_units_Z 64
_cell_length_a 23.449620
_cell_length_b 9.111881
_cell_length_c 18.172219
_cell_angle_alpha 90.000000
_cell_angle_beta 90.000000
_cell_angle_gamma 90.000000
_cell_volume 3882.860704
_symmetry_space_group_name_H-M "P M M N"
_symmetry_group_IT_number 59
_space_group.IT_coordinate_system_code '2'
_symmetry_cell_setting 'orthorhombic'
loop_
_space_group_symop_operation_xyz
x,y,z
1/2-x,1/2-y,z
1/2+x,-y,-z
-x,1/2+y,-z
-x,-y,-z
1/2+x,1/2+y,-z
1/2-x,y,z
x,1/2-y,z
loop_
_atom_site_type_symbol
_atom_site_label
_atom_site_fract_x
_atom_site_fract_y
_atom_site_fract_z
Si Si1 0.498203 0.424178 0.079528
Si Si2 0.610176 0.075707 0.860607
Si Si3 0.120866 0.577167 0.863484
Si Si4 0.182117 0.086028 0.574749
Si Si5 0.184154 0.577421 0.720130
Si Si6 0.686613 0.424483 0.996591
Si Si7 0.186376 0.575332 0.273924
Si Si8 0.182271 0.587023 0.435685
O O1 0.491643 0.250000 0.067983
O O2 0.448478 0.488797 0.130236
O O3 0.555052 0.463497 0.125002
O O4 0.500000 0.500000 0.000000
O O5 0.598649 0.250000 0.861587
O O6 0.651155 0.025261 0.926209
O O7 0.640235 0.021780 0.785509
O O8 0.130179 0.750000 0.863647
O O9 0.145440 0.514882 0.786750
O O10 0.157054 0.509266 0.930761
O O11 0.250000 0.084741 0.571385
O O12 0.157904 0.250000 0.580048
O O13 0.161188 0.997466 0.645981
O O14 0.156774 0.014101 0.500354
O O15 0.250000 0.536987 0.736414
O O16 0.176833 0.750000 0.709470
O O17 0.750000 0.489942 0.990306
O O18 0.688594 0.250000 0.000216
O O19 0.250000 0.514207 0.255191
O O20 0.189868 0.750000 0.273704
O O21 0.166301 0.521804 0.355096
O O22 0.250000 0.595481 0.441813
O O23 0.156488 0.750000 0.445508
#
# Coordination Sequence:
#
# PCOD8239689 Si02
#       8
#     8   8   8   8   8   8   8   8
#     4  11  21  35  51  67  88 118 156 197 234 271
#     4  10  18  30  48  71  94 119 152 190 232 272
#     4   9  17  29  45  67  89 112 150 194 229 263
#     4   9  16  25  38  60  92 125 151 175 213 270
#     4   9  16  27  45  67  89 113 145 187 229 267
#     4   9  15  24  43  69  92 115 147 185 222 264
#     4   8  14  25  44  71  98 122 153 193 229 265
#     4   8  13  23  40  62  89 121 155 186 216 256
#
# _framework density 16.482693000000001
#
# number of rings (size 3 to 8) (size 9 to 14) (size 15 to 20)
#    0.000    2.875    1.250    2.250    0.000    4.500 
#    0.000    1.875    0.000    2.250    0.000    0.875 
#    0.000    0.000    0.000    0.000    0.000    0.000 
#
# Total GULP energy -793290.254816 kJ/mol
# GULP energy per Si atom -12395.160232 kJ/mol
# Density = 1.644518 g / cm^3
# Si number density = 16.482693 Si / 1000 Ang^3
#
#
#
# Elastic Constant Matrix: (Units=GPa)
#
#
# Indices 1 2 3 4 5 6 
#
# 1 93.8747 29.4948 64.9248 0.0000 0.0000 0.0000
# 2 29.4948 47.5583 43.9464 0.0000 0.0000 0.0000
# 3 64.9248 43.9464 169.4919 0.0000 0.0000 0.0000
# 4 0.0000 0.0000 0.0000 10.7656 0.0000 0.0000
# 5 0.0000 0.0000 0.0000 0.0000 9.5183 0.0000
# 6 0.0000 0.0000 0.0000 0.0000 0.0000 18.2105
#
#
#
# Elastic Compliance Matrix: (Units=1/GPa)
#
#
# Indices 1 2 3 4 5 6 
#
# 1 0.015487 -0.005422 -0.004526 0.000000 0.000000 0.000000
# 2 -0.005422 0.029550 -0.005585 0.000000 0.000000 0.000000
# 3 -0.004526 -0.005585 0.009082 0.000000 0.000000 0.000000
# 4 0.000000 0.000000 0.000000 0.092888 0.000000 0.000000
# 5 0.000000 0.000000 0.000000 0.000000 0.105061 0.000000
# 6 0.000000 0.000000 0.000000 0.000000 0.000000 0.054913
#
#
# Mechanical properties :
#
#
# Convention : Reuss Voigt Hill
#
# Bulk Modulus (GPa) = 43.37985 65.29520 54.33753
# Shear Modulus (GPa) = 14.46209 19.20281 16.83245
#
# Velocity S-wave (km/s) = 2.96533 3.41695 3.19912
# Velocity P-wave (km/s) = 6.17250 7.43423 6.83255
#
# Compressibility (1/GPa) = 0.02305217
#
# Stress axis : x y z
#
# Youngs Moduli (GPa) = 64.57231 33.84079 110.10850
#
# Poissons Ratio (x) = 0.18348 0.49840
# Poissons Ratio (y) = 0.35010 0.61496
# Poissons Ratio (z) = 0.29228 0.18900
#
# Static dielectric constant tensor:
#      x y z
#    x 2.955250 0.000000 0.000000 
#    y 0.000000 2.844840 0.000000 
#    z 0.000000 0.000000 3.431140 
# 
# 
# High freq. dielectric constant tensor:
#      x y z
#    x 1.599160 0.000000 0.000000 
#    y 0.000000 1.599660 0.000000 
#    z 0.000000 0.000000 1.647640 
# 
# From -- ./inp_files/28408.got.cif
#   From: 2010.03.12/outbox.cif.g09.slc.cpg/sg59_15_cif.got.tgz:28408.got - 2010.04.16 16:29:54.
