data_PCOD8239013
_publ_section_title
;
Structure prediction by ZEFSAII (Michael W. Deem and Ramdas Pophale) SiO2 
 PCOD8239013
Probable space group: P N N M
;
_chemical_formula_sum "Si O2"
_cell_formula_units_Z 64
_cell_length_a 15.000000
_cell_length_b 24.000000
_cell_length_c 9.000000
_cell_angle_alpha 90.000000
_cell_angle_beta 90.000000
_cell_angle_gamma 90.000000
_cell_volume 3240.000000
_symmetry_space_group_name_H-M "P N N M"
_symmetry_group_IT_number 58
_symmetry_cell_setting 'orthorhombic'
loop_
_space_group_symop_operation_xyz
x,y,z
-x,-y,z
1/2+x,1/2-y,1/2-z
1/2-x,1/2+y,1/2-z
-x,-y,-z
x,y,-z
1/2-x,1/2+y,1/2+z
1/2+x,1/2-y,1/2+z
loop_
_atom_site_type_symbol
_atom_site_label
_atom_site_fract_x
_atom_site_fract_y
_atom_site_fract_z
Si Si1 0.601990 0.237721 0.325360
Si Si2 0.909881 0.026648 0.675081
Si Si3 0.747800 0.445579 0.823482
Si Si4 0.658682 0.130308 0.164212
Si Si5 0.899386 0.256603 0.823216
Si Si6 0.253151 0.673414 0.677564
Si Si7 0.137954 0.866577 0.836157
Si Si8 0.397935 0.988248 0.171719
O O1 0.600512 0.240257 0.500000
O O2 0.644829 0.180002 0.277227
O O3 0.501063 0.239810 0.265421
O O4 0.663810 0.288385 0.267256
O O5 0.909279 0.029519 0.500000
O O6 0.911489 0.089847 0.731889
O O7 0.826900 0.989598 0.730651
O O8 0.000000 0.000000 0.737594
O O9 0.728910 0.387218 0.743909
O O10 0.843004 0.469136 0.772987
O O11 0.746775 0.436758 0.000000
O O12 0.761155 0.114302 0.153793
O O13 0.612162 0.075145 0.226976
O O14 0.622182 0.146620 0.000000
O O15 0.839851 0.302572 0.740550
O O16 0.866488 0.195789 0.772043
O O17 0.890086 0.265748 0.000000
O O18 0.246449 0.670367 0.500000
O O19 0.093110 0.867648 0.000000
O O20 0.500000 0.000000 0.195994
O O21 0.368016 0.994796 0.000000
#
# Coordination Sequence:
#
# PCOD8239013 Si02
#       8
#     8   8   8   8   8   8   8   8
#     4  10  23  40  60  87 119 155 196 243 294 349
#     4  10  23  41  60  87 121 156 197 243 293 348
#     4  11  24  41  61  86 120 160 198 243 297 351
#     4  10  20  37  61  87 116 153 196 243 295 347
#     4  10  22  41  61  87 121 156 196 244 296 352
#     4  11  24  41  61  87 120 158 199 243 294 351
#     4  10  20  37  63  88 114 151 197 245 293 347
#     4  10  22  40  61  88 122 156 196 246 294 350
#
# _framework density 19.753086
#
# number of rings (size 3 to 8) (size 9 to 14) (size 15 to 20)
#    0.000    1.750    2.500    0.750    3.500    3.500 
#    0.000    0.000    0.000    0.000    0.000    0.000 
#    0.000    0.000    0.000    0.000    0.000    0.000 
#
# Total GULP energy -793641.279022 kJ/mol
# GULP energy per Si atom -12400.644985 kJ/mol
# Density = 1.970813 g / cm^3
# Si number density = 19.753086 Si / 1000 Ang^3
#
#
#
# Elastic Constant Matrix: (Units=GPa)
#
#
# Indices 1 2 3 4 5 6 
#
# 1 74.1972 16.3810 29.7401 0.0000 0.0000 0.0000
# 2 16.3810 101.9485 26.6199 0.0000 0.0000 0.0000
# 3 29.7401 26.6199 37.5275 0.0000 0.0000 0.0000
# 4 0.0000 0.0000 0.0000 36.9361 0.0000 0.0000
# 5 0.0000 0.0000 0.0000 0.0000 21.3428 0.0000
# 6 0.0000 0.0000 0.0000 0.0000 0.0000 31.3645
#
#
#
# Elastic Compliance Matrix: (Units=1/GPa)
#
#
# Indices 1 2 3 4 5 6 
#
# 1 0.019857 0.001127 -0.016536 0.000000 0.000000 0.000000
# 2 0.001127 0.012103 -0.009478 0.000000 0.000000 0.000000
# 3 -0.016536 -0.009478 0.046475 0.000000 0.000000 0.000000
# 4 0.000000 0.000000 0.000000 0.027074 0.000000 0.000000
# 5 0.000000 0.000000 0.000000 0.000000 0.046854 0.000000
# 6 0.000000 0.000000 0.000000 0.000000 0.000000 0.031883
#
#
# Mechanical properties :
#
#
# Convention : Reuss Voigt Hill
#
# Bulk Modulus (GPa) = 34.89111 39.90613 37.39862
# Shear Modulus (GPa) = 20.52779 27.32417 23.92598
#
# Velocity S-wave (km/s) = 3.22719 3.72329 3.48408
# Velocity P-wave (km/s) = 5.62035 6.22336 5.92952
#
# Compressibility (1/GPa) = 0.02866059
#
# Stress axis : x y z
#
# Youngs Moduli (GPa) = 50.36085 82.62674 21.51704
#
# Poissons Ratio (x) = -0.09313 0.35580
# Poissons Ratio (y) = -0.05676 0.20394
# Poissons Ratio (z) = 0.83275 0.78315
#
# Static dielectric constant tensor:
#      x y z
#    x 1.698820 0.000000 0.000000 
#    y 0.000000 3.633360 0.000000 
#    z 0.000000 0.000000 3.493310 
# 
# 
# High freq. dielectric constant tensor:
#      x y z
#    x 1.774070 0.000000 0.000000 
#    y 0.000000 1.781360 0.000000 
#    z 0.000000 0.000000 1.758050 
# 
# From -- ./inp_files/6813.got.cif
#   From: 2010.06.25/outbox.ucp.g09.slc.cvg/sg58_4_cif.got.tgz:6813.got - 2010.06.28 15:54:47.
