data_PCOD8239039
_publ_section_title
;
Structure prediction by ZEFSAII (Michael W. Deem and Ramdas Pophale) SiO2 
 PCOD8239039
Probable space group: P M M N
;
_chemical_formula_sum "Si O2"
_cell_formula_units_Z 56
_cell_length_a 9.291669
_cell_length_b 22.387435
_cell_length_c 17.642631
_cell_angle_alpha 90.000000
_cell_angle_beta 90.000000
_cell_angle_gamma 90.000000
_cell_volume 3669.960747
_symmetry_space_group_name_H-M "P M M N"
_symmetry_group_IT_number 59
_space_group.IT_coordinate_system_code '2'
_symmetry_cell_setting 'orthorhombic'
loop_
_space_group_symop_operation_xyz
x,y,z
1/2-x,1/2-y,z
1/2+x,-y,-z
-x,1/2+y,-z
-x,-y,-z
1/2+x,1/2+y,-z
1/2-x,y,z
x,1/2-y,z
loop_
_atom_site_type_symbol
_atom_site_label
_atom_site_fract_x
_atom_site_fract_y
_atom_site_fract_z
Si Si1 0.081768 0.416593 0.951618
Si Si2 0.411633 0.557785 0.590109
Si Si3 0.416934 0.024838 0.271825
Si Si4 0.918639 0.596987 0.288777
Si Si5 0.585707 0.528733 0.895938
Si Si6 0.090557 0.419348 0.546680
Si Si7 0.420021 0.183986 0.843332
O O1 0.250000 0.421777 0.935147
O O2 0.024187 0.354510 0.915710
O O3 0.012199 0.471190 0.906857
O O4 0.046112 0.420373 0.041594
O O5 0.250000 0.581067 0.603177
O O6 0.502570 0.566788 0.667166
O O7 0.480766 0.595797 0.521126
O O8 0.415106 0.488708 0.568629
O O9 0.250000 0.019398 0.295327
O O10 0.484575 0.959268 0.266988
O O11 0.435353 0.054927 0.188676
O O12 0.750000 0.579599 0.279094
O O13 0.948689 0.616533 0.376283
O O14 0.964152 0.651675 0.235043
O O15 0.750000 0.508002 0.908075
O O16 0.250000 0.402378 0.518129
O O17 0.250000 0.190539 0.847039
O O18 0.491168 0.250000 0.846045
#
# Coordination Sequence:
#
# PCOD8239039 Si02
#       7
#     8   8   8   8   8   8   8
#     4   9  16  27  42  57  77 104 134 166 201 239
#     4   9  16  24  35  52  74 100 130 157 187 227
#     4  10  17  24  36  54  79 104 130 162 197 237
#     4   9  16  26  39  55  75 102 135 163 192 232
#     4   9  17  26  38  58  80 104 133 165 200 242
#     4   8  14  23  34  49  72 100 128 156 186 222
#     4   9  16  26  42  62  81 103 135 171 202 235
#
# _framework density 15.259017999999999
#
# number of rings (size 3 to 8) (size 9 to 14) (size 15 to 20)
#    0.000    3.000    1.429    1.714    0.000    4.000 
#    0.000    0.000    0.000    1.714    0.000    0.000 
#    0.000    1.143    0.000   12.571    0.000    1.571 
#
# Total GULP energy -693923.560051 kJ/mol
# GULP energy per Si atom -12391.492144 kJ/mol
# Density = 1.522429 g / cm^3
# Si number density = 15.259018 Si / 1000 Ang^3
#
#
#
# Elastic Constant Matrix: (Units=GPa)
#
#
# Indices 1 2 3 4 5 6 
#
# 1 67.1186 18.5511 52.0370 0.0000 0.0000 0.0000
# 2 18.5511 54.2785 46.7988 0.0000 0.0000 0.0000
# 3 52.0370 46.7988 143.3504 0.0000 0.0000 0.0000
# 4 0.0000 0.0000 0.0000 14.6650 0.0000 0.0000
# 5 0.0000 0.0000 0.0000 0.0000 20.9646 0.0000
# 6 0.0000 0.0000 0.0000 0.0000 0.0000 8.2135
#
#
#
# Elastic Compliance Matrix: (Units=1/GPa)
#
#
# Indices 1 2 3 4 5 6 
#
# 1 0.020761 -0.000832 -0.007265 0.000000 0.000000 0.000000
# 2 -0.000832 0.025674 -0.008080 0.000000 0.000000 0.000000
# 3 -0.007265 -0.008080 0.012251 0.000000 0.000000 0.000000
# 4 0.000000 0.000000 0.000000 0.068190 0.000000 0.000000
# 5 0.000000 0.000000 0.000000 0.000000 0.047699 0.000000
# 6 0.000000 0.000000 0.000000 0.000000 0.000000 0.121751
#
#
# Mechanical properties :
#
#
# Convention : Reuss Voigt Hill
#
# Bulk Modulus (GPa) = 37.97474 55.50238 46.73856
# Shear Modulus (GPa) = 14.81668 18.59266 16.70467
#
# Velocity S-wave (km/s) = 3.11949 3.49445 3.31228
# Velocity P-wave (km/s) = 6.15757 7.26182 6.73237
#
# Compressibility (1/GPa) = 0.02633329
#
# Stress axis : x y z
#
# Youngs Moduli (GPa) = 48.16623 38.94974 81.62702
#
# Poissons Ratio (x) = 0.03240 0.59301
# Poissons Ratio (y) = 0.04007 0.65952
# Poissons Ratio (z) = 0.34992 0.31470
#
# Static dielectric constant tensor:
#      x y z
#    x 2.946180 0.000000 0.000000 
#    y 0.000000 2.579070 0.000000 
#    z 0.000000 0.000000 3.347330 
# 
# 
# High freq. dielectric constant tensor:
#      x y z
#    x 1.580320 0.000000 0.000000 
#    y 0.000000 1.509040 0.000000 
#    z 0.000000 0.000000 1.604630 
# 
# From -- ./inp_files/26388.got.cif
#   From: 2010.03.12/outbox.cif.g09.slc.cpg/sg59_14_cif.got.tgz:26388.got - 2010.04.16 16:29:54.
