data_PCOD8239421
_publ_section_title
;
Structure prediction by ZEFSAII (Michael W. Deem and Ramdas Pophale) SiO2 
 PCOD8239421
Probable space group: P M M N
;
_chemical_formula_sum "Si O2"
_cell_formula_units_Z 64
_cell_length_a 23.241045
_cell_length_b 9.299862
_cell_length_c 15.544378
_cell_angle_alpha 90.000000
_cell_angle_beta 90.000000
_cell_angle_gamma 90.000000
_cell_volume 3359.738719
_symmetry_space_group_name_H-M "P M M N"
_symmetry_group_IT_number 59
_space_group.IT_coordinate_system_code '2'
_symmetry_cell_setting 'orthorhombic'
loop_
_space_group_symop_operation_xyz
x,y,z
1/2-x,1/2-y,z
1/2+x,-y,-z
-x,1/2+y,-z
-x,-y,-z
1/2+x,1/2+y,-z
1/2-x,y,z
x,1/2-y,z
loop_
_atom_site_type_symbol
_atom_site_label
_atom_site_fract_x
_atom_site_fract_y
_atom_site_fract_z
Si Si1 0.615677 0.411435 0.370078
Si Si2 0.005979 0.584279 0.195899
Si Si3 0.114833 0.917992 0.442152
Si Si4 0.619652 0.417168 0.887485
Si Si5 0.018327 0.086337 0.363786
Si Si6 0.814488 0.421151 0.721376
Si Si7 0.124594 0.081304 0.798014
Si Si8 0.816766 0.416323 0.053679
O O1 0.631559 0.250000 0.339020
O O2 0.643641 0.445694 0.463575
O O3 0.548084 0.424784 0.387757
O O4 0.636601 0.523014 0.298082
O O5 0.008651 0.750000 0.225903
O O6 0.940553 0.543140 0.171175
O O7 0.050338 0.557501 0.116681
O O8 0.029870 0.488872 0.272744
O O9 0.100371 0.750000 0.431356
O O10 0.157863 0.974280 0.368257
O O11 0.055286 0.005299 0.435966
O O12 0.635122 0.250000 0.889973
O O13 0.650085 0.483613 0.802804
O O14 0.645822 0.483254 0.975019
O O15 0.039087 0.250000 0.357043
O O16 0.750000 0.482424 0.726595
O O17 0.814619 0.250000 0.723074
O O18 0.136347 0.250000 0.797957
O O19 0.168968 0.005912 0.861442
O O20 0.750000 0.435178 0.030599
O O21 0.832132 0.250000 0.071268
#
# Coordination Sequence:
#
# PCOD8239421 Si02
#       8
#     8   8   8   8   8   8   8   8
#     4   9  19  33  50  74 105 139 177 220 264 310
#     4   9  17  32  53  78 107 140 174 210 264 323
#     4  10  18  30  49  73 103 139 177 219 263 307
#     4   9  16  30  54  81 106 132 169 214 258 312
#     4  10  18  28  45  73 107 141 176 213 257 313
#     4   9  16  27  48  77 104 132 170 215 258 305
#     4  10  21  36  55  78 107 140 175 218 269 322
#     4  10  21  37  58  81 103 133 176 222 264 309
#
# _framework density 19.049099999999999
#
# number of rings (size 3 to 8) (size 9 to 14) (size 15 to 20)
#    0.000    2.500    1.250    1.500    0.000    3.750 
#    0.000    1.250    0.000    2.625    0.000    0.000 
#    0.000    0.000    0.000    0.000    0.000    0.000 
#
# Total GULP energy -793399.237862 kJ/mol
# GULP energy per Si atom -12396.863092 kJ/mol
# Density = 1.900574 g / cm^3
# Si number density = 19.049100 Si / 1000 Ang^3
#
#
#
# Elastic Constant Matrix: (Units=GPa)
#
#
# Indices 1 2 3 4 5 6 
#
# 1 37.1718 14.8755 22.6748 0.0000 0.0000 0.0000
# 2 14.8755 60.1476 36.7240 0.0000 0.0000 0.0000
# 3 22.6748 36.7240 110.0859 0.0000 0.0000 0.0000
# 4 0.0000 0.0000 0.0000 19.3779 0.0000 0.0000
# 5 0.0000 0.0000 0.0000 0.0000 24.6586 0.0000
# 6 0.0000 0.0000 0.0000 0.0000 0.0000 18.1809
#
#
#
# Elastic Compliance Matrix: (Units=1/GPa)
#
#
# Indices 1 2 3 4 5 6 
#
# 1 0.031862 -0.004864 -0.004940 0.000000 0.000000 0.000000
# 2 -0.004864 0.021621 -0.006211 0.000000 0.000000 0.000000
# 3 -0.004940 -0.006211 0.012173 0.000000 0.000000 0.000000
# 4 0.000000 0.000000 0.000000 0.051605 0.000000 0.000000
# 5 0.000000 0.000000 0.000000 0.000000 0.040554 0.000000
# 6 0.000000 0.000000 0.000000 0.000000 0.000000 0.055003
#
#
# Mechanical properties :
#
#
# Convention : Reuss Voigt Hill
#
# Bulk Modulus (GPa) = 29.73832 39.55043 34.64438
# Shear Modulus (GPa) = 19.52697 21.31887 20.42292
#
# Velocity S-wave (km/s) = 3.20517 3.34900 3.27788
# Velocity P-wave (km/s) = 5.41690 5.98012 5.70547
#
# Compressibility (1/GPa) = 0.03362664
#
# Stress axis : x y z
#
# Youngs Moduli (GPa) = 31.38527 46.25200 82.14733
#
# Poissons Ratio (x) = 0.22496 0.40583
# Poissons Ratio (y) = 0.15265 0.51020
# Poissons Ratio (z) = 0.15505 0.28726
#
# Static dielectric constant tensor:
#      x y z
#    x 3.417060 0.000000 0.000000 
#    y 0.000000 3.247060 0.000000 
#    z 0.000000 0.000000 3.543600 
# 
# 
# High freq. dielectric constant tensor:
#      x y z
#    x 1.726320 0.000000 0.000000 
#    y 0.000000 1.707630 0.000000 
#    z 0.000000 0.000000 1.742560 
# 
# From -- ./inp_files/21469.got.cif
#   From: 2010.03.12/outbox.cif.g09.slc.cpg/sg59_11_cif.got.tgz:21469.got - 2010.04.16 16:29:54.
