data_PCOD8239005
_publ_section_title
;
Structure prediction by ZEFSAII (Michael W. Deem and Ramdas Pophale) SiO2 
 PCOD8239005
Probable space group: P N N M
;
_chemical_formula_sum "Si O2"
_cell_formula_units_Z 56
_cell_length_a 15.000000
_cell_length_b 21.000000
_cell_length_c 9.000000
_cell_angle_alpha 90.000000
_cell_angle_beta 90.000000
_cell_angle_gamma 90.000000
_cell_volume 2835.000000
_symmetry_space_group_name_H-M "P N N M"
_symmetry_group_IT_number 58
_symmetry_cell_setting 'orthorhombic'
loop_
_space_group_symop_operation_xyz
x,y,z
-x,-y,z
1/2+x,1/2-y,1/2-z
1/2-x,1/2+y,1/2-z
-x,-y,-z
x,y,-z
1/2-x,1/2+y,1/2+z
1/2+x,1/2-y,1/2+z
loop_
_atom_site_type_symbol
_atom_site_label
_atom_site_fract_x
_atom_site_fract_y
_atom_site_fract_z
Si Si1 0.783318 0.640157 0.169296
Si Si2 0.858036 0.379581 0.676678
Si Si3 0.933078 0.946841 0.676382
Si Si4 0.448199 0.696180 0.832187
Si Si5 0.759956 0.494185 0.176522
Si Si6 0.486388 0.819091 0.669379
Si Si7 0.244024 0.735462 0.167868
O O1 0.768437 0.567977 0.229615
O O2 0.729224 0.693727 0.262364
O O3 0.886365 0.656936 0.180470
O O4 0.748827 0.643965 0.000000
O O5 0.849807 0.382078 0.500000
O O6 0.830280 0.448094 0.743035
O O7 0.959261 0.368219 0.728410
O O8 0.803385 0.319258 0.737716
O O9 0.938290 0.945314 0.500000
O O10 0.957368 0.875669 0.734351
O O11 0.835312 0.967352 0.727713
O O12 0.000000 0.000000 0.741951
O O13 0.500302 0.746582 0.728862
O O14 0.346373 0.716732 0.833882
O O15 0.487006 0.699138 0.000000
O O16 0.774893 0.489527 0.000000
O O17 0.520699 0.820674 0.500000
O O18 0.205988 0.736334 0.000000
#
# Coordination Sequence:
#
# PCOD8239005 Si02
#       7
#     8   8   8   8   8   8   8
#     4   9  20  37  59  86 117 154 195 240 290 353
#     4  12  24  37  57  84 113 151 203 248 293 350
#     4   9  17  31  55  85 115 149 188 229 278 342
#     4   9  17  33  56  82 110 144 186 230 282 341
#     4  10  20  38  59  83 118 158 196 235 291 351
#     4  10  21  37  56  82 113 148 191 242 298 345
#     4  10  19  35  59  83 112 151 192 239 293 348
#
# _framework density 19.753086
#
# number of rings (size 3 to 8) (size 9 to 14) (size 15 to 20)
#    0.000    2.143    1.429    2.143    0.000    3.429 
#    0.000    5.714    0.000    1.714    0.000    0.000 
#    0.000    0.000    0.000    0.000    0.000    0.000 
#
# Total GULP energy -694238.305770 kJ/mol
# GULP energy per Si atom -12397.112603 kJ/mol
# Density = 1.970813 g / cm^3
# Si number density = 19.753086 Si / 1000 Ang^3
#
#
#
# Elastic Constant Matrix: (Units=GPa)
#
#
# Indices 1 2 3 4 5 6 
#
# 1 24.5492 15.0740 11.2602 0.0000 0.0000 0.0000
# 2 15.0740 181.0944 44.7090 0.0000 0.0000 0.0000
# 3 11.2602 44.7090 98.1639 0.0000 0.0000 0.0000
# 4 0.0000 0.0000 0.0000 40.0132 0.0000 0.0000
# 5 0.0000 0.0000 0.0000 0.0000 20.2730 0.0000
# 6 0.0000 0.0000 0.0000 0.0000 0.0000 34.4625
#
#
#
# Elastic Compliance Matrix: (Units=1/GPa)
#
#
# Indices 1 2 3 4 5 6 
#
# 1 0.044165 -0.002733 -0.003821 0.000000 0.000000 0.000000
# 2 -0.002733 0.006391 -0.002597 0.000000 0.000000 0.000000
# 3 -0.003821 -0.002597 0.011808 0.000000 0.000000 0.000000
# 4 0.000000 0.000000 0.000000 0.024992 0.000000 0.000000
# 5 0.000000 0.000000 0.000000 0.000000 0.049327 0.000000
# 6 0.000000 0.000000 0.000000 0.000000 0.000000 0.029017
#
#
# Mechanical properties :
#
#
# Convention : Reuss Voigt Hill
#
# Bulk Modulus (GPa) = 22.69559 49.54376 36.11967
# Shear Modulus (GPa) = 25.16487 34.46738 29.81612
#
# Velocity S-wave (km/s) = 3.57315 4.18174 3.88937
# Velocity P-wave (km/s) = 5.34207 6.96074 6.20442
#
# Compressibility (1/GPa) = 0.04406142
#
# Stress axis : x y z
#
# Youngs Moduli (GPa) = 22.64219 156.47872 84.68637
#
# Poissons Ratio (x) = 0.42762 0.32363
# Poissons Ratio (y) = 0.06188 0.21994
# Poissons Ratio (z) = 0.08653 0.40640
#
# Static dielectric constant tensor:
#      x y z
#    x 3.530360 0.000000 0.000000 
#    y 0.000000 4.052480 0.000000 
#    z 0.000000 0.000000 3.625530 
# 
# 
# High freq. dielectric constant tensor:
#      x y z
#    x 1.761440 0.000000 0.000000 
#    y 0.000000 1.798300 0.000000 
#    z 0.000000 0.000000 1.753490 
# 
# From -- ./inp_files/6337.got.cif
#   From: 2010.06.25/outbox.ucp.g09.slc.cvg/sg58_4_cif.got.tgz:6337.got - 2010.06.28 15:54:47.
