data_PCOD8239173
_publ_section_title
;
Structure prediction by ZEFSAII (Michael W. Deem and Ramdas Pophale) SiO2 
 PCOD8239173
Probable space group: P M M N
;
_chemical_formula_sum "Si O2"
_cell_formula_units_Z 48
_cell_length_a 14.591535
_cell_length_b 21.209037
_cell_length_c 9.146272
_cell_angle_alpha 90.000000
_cell_angle_beta 90.000000
_cell_angle_gamma 90.000000
_cell_volume 2830.518799
_symmetry_space_group_name_H-M "P M M N"
_symmetry_group_IT_number 59
_space_group.IT_coordinate_system_code '2'
_symmetry_cell_setting 'orthorhombic'
loop_
_space_group_symop_operation_xyz
x,y,z
1/2-x,1/2-y,z
1/2+x,-y,-z
-x,1/2+y,-z
-x,-y,-z
1/2+x,1/2+y,-z
1/2-x,y,z
x,1/2-y,z
loop_
_atom_site_type_symbol
_atom_site_label
_atom_site_fract_x
_atom_site_fract_y
_atom_site_fract_z
Si Si1 0.493765 0.056759 0.299159
Si Si2 0.351205 0.963113 0.915550
Si Si3 0.350932 0.865798 0.169519
Si Si4 0.517688 0.088394 0.618535
Si Si5 0.641911 0.591965 0.940614
Si Si6 0.540431 0.679203 0.151399
O O1 0.503713 0.098191 0.446059
O O2 0.401518 0.079248 0.218724
O O3 0.580147 0.070860 0.195245
O O4 0.496686 0.983564 0.337399
O O5 0.250000 0.963356 0.844051
O O6 0.383166 0.034012 0.952387
O O7 0.349448 0.926870 0.067950
O O8 0.250000 0.833518 0.174895
O O9 0.379585 0.890338 0.332248
O O10 0.430912 0.819047 0.111121
O O11 0.445540 0.133367 0.707143
O O12 0.750000 0.600405 0.918828
O O13 0.599016 0.654183 0.014162
O O14 0.573416 0.750000 0.187281
#
# Coordination Sequence:
#
# PCOD8239173 Si02
#       6
#     8   8   8   8   8   8
#     4  11  17  34  52  77 114 131 172 220 275 327
#     4  10  17  29  54  81 108 132 162 217 273 315
#     4   9  17  32  54  81 106 133 169 210 266 324
#     4   9  20  30  52  78 108 142 165 211 273 327
#     4  11  20  33  54  78 103 139 183 226 264 303
#     4  10  20  37  54  72 102 142 183 217 256 313
#
# _framework density 16.958023000000001
#
# number of rings (size 3 to 8) (size 9 to 14) (size 15 to 20)
#    1.000    1.000    5.000    0.500    0.000    1.333 
#    0.000    4.167    0.000    0.000    0.000    0.000 
#    0.000    0.000    0.000    0.000    0.000    0.000 
#
# Total GULP energy -594697.307392 kJ/mol
# GULP energy per Si atom -12389.527237 kJ/mol
# Density = 1.691943 g / cm^3
# Si number density = 16.958023 Si / 1000 Ang^3
#
#
#
# Elastic Constant Matrix: (Units=GPa)
#
#
# Indices 1 2 3 4 5 6 
#
# 1 97.6856 16.4766 57.1726 0.0000 0.0000 0.0000
# 2 16.4766 77.9257 36.9623 0.0000 0.0000 0.0000
# 3 57.1726 36.9623 116.5483 0.0000 0.0000 0.0000
# 4 0.0000 0.0000 0.0000 8.9549 0.0000 0.0000
# 5 0.0000 0.0000 0.0000 0.0000 14.6496 0.0000
# 6 0.0000 0.0000 0.0000 0.0000 0.0000 9.7677
#
#
#
# Elastic Compliance Matrix: (Units=1/GPa)
#
#
# Indices 1 2 3 4 5 6 
#
# 1 0.014368 0.000359 -0.007162 0.000000 0.000000 0.000000
# 2 0.000359 0.015114 -0.004969 0.000000 0.000000 0.000000
# 3 -0.007162 -0.004969 0.013670 0.000000 0.000000 0.000000
# 4 0.000000 0.000000 0.000000 0.111670 0.000000 0.000000
# 5 0.000000 0.000000 0.000000 0.000000 0.068261 0.000000
# 6 0.000000 0.000000 0.000000 0.000000 0.000000 0.102378
#
#
# Mechanical properties :
#
#
# Convention : Reuss Voigt Hill
#
# Bulk Modulus (GPa) = 51.00280 57.04249 54.02265
# Shear Modulus (GPa) = 14.06304 18.77765 16.42034
#
# Velocity S-wave (km/s) = 2.88286 3.33122 3.11512
# Velocity P-wave (km/s) = 6.42046 6.96467 6.69809
#
# Compressibility (1/GPa) = 0.01960677
#
# Stress axis : x y z
#
# Youngs Moduli (GPa) = 69.59833 66.16407 73.15523
#
# Poissons Ratio (x) = -0.02377 0.52395
# Poissons Ratio (y) = -0.02500 0.36354
# Poissons Ratio (z) = 0.49848 0.32880
#
# Static dielectric constant tensor:
#      x y z
#    x 3.235230 0.000000 0.000000 
#    y 0.000000 2.850240 0.000000 
#    z 0.000000 0.000000 3.106100 
# 
# 
# High freq. dielectric constant tensor:
#      x y z
#    x 1.651570 0.000000 0.000000 
#    y 0.000000 1.626440 0.000000 
#    z 0.000000 0.000000 1.638190 
# 
# From -- ./inp_files/9429.got.cif
#   From: 2010.03.12/outbox.cif.g09.slc.cpg/sg59_5_cif.got.tgz:9429.got - 2010.04.16 16:29:54.
