data_PCOD8239827
_publ_section_title
;
Structure prediction by ZEFSAII (Michael W. Deem and Ramdas Pophale) SiO2 
 PCOD8239827
Probable space group: P M M N
;
_chemical_formula_sum "Si O2"
_cell_formula_units_Z 64
_cell_length_a 30.295540
_cell_length_b 8.923228
_cell_length_c 14.520270
_cell_angle_alpha 90.000000
_cell_angle_beta 90.000000
_cell_angle_gamma 90.000000
_cell_volume 3925.322827
_symmetry_space_group_name_H-M "P M M N"
_symmetry_group_IT_number 59
_space_group.IT_coordinate_system_code '2'
_symmetry_cell_setting 'orthorhombic'
loop_
_space_group_symop_operation_xyz
x,y,z
1/2-x,1/2-y,z
1/2+x,-y,-z
-x,1/2+y,-z
-x,-y,-z
1/2+x,1/2+y,-z
1/2-x,y,z
x,1/2-y,z
loop_
_atom_site_type_symbol
_atom_site_label
_atom_site_fract_x
_atom_site_fract_y
_atom_site_fract_z
Si Si1 0.041749 0.927620 0.947390
Si Si2 0.386326 0.573994 0.439579
Si Si3 0.573564 0.072635 0.749634
Si Si4 0.524782 0.926283 0.238055
Si Si5 0.200514 0.575124 0.345872
Si Si6 0.958546 0.573567 0.446740
Si Si7 0.300256 0.075182 0.152290
Si Si8 0.877467 0.073763 0.927799
O O1 0.035097 0.750000 0.952020
O O2 0.049005 0.983807 0.843111
O O3 0.087934 0.975797 0.994426
O O4 0.000000 0.000000 0.000000
O O5 0.393878 0.750000 0.456626
O O6 0.409223 0.513643 0.347214
O O7 0.334021 0.535503 0.428343
O O8 0.410573 0.483423 0.520108
O O9 0.573173 0.250000 0.748669
O O10 0.524815 0.012991 0.766807
O O11 0.603782 0.013430 0.831131
O O12 0.528794 0.750000 0.218083
O O13 0.542668 0.967718 0.338884
O O14 0.250000 0.532118 0.379160
O O15 0.196358 0.750000 0.322586
O O16 0.187563 0.492653 0.251969
O O17 0.963545 0.750000 0.461246
O O18 0.000000 0.500000 0.500000
O O19 0.250000 0.035819 0.126945
O O20 0.308529 0.250000 0.158744
O O21 0.329840 0.007297 0.068709
O O22 0.869704 0.250000 0.930659
#
# Coordination Sequence:
#
# PCOD8239827 Si02
#       8
#     8   8   8   8   8   8   8   8
#     4  11  22  34  51  75 100 129 167 206 244 290
#     4  10  18  31  49  70  98 132 167 205 245 287
#     4   9  15  28  47  67  96 130 161 197 240 281
#     4  10  20  36  50  65  98 135 166 206 247 286
#     4   9  17  30  49  71  97 133 169 198 241 299
#     4  11  22  34  50  72  98 131 169 206 247 294
#     4  10  20  31  45  71 103 129 160 205 248 288
#     4  10  19  33  50  69  96 132 168 199 238 293
#
# _framework density 16.304390999999999
#
# number of rings (size 3 to 8) (size 9 to 14) (size 15 to 20)
#    0.000    2.000    3.750    1.125    0.000    3.250 
#    0.000    0.000    0.000    0.000    0.000    0.875 
#    0.000    3.000    0.000    0.000    0.000    0.000 
#
# Total GULP energy -793203.957075 kJ/mol
# GULP energy per Si atom -12393.811829 kJ/mol
# Density = 1.626728 g / cm^3
# Si number density = 16.304391 Si / 1000 Ang^3
#
#
#
# Elastic Constant Matrix: (Units=GPa)
#
#
# Indices 1 2 3 4 5 6 
#
# 1 121.5228 42.6826 55.3232 0.0000 0.0000 0.0000
# 2 42.6826 55.5865 41.6291 0.0000 0.0000 0.0000
# 3 55.3232 41.6291 95.6762 0.0000 0.0000 0.0000
# 4 0.0000 0.0000 0.0000 25.5933 0.0000 0.0000
# 5 0.0000 0.0000 0.0000 0.0000 24.0883 0.0000
# 6 0.0000 0.0000 0.0000 0.0000 0.0000 24.7321
#
#
#
# Elastic Compliance Matrix: (Units=1/GPa)
#
#
# Indices 1 2 3 4 5 6 
#
# 1 0.012455 -0.006186 -0.004510 0.000000 0.000000 0.000000
# 2 -0.006186 0.029758 -0.009371 0.000000 0.000000 0.000000
# 3 -0.004510 -0.009371 0.017137 0.000000 0.000000 0.000000
# 4 0.000000 0.000000 0.000000 0.039073 0.000000 0.000000
# 5 0.000000 0.000000 0.000000 0.000000 0.041514 0.000000
# 6 0.000000 0.000000 0.000000 0.000000 0.000000 0.040433
#
#
# Mechanical properties :
#
#
# Convention : Reuss Voigt Hill
#
# Bulk Modulus (GPa) = 52.04046 61.33948 56.68997
# Shear Modulus (GPa) = 22.03527 23.75945 22.89736
#
# Velocity S-wave (km/s) = 3.68025 3.82153 3.75156
# Velocity P-wave (km/s) = 7.07435 7.56143 7.32194
#
# Compressibility (1/GPa) = 0.01921582
#
# Stress axis : x y z
#
# Youngs Moduli (GPa) = 80.28966 33.60481 58.35229
#
# Poissons Ratio (x) = 0.20787 0.26319
# Poissons Ratio (y) = 0.49665 0.54681
# Poissons Ratio (z) = 0.36214 0.31491
#
# Static dielectric constant tensor:
#      x y z
#    x 3.308290 0.000000 0.000000 
#    y 0.000000 2.967610 0.000000 
#    z 0.000000 0.000000 3.013590 
# 
# 
# High freq. dielectric constant tensor:
#      x y z
#    x 1.627930 0.000000 0.000000 
#    y 0.000000 1.620210 0.000000 
#    z 0.000000 0.000000 1.601190 
# 
# From -- ./inp_files/25076.got.cif
#   From: 2010.03.12/outbox.cif.g09.slc.cpg/sg59_13_cif.got.tgz:25076.got - 2010.04.16 16:29:54.
