data_PCOD8239537
_publ_section_title
;
Structure prediction by ZEFSAII (Michael W. Deem and Ramdas Pophale) SiO2 
 PCOD8239537
Probable space group: P M M N
;
_chemical_formula_sum "Si O2"
_cell_formula_units_Z 48
_cell_length_a 9.302052
_cell_length_b 29.794013
_cell_length_c 10.053506
_cell_angle_alpha 90.000000
_cell_angle_beta 90.000000
_cell_angle_gamma 90.000000
_cell_volume 2786.283527
_symmetry_space_group_name_H-M "P M M N"
_symmetry_group_IT_number 59
_space_group.IT_coordinate_system_code '2'
_symmetry_cell_setting 'orthorhombic'
loop_
_space_group_symop_operation_xyz
x,y,z
1/2-x,1/2-y,z
1/2+x,-y,-z
-x,1/2+y,-z
-x,-y,-z
1/2+x,1/2+y,-z
1/2-x,y,z
x,1/2-y,z
loop_
_atom_site_type_symbol
_atom_site_label
_atom_site_fract_x
_atom_site_fract_y
_atom_site_fract_z
Si Si1 0.088409 0.799057 0.215226
Si Si2 0.582507 0.615807 0.534435
Si Si3 0.418402 0.529987 0.606611
Si Si4 0.916259 0.883815 0.221729
Si Si5 0.583859 0.978851 0.120976
Si Si6 0.088580 0.700390 0.531324
O O1 0.250000 0.805986 0.163055
O O2 0.030751 0.750000 0.166343
O O3 0.084583 0.799696 0.373215
O O4 0.994136 0.840175 0.159860
O O5 0.750000 0.611056 0.570426
O O6 0.489919 0.578830 0.611287
O O7 0.554675 0.609895 0.377953
O O8 0.525224 0.664097 0.585577
O O9 0.500000 0.500000 0.500000
O O10 0.250000 0.532848 0.568887
O O11 0.441381 0.508930 0.750305
O O12 0.750000 0.876302 0.194415
O O13 0.973513 0.928435 0.148638
O O14 0.750000 0.977079 0.082353
O O15 0.500000 0.000000 0.000000
O O16 0.250000 0.688271 0.579545
O O17 0.045042 0.750000 0.583986
#
# Coordination Sequence:
#
# PCOD8239537 Si02
#       6
#     8   8   8   8   8   8
#     4   8  14  24  39  63  93 123 159 198 236 287
#     4  10  18  29  46  71 100 129 166 207 249 297
#     4  11  21  35  53  74 101 130 167 210 251 298
#     4   9  17  30  45  66  98 128 160 202 243 288
#     4  10  22  38  52  72 101 132 169 211 251 300
#     4   8  14  25  40  62  95 131 164 199 244 296
#
# _framework density 17.227249
#
# number of rings (size 3 to 8) (size 9 to 14) (size 15 to 20)
#    0.000    2.667    1.667    2.000    0.000    3.333 
#    0.000    3.333    0.000    0.000    0.000    1.167 
#    0.000    6.667    0.000    0.000    0.000    0.000 
#
# Total GULP energy -594979.890396 kJ/mol
# GULP energy per Si atom -12395.414383 kJ/mol
# Density = 1.718804 g / cm^3
# Si number density = 17.227249 Si / 1000 Ang^3
#
#
#
# Elastic Constant Matrix: (Units=GPa)
#
#
# Indices 1 2 3 4 5 6 
#
# 1 104.6281 87.3476 37.7435 0.0000 0.0000 0.0000
# 2 87.3476 184.3741 38.2596 0.0000 0.0000 0.0000
# 3 37.7435 38.2596 37.5682 0.0000 0.0000 0.0000
# 4 0.0000 0.0000 0.0000 13.8106 0.0000 0.0000
# 5 0.0000 0.0000 0.0000 0.0000 20.2629 0.0000
# 6 0.0000 0.0000 0.0000 0.0000 0.0000 39.7902
#
#
#
# Elastic Compliance Matrix: (Units=1/GPa)
#
#
# Indices 1 2 3 4 5 6 
#
# 1 0.019898 -0.006693 -0.013175 0.000000 0.000000 0.000000
# 2 -0.006693 0.009128 -0.002572 0.000000 0.000000 0.000000
# 3 -0.013175 -0.002572 0.042474 0.000000 0.000000 0.000000
# 4 0.000000 0.000000 0.000000 0.072408 0.000000 0.000000
# 5 0.000000 0.000000 0.000000 0.000000 0.049351 0.000000
# 6 0.000000 0.000000 0.000000 0.000000 0.000000 0.025132
#
#
# Mechanical properties :
#
#
# Convention : Reuss Voigt Hill
#
# Bulk Modulus (GPa) = 37.56482 72.58575 55.07529
# Shear Modulus (GPa) = 18.37265 25.65406 22.01336
#
# Velocity S-wave (km/s) = 3.26926 3.86314 3.57854
# Velocity P-wave (km/s) = 6.00862 7.88189 7.00813
#
# Compressibility (1/GPa) = 0.02662065
#
# Stress axis : x y z
#
# Youngs Moduli (GPa) = 50.25752 109.55091 23.54379
#
# Poissons Ratio (x) = 0.73318 0.31018
# Poissons Ratio (y) = 0.33635 0.06056
# Poissons Ratio (z) = 0.66212 0.28180
#
# Static dielectric constant tensor:
#      x y z
#    x 3.340340 0.000000 0.000000 
#    y 0.000000 3.687030 0.000000 
#    z 0.000000 0.000000 2.531870 
# 
# 
# High freq. dielectric constant tensor:
#      x y z
#    x 1.668010 0.000000 0.000000 
#    y 0.000000 1.688550 0.000000 
#    z 0.000000 0.000000 1.598670 
# 
# From -- ./inp_files/6330.got.cif
#   From: 2010.03.12/outbox.cif.g09.slc.cpg/sg59_4_cif.got.tgz:6330.got - 2010.04.16 16:29:54.
