data_PCOD8239843
_publ_section_title
;
Structure prediction by ZEFSAII (Michael W. Deem and Ramdas Pophale) SiO2 
 PCOD8239843
Probable space group: P M M N
;
_chemical_formula_sum "Si O2"
_cell_formula_units_Z 64
_cell_length_a 9.048318
_cell_length_b 22.925904
_cell_length_c 17.516768
_cell_angle_alpha 90.000000
_cell_angle_beta 90.000000
_cell_angle_gamma 90.000000
_cell_volume 3633.693591
_symmetry_space_group_name_H-M "P M M N"
_symmetry_group_IT_number 59
_space_group.IT_coordinate_system_code '2'
_symmetry_cell_setting 'orthorhombic'
loop_
_space_group_symop_operation_xyz
x,y,z
1/2-x,1/2-y,z
1/2+x,-y,-z
-x,1/2+y,-z
-x,-y,-z
1/2+x,1/2+y,-z
1/2-x,y,z
x,1/2-y,z
loop_
_atom_site_type_symbol
_atom_site_label
_atom_site_fract_x
_atom_site_fract_y
_atom_site_fract_z
Si Si1 0.418349 0.981328 0.924194
Si Si2 0.577370 0.865575 0.907101
Si Si3 0.922251 0.559851 0.480994
Si Si4 0.078579 0.417639 0.353240
Si Si5 0.074645 0.549668 0.333470
Si Si6 0.425744 0.315099 0.933189
Si Si7 0.576375 0.686198 0.747620
Si Si8 0.419057 0.410329 0.814082
O O1 0.250000 0.967724 0.945351
O O2 0.493787 0.925022 0.887841
O O3 0.431084 0.031407 0.862347
O O4 0.500000 0.000000 0.000000
O O5 0.750000 0.879989 0.915066
O O6 0.545045 0.822247 0.837342
O O7 0.514431 0.837766 0.985211
O O8 0.750000 0.550205 0.463774
O O9 0.944273 0.599203 0.557191
O O10 0.000000 0.500000 0.500000
O O11 0.002604 0.584609 0.405413
O O12 0.250000 0.420787 0.332289
O O13 0.015101 0.482301 0.332979
O O14 0.003307 0.366133 0.302689
O O15 0.250000 0.552214 0.341323
O O16 0.023498 0.584074 0.258838
O O17 0.250000 0.315457 0.936752
O O18 0.486616 0.250000 0.918327
O O19 0.480356 0.356672 0.864887
O O20 0.750000 0.686336 0.731607
O O21 0.510946 0.750000 0.724859
O O22 0.250000 0.399177 0.788456
#
# Coordination Sequence:
#
# PCOD8239843 Si02
#       8
#     8   8   8   8   8   8   8   8
#     4  11  21  33  49  72 100 130 162 201 250 301
#     4  10  18  31  50  74 100 129 166 206 246 293
#     4   9  16  28  47  71 101 132 160 196 241 296
#     4   8  15  27  43  68 100 128 157 193 239 289
#     4  10  19  31  49  74 100 127 160 203 256 308
#     4   9  17  31  50  69  92 126 168 210 246 286
#     4   9  16  26  45  73 101 130 167 208 244 283
#     4  10  20  33  48  71  99 126 162 205 248 295
#
# _framework density 17.612931
#
# number of rings (size 3 to 8) (size 9 to 14) (size 15 to 20)
#    0.000    2.500    1.250    3.000    0.000    3.500 
#    0.000    0.000    0.000    4.125    0.000    3.500 
#    0.000    0.000    0.000    0.000    0.000    0.000 
#
# Total GULP energy -793235.056979 kJ/mol
# GULP energy per Si atom -12394.297765 kJ/mol
# Density = 1.757284 g / cm^3
# Si number density = 17.612931 Si / 1000 Ang^3
#
#
#
# Elastic Constant Matrix: (Units=GPa)
#
#
# Indices 1 2 3 4 5 6 
#
# 1 56.2477 22.3360 39.1441 0.0000 0.0000 0.0000
# 2 22.3360 107.5504 49.5502 0.0000 0.0000 0.0000
# 3 39.1441 49.5502 129.1301 0.0000 0.0000 0.0000
# 4 0.0000 0.0000 0.0000 19.3290 0.0000 0.0000
# 5 0.0000 0.0000 0.0000 0.0000 24.6480 0.0000
# 6 0.0000 0.0000 0.0000 0.0000 0.0000 15.9081
#
#
#
# Elastic Compliance Matrix: (Units=1/GPa)
#
#
# Indices 1 2 3 4 5 6 
#
# 1 0.022843 -0.001887 -0.006200 0.000000 0.000000 0.000000
# 2 -0.001887 0.011451 -0.003822 0.000000 0.000000 0.000000
# 3 -0.006200 -0.003822 0.011090 0.000000 0.000000 0.000000
# 4 0.000000 0.000000 0.000000 0.051736 0.000000 0.000000
# 5 0.000000 0.000000 0.000000 0.000000 0.040571 0.000000
# 6 0.000000 0.000000 0.000000 0.000000 0.000000 0.062861
#
#
# Mechanical properties :
#
#
# Convention : Reuss Voigt Hill
#
# Bulk Modulus (GPa) = 46.37176 57.22096 51.79636
# Shear Modulus (GPa) = 21.59278 24.10355 22.84817
#
# Velocity S-wave (km/s) = 3.50517 3.70336 3.60563
# Velocity P-wave (km/s) = 6.53965 7.13057 6.84149
#
# Compressibility (1/GPa) = 0.02156485
#
# Stress axis : x y z
#
# Youngs Moduli (GPa) = 43.77727 87.33099 90.17014
#
# Poissons Ratio (x) = 0.16483 0.55908
# Poissons Ratio (y) = 0.08263 0.34461
# Poissons Ratio (z) = 0.27143 0.33376
#
# Static dielectric constant tensor:
#      x y z
#    x 3.291010 0.000000 0.000000 
#    y 0.000000 3.431000 0.000000 
#    z 0.000000 0.000000 3.334690 
# 
# 
# High freq. dielectric constant tensor:
#      x y z
#    x 1.647680 0.000000 0.000000 
#    y 0.000000 1.659940 0.000000 
#    z 0.000000 0.000000 1.689920 
# 
# From -- ./inp_files/26468.got.cif
#   From: 2010.03.12/outbox.cif.g09.slc.cpg/sg59_14_cif.got.tgz:26468.got - 2010.04.16 16:29:54.
