data_PCOD8239061
_publ_section_title
;
Structure prediction by ZEFSAII (Michael W. Deem and Ramdas Pophale) SiO2 
 PCOD8239061
Probable space group: P M M N
;
_chemical_formula_sum "Si O2"
_cell_formula_units_Z 64
_cell_length_a 9.636965
_cell_length_b 13.832365
_cell_length_c 31.370104
_cell_angle_alpha 90.000000
_cell_angle_beta 90.000000
_cell_angle_gamma 90.000000
_cell_volume 4181.698148
_symmetry_space_group_name_H-M "P M M N"
_symmetry_group_IT_number 59
_space_group.IT_coordinate_system_code '2'
_symmetry_cell_setting 'orthorhombic'
loop_
_space_group_symop_operation_xyz
x,y,z
1/2-x,1/2-y,z
1/2+x,-y,-z
-x,1/2+y,-z
-x,-y,-z
1/2+x,1/2+y,-z
1/2-x,y,z
x,1/2-y,z
loop_
_atom_site_type_symbol
_atom_site_label
_atom_site_fract_x
_atom_site_fract_y
_atom_site_fract_z
Si Si1 0.095657 0.135016 0.777385
Si Si2 0.085213 0.484487 0.605406
Si Si3 0.092186 0.363546 0.432241
Si Si4 0.589046 0.477026 0.938500
Si Si5 0.411546 0.861610 0.145171
Si Si6 0.414638 0.143445 0.527083
Si Si7 0.914819 0.857569 0.316165
Si Si8 0.588754 0.361856 0.023249
O O1 0.250000 0.093761 0.786326
O O2 0.100308 0.250000 0.777316
O O3 0.041276 0.102091 0.730582
O O4 0.993055 0.096804 0.813945
O O5 0.250000 0.499691 0.605949
O O6 0.031254 0.426102 0.564125
O O7 0.031159 0.430138 0.647641
O O8 0.008051 0.587092 0.602573
O O9 0.250000 0.398529 0.425247
O O10 0.080882 0.250000 0.425222
O O11 0.039882 0.391668 0.479979
O O12 0.750000 0.506521 0.937894
O O13 0.543076 0.425059 0.895133
O O14 0.500269 0.574942 0.943511
O O15 0.558152 0.400453 0.975861
O O16 0.250000 0.872697 0.155018
O O17 0.449721 0.750000 0.135804
O O18 0.250000 0.149687 0.528456
O O19 0.476458 0.250000 0.535987
O O20 0.750000 0.850292 0.318132
O O21 0.976673 0.750000 0.324258
O O22 0.750000 0.373400 0.034961
O O23 0.542590 0.250000 0.025857
#
# Coordination Sequence:
#
# PCOD8239061 Si02
#       8
#     8   8   8   8   8   8   8   8
#     4   8  14  25  40  58  82 110 135 160 195 241
#     4  10  17  25  43  66  81  99 133 171 198 226
#     4   9  18  31  42  53  77 111 138 162 198 239
#     4   9  17  28  42  61  84 111 143 175 206 241
#     4   9  16  26  41  61  85 112 140 169 201 237
#     4   8  14  25  41  60  81 106 134 160 190 234
#     4   8  14  25  41  62  87 110 130 156 196 245
#     4   9  17  29  43  59  83 114 144 174 208 243
#
# _framework density 15.304786999999999
#
# number of rings (size 3 to 8) (size 9 to 14) (size 15 to 20)
#    0.000    3.250    0.000    2.625    0.000    4.000 
#    0.000    0.625    0.000    5.250    0.000    0.875 
#    0.000    1.000    0.000    0.000    0.000    0.000 
#
# Total GULP energy -793268.218140 kJ/mol
# GULP energy per Si atom -12394.815908 kJ/mol
# Density = 1.526995 g / cm^3
# Si number density = 15.304787 Si / 1000 Ang^3
#
#
#
# Elastic Constant Matrix: (Units=GPa)
#
#
# Indices 1 2 3 4 5 6 
#
# 1 44.8523 38.8640 46.1327 0.0000 0.0000 0.0000
# 2 38.8640 76.2331 56.2814 0.0000 0.0000 0.0000
# 3 46.1327 56.2814 119.7230 0.0000 0.0000 0.0000
# 4 0.0000 0.0000 0.0000 21.8443 0.0000 0.0000
# 5 0.0000 0.0000 0.0000 0.0000 22.5752 0.0000
# 6 0.0000 0.0000 0.0000 0.0000 0.0000 23.0815
#
#
#
# Elastic Compliance Matrix: (Units=1/GPa)
#
#
# Indices 1 2 3 4 5 6 
#
# 1 0.047285 -0.016318 -0.010549 0.000000 0.000000 0.000000
# 2 -0.016318 0.025721 -0.005804 0.000000 0.000000 0.000000
# 3 -0.010549 -0.005804 0.015146 0.000000 0.000000 0.000000
# 4 0.000000 0.000000 0.000000 0.045779 0.000000 0.000000
# 5 0.000000 0.000000 0.000000 0.000000 0.044296 0.000000
# 6 0.000000 0.000000 0.000000 0.000000 0.000000 0.043325
#
#
# Mechanical properties :
#
#
# Convention : Reuss Voigt Hill
#
# Bulk Modulus (GPa) = 43.83947 58.15161 50.99554
# Shear Modulus (GPa) = 16.97807 20.13556 18.55681
#
# Velocity S-wave (km/s) = 3.33427 3.63111 3.48585
# Velocity P-wave (km/s) = 6.59770 7.46044 7.04229
#
# Compressibility (1/GPa) = 0.02281049
#
# Stress axis : x y z
#
# Youngs Moduli (GPa) = 21.14831 38.87808 66.02426
#
# Poissons Ratio (x) = 0.63440 0.69651
# Poissons Ratio (y) = 0.34509 0.38320
# Poissons Ratio (z) = 0.22310 0.22564
#
# Static dielectric constant tensor:
#      x y z
#    x 2.747070 0.000000 0.000000 
#    y 0.000000 2.813560 0.000000 
#    z 0.000000 0.000000 3.114090 
# 
# 
# High freq. dielectric constant tensor:
#      x y z
#    x 1.565170 0.000000 0.000000 
#    y 0.000000 1.563810 0.000000 
#    z 0.000000 0.000000 1.580670 
# 
# From -- ./inp_files/31955.got.cif
#   From: 2010.03.12/outbox.cif.g09.slc.cpg/sg59_16_cif.got.tgz:31955.got - 2010.04.16 16:29:54.
