data_PCOD8239499
_publ_section_title
;
Structure prediction by ZEFSAII (Michael W. Deem and Ramdas Pophale) SiO2 
 PCOD8239499
Probable space group: P M M N
;
_chemical_formula_sum "Si O2"
_cell_formula_units_Z 64
_cell_length_a 13.997038
_cell_length_b 8.802904
_cell_length_c 31.226873
_cell_angle_alpha 90.000000
_cell_angle_beta 90.000000
_cell_angle_gamma 90.000000
_cell_volume 3847.606098
_symmetry_space_group_name_H-M "P M M N"
_symmetry_group_IT_number 59
_space_group.IT_coordinate_system_code '2'
_symmetry_cell_setting 'orthorhombic'
loop_
_space_group_symop_operation_xyz
x,y,z
1/2-x,1/2-y,z
1/2+x,-y,-z
-x,1/2+y,-z
-x,-y,-z
1/2+x,1/2+y,-z
1/2-x,y,z
x,1/2-y,z
loop_
_atom_site_type_symbol
_atom_site_label
_atom_site_fract_x
_atom_site_fract_y
_atom_site_fract_z
Si Si1 0.640905 0.429184 0.857435
Si Si2 0.640535 0.928921 0.020840
Si Si3 0.099168 0.431040 0.484954
Si Si4 0.140780 0.927887 0.315129
Si Si5 0.457864 0.929539 0.402312
Si Si6 0.353091 0.576119 0.566472
Si Si7 0.136620 0.079310 0.229374
Si Si8 0.968260 0.928525 0.935394
O O1 0.750000 0.485875 0.864781
O O2 0.635238 0.250000 0.859709
O O3 0.601646 0.482954 0.811378
O O4 0.572029 0.498465 0.892682
O O5 0.750000 0.984455 0.025334
O O6 0.632289 0.750000 0.027878
O O7 0.575465 0.010853 0.056367
O O8 0.602171 0.975600 0.974022
O O9 0.104254 0.250000 0.485929
O O10 0.113920 0.490615 0.436461
O O11 0.170135 0.501518 0.519896
O O12 0.000000 0.500000 0.500000
O O13 0.250000 0.977955 0.323564
O O14 0.134689 0.750000 0.306799
O O15 0.077753 0.977905 0.355566
O O16 0.096248 0.008983 0.273381
O O17 0.453076 0.750000 0.409423
O O18 0.567250 0.984703 0.407078
O O19 0.250000 0.570071 0.590581
O O20 0.388384 0.750000 0.561024
O O21 0.250000 0.073278 0.231663
O O22 0.098058 0.250000 0.224484
O O23 0.972740 0.750000 0.929280
#
# Coordination Sequence:
#
# PCOD8239499 Si02
#       8
#     8   8   8   8   8   8   8   8
#     4  10  19  30  46  68  95 126 157 190 230 278
#     4   9  18  32  47  64  92 129 164 199 239 280
#     4  10  18  29  45  63  86 114 145 182 221 262
#     4   9  18  32  48  67  93 123 151 179 218 271
#     4  10  19  31  48  69  93 121 152 185 221 264
#     4  10  20  33  48  65  88 119 153 190 230 267
#     4   9  17  29  46  68  93 120 150 186 227 270
#     4  10  19  30  46  69  95 123 160 202 239 278
#
# _framework density 16.633718999999999
#
# number of rings (size 3 to 8) (size 9 to 14) (size 15 to 20)
#    0.000    2.375    0.000    4.875    0.000    6.000 
#    0.000    1.250    0.000    0.000    0.000    0.875 
#    0.000    3.000    0.000    0.000    0.000    0.000 
#
# Total GULP energy -793300.832370 kJ/mol
# GULP energy per Si atom -12395.325506 kJ/mol
# Density = 1.659586 g / cm^3
# Si number density = 16.633719 Si / 1000 Ang^3
#
#
#
# Elastic Constant Matrix: (Units=GPa)
#
#
# Indices 1 2 3 4 5 6 
#
# 1 80.7967 36.7286 56.1311 0.0000 0.0000 0.0000
# 2 36.7286 72.5363 41.5296 0.0000 0.0000 0.0000
# 3 56.1311 41.5296 127.4669 0.0000 0.0000 0.0000
# 4 0.0000 0.0000 0.0000 31.0397 0.0000 0.0000
# 5 0.0000 0.0000 0.0000 0.0000 21.9277 0.0000
# 6 0.0000 0.0000 0.0000 0.0000 0.0000 20.6297
#
#
#
# Elastic Compliance Matrix: (Units=1/GPa)
#
#
# Indices 1 2 3 4 5 6 
#
# 1 0.019874 -0.006211 -0.006728 0.000000 0.000000 0.000000
# 2 -0.006211 0.018889 -0.003419 0.000000 0.000000 0.000000
# 3 -0.006728 -0.003419 0.011922 0.000000 0.000000 0.000000
# 4 0.000000 0.000000 0.000000 0.032217 0.000000 0.000000
# 5 0.000000 0.000000 0.000000 0.000000 0.045605 0.000000
# 6 0.000000 0.000000 0.000000 0.000000 0.000000 0.048474
#
#
# Mechanical properties :
#
#
# Convention : Reuss Voigt Hill
#
# Bulk Modulus (GPa) = 55.65344 61.06428 58.35886
# Shear Modulus (GPa) = 23.18182 24.48013 23.83098
#
# Velocity S-wave (km/s) = 3.73723 3.84046 3.78920
# Velocity P-wave (km/s) = 7.22173 7.51374 7.36918
#
# Compressibility (1/GPa) = 0.01796834
#
# Stress axis : x y z
#
# Youngs Moduli (GPa) = 50.31577 52.94173 83.87928
#
# Poissons Ratio (x) = 0.32883 0.56436
# Poissons Ratio (y) = 0.31252 0.28677
# Poissons Ratio (z) = 0.33854 0.18100
#
# Static dielectric constant tensor:
#      x y z
#    x 3.120100 0.000000 0.000000 
#    y 0.000000 3.213200 0.000000 
#    z 0.000000 0.000000 3.267370 
# 
# 
# High freq. dielectric constant tensor:
#      x y z
#    x 1.614670 0.000000 0.000000 
#    y 0.000000 1.654580 0.000000 
#    z 0.000000 0.000000 1.630070 
# 
# From -- ./inp_files/33312.got.cif
#   From: 2010.03.12/outbox.cif.g09.slc.cpg/sg59_17_cif.got.tgz:33312.got - 2010.04.16 16:29:54.
