data_PCOD8239541
_publ_section_title
;
Structure prediction by ZEFSAII (Michael W. Deem and Ramdas Pophale) SiO2 
 PCOD8239541
Probable space group: P M M N
;
_chemical_formula_sum "Si O2"
_cell_formula_units_Z 48
_cell_length_a 22.923860
_cell_length_b 13.042379
_cell_length_c 10.216977
_cell_angle_alpha 90.000000
_cell_angle_beta 90.000000
_cell_angle_gamma 90.000000
_cell_volume 3054.688848
_symmetry_space_group_name_H-M "P M M N"
_symmetry_group_IT_number 59
_space_group.IT_coordinate_system_code '2'
_symmetry_cell_setting 'orthorhombic'
loop_
_space_group_symop_operation_xyz
x,y,z
1/2-x,1/2-y,z
1/2+x,-y,-z
-x,1/2+y,-z
-x,-y,-z
1/2+x,1/2+y,-z
1/2-x,y,z
x,1/2-y,z
loop_
_atom_site_type_symbol
_atom_site_label
_atom_site_fract_x
_atom_site_fract_y
_atom_site_fract_z
Si Si1 0.008199 0.366426 0.632804
Si Si2 0.814991 0.630352 0.025827
Si Si3 0.815623 0.869653 0.723360
Si Si4 0.930907 0.555734 0.619016
Si Si5 0.569387 0.558894 0.114214
Si Si6 0.503144 0.634164 0.864628
O O1 0.987513 0.250000 0.612078
O O2 0.054059 0.399998 0.522702
O O3 0.040797 0.375580 0.770653
O O4 0.950421 0.437008 0.629159
O O5 0.750000 0.603496 0.075599
O O6 0.827921 0.750000 0.042900
O O7 0.821351 0.599161 0.874571
O O8 0.860495 0.567348 0.115139
O O9 0.750000 0.893694 0.673660
O O10 0.829949 0.750000 0.704550
O O11 0.861331 0.936626 0.639531
O O12 0.964383 0.623077 0.726735
O O13 0.553070 0.439348 0.127631
O O14 0.548559 0.605961 0.977351
O O15 0.480656 0.750000 0.880283
#
# Coordination Sequence:
#
# PCOD8239541 Si02
#       6
#     8   8   8   8   8   8
#     4  10  20  31  45  68  97 122 145 184 233 271
#     4   9  16  27  45  66  89 118 149 184 226 270
#     4   9  16  27  46  68  88 115 152 190 221 257
#     4  10  19  31  48  68  91 123 154 183 223 268
#     4  10  19  29  44  68  92 116 146 184 228 266
#     4  10  18  29  47  66  87 118 153 185 217 263
#
# _framework density 15.713549
#
# number of rings (size 3 to 8) (size 9 to 14) (size 15 to 20)
#    0.000    2.333    1.667    4.000    0.000    0.000 
#    0.000    0.833    0.000    4.000    0.000    2.333 
#    0.000    8.000    0.000    0.000    0.000    0.000 
#
# Total GULP energy -595197.710552 kJ/mol
# GULP energy per Si atom -12399.952303 kJ/mol
# Density = 1.567778 g / cm^3
# Si number density = 15.713549 Si / 1000 Ang^3
#
#
#
# Elastic Constant Matrix: (Units=GPa)
#
#
# Indices 1 2 3 4 5 6 
#
# 1 121.5972 48.3269 14.8264 0.0000 0.0000 0.0000
# 2 48.3269 99.3634 10.9512 0.0000 0.0000 0.0000
# 3 14.8264 10.9512 31.8742 0.0000 0.0000 0.0000
# 4 0.0000 0.0000 0.0000 14.4549 0.0000 0.0000
# 5 0.0000 0.0000 0.0000 0.0000 20.8842 0.0000
# 6 0.0000 0.0000 0.0000 0.0000 0.0000 21.5449
#
#
#
# Elastic Compliance Matrix: (Units=1/GPa)
#
#
# Indices 1 2 3 4 5 6 
#
# 1 0.010510 -0.004753 -0.003256 0.000000 0.000000 0.000000
# 2 -0.004753 0.012609 -0.002122 0.000000 0.000000 0.000000
# 3 -0.003256 -0.002122 0.033617 0.000000 0.000000 0.000000
# 4 0.000000 0.000000 0.000000 0.069181 0.000000 0.000000
# 5 0.000000 0.000000 0.000000 0.000000 0.047883 0.000000
# 6 0.000000 0.000000 0.000000 0.000000 0.000000 0.046415
#
#
# Mechanical properties :
#
#
# Convention : Reuss Voigt Hill
#
# Bulk Modulus (GPa) = 27.41542 44.56043 35.98793
# Shear Modulus (GPa) = 19.79152 23.29212 21.54182
#
# Velocity S-wave (km/s) = 3.55282 3.85424 3.70659
# Velocity P-wave (km/s) = 5.85789 6.94452 6.42422
#
# Compressibility (1/GPa) = 0.03647582
#
# Stress axis : x y z
#
# Youngs Moduli (GPa) = 95.14966 79.30546 29.74717
#
# Poissons Ratio (x) = 0.37692 0.09685
# Poissons Ratio (y) = 0.45222 0.06311
# Poissons Ratio (z) = 0.30978 0.16825
#
# Static dielectric constant tensor:
#      x y z
#    x 2.981800 0.000000 0.000000 
#    y 0.000000 2.946220 0.000000 
#    z 0.000000 0.000000 2.985960 
# 
# 
# High freq. dielectric constant tensor:
#      x y z
#    x 1.591090 0.000000 0.000000 
#    y 0.000000 1.586230 0.000000 
#    z 0.000000 0.000000 1.602660 
# 
# From -- ./inp_files/17273.got.cif
#   From: 2010.03.12/outbox.cif.g09.slc.cpg/sg59_9_cif.got.tgz:17273.got - 2010.04.16 16:29:54.
