data_PCOD8239580
_publ_section_title
;
Structure prediction by ZEFSAII (Michael W. Deem and Ramdas Pophale) SiO2 
 PCOD8239580
Probable space group: P M M N
;
_chemical_formula_sum "Si O2"
_cell_formula_units_Z 56
_cell_length_a 13.992583
_cell_length_b 13.767244
_cell_length_c 15.933876
_cell_angle_alpha 90.000000
_cell_angle_beta 90.000000
_cell_angle_gamma 90.000000
_cell_volume 3069.490788
_symmetry_space_group_name_H-M "P M M N"
_symmetry_group_IT_number 59
_space_group.IT_coordinate_system_code '2'
_symmetry_cell_setting 'orthorhombic'
loop_
_space_group_symop_operation_xyz
x,y,z
1/2-x,1/2-y,z
1/2+x,-y,-z
-x,1/2+y,-z
-x,-y,-z
1/2+x,1/2+y,-z
1/2-x,y,z
x,1/2-y,z
loop_
_atom_site_type_symbol
_atom_site_label
_atom_site_fract_x
_atom_site_fract_y
_atom_site_fract_z
Si Si1 0.859116 0.456408 0.165581
Si Si2 0.527473 0.361935 0.503460
Si Si3 0.639854 0.639771 0.744239
Si Si4 0.358108 0.860133 0.664885
Si Si5 0.859437 0.641034 0.068793
Si Si6 0.968501 0.635738 0.906781
Si Si7 0.137544 0.468819 0.427805
O O1 0.750000 0.423666 0.151231
O O2 0.890801 0.431474 0.260386
O O3 0.873149 0.571608 0.149582
O O4 0.921516 0.396877 0.098090
O O5 0.527593 0.250000 0.532145
O O6 0.573027 0.378115 0.412331
O O7 0.591762 0.422932 0.569274
O O8 0.418759 0.402290 0.496567
O O9 0.750000 0.640316 0.768807
O O10 0.605514 0.750000 0.722896
O O11 0.584733 0.594865 0.823975
O O12 0.619776 0.572738 0.664513
O O13 0.250000 0.882591 0.635865
O O14 0.366970 0.750000 0.698482
O O15 0.750000 0.641187 0.038466
O O16 0.891849 0.750000 0.094387
O O17 0.921410 0.596678 0.992400
O O18 0.957370 0.750000 0.907732
O O19 0.250000 0.469698 0.450818
#
# Coordination Sequence:
#
# PCOD8239580 Si02
#       7
#     8   8   8   8   8   8   8
#     4  10  19  29  44  68  96 123 151 188 232 275
#     4  10  20  34  52  73  98 129 163 198 239 287
#     4   9  17  30  50  75  99 122 151 192 241 284
#     4   9  17  30  49  72  95 119 152 194 236 279
#     4   9  18  32  48  66  89 119 156 193 227 269
#     4  10  18  29  48  71  94 120 151 189 233 279
#     4  10  20  32  49  75 102 127 158 199 244 287
#
# _framework density 18.244069
#
# number of rings (size 3 to 8) (size 9 to 14) (size 15 to 20)
#    0.000    2.429    0.000    3.000    0.000    6.571 
#    0.000    0.000    0.000    8.571    0.000   10.000 
#    0.000    9.143    0.000    0.000    0.000    0.000 
#
# Total GULP energy -694256.968145 kJ/mol
# GULP energy per Si atom -12397.445860 kJ/mol
# Density = 1.820254 g / cm^3
# Si number density = 18.244069 Si / 1000 Ang^3
#
#
#
# Elastic Constant Matrix: (Units=GPa)
#
#
# Indices 1 2 3 4 5 6 
#
# 1 60.2617 25.0815 15.5155 0.0000 0.0000 0.0000
# 2 25.0815 87.6567 43.8469 0.0000 0.0000 0.0000
# 3 15.5155 43.8469 61.8630 0.0000 0.0000 0.0000
# 4 0.0000 0.0000 0.0000 27.8756 0.0000 0.0000
# 5 0.0000 0.0000 0.0000 0.0000 21.7885 0.0000
# 6 0.0000 0.0000 0.0000 0.0000 0.0000 22.0177
#
#
#
# Elastic Compliance Matrix: (Units=1/GPa)
#
#
# Indices 1 2 3 4 5 6 
#
# 1 0.018916 -0.004709 -0.001407 0.000000 0.000000 0.000000
# 2 -0.004709 0.018847 -0.012177 0.000000 0.000000 0.000000
# 3 -0.001407 -0.012177 0.025148 0.000000 0.000000 0.000000
# 4 0.000000 0.000000 0.000000 0.035874 0.000000 0.000000
# 5 0.000000 0.000000 0.000000 0.000000 0.045896 0.000000
# 6 0.000000 0.000000 0.000000 0.000000 0.000000 0.045418
#
#
# Mechanical properties :
#
#
# Convention : Reuss Voigt Hill
#
# Bulk Modulus (GPa) = 37.98530 42.07437 40.02983
# Shear Modulus (GPa) = 21.23511 22.69220 21.96366
#
# Velocity S-wave (km/s) = 3.41537 3.53060 3.47346
# Velocity P-wave (km/s) = 6.03480 6.30335 6.17053
#
# Compressibility (1/GPa) = 0.02632598
#
# Stress axis : x y z
#
# Youngs Moduli (GPa) = 52.86423 53.06008 39.76423
#
# Poissons Ratio (x) = 0.24986 0.05594
# Poissons Ratio (y) = 0.24894 0.48421
# Poissons Ratio (z) = 0.07437 0.64611
#
# Static dielectric constant tensor:
#      x y z
#    x 3.582140 0.000000 0.000000 
#    y 0.000000 3.380860 0.000000 
#    z 0.000000 0.000000 3.210750 
# 
# 
# High freq. dielectric constant tensor:
#      x y z
#    x 1.722790 0.000000 0.000000 
#    y 0.000000 1.693910 0.000000 
#    z 0.000000 0.000000 1.682950 
# 
# From -- ./inp_files/27694.got.cif
#   From: 2010.03.12/outbox.cif.g09.slc.cpg/sg59_14_cif.got.tgz:27694.got - 2010.04.16 16:29:54.
