data_PCOD8239700
_publ_section_title
;
Structure prediction by ZEFSAII (Michael W. Deem and Ramdas Pophale) SiO2 
 PCOD8239700
Probable space group: P M M N
;
_chemical_formula_sum "Si O2"
_cell_formula_units_Z 64
_cell_length_a 18.315745
_cell_length_b 8.983807
_cell_length_c 21.956579
_cell_angle_alpha 90.000000
_cell_angle_beta 90.000000
_cell_angle_gamma 90.000000
_cell_volume 3612.847886
_symmetry_space_group_name_H-M "P M M N"
_symmetry_group_IT_number 59
_space_group.IT_coordinate_system_code '2'
_symmetry_cell_setting 'orthorhombic'
loop_
_space_group_symop_operation_xyz
x,y,z
1/2-x,1/2-y,z
1/2+x,-y,-z
-x,1/2+y,-z
-x,-y,-z
1/2+x,1/2+y,-z
1/2-x,y,z
x,1/2-y,z
loop_
_atom_site_type_symbol
_atom_site_label
_atom_site_fract_x
_atom_site_fract_y
_atom_site_fract_z
Si Si1 0.452140 0.073501 0.817120
Si Si2 0.168653 0.072687 0.729693
Si Si3 0.420836 0.926929 0.379569
Si Si4 0.913519 0.926791 0.391046
Si Si5 0.334070 0.573984 0.496329
Si Si6 0.096016 0.572978 0.246674
Si Si7 0.830245 0.427096 0.872950
Si Si8 0.524718 0.426372 0.938144
O O1 0.453704 0.250000 0.816207
O O2 0.375365 0.015378 0.789632
O O3 0.516206 0.015092 0.773136
O O4 0.466950 0.020596 0.886337
O O5 0.250000 0.004732 0.732425
O O6 0.171668 0.250000 0.729208
O O7 0.128357 0.016090 0.669033
O O8 0.421447 0.750000 0.378491
O O9 0.503340 0.984731 0.388967
O O10 0.369590 0.985795 0.433625
O O11 0.388468 0.987319 0.314968
O O12 0.909954 0.750000 0.396206
O O13 0.874658 0.996249 0.448747
O O14 0.250000 0.525828 0.496482
O O15 0.343450 0.750000 0.502614
O O16 0.096718 0.750000 0.247457
O O17 0.154095 0.515860 0.196230
O O18 0.750000 0.486850 0.893074
O O19 0.831219 0.250000 0.872777
O O20 0.893687 0.482002 0.919128
O O21 0.523899 0.250000 0.946065
O O22 0.500000 0.500000 0.000000
#
# Coordination Sequence:
#
# PCOD8239700 Si02
#       8
#     8   8   8   8   8   8   8   8
#     4   8  13  24  40  61  87 111 137 174 218 259
#     4   9  15  23  40  66  89 108 138 184 229 261
#     4   9  16  27  44  65  88 115 146 185 229 270
#     4  10  18  30  49  68  85 111 152 192 225 266
#     4  10  21  33  42  59  91 124 149 179 225 275
#     4   8  12  21  39  62  86 110 137 176 225 266
#     4   8  14  24  41  67  94 118 148 187 226 262
#     4   9  17  29  47  68  92 123 154 182 216 261
#
# _framework density 17.714556999999999
#
# number of rings (size 3 to 8) (size 9 to 14) (size 15 to 20)
#    0.000    3.125    1.250    2.250    0.000    1.250 
#    0.000    3.125    0.000    1.875    0.000    0.875 
#    0.000    0.000    0.000    0.000    0.000    0.000 
#
# Total GULP energy -792988.219187 kJ/mol
# GULP energy per Si atom -12390.440925 kJ/mol
# Density = 1.767424 g / cm^3
# Si number density = 17.714557 Si / 1000 Ang^3
#
#
#
# Elastic Constant Matrix: (Units=GPa)
#
#
# Indices 1 2 3 4 5 6 
#
# 1 109.2361 9.4710 73.3226 0.0000 0.0000 0.0000
# 2 9.4710 7.9679 17.0481 0.0000 0.0000 0.0000
# 3 73.3226 17.0481 167.6330 0.0000 0.0000 0.0000
# 4 0.0000 0.0000 0.0000 22.1474 0.0000 0.0000
# 5 0.0000 0.0000 0.0000 0.0000 26.0985 0.0000
# 6 0.0000 0.0000 0.0000 0.0000 0.0000 11.3049
#
#
#
# Elastic Compliance Matrix: (Units=1/GPa)
#
#
# Indices 1 2 3 4 5 6 
#
# 1 0.013069 -0.004223 -0.005287 0.000000 0.000000 0.000000
# 2 -0.004223 0.161771 -0.014605 0.000000 0.000000 0.000000
# 3 -0.005287 -0.014605 0.009763 0.000000 0.000000 0.000000
# 4 0.000000 0.000000 0.000000 0.045152 0.000000 0.000000
# 5 0.000000 0.000000 0.000000 0.000000 0.038316 0.000000
# 6 0.000000 0.000000 0.000000 0.000000 0.000000 0.088457
#
#
# Mechanical properties :
#
#
# Convention : Reuss Voigt Hill
#
# Bulk Modulus (GPa) = 7.33277 53.83561 30.58419
# Shear Modulus (GPa) = 11.10577 24.24317 17.67447
#
# Velocity S-wave (km/s) = 2.50657 3.70340 3.16212
# Velocity P-wave (km/s) = 3.53915 6.98165 5.53485
#
# Compressibility (1/GPa) = 0.13637406
#
# Stress axis : x y z
#
# Youngs Moduli (GPa) = 76.51409 6.18159 102.42426
#
# Poissons Ratio (x) = 0.02610 0.54153
# Poissons Ratio (y) = 0.32309 1.49590
# Poissons Ratio (z) = 0.40454 0.09028
#
# Static dielectric constant tensor:
#      x y z
#    x 3.670440 0.000000 0.000000 
#    y 0.000000 2.612310 0.000000 
#    z 0.000000 0.000000 3.520840 
# 
# 
# High freq. dielectric constant tensor:
#      x y z
#    x 1.690860 0.000000 0.000000 
#    y 0.000000 1.611300 0.000000 
#    z 0.000000 0.000000 1.692670 
# 
# From -- ./inp_files/27942.got.cif
#   From: 2010.03.12/outbox.cif.g09.slc.cpg/sg59_14_cif.got.tgz:27942.got - 2010.04.16 16:29:54.
