data_PCOD8239136
_publ_section_title
;
Structure prediction by ZEFSAII (Michael W. Deem and Ramdas Pophale) SiO2 
 PCOD8239136
Probable space group: P M M N
;
_chemical_formula_sum "Si O2"
_cell_formula_units_Z 64
_cell_length_a 18.459021
_cell_length_b 14.179188
_cell_length_c 15.562169
_cell_angle_alpha 90.000000
_cell_angle_beta 90.000000
_cell_angle_gamma 90.000000
_cell_volume 4073.147637
_symmetry_space_group_name_H-M "P M M N"
_symmetry_group_IT_number 59
_space_group.IT_coordinate_system_code '2'
_symmetry_cell_setting 'orthorhombic'
loop_
_space_group_symop_operation_xyz
x,y,z
1/2-x,1/2-y,z
1/2+x,-y,-z
-x,1/2+y,-z
-x,-y,-z
1/2+x,1/2+y,-z
1/2-x,y,z
x,1/2-y,z
loop_
_atom_site_type_symbol
_atom_site_label
_atom_site_fract_x
_atom_site_fract_y
_atom_site_fract_z
Si Si1 0.336129 0.025153 0.280879
Si Si2 0.335898 0.144612 0.118508
Si Si3 0.586394 0.357627 0.793169
Si Si4 0.667426 0.355451 0.968089
Si Si5 0.169595 0.138098 0.628964
Si Si6 0.836080 0.855123 0.559335
Si Si7 0.417802 0.139700 0.792975
Si Si8 0.834039 0.956615 0.054845
O O1 0.250000 0.013976 0.280816
O O2 0.372191 0.922248 0.275698
O O3 0.364315 0.086455 0.200214
O O4 0.365182 0.074674 0.367467
O O5 0.250000 0.148513 0.121866
O O6 0.368588 0.250000 0.121964
O O7 0.361734 0.095117 0.031146
O O8 0.600244 0.250000 0.765266
O O9 0.615859 0.377091 0.888337
O O10 0.502154 0.382452 0.792626
O O11 0.750000 0.367004 0.934641
O O12 0.653856 0.250000 0.004754
O O13 0.652850 0.431016 0.043382
O O14 0.250000 0.097035 0.648348
O O15 0.174335 0.250000 0.626316
O O16 0.141381 0.104843 0.534827
O O17 0.114544 0.104197 0.702301
O O18 0.750000 0.848753 0.564291
O O19 0.868148 0.750000 0.575167
O O20 0.401324 0.250000 0.809104
O O21 0.381140 0.078811 0.866728
O O22 0.750000 0.933469 0.072991
#
# Coordination Sequence:
#
# PCOD8239136 Si02
#       8
#     8   8   8   8   8   8   8   8
#     4  10  17  28  45  65  87 115 148 183 221 260
#     4   9  16  25  39  63  93 115 134 167 217 273
#     4  10  20  32  44  61  87 120 157 188 219 255
#     4   9  17  31  48  63  83 114 154 194 221 249
#     4   8  14  27  46  67  90 116 144 175 214 263
#     4   8  14  25  45  71  93 112 139 176 219 268
#     4  10  20  31  44  64  93 122 147 182 223 263
#     4  10  18  29  47  69  87 113 148 180 221 268
#
# _framework density 15.712664
#
# number of rings (size 3 to 8) (size 9 to 14) (size 15 to 20)
#    0.000    2.750    1.250    2.250    0.000    4.000 
#    0.000    0.625    0.000    0.750    0.000    0.875 
#    0.000    3.000    0.000    0.000    0.000    0.000 
#
# Total GULP energy -793403.140949 kJ/mol
# GULP energy per Si atom -12396.924077 kJ/mol
# Density = 1.567690 g / cm^3
# Si number density = 15.712664 Si / 1000 Ang^3
#
#
#
# Elastic Constant Matrix: (Units=GPa)
#
#
# Indices 1 2 3 4 5 6 
#
# 1 55.5990 40.4973 46.0795 0.0000 0.0000 0.0000
# 2 40.4973 94.1731 59.2584 0.0000 0.0000 0.0000
# 3 46.0795 59.2584 128.4867 0.0000 0.0000 0.0000
# 4 0.0000 0.0000 0.0000 15.4785 0.0000 0.0000
# 5 0.0000 0.0000 0.0000 0.0000 15.1730 0.0000
# 6 0.0000 0.0000 0.0000 0.0000 0.0000 14.9037
#
#
#
# Elastic Compliance Matrix: (Units=1/GPa)
#
#
# Indices 1 2 3 4 5 6 
#
# 1 0.029822 -0.008586 -0.006735 0.000000 0.000000 0.000000
# 2 -0.008586 0.017433 -0.004961 0.000000 0.000000 0.000000
# 3 -0.006735 -0.004961 0.012486 0.000000 0.000000 0.000000
# 4 0.000000 0.000000 0.000000 0.064606 0.000000 0.000000
# 5 0.000000 0.000000 0.000000 0.000000 0.065906 0.000000
# 6 0.000000 0.000000 0.000000 0.000000 0.000000 0.067097
#
#
# Mechanical properties :
#
#
# Convention : Reuss Voigt Hill
#
# Bulk Modulus (GPa) = 52.14665 63.32547 57.73606
# Shear Modulus (GPa) = 16.43081 17.93929 17.18505
#
# Velocity S-wave (km/s) = 3.23724 3.38258 3.31071
# Velocity P-wave (km/s) = 6.87261 7.45959 7.17211
#
# Compressibility (1/GPa) = 0.01917669
#
# Stress axis : x y z
#
# Youngs Moduli (GPa) = 33.53238 57.36387 80.08847
#
# Poissons Ratio (x) = 0.49254 0.53940
# Poissons Ratio (y) = 0.28792 0.39729
# Poissons Ratio (z) = 0.22584 0.28456
#
# Static dielectric constant tensor:
#      x y z
#    x 2.790250 0.000000 0.000000 
#    y 0.000000 3.079550 0.000000 
#    z 0.000000 0.000000 3.115240 
# 
# 
# High freq. dielectric constant tensor:
#      x y z
#    x 1.572150 0.000000 0.000000 
#    y 0.000000 1.594290 0.000000 
#    z 0.000000 0.000000 1.595380 
# 
# From -- ./inp_files/24027.got.cif
#   From: 2010.03.12/outbox.cif.g09.slc.cpg/sg59_13_cif.got.tgz:24027.got - 2010.04.16 16:29:54.
