data_PCOD8239652
_publ_section_title
;
Structure prediction by ZEFSAII (Michael W. Deem and Ramdas Pophale) SiO2 
 PCOD8239652
Probable space group: P M M N
;
_chemical_formula_sum "Si O2"
_cell_formula_units_Z 64
_cell_length_a 8.624517
_cell_length_b 28.883395
_cell_length_c 15.588669
_cell_angle_alpha 90.000000
_cell_angle_beta 90.000000
_cell_angle_gamma 90.000000
_cell_volume 3883.220554
_symmetry_space_group_name_H-M "P M M N"
_symmetry_group_IT_number 59
_space_group.IT_coordinate_system_code '2'
_symmetry_cell_setting 'orthorhombic'
loop_
_space_group_symop_operation_xyz
x,y,z
1/2-x,1/2-y,z
1/2+x,-y,-z
-x,1/2+y,-z
-x,-y,-z
1/2+x,1/2+y,-z
1/2-x,y,z
x,1/2-y,z
loop_
_atom_site_type_symbol
_atom_site_label
_atom_site_fract_x
_atom_site_fract_y
_atom_site_fract_z
Si Si1 0.567689 0.449140 0.673969
Si Si2 0.566260 0.800636 0.904105
Si Si3 0.567734 0.550662 0.999999
Si Si4 0.566347 0.895384 0.169280
Si Si5 0.066260 0.300636 0.904104
Si Si6 0.933654 0.895384 0.830720
Si Si7 0.566226 0.551333 0.500000
Si Si8 0.567689 0.050861 0.326032
O O1 0.750000 0.454117 0.663676
O O2 0.526568 0.415283 0.751011
O O3 0.497419 0.425618 0.587464
O O4 0.500001 0.500001 0.692306
O O5 0.750000 0.802705 0.910995
O O6 0.512935 0.750000 0.868730
O O7 0.512371 0.841837 0.841317
O O8 0.498489 0.808159 0.000001
O O9 0.750000 0.546990 0.999998
O O10 0.511846 0.577601 0.084379
O O11 0.500000 0.500000 0.000000
O O12 0.511843 0.577600 0.915620
O O13 0.750000 0.900324 0.184853
O O14 0.512370 0.841837 0.158684
O O15 0.250000 0.302705 0.910993
O O16 0.012935 0.250000 0.868729
O O17 0.750000 0.900324 0.815147
O O18 0.026567 0.915282 0.751009
O O19 0.500000 0.500000 0.500000
O O20 0.750000 0.552113 0.500001
O O21 0.502578 0.574383 0.587462
O O22 0.750000 0.045883 0.336322
#
# Coordination Sequence:
#
# PCOD8239652 Si02
#       8
#     8   8   8   8   8   8   8   8
#     4  11  21  33  48  69  96 127 160 195 234 280
#     4   8  13  24  45  70  93 119 155 201 245 280
#     4  10  20  30  41  59  89 127 162 196 229 268
#     4  10  18  30  46  68  95 125 161 198 236 279
#     4   8  13  24  45  70  93 119 155 201 245 280
#     4  10  18  30  46  68  95 125 161 198 236 279
#     4  10  18  32  52  72  93 120 153 194 238 279
#     4  11  21  33  48  69  96 127 160 195 234 280
#
# _framework density 16.481166000000002
#
# number of rings (size 3 to 8) (size 9 to 14) (size 15 to 20)
#    0.000    2.250    1.250    6.375    0.000    3.000 
#    0.000    0.000    0.000    0.750    0.000    2.625 
#    0.000    7.000    0.000    0.000    0.000    0.000 
#
# Total GULP energy -793236.001324 kJ/mol
# GULP energy per Si atom -12394.312521 kJ/mol
# Density = 1.644365 g / cm^3
# Si number density = 16.481166 Si / 1000 Ang^3
#
#
#
# Elastic Constant Matrix: (Units=GPa)
#
#
# Indices 1 2 3 4 5 6 
#
# 1 81.7000 32.2561 45.5298 0.0000 0.0000 0.0000
# 2 32.2561 119.7504 62.0463 0.0000 0.0000 0.0000
# 3 45.5298 62.0463 134.3164 0.0000 0.0000 0.0000
# 4 0.0000 0.0000 0.0000 6.0150 0.0000 0.0000
# 5 0.0000 0.0000 0.0000 0.0000 25.1078 0.0000
# 6 0.0000 0.0000 0.0000 0.0000 0.0000 15.2032
#
#
#
# Elastic Compliance Matrix: (Units=1/GPa)
#
#
# Indices 1 2 3 4 5 6 
#
# 1 0.015412 -0.001899 -0.004347 0.000000 0.000000 0.000000
# 2 -0.001899 0.011212 -0.004536 0.000000 0.000000 0.000000
# 3 -0.004347 -0.004536 0.011014 0.000000 0.000000 0.000000
# 4 0.000000 0.000000 0.000000 0.166252 0.000000 0.000000
# 5 0.000000 0.000000 0.000000 0.000000 0.039828 0.000000
# 6 0.000000 0.000000 0.000000 0.000000 0.000000 0.065776
#
#
# Mechanical properties :
#
#
# Convention : Reuss Voigt Hill
#
# Bulk Modulus (GPa) = 62.20958 68.38123 65.29540
# Shear Modulus (GPa) = 14.86254 22.32750 18.59502
#
# Velocity S-wave (km/s) = 3.00624 3.68466 3.36260
# Velocity P-wave (km/s) = 7.06242 7.72547 7.40137
#
# Compressibility (1/GPa) = 0.01607470
#
# Stress axis : x y z
#
# Youngs Moduli (GPa) = 64.88359 89.18758 90.79457
#
# Poissons Ratio (x) = 0.16938 0.39469
# Poissons Ratio (y) = 0.12322 0.41182
# Poissons Ratio (z) = 0.28205 0.40453
#
# Static dielectric constant tensor:
#      x y z
#    x 2.901830 0.000000 0.000000 
#    y 0.000000 3.212060 0.000000 
#    z 0.000000 0.000000 3.509410 
# 
# 
# High freq. dielectric constant tensor:
#      x y z
#    x 1.618740 0.000000 0.000000 
#    y 0.000000 1.616700 0.000000 
#    z 0.000000 0.000000 1.629620 
# 
# From -- ./inp_files/21884.got.cif
#   From: 2010.03.12/outbox.cif.g09.slc.cpg/sg59_11_cif.got.tgz:21884.got - 2010.04.16 16:29:54.
