data_PCOD8239183
_publ_section_title
;
Structure prediction by ZEFSAII (Michael W. Deem and Ramdas Pophale) SiO2 
 PCOD8239183
Probable space group: P M M N
;
_chemical_formula_sum "Si O2"
_cell_formula_units_Z 36
_cell_length_a 13.156091
_cell_length_b 14.590963
_cell_length_c 7.925493
_cell_angle_alpha 90.000000
_cell_angle_beta 90.000000
_cell_angle_gamma 90.000000
_cell_volume 1521.377930
_symmetry_space_group_name_H-M "P M M N"
_symmetry_group_IT_number 59
_space_group.IT_coordinate_system_code '2'
_symmetry_cell_setting 'orthorhombic'
loop_
_space_group_symop_operation_xyz
x,y,z
1/2-x,1/2-y,z
1/2+x,-y,-z
-x,1/2+y,-z
-x,-y,-z
1/2+x,1/2+y,-z
1/2-x,y,z
x,1/2-y,z
loop_
_atom_site_type_symbol
_atom_site_label
_atom_site_fract_x
_atom_site_fract_y
_atom_site_fract_z
Si Si1 0.871043 0.940640 0.617024
Si Si2 0.634026 0.250000 0.053977
Si Si3 0.944274 0.750000 0.746016
Si Si4 0.129040 0.057825 0.755845
Si Si5 0.868333 0.750000 0.122687
Si Si6 0.630734 0.444981 0.929986
O O1 0.750000 0.934122 0.630099
O O2 0.914650 0.839207 0.641072
O O3 0.904283 0.976019 0.430753
O O4 0.915372 0.011679 0.757248
O O5 0.750000 0.250000 0.117860
O O6 0.565806 0.250000 0.222012
O O7 0.607918 0.336960 0.936704
O O8 0.886640 0.750000 0.923675
O O9 0.250000 0.057683 0.768424
O O10 0.084438 0.159182 0.792354
O O11 0.083098 0.992286 0.902215
O O12 0.750000 0.750000 0.157857
O O13 0.750000 0.464420 0.928969
#
# Coordination Sequence:
#
# PCOD8239183 Si02
#       6
#     8   4   4   8   4   8
#     4  10  19  33  59  94 123 144 176 226 291 359
#     4  10  24  43  60  76 105 157 210 247 275 315
#     4  12  21  33  59  87 118 154 184 228 291 344
#     4   9  17  31  56  87 121 152 173 215 284 352
#     4  10  17  30  53  89 125 147 170 213 288 365
#     4   9  18  37  60  79 110 154 195 235 279 328
#
# _framework density 23.662758
#
# number of rings (size 3 to 8) (size 9 to 14) (size 15 to 20)
#    0.000    2.222    2.222    1.667    0.000    2.667 
#    0.000    2.222    4.889    6.667    0.000    0.000 
#    0.000    0.000    0.000    0.000    0.000    0.000 
#
# Total GULP energy -446381.855279 kJ/mol
# GULP energy per Si atom -12399.495980 kJ/mol
# Density = 2.360890 g / cm^3
# Si number density = 23.662758 Si / 1000 Ang^3
#
#
#
# Elastic Constant Matrix: (Units=GPa)
#
#
# Indices 1 2 3 4 5 6 
#
# 1 45.3190 0.2514 32.9802 0.0000 0.0000 0.0000
# 2 0.2514 189.0096 101.7442 0.0000 0.0000 0.0000
# 3 32.9802 101.7442 213.8094 0.0000 0.0000 0.0000
# 4 0.0000 0.0000 0.0000 49.9050 0.0000 0.0000
# 5 0.0000 0.0000 0.0000 0.0000 31.7799 0.0000
# 6 0.0000 0.0000 0.0000 0.0000 0.0000 -12.2768
#
#
#
# Elastic Compliance Matrix: (Units=1/GPa)
#
#
# Indices 1 2 3 4 5 6 
#
# 1 0.025950 0.002850 -0.005359 0.000000 0.000000 0.000000
# 2 0.002850 0.007426 -0.003973 0.000000 0.000000 0.000000
# 3 -0.005359 -0.003973 0.007394 0.000000 0.000000 0.000000
# 4 0.000000 0.000000 0.000000 0.020038 0.000000 0.000000
# 5 0.000000 0.000000 0.000000 0.000000 0.031466 0.000000
# 6 0.000000 0.000000 0.000000 0.000000 0.000000 -0.081454
#
#
# Mechanical properties :
#
#
# Convention : Reuss Voigt Hill
#
# Bulk Modulus (GPa) = 35.96346 79.78772 57.87559
# Shear Modulus (GPa) = 151.27017 34.75910 93.01464
#
# Velocity S-wave (km/s) = 8.00414 3.83683 6.27645
# Velocity P-wave (km/s) = 10.03260 7.30891 8.77705
#
# Compressibility (1/GPa) = 0.02780600
#
# Stress axis : x y z
#
# Youngs Moduli (GPa) = 38.53553 134.66562 135.23587
#
# Poissons Ratio (x) = -0.38384 0.72475
# Poissons Ratio (y) = -0.10984 0.53734
# Poissons Ratio (z) = 0.20652 0.53507
#
# Static dielectric constant tensor:
#      x y z
#    x 4.201030 0.000000 0.000000 
#    y 0.000000 4.331930 0.000000 
#    z 0.000000 0.000000 4.430170 
# 
# 
# High freq. dielectric constant tensor:
#      x y z
#    x 1.954220 0.000000 0.000000 
#    y 0.000000 1.934140 0.000000 
#    z 0.000000 0.000000 1.930820 
# 
# From -- ./inp_files/8528.got.cif
#   From: 2010.03.12/outbox.cif.g09.slc.cpg/sg59_5_cif.got.tgz:8528.got - 2010.04.16 16:29:54.
