data_PCOD8239886
_publ_section_title
;
Structure prediction by ZEFSAII (Michael W. Deem and Ramdas Pophale) SiO2 
 PCOD8239886
Probable space group: P M M N
;
_chemical_formula_sum "Si O2"
_cell_formula_units_Z 48
_cell_length_a 8.800226
_cell_length_b 16.607557
_cell_length_c 18.214747
_cell_angle_alpha 90.000000
_cell_angle_beta 90.000000
_cell_angle_gamma 90.000000
_cell_volume 2662.089917
_symmetry_space_group_name_H-M "P M M N"
_symmetry_group_IT_number 59
_space_group.IT_coordinate_system_code '2'
_symmetry_cell_setting 'orthorhombic'
loop_
_space_group_symop_operation_xyz
x,y,z
1/2-x,1/2-y,z
1/2+x,-y,-z
-x,1/2+y,-z
-x,-y,-z
1/2+x,1/2+y,-z
1/2-x,y,z
x,1/2-y,z
loop_
_atom_site_type_symbol
_atom_site_label
_atom_site_fract_x
_atom_site_fract_y
_atom_site_fract_z
Si Si1 0.575611 0.423960 0.963951
Si Si2 0.573966 0.509228 0.820903
Si Si3 0.073642 0.160721 0.084321
Si Si4 0.926391 0.158591 0.578377
Si Si5 0.929160 0.515929 0.332434
Si Si6 0.431110 0.426196 0.455066
O O1 0.750000 0.423479 0.984973
O O2 0.553413 0.432881 0.876130
O O3 0.500000 0.500000 0.000000
O O4 0.501374 0.346303 0.002973
O O5 0.750000 0.516833 0.796457
O O6 0.516542 0.592843 0.858367
O O7 0.466715 0.490944 0.752814
O O8 0.250000 0.146818 0.071564
O O9 0.037645 0.250000 0.115576
O O10 0.750000 0.134341 0.572558
O O11 0.946385 0.250000 0.605895
O O12 0.006311 0.100144 0.636846
O O13 0.003532 0.152014 0.497176
O O14 0.750000 0.514192 0.345415
O O15 0.006016 0.438236 0.372519
O O16 0.500000 0.500000 0.500000
O O17 0.250000 0.424793 0.455024
#
# Coordination Sequence:
#
# PCOD8239886 Si02
#       6
#     8   8   8   8   8   8
#     4   9  17  30  50  73  97 128 165 204 245 295
#     4   9  18  33  51  72 101 136 171 206 250 304
#     4   9  18  33  53  76 102 132 167 210 257 303
#     4  10  20  35  55  77 102 131 165 209 257 302
#     4  11  21  33  52  76 103 135 172 211 251 299
#     4  10  18  31  52  74  99 130 165 202 241 292
#
# _framework density 18.030947000000001
#
# number of rings (size 3 to 8) (size 9 to 14) (size 15 to 20)
#    0.000    2.333    0.000    7.000    0.000    5.000 
#    0.000    1.667    0.000    4.000    0.000    0.000 
#    0.000    0.000    0.000    0.000    0.000    0.000 
#
# Total GULP energy -594805.683426 kJ/mol
# GULP energy per Si atom -12391.785071 kJ/mol
# Density = 1.798991 g / cm^3
# Si number density = 18.030947 Si / 1000 Ang^3
#
#
#
# Elastic Constant Matrix: (Units=GPa)
#
#
# Indices 1 2 3 4 5 6 
#
# 1 126.9831 39.4242 54.5220 0.0000 0.0000 0.0000
# 2 39.4242 80.2452 42.1176 0.0000 0.0000 0.0000
# 3 54.5220 42.1176 108.7900 0.0000 0.0000 0.0000
# 4 0.0000 0.0000 0.0000 20.7214 0.0000 0.0000
# 5 0.0000 0.0000 0.0000 0.0000 33.7390 0.0000
# 6 0.0000 0.0000 0.0000 0.0000 0.0000 23.7918
#
#
#
# Elastic Compliance Matrix: (Units=1/GPa)
#
#
# Indices 1 2 3 4 5 6 
#
# 1 0.010592 -0.003034 -0.004134 0.000000 0.000000 0.000000
# 2 -0.003034 0.016509 -0.004871 0.000000 0.000000 0.000000
# 3 -0.004134 -0.004871 0.013149 0.000000 0.000000 0.000000
# 4 0.000000 0.000000 0.000000 0.048259 0.000000 0.000000
# 5 0.000000 0.000000 0.000000 0.000000 0.029639 0.000000
# 6 0.000000 0.000000 0.000000 0.000000 0.000000 0.042031
#
#
# Mechanical properties :
#
#
# Convention : Reuss Voigt Hill
#
# Bulk Modulus (GPa) = 61.83116 65.34956 63.59036
# Shear Modulus (GPa) = 26.36459 27.64740 27.00600
#
# Velocity S-wave (km/s) = 3.82800 3.92002 3.87429
# Velocity P-wave (km/s) = 7.34195 7.53727 7.44025
#
# Compressibility (1/GPa) = 0.01617308
#
# Stress axis : x y z
#
# Youngs Moduli (GPa) = 94.41155 60.57321 76.04927
#
# Poissons Ratio (x) = 0.18379 0.31436
# Poissons Ratio (y) = 0.28646 0.37042
# Poissons Ratio (z) = 0.39027 0.29504
#
# Static dielectric constant tensor:
#      x y z
#    x 3.526390 0.000000 0.000000 
#    y 0.000000 3.483550 0.000000 
#    z 0.000000 0.000000 3.671080 
# 
# 
# High freq. dielectric constant tensor:
#      x y z
#    x 1.710440 0.000000 0.000000 
#    y 0.000000 1.676080 0.000000 
#    z 0.000000 0.000000 1.689110 
# 
# From -- ./inp_files/25744.got.cif
#   From: 2010.03.12/outbox.cif.g09.slc.cpg/sg59_13_cif.got.tgz:25744.got - 2010.04.16 16:29:54.
