data_PCOD8239823
_publ_section_title
;
Structure prediction by ZEFSAII (Michael W. Deem and Ramdas Pophale) SiO2 
 PCOD8239823
Probable space group: P M M N
;
_chemical_formula_sum "Si O2"
_cell_formula_units_Z 64
_cell_length_a 8.922905
_cell_length_b 28.281978
_cell_length_c 15.506662
_cell_angle_alpha 90.000000
_cell_angle_beta 90.000000
_cell_angle_gamma 90.000000
_cell_volume 3913.220950
_symmetry_space_group_name_H-M "P M M N"
_symmetry_group_IT_number 59
_space_group.IT_coordinate_system_code '2'
_symmetry_cell_setting 'orthorhombic'
loop_
_space_group_symop_operation_xyz
x,y,z
1/2-x,1/2-y,z
1/2+x,-y,-z
-x,1/2+y,-z
-x,-y,-z
1/2+x,1/2+y,-z
1/2-x,y,z
x,1/2-y,z
loop_
_atom_site_type_symbol
_atom_site_label
_atom_site_fract_x
_atom_site_fract_y
_atom_site_fract_z
Si Si1 0.576418 0.054308 0.404080
Si Si2 0.418468 0.193899 0.000430
Si Si3 0.072058 0.197105 0.496452
Si Si4 0.926106 0.304906 0.174156
Si Si5 0.572414 0.859423 0.669691
Si Si6 0.923386 0.646600 0.330130
Si Si7 0.078726 0.051981 0.582307
Si Si8 0.074052 0.804317 0.172611
O O1 0.750000 0.067133 0.395175
O O2 0.483104 0.086559 0.337854
O O3 0.527250 0.063825 0.502164
O O4 0.543914 0.999729 0.379070
O O5 0.250000 0.173653 0.005833
O O6 0.418024 0.250000 0.998729
O O7 0.495860 0.175379 0.913247
O O8 0.512206 0.176388 0.082761
O O9 0.250000 0.197687 0.493767
O O10 0.006021 0.250000 0.492667
O O11 0.011575 0.168430 0.414227
O O12 0.017230 0.172643 0.584093
O O13 0.750000 0.313226 0.176389
O O14 0.967508 0.250000 0.188796
O O15 0.003996 0.335614 0.246763
O O16 0.750000 0.858027 0.677181
O O17 0.750000 0.659171 0.311908
O O18 0.946817 0.590371 0.342512
O O19 0.023432 0.663291 0.251300
O O20 0.250000 0.054853 0.548122
O O21 0.250000 0.808701 0.159248
O O22 0.026887 0.750000 0.190760
#
# Coordination Sequence:
#
# PCOD8239823 Si02
#       8
#     8   8   8   8   8   8   8   8
#     4  10  19  31  49  70  94 122 158 205 255 295
#     4   9  17  31  51  72  93 124 165 202 237 281
#     4   9  17  28  43  63  90 126 165 200 230 267
#     4  10  20  33  49  72 102 131 160 200 247 288
#     4  11  20  32  48  68  97 131 169 203 236 286
#     4  10  18  31  49  68  92 125 166 202 236 283
#     4   9  18  33  50  69  92 122 160 205 251 295
#     4  10  20  32  46  69 101 131 159 197 243 285
#
# _framework density 16.354813
#
# number of rings (size 3 to 8) (size 9 to 14) (size 15 to 20)
#    0.000    2.250    1.250    2.625    0.000    5.000 
#    0.000    0.000    0.000    2.250    0.000    0.875 
#    0.000    0.000    0.000    0.000    0.000    0.000 
#
# Total GULP energy -793675.350155 kJ/mol
# GULP energy per Si atom -12401.177346 kJ/mol
# Density = 1.631759 g / cm^3
# Si number density = 16.354813 Si / 1000 Ang^3
#
#
#
# Elastic Constant Matrix: (Units=GPa)
#
#
# Indices 1 2 3 4 5 6 
#
# 1 72.9001 37.3583 47.4406 0.0000 0.0000 0.0000
# 2 37.3583 91.5605 52.6363 0.0000 0.0000 0.0000
# 3 47.4406 52.6363 123.4173 0.0000 0.0000 0.0000
# 4 0.0000 0.0000 0.0000 10.3236 0.0000 0.0000
# 5 0.0000 0.0000 0.0000 0.0000 28.9803 0.0000
# 6 0.0000 0.0000 0.0000 0.0000 0.0000 22.4743
#
#
#
# Elastic Compliance Matrix: (Units=1/GPa)
#
#
# Indices 1 2 3 4 5 6 
#
# 1 0.019833 -0.004915 -0.005528 0.000000 0.000000 0.000000
# 2 -0.004915 0.015687 -0.004801 0.000000 0.000000 0.000000
# 3 -0.005528 -0.004801 0.012275 0.000000 0.000000 0.000000
# 4 0.000000 0.000000 0.000000 0.096865 0.000000 0.000000
# 5 0.000000 0.000000 0.000000 0.000000 0.034506 0.000000
# 6 0.000000 0.000000 0.000000 0.000000 0.000000 0.044495
#
#
# Mechanical properties :
#
#
# Convention : Reuss Voigt Hill
#
# Bulk Modulus (GPa) = 57.77572 62.52759 60.15166
# Shear Modulus (GPa) = 19.23680 22.38515 20.81097
#
# Velocity S-wave (km/s) = 3.43332 3.70363 3.57104
# Velocity P-wave (km/s) = 7.14983 7.52357 7.33908
#
# Compressibility (1/GPa) = 0.01730831
#
# Stress axis : x y z
#
# Youngs Moduli (GPa) = 50.42080 63.74659 81.46572
#
# Poissons Ratio (x) = 0.31328 0.45032
# Poissons Ratio (y) = 0.24779 0.39114
# Poissons Ratio (z) = 0.27871 0.30607
#
# Static dielectric constant tensor:
#      x y z
#    x 3.087450 0.000000 0.000000 
#    y 0.000000 3.108750 0.000000 
#    z 0.000000 0.000000 3.039240 
# 
# 
# High freq. dielectric constant tensor:
#      x y z
#    x 1.631380 0.000000 0.000000 
#    y 0.000000 1.611110 0.000000 
#    z 0.000000 0.000000 1.617000 
# 
# From -- ./inp_files/21964.got.cif
#   From: 2010.03.12/outbox.cif.g09.slc.cpg/sg59_11_cif.got.tgz:21964.got - 2010.04.16 16:29:54.
