data_PCOD8239440
_publ_section_title
;
Structure prediction by ZEFSAII (Michael W. Deem and Ramdas Pophale) SiO2 
 PCOD8239440
Probable space group: P M M N
;
_chemical_formula_sum "Si O2"
_cell_formula_units_Z 64
_cell_length_a 17.876883
_cell_length_b 9.270984
_cell_length_c 22.852691
_cell_angle_alpha 90.000000
_cell_angle_beta 90.000000
_cell_angle_gamma 90.000000
_cell_volume 3787.520366
_symmetry_space_group_name_H-M "P M M N"
_symmetry_group_IT_number 59
_space_group.IT_coordinate_system_code '2'
_symmetry_cell_setting 'orthorhombic'
loop_
_space_group_symop_operation_xyz
x,y,z
1/2-x,1/2-y,z
1/2+x,-y,-z
-x,1/2+y,-z
-x,-y,-z
1/2+x,1/2+y,-z
1/2-x,y,z
x,1/2-y,z
loop_
_atom_site_type_symbol
_atom_site_label
_atom_site_fract_x
_atom_site_fract_y
_atom_site_fract_z
Si Si1 0.567149 0.415618 0.971181
Si Si2 0.539069 0.918963 0.627553
Si Si3 0.667701 0.919681 0.546043
Si Si4 0.970603 0.586795 0.135270
Si Si5 0.973415 0.084145 0.251690
Si Si6 0.163908 0.080914 0.948468
Si Si7 0.402706 0.078417 0.574548
Si Si8 0.332881 0.585788 0.675621
O O1 0.569740 0.250000 0.992336
O O2 0.547542 0.424083 0.902325
O O3 0.500000 0.500000 0.000000
O O4 0.643958 0.494596 0.991333
O O5 0.520779 0.750000 0.618965
O O6 0.621972 0.958332 0.605040
O O7 0.530455 0.960657 0.695965
O O8 0.482509 0.007988 0.587310
O O9 0.750000 0.991486 0.550597
O O10 0.676696 0.750000 0.539689
O O11 0.624082 0.976032 0.488969
O O12 0.953910 0.750000 0.153229
O O13 0.895368 0.529557 0.101605
O O14 0.990061 0.501618 0.193421
O O15 0.983341 0.250000 0.235634
O O16 0.889455 0.047153 0.272349
O O17 0.250000 0.046429 0.930377
O O18 0.153060 0.250000 0.961085
O O19 0.409006 0.250000 0.578898
O O20 0.342535 0.021699 0.621376
O O21 0.250000 0.567082 0.701343
O O22 0.347899 0.750000 0.654237
#
# Coordination Sequence:
#
# PCOD8239440 Si02
#       8
#     8   8   8   8   8   8   8   8
#     4   9  17  30  48  70  95 124 157 188 222 267
#     4   9  18  33  49  65  90 123 155 189 232 278
#     4   9  17  29  47  70  92 114 145 190 240 284
#     4   9  18  31  47  68  94 125 157 189 227 268
#     4   9  18  30  45  65  87 118 161 198 224 260
#     4   9  18  32  49  72 102 128 150 184 229 273
#     4  10  18  28  46  71  94 116 148 188 229 280
#     4   9  18  32  46  62  91 127 156 186 228 275
#
# _framework density 16.897599
#
# number of rings (size 3 to 8) (size 9 to 14) (size 15 to 20)
#    0.000    2.875    0.000    3.000    0.000    6.000 
#    0.000    0.625    0.000    2.625    0.000    1.750 
#    0.000    0.000    0.000    0.000    0.000    0.000 
#
# Total GULP energy -793111.124951 kJ/mol
# GULP energy per Si atom -12392.361327 kJ/mol
# Density = 1.685914 g / cm^3
# Si number density = 16.897599 Si / 1000 Ang^3
#
#
#
# Elastic Constant Matrix: (Units=GPa)
#
#
# Indices 1 2 3 4 5 6 
#
# 1 75.1829 29.9362 52.9092 0.0000 0.0000 0.0000
# 2 29.9362 58.5215 45.8939 0.0000 0.0000 0.0000
# 3 52.9092 45.8939 115.3262 0.0000 0.0000 0.0000
# 4 0.0000 0.0000 0.0000 27.4037 0.0000 0.0000
# 5 0.0000 0.0000 0.0000 0.0000 15.0687 0.0000
# 6 0.0000 0.0000 0.0000 0.0000 0.0000 21.5859
#
#
#
# Elastic Compliance Matrix: (Units=1/GPa)
#
#
# Indices 1 2 3 4 5 6 
#
# 1 0.020429 -0.004507 -0.007579 0.000000 0.000000 0.000000
# 2 -0.004507 0.025834 -0.008213 0.000000 0.000000 0.000000
# 3 -0.007579 -0.008213 0.015416 0.000000 0.000000 0.000000
# 4 0.000000 0.000000 0.000000 0.036491 0.000000 0.000000
# 5 0.000000 0.000000 0.000000 0.000000 0.066363 0.000000
# 6 0.000000 0.000000 0.000000 0.000000 0.000000 0.046327
#
#
# Mechanical properties :
#
#
# Convention : Reuss Voigt Hill
#
# Bulk Modulus (GPa) = 47.43365 56.27881 51.85623
# Shear Modulus (GPa) = 19.34349 20.83107 20.08728
#
# Velocity S-wave (km/s) = 3.38708 3.51491 3.45159
# Velocity P-wave (km/s) = 6.59004 7.06052 6.82933
#
# Compressibility (1/GPa) = 0.02108208
#
# Stress axis : x y z
#
# Youngs Moduli (GPa) = 48.95009 38.70879 64.86572
#
# Poissons Ratio (x) = 0.17445 0.49161
# Poissons Ratio (y) = 0.22060 0.53274
# Poissons Ratio (z) = 0.37099 0.31791
#
# Static dielectric constant tensor:
#      x y z
#    x 3.406330 0.000000 0.000000 
#    y 0.000000 3.138110 0.000000 
#    z 0.000000 0.000000 3.139920 
# 
# 
# High freq. dielectric constant tensor:
#      x y z
#    x 1.640290 0.000000 0.000000 
#    y 0.000000 1.643600 0.000000 
#    z 0.000000 0.000000 1.636780 
# 
# From -- ./inp_files/30699.got.cif
#   From: 2010.03.12/outbox.cif.g09.slc.cpg/sg59_16_cif.got.tgz:30699.got - 2010.04.16 16:29:54.
