data_PCOD8239809
_publ_section_title
;
Structure prediction by ZEFSAII (Michael W. Deem and Ramdas Pophale) SiO2 
 PCOD8239809
Probable space group: P M M N
;
_chemical_formula_sum "Si O2"
_cell_formula_units_Z 48
_cell_length_a 16.155611
_cell_length_b 15.179910
_cell_length_c 11.076070
_cell_angle_alpha 90.000000
_cell_angle_beta 90.000000
_cell_angle_gamma 90.000000
_cell_volume 2716.303392
_symmetry_space_group_name_H-M "P M M N"
_symmetry_group_IT_number 59
_space_group.IT_coordinate_system_code '2'
_symmetry_cell_setting 'orthorhombic'
loop_
_space_group_symop_operation_xyz
x,y,z
1/2-x,1/2-y,z
1/2+x,-y,-z
-x,1/2+y,-z
-x,-y,-z
1/2+x,1/2+y,-z
1/2-x,y,z
x,1/2-y,z
loop_
_atom_site_type_symbol
_atom_site_label
_atom_site_fract_x
_atom_site_fract_y
_atom_site_fract_z
Si Si1 0.158690 0.930074 0.603126
Si Si2 0.935092 0.488235 0.605804
Si Si3 0.493817 0.649754 0.198283
Si Si4 0.441068 0.921132 0.963783
Si Si5 0.157913 0.449755 0.825104
Si Si6 0.996389 0.151433 0.282748
O O1 0.250000 0.887338 0.616591
O O2 0.149470 0.962259 0.463104
O O3 0.088515 0.860052 0.640782
O O4 0.150333 0.015629 0.688268
O O5 0.961726 0.410580 0.694347
O O6 0.000000 0.500000 0.500000
O O7 0.932758 0.581249 0.677454
O O8 0.492181 0.750000 0.242814
O O9 0.587949 0.624952 0.158713
O O10 0.431599 0.638742 0.083450
O O11 0.479715 0.861343 0.858698
O O12 0.356669 0.966887 0.915688
O O13 0.500000 0.000000 0.000000
O O14 0.250000 0.411490 0.850391
O O15 0.029875 0.250000 0.305151
#
# Coordination Sequence:
#
# PCOD8239809 Si02
#       6
#     8   8   8   8   8   8
#     4   9  18  34  52  71 103 140 173 215 260 302
#     4  10  18  34  49  76 104 137 179 212 256 309
#     4  11  20  32  55  80 107 137 174 220 265 313
#     4   9  16  33  52  74 102 134 171 209 265 314
#     4   9  17  33  55  76 102 135 174 216 260 309
#     4  10  18  30  53  78 100 131 177 221 257 305
#
# _framework density 17.671074999999998
#
# number of rings (size 3 to 8) (size 9 to 14) (size 15 to 20)
#    0.000    2.333    6.667    0.500    0.000    3.333 
#    0.000    0.833    0.000    3.000    0.000    0.000 
#    0.000    0.000    0.000    0.000    0.000    0.000 
#
# Total GULP energy -594672.970064 kJ/mol
# GULP energy per Si atom -12389.020210 kJ/mol
# Density = 1.763085 g / cm^3
# Si number density = 17.671075 Si / 1000 Ang^3
#
#
#
# Elastic Constant Matrix: (Units=GPa)
#
#
# Indices 1 2 3 4 5 6 
#
# 1 57.1094 20.6685 30.9134 0.0000 0.0000 0.0000
# 2 20.6685 126.5083 43.7551 0.0000 0.0000 0.0000
# 3 30.9134 43.7551 115.5696 0.0000 0.0000 0.0000
# 4 0.0000 0.0000 0.0000 14.7788 0.0000 0.0000
# 5 0.0000 0.0000 0.0000 0.0000 15.1927 0.0000
# 6 0.0000 0.0000 0.0000 0.0000 0.0000 11.3579
#
#
#
# Elastic Compliance Matrix: (Units=1/GPa)
#
#
# Indices 1 2 3 4 5 6 
#
# 1 0.020786 -0.001695 -0.004918 0.000000 0.000000 0.000000
# 2 -0.001695 0.009234 -0.003043 0.000000 0.000000 0.000000
# 3 -0.004918 -0.003043 0.011120 0.000000 0.000000 0.000000
# 4 0.000000 0.000000 0.000000 0.067665 0.000000 0.000000
# 5 0.000000 0.000000 0.000000 0.000000 0.065821 0.000000
# 6 0.000000 0.000000 0.000000 0.000000 0.000000 0.088045
#
#
# Mechanical properties :
#
#
# Convention : Reuss Voigt Hill
#
# Bulk Modulus (GPa) = 45.81152 54.42901 50.12026
# Shear Modulus (GPa) = 17.28558 21.85588 19.57073
#
# Velocity S-wave (km/s) = 3.13099 3.52066 3.33152
# Velocity P-wave (km/s) = 6.24913 6.88438 6.57443
#
# Compressibility (1/GPa) = 0.02182857
#
# Stress axis : x y z
#
# Youngs Moduli (GPa) = 48.10950 108.29706 89.92542
#
# Poissons Ratio (x) = 0.18355 0.44228
# Poissons Ratio (y) = 0.08154 0.27361
# Poissons Ratio (z) = 0.23662 0.32951
#
# Static dielectric constant tensor:
#      x y z
#    x 3.438960 0.000000 0.000000 
#    y 0.000000 3.317650 0.000000 
#    z 0.000000 0.000000 4.009520 
# 
# 
# High freq. dielectric constant tensor:
#      x y z
#    x 1.645790 0.000000 0.000000 
#    y 0.000000 1.666110 0.000000 
#    z 0.000000 0.000000 1.695740 
# 
# From -- ./inp_files/17692.got.cif
#   From: 2010.03.12/outbox.cif.g09.slc.cpg/sg59_9_cif.got.tgz:17692.got - 2010.04.16 16:29:54.
