data_PCOD8239064
_publ_section_title
;
Structure prediction by ZEFSAII (Michael W. Deem and Ramdas Pophale) SiO2 
 PCOD8239064
Probable space group: P M M N
;
_chemical_formula_sum "Si O2"
_cell_formula_units_Z 56
_cell_length_a 9.715630
_cell_length_b 26.988874
_cell_length_c 14.250941
_cell_angle_alpha 90.000000
_cell_angle_beta 90.000000
_cell_angle_gamma 90.000000
_cell_volume 3736.795016
_symmetry_space_group_name_H-M "P M M N"
_symmetry_group_IT_number 59
_space_group.IT_coordinate_system_code '2'
_symmetry_cell_setting 'orthorhombic'
loop_
_space_group_symop_operation_xyz
x,y,z
1/2-x,1/2-y,z
1/2+x,-y,-z
-x,1/2+y,-z
-x,-y,-z
1/2+x,1/2+y,-z
1/2-x,y,z
x,1/2-y,z
loop_
_atom_site_type_symbol
_atom_site_label
_atom_site_fract_x
_atom_site_fract_y
_atom_site_fract_z
Si Si1 0.588931 0.933078 0.824261
Si Si2 0.413490 0.618496 0.262733
Si Si3 0.408936 0.961064 0.122983
Si Si4 0.591233 0.115365 0.034789
Si Si5 0.913643 0.305046 0.883124
Si Si6 0.592489 0.955883 0.611397
Si Si7 0.090795 0.932914 0.444346
O O1 0.750000 0.924015 0.843718
O O2 0.502739 0.888376 0.871969
O O3 0.557056 0.935062 0.713805
O O4 0.530681 0.983617 0.871908
O O5 0.250000 0.615744 0.252356
O O6 0.478702 0.573686 0.201990
O O7 0.464281 0.670155 0.215641
O O8 0.454521 0.610752 0.371632
O O9 0.250000 0.966870 0.149744
O O10 0.429090 0.935792 0.022255
O O11 0.750000 0.122538 0.064100
O O12 0.539644 0.161739 0.971863
O O13 0.750000 0.302374 0.883258
O O14 0.978054 0.250000 0.890881
O O15 0.750000 0.945131 0.585160
O O16 0.498556 0.926346 0.537636
O O17 0.562297 0.014541 0.606306
O O18 0.250000 0.927809 0.472569
#
# Coordination Sequence:
#
# PCOD8239064 Si02
#       7
#     8   8   8   8   8   8   8
#     4  10  17  26  39  54  78 112 142 163 190 232
#     4   8  12  21  39  59  79 105 135 162 195 241
#     4   8  13  23  37  54  78 108 135 160 190 230
#     4   9  17  26  39  59  81 103 131 166 201 234
#     4   8  14  25  42  64  85 103 127 163 206 249
#     4   9  17  26  37  54  79 110 139 165 193 229
#     4   9  15  25  40  57  77 105 138 168 197 228
#
# _framework density 14.986105999999999
#
# number of rings (size 3 to 8) (size 9 to 14) (size 15 to 20)
#    0.000    3.286    1.429    2.143    0.000    0.571 
#    0.000    0.000    0.000    3.857    0.000    1.000 
#    0.000    5.714    0.000    0.000    0.000    0.000 
#
# Total GULP energy -693797.783602 kJ/mol
# GULP energy per Si atom -12389.246136 kJ/mol
# Density = 1.495200 g / cm^3
# Si number density = 14.986106 Si / 1000 Ang^3
#
#
#
# Elastic Constant Matrix: (Units=GPa)
#
#
# Indices 1 2 3 4 5 6 
#
# 1 38.3855 25.9700 45.9981 0.0000 0.0000 0.0000
# 2 25.9700 79.5131 55.8895 0.0000 0.0000 0.0000
# 3 45.9981 55.8895 103.3230 0.0000 0.0000 0.0000
# 4 0.0000 0.0000 0.0000 15.6120 0.0000 0.0000
# 5 0.0000 0.0000 0.0000 0.0000 24.5126 0.0000
# 6 0.0000 0.0000 0.0000 0.0000 0.0000 10.0303
#
#
#
# Elastic Compliance Matrix: (Units=1/GPa)
#
#
# Indices 1 2 3 4 5 6 
#
# 1 0.055917 -0.001235 -0.024225 0.000000 0.000000 0.000000
# 2 -0.001235 0.020319 -0.010441 0.000000 0.000000 0.000000
# 3 -0.024225 -0.010441 0.026111 0.000000 0.000000 0.000000
# 4 0.000000 0.000000 0.000000 0.064053 0.000000 0.000000
# 5 0.000000 0.000000 0.000000 0.000000 0.040795 0.000000
# 6 0.000000 0.000000 0.000000 0.000000 0.000000 0.099698
#
#
# Mechanical properties :
#
#
# Convention : Reuss Voigt Hill
#
# Bulk Modulus (GPa) = 32.74012 52.99298 42.86655
# Shear Modulus (GPa) = 12.85753 16.25525 14.55639
#
# Velocity S-wave (km/s) = 2.93228 3.29703 3.11999
# Velocity P-wave (km/s) = 5.77570 7.06626 6.45333
#
# Compressibility (1/GPa) = 0.03054356
#
# Stress axis : x y z
#
# Youngs Moduli (GPa) = 17.88370 49.21518 38.29816
#
# Poissons Ratio (x) = 0.06080 0.92778
# Poissons Ratio (y) = 0.02209 0.39987
# Poissons Ratio (z) = 0.43324 0.51385
#
# Static dielectric constant tensor:
#      x y z
#    x 2.535900 0.000000 0.000000 
#    y 0.000000 2.908240 0.000000 
#    z 0.000000 0.000000 2.895450 
# 
# 
# High freq. dielectric constant tensor:
#      x y z
#    x 1.534840 0.000000 0.000000 
#    y 0.000000 1.539140 0.000000 
#    z 0.000000 0.000000 1.573560 
# 
# From -- ./inp_files/16162.got.cif
#   From: 2010.03.12/outbox.cif.g09.slc.cpg/sg59_9_cif.got.tgz:16162.got - 2010.04.16 16:29:54.
