data_PCOD8239030
_publ_section_title
;
Structure prediction by ZEFSAII (Michael W. Deem and Ramdas Pophale) SiO2 
 PCOD8239030
Probable space group: P M M N
;
_chemical_formula_sum "Si O2"
_cell_formula_units_Z 56
_cell_length_a 9.363543
_cell_length_b 21.757995
_cell_length_c 14.942886
_cell_angle_alpha 90.000000
_cell_angle_beta 90.000000
_cell_angle_gamma 90.000000
_cell_volume 3044.342882
_symmetry_space_group_name_H-M "P M M N"
_symmetry_group_IT_number 59
_space_group.IT_coordinate_system_code '2'
_symmetry_cell_setting 'orthorhombic'
loop_
_space_group_symop_operation_xyz
x,y,z
1/2-x,1/2-y,z
1/2+x,-y,-z
-x,1/2+y,-z
-x,-y,-z
1/2+x,1/2+y,-z
1/2-x,y,z
x,1/2-y,z
loop_
_atom_site_type_symbol
_atom_site_label
_atom_site_fract_x
_atom_site_fract_y
_atom_site_fract_z
Si Si1 0.582262 0.075838 0.762862
Si Si2 0.079787 0.957373 0.706204
Si Si3 0.580858 0.319813 0.630992
Si Si4 0.910101 0.126409 0.451640
Si Si5 0.410128 0.555004 0.037555
Si Si6 0.418263 0.250000 0.175561
Si Si7 0.904648 0.250000 0.344009
Si Si8 0.088616 0.866938 0.866370
O O1 0.750000 0.062239 0.752212
O O2 0.543354 0.142345 0.720800
O O3 0.533261 0.078361 0.866390
O O4 0.496605 0.022792 0.711399
O O5 0.250000 0.966315 0.703707
O O6 0.020295 0.924187 0.615277
O O7 0.036847 0.917111 0.793398
O O8 0.750000 0.314498 0.616354
O O9 0.517463 0.250000 0.636698
O O10 0.515189 0.360360 0.547954
O O11 0.750000 0.103275 0.468963
O O12 0.914014 0.191288 0.404522
O O13 0.250000 0.530190 0.048546
O O14 0.500000 0.500000 0.000000
O O15 0.417737 0.609712 0.967334
O O16 0.250000 0.250000 0.164306
O O17 0.461462 0.250000 0.278865
O O18 0.482329 0.189827 0.130284
O O19 0.750000 0.250000 0.293333
O O20 0.250000 0.846618 0.841257
#
# Coordination Sequence:
#
# PCOD8239030 Si02
#       8
#     8   8   8   8   8   4   4   8
#     4  10  21  35  53  82 112 134 169 227 281 316
#     4  10  19  32  54  81 106 140 181 216 257 318
#     4   9  17  32  54  79 106 139 179 221 263 309
#     4   9  16  28  52  80 103 135 183 218 246 305
#     4  10  20  35  56  80 104 139 181 221 270 325
#     4  12  24  34  50  81 116 144 172 223 288 329
#     4  10  16  30  54  77 102 140 184 219 248 307
#     4  10  20  36  55  76 106 147 188 222 261 323
#
# _framework density 18.394774000000002
#
# number of rings (size 3 to 8) (size 9 to 14) (size 15 to 20)
#    0.000    2.143    3.571    0.643    0.000    1.714 
#    1.286    0.000    0.000    1.286    0.000    0.000 
#    0.000    0.000    0.000    0.000    0.000    0.000 
#
# Total GULP energy -693967.524656 kJ/mol
# GULP energy per Si atom -12392.277226 kJ/mol
# Density = 1.835291 g / cm^3
# Si number density = 18.394774 Si / 1000 Ang^3
#
#
#
# Elastic Constant Matrix: (Units=GPa)
#
#
# Indices 1 2 3 4 5 6 
#
# 1 51.6732 35.1972 21.9651 0.0000 0.0000 0.0000
# 2 35.1972 107.8525 63.2398 0.0000 0.0000 0.0000
# 3 21.9651 63.2398 142.7818 0.0000 0.0000 0.0000
# 4 0.0000 0.0000 0.0000 57.7191 0.0000 0.0000
# 5 0.0000 0.0000 0.0000 0.0000 14.7000 0.0000
# 6 0.0000 0.0000 0.0000 0.0000 0.0000 28.4556
#
#
#
# Elastic Compliance Matrix: (Units=1/GPa)
#
#
# Indices 1 2 3 4 5 6 
#
# 1 0.024894 -0.007941 -0.000313 0.000000 0.000000 0.000000
# 2 -0.007941 0.015058 -0.005448 0.000000 0.000000 0.000000
# 3 -0.000313 -0.005448 0.009465 0.000000 0.000000 0.000000
# 4 0.000000 0.000000 0.000000 0.017325 0.000000 0.000000
# 5 0.000000 0.000000 0.000000 0.000000 0.068027 0.000000
# 6 0.000000 0.000000 0.000000 0.000000 0.000000 0.035142
#
#
# Mechanical properties :
#
#
# Convention : Reuss Voigt Hill
#
# Bulk Modulus (GPa) = 45.42489 60.34576 52.88533
# Shear Modulus (GPa) = 24.43177 32.30196 28.36686
#
# Velocity S-wave (km/s) = 3.64839 4.19506 3.93124
# Velocity P-wave (km/s) = 6.51887 7.50612 7.02985
#
# Compressibility (1/GPa) = 0.02201436
#
# Stress axis : x y z
#
# Youngs Moduli (GPa) = 40.17009 66.41155 105.65701
#
# Poissons Ratio (x) = 0.52736 0.03302
# Poissons Ratio (y) = 0.31898 0.57558
# Poissons Ratio (z) = 0.01255 0.36178
#
# Static dielectric constant tensor:
#      x y z
#    x 3.133600 0.000000 0.000000 
#    y 0.000000 3.398540 0.000000 
#    z 0.000000 0.000000 3.749200 
# 
# 
# High freq. dielectric constant tensor:
#      x y z
#    x 1.668470 0.000000 0.000000 
#    y 0.000000 1.713230 0.000000 
#    z 0.000000 0.000000 1.724350 
# 
# From -- ./inp_files/21112.got.cif
#   From: 2010.03.12/outbox.cif.g09.slc.cpg/sg59_11_cif.got.tgz:21112.got - 2010.04.16 16:29:54.
