data_PCOD8239918
_publ_section_title
;
Structure prediction by ZEFSAII (Michael W. Deem and Ramdas Pophale) SiO2 
 PCOD8239918
Probable space group: P M M N
;
_chemical_formula_sum "Si O2"
_cell_formula_units_Z 40
_cell_length_a 9.032452
_cell_length_b 23.363628
_cell_length_c 10.393557
_cell_angle_alpha 90.000000
_cell_angle_beta 90.000000
_cell_angle_gamma 90.000000
_cell_volume 2193.361152
_symmetry_space_group_name_H-M "P M M N"
_symmetry_group_IT_number 59
_space_group.IT_coordinate_system_code '2'
_symmetry_cell_setting 'orthorhombic'
loop_
_space_group_symop_operation_xyz
x,y,z
1/2-x,1/2-y,z
1/2+x,-y,-z
-x,1/2+y,-z
-x,-y,-z
1/2+x,1/2+y,-z
1/2-x,y,z
x,1/2-y,z
loop_
_atom_site_type_symbol
_atom_site_label
_atom_site_fract_x
_atom_site_fract_y
_atom_site_fract_z
Si Si1 0.425498 0.880845 0.823850
Si Si2 0.925765 0.388918 0.686299
Si Si3 0.074140 0.814230 0.074339
Si Si4 0.583187 0.619161 0.574391
Si Si5 0.916804 0.983961 0.737209
O O1 0.250000 0.879699 0.811888
O O2 0.497378 0.851848 0.695854
O O3 0.481735 0.947047 0.836339
O O4 0.483768 0.846149 0.947096
O O5 0.750000 0.388273 0.668034
O O6 0.981306 0.347796 0.799948
O O7 0.982805 0.452913 0.717619
O O8 0.999197 0.365914 0.556377
O O9 0.250000 0.813063 0.072787
O O10 0.009423 0.750000 0.077478
O O11 0.750000 0.643429 0.566801
O O12 0.584536 0.550270 0.600411
O O13 0.750000 0.987971 0.793323
#
# Coordination Sequence:
#
# PCOD8239918 Si02
#       5
#     8   8   8   8   8
#     4   9  17  31  52  74  98 131 167 201 244 296
#     4  10  18  31  53  77 103 133 164 202 251 302
#     4   9  19  35  53  74  99 128 168 216 254 288
#     4   9  18  32  49  75 107 132 160 201 245 295
#     4   8  17  30  48  76 107 132 160 200 248 299
#
# _framework density 18.23685
#
# number of rings (size 3 to 8) (size 9 to 14) (size 15 to 20)
#    1.200    1.800    0.000    1.200    0.000    1.600 
#    0.000    3.000    0.000   11.400    0.000    0.000 
#    0.000    0.000    0.000    0.000    0.000    0.000 
#
# Total GULP energy -495606.220941 kJ/mol
# GULP energy per Si atom -12390.155524 kJ/mol
# Density = 1.819534 g / cm^3
# Si number density = 18.236850 Si / 1000 Ang^3
#
#
#
# Elastic Constant Matrix: (Units=GPa)
#
#
# Indices 1 2 3 4 5 6 
#
# 1 64.2058 23.7471 46.1454 0.0000 0.0000 0.0000
# 2 23.7471 62.1026 69.9803 0.0000 0.0000 0.0000
# 3 46.1454 69.9803 161.1581 0.0000 0.0000 0.0000
# 4 0.0000 0.0000 0.0000 11.2910 0.0000 0.0000
# 5 0.0000 0.0000 0.0000 0.0000 20.2515 0.0000
# 6 0.0000 0.0000 0.0000 0.0000 0.0000 14.8599
#
#
#
# Elastic Compliance Matrix: (Units=1/GPa)
#
#
# Indices 1 2 3 4 5 6 
#
# 1 0.019779 -0.002313 -0.004659 0.000000 0.000000 0.000000
# 2 -0.002313 0.031802 -0.013147 0.000000 0.000000 0.000000
# 3 -0.004659 -0.013147 0.013248 0.000000 0.000000 0.000000
# 4 0.000000 0.000000 0.000000 0.088566 0.000000 0.000000
# 5 0.000000 0.000000 0.000000 0.000000 0.049379 0.000000
# 6 0.000000 0.000000 0.000000 0.000000 0.000000 0.067295
#
#
# Mechanical properties :
#
#
# Convention : Reuss Voigt Hill
#
# Bulk Modulus (GPa) = 40.66664 63.02360 51.84512
# Shear Modulus (GPa) = 15.69841 19.12007 17.40924
#
# Velocity S-wave (km/s) = 2.93713 3.24146 3.09304
# Velocity P-wave (km/s) = 5.81807 6.97444 6.42233
#
# Compressibility (1/GPa) = 0.02459018
#
# Stress axis : x y z
#
# Youngs Moduli (GPa) = 50.55883 31.44498 75.48330
#
# Poissons Ratio (x) = 0.07274 0.35167
# Poissons Ratio (y) = 0.11696 0.99238
# Poissons Ratio (z) = 0.23555 0.41341
#
# Static dielectric constant tensor:
#      x y z
#    x 3.099970 0.000000 0.000000 
#    y 0.000000 3.239360 0.000000 
#    z 0.000000 0.000000 3.266770 
# 
# 
# High freq. dielectric constant tensor:
#      x y z
#    x 1.688300 0.000000 0.000000 
#    y 0.000000 1.680180 0.000000 
#    z 0.000000 0.000000 1.700990 
# 
# From -- ./inp_files/5866.got.cif
#   From: 2010.03.12/outbox.cif.g09.slc.cpg/sg59_3_cif.got.tgz:5866.got - 2010.04.16 16:29:54.
