data_PCOD8239017
_publ_section_title
;
Structure prediction by ZEFSAII (Michael W. Deem and Ramdas Pophale) SiO2 
 PCOD8239017
Probable space group: P M M N
;
_chemical_formula_sum "Si O2"
_cell_formula_units_Z 48
_cell_length_a 21.205786
_cell_length_b 14.783619
_cell_length_c 9.298143
_cell_angle_alpha 90.000000
_cell_angle_beta 90.000000
_cell_angle_gamma 90.000000
_cell_volume 2914.951659
_symmetry_space_group_name_H-M "P M M N"
_symmetry_group_IT_number 59
_space_group.IT_coordinate_system_code '2'
_symmetry_cell_setting 'orthorhombic'
loop_
_space_group_symop_operation_xyz
x,y,z
1/2-x,1/2-y,z
1/2+x,-y,-z
-x,1/2+y,-z
-x,-y,-z
1/2+x,1/2+y,-z
1/2-x,y,z
x,1/2-y,z
loop_
_atom_site_type_symbol
_atom_site_label
_atom_site_fract_x
_atom_site_fract_y
_atom_site_fract_z
Si Si1 0.900550 0.464685 0.748902
Si Si2 0.969714 0.853098 0.247991
Si Si3 0.928875 0.500896 0.445262
Si Si4 0.414212 0.648515 0.789559
Si Si5 0.466788 0.089582 0.054543
Si Si6 0.177602 0.644876 0.042513
O O1 0.884031 0.495506 0.585606
O O2 0.911130 0.557477 0.839140
O O3 0.841947 0.410596 0.815517
O O4 0.961517 0.399123 0.750490
O O5 0.974562 0.750000 0.301445
O O6 0.921280 0.907069 0.352423
O O7 0.941966 0.855934 0.084973
O O8 0.912126 0.414905 0.348497
O O9 0.000000 0.500000 0.500000
O O10 0.396928 0.750000 0.740026
O O11 0.483663 0.650288 0.858271
O O12 0.364048 0.612684 0.907002
O O13 0.500000 0.000000 0.000000
O O14 0.250000 0.624842 0.006157
O O15 0.165315 0.750000 0.074590
#
# Coordination Sequence:
#
# PCOD8239017 Si02
#       6
#     8   8   8   8   8   8
#     4  10  18  31  46  66 101 133 158 200 245 289
#     4  10  17  27  45  68  98 131 156 190 247 299
#     4  10  19  31  43  70 102 132 157 198 245 317
#     4  11  19  31  49  70 101 136 164 204 253 289
#     4  10  15  28  47  67  93 129 160 203 243 293
#     4  10  20  33  50  71  95 133 182 211 229 277
#
# _framework density 16.466825
#
# number of rings (size 3 to 8) (size 9 to 14) (size 15 to 20)
#    0.000    1.833    8.333    1.000    0.000    3.333 
#    0.000    0.833    0.000    2.000    0.000    0.000 
#    0.000   29.333    0.000    0.000    0.000    0.000 
#
# Total GULP energy -594926.231095 kJ/mol
# GULP energy per Si atom -12394.296481 kJ/mol
# Density = 1.642935 g / cm^3
# Si number density = 16.466825 Si / 1000 Ang^3
#
#
#
# Elastic Constant Matrix: (Units=GPa)
#
#
# Indices 1 2 3 4 5 6 
#
# 1 48.7093 17.6210 28.9362 0.0000 0.0000 0.0000
# 2 17.6210 75.5682 38.2191 0.0000 0.0000 0.0000
# 3 28.9362 38.2191 125.3254 0.0000 0.0000 0.0000
# 4 0.0000 0.0000 0.0000 20.9273 0.0000 0.0000
# 5 0.0000 0.0000 0.0000 0.0000 12.4847 0.0000
# 6 0.0000 0.0000 0.0000 0.0000 0.0000 18.4027
#
#
#
# Elastic Compliance Matrix: (Units=1/GPa)
#
#
# Indices 1 2 3 4 5 6 
#
# 1 0.024499 -0.003372 -0.004628 0.000000 0.000000 0.000000
# 2 -0.003372 0.016110 -0.004134 0.000000 0.000000 0.000000
# 3 -0.004628 -0.004134 0.010309 0.000000 0.000000 0.000000
# 4 0.000000 0.000000 0.000000 0.047785 0.000000 0.000000
# 5 0.000000 0.000000 0.000000 0.000000 0.080098 0.000000
# 6 0.000000 0.000000 0.000000 0.000000 0.000000 0.054340
#
#
# Mechanical properties :
#
#
# Convention : Reuss Voigt Hill
#
# Bulk Modulus (GPa) = 37.52497 46.57283 42.04890
# Shear Modulus (GPa) = 18.77628 21.35137 20.06382
#
# Velocity S-wave (km/s) = 3.38042 3.60478 3.49440
# Velocity P-wave (km/s) = 6.17042 6.75797 6.47086
#
# Compressibility (1/GPa) = 0.02664892
#
# Stress axis : x y z
#
# Youngs Moduli (GPa) = 40.81757 62.07175 97.00563
#
# Poissons Ratio (x) = 0.20930 0.44897
# Poissons Ratio (y) = 0.13764 0.40107
# Poissons Ratio (z) = 0.18892 0.25663
#
# Static dielectric constant tensor:
#      x y z
#    x 2.705110 0.000000 0.000000 
#    y 0.000000 3.558880 0.000000 
#    z 0.000000 0.000000 4.005560 
# 
# 
# High freq. dielectric constant tensor:
#      x y z
#    x 1.565160 0.000000 0.000000 
#    y 0.000000 1.629520 0.000000 
#    z 0.000000 0.000000 1.650500 
# 
# From -- ./inp_files/11293.got.cif
#   From: 2010.03.12/outbox.cif.g09.slc.cpg/sg59_6_cif.got.tgz:11293.got - 2010.04.16 16:29:54.
