data_PCOD8239928
_publ_section_title
;
Structure prediction by ZEFSAII (Michael W. Deem and Ramdas Pophale) SiO2 
 PCOD8239928
Probable space group: P M M N
;
_chemical_formula_sum "Si O2"
_cell_formula_units_Z 64
_cell_length_a 18.187182
_cell_length_b 9.111374
_cell_length_c 21.561616
_cell_angle_alpha 90.000000
_cell_angle_beta 90.000000
_cell_angle_gamma 90.000000
_cell_volume 3572.980071
_symmetry_space_group_name_H-M "P M M N"
_symmetry_group_IT_number 59
_space_group.IT_coordinate_system_code '2'
_symmetry_cell_setting 'orthorhombic'
loop_
_space_group_symop_operation_xyz
x,y,z
1/2-x,1/2-y,z
1/2+x,-y,-z
-x,1/2+y,-z
-x,-y,-z
1/2+x,1/2+y,-z
1/2-x,y,z
x,1/2-y,z
loop_
_atom_site_type_symbol
_atom_site_label
_atom_site_fract_x
_atom_site_fract_y
_atom_site_fract_z
Si Si1 0.166649 0.917871 0.273970
Si Si2 0.164578 0.920891 0.505085
Si Si3 0.972511 0.918252 0.060037
Si Si4 0.094790 0.576898 0.756956
Si Si5 0.930228 0.423709 0.379957
Si Si6 0.596347 0.924363 0.611808
Si Si7 0.038220 0.916407 0.187451
Si Si8 0.332283 0.078140 0.865843
O O1 0.250000 0.960183 0.258252
O O2 0.160291 0.750000 0.297618
O O3 0.121380 0.940722 0.210270
O O4 0.136499 0.024726 0.326232
O O5 0.250000 0.947649 0.517932
O O6 0.147619 0.750000 0.493303
O O7 0.120576 0.982696 0.564566
O O8 0.139970 0.011774 0.445992
O O9 0.965093 0.750000 0.041257
O O10 0.892718 0.977205 0.084077
O O11 0.033059 0.944228 0.113774
O O12 0.000000 0.000000 0.000000
O O13 0.102673 0.750000 0.764909
O O14 0.105348 0.526912 0.685513
O O15 0.155810 0.500103 0.799725
O O16 0.013127 0.529738 0.776475
O O17 0.934077 0.250000 0.381467
O O18 0.012881 0.485578 0.388201
O O19 0.598786 0.750000 0.608607
O O20 0.011264 0.750000 0.201705
O O21 0.250000 0.042257 0.889987
O O22 0.343628 0.250000 0.854356
#
# Coordination Sequence:
#
# PCOD8239928 Si02
#       8
#     8   8   8   8   8   8   8   8
#     4  10  20  34  54  78 102 133 174 215 258 312
#     4  10  21  37  53  69  95 133 174 213 257 312
#     4   9  18  33  54  79 105 139 177 212 252 298
#     4  10  18  31  53  80 106 131 169 216 262 311
#     4   9  19  34  52  75 101 132 168 210 261 315
#     4  11  21  35  53  74 102 132 168 214 264 313
#     4   9  18  34  53  74 104 139 174 209 254 309
#     4   9  19  36  55  77 109 145 179 215 259 311
#
# _framework density 17.912217999999999
#
# number of rings (size 3 to 8) (size 9 to 14) (size 15 to 20)
#    0.000    2.375    1.250    2.250    0.000    4.750 
#    0.000    3.750    0.000    0.750    0.000    0.000 
#    0.000    0.000    0.000    0.000    0.000    0.000 
#
# Total GULP energy -793499.983367 kJ/mol
# GULP energy per Si atom -12398.437240 kJ/mol
# Density = 1.787145 g / cm^3
# Si number density = 17.912218 Si / 1000 Ang^3
#
#
#
# Elastic Constant Matrix: (Units=GPa)
#
#
# Indices 1 2 3 4 5 6 
#
# 1 139.2298 36.3824 72.0761 0.0000 0.0000 0.0000
# 2 36.3824 49.8724 39.6813 0.0000 0.0000 0.0000
# 3 72.0761 39.6813 125.6425 0.0000 0.0000 0.0000
# 4 0.0000 0.0000 0.0000 23.9822 0.0000 0.0000
# 5 0.0000 0.0000 0.0000 0.0000 24.5607 0.0000
# 6 0.0000 0.0000 0.0000 0.0000 0.0000 23.2563
#
#
#
# Elastic Compliance Matrix: (Units=1/GPa)
#
#
# Indices 1 2 3 4 5 6 
#
# 1 0.010762 -0.003925 -0.004934 0.000000 0.000000 0.000000
# 2 -0.003925 0.028213 -0.006659 0.000000 0.000000 0.000000
# 3 -0.004934 -0.006659 0.012893 0.000000 0.000000 0.000000
# 4 0.000000 0.000000 0.000000 0.041698 0.000000 0.000000
# 5 0.000000 0.000000 0.000000 0.000000 0.040715 0.000000
# 6 0.000000 0.000000 0.000000 0.000000 0.000000 0.042999
#
#
# Mechanical properties :
#
#
# Convention : Reuss Voigt Hill
#
# Bulk Modulus (GPa) = 48.00421 67.89157 57.94789
# Shear Modulus (GPa) = 23.22774 25.46684 24.34729
#
# Velocity S-wave (km/s) = 3.60495 3.77471 3.69081
# Velocity P-wave (km/s) = 6.64721 7.54868 7.11224
#
# Compressibility (1/GPa) = 0.02083151
#
# Stress axis : x y z
#
# Youngs Moduli (GPa) = 92.91558 35.44508 77.56371
#
# Poissons Ratio (x) = 0.13913 0.38272
# Poissons Ratio (y) = 0.36472 0.51646
# Poissons Ratio (z) = 0.45847 0.23601
#
# Static dielectric constant tensor:
#      x y z
#    x 3.504350 0.000000 0.000000 
#    y 0.000000 3.207400 0.000000 
#    z 0.000000 0.000000 3.367660 
# 
# 
# High freq. dielectric constant tensor:
#      x y z
#    x 1.695190 0.000000 0.000000 
#    y 0.000000 1.680850 0.000000 
#    z 0.000000 0.000000 1.689470 
# 
# From -- ./inp_files/30778.got.cif
#   From: 2010.03.12/outbox.cif.g09.slc.cpg/sg59_16_cif.got.tgz:30778.got - 2010.04.16 16:29:54.
