data_PCOD8239614
_publ_section_title
;
Structure prediction by ZEFSAII (Michael W. Deem and Ramdas Pophale) SiO2 
 PCOD8239614
Probable space group: P M M N
;
_chemical_formula_sum "Si O2"
_cell_formula_units_Z 48
_cell_length_a 20.642697
_cell_length_b 8.779221
_cell_length_c 15.072220
_cell_angle_alpha 90.000000
_cell_angle_beta 90.000000
_cell_angle_gamma 90.000000
_cell_volume 2731.490184
_symmetry_space_group_name_H-M "P M M N"
_symmetry_group_IT_number 59
_space_group.IT_coordinate_system_code '2'
_symmetry_cell_setting 'orthorhombic'
loop_
_space_group_symop_operation_xyz
x,y,z
1/2-x,1/2-y,z
1/2+x,-y,-z
-x,1/2+y,-z
-x,-y,-z
1/2+x,1/2+y,-z
1/2-x,y,z
x,1/2-y,z
loop_
_atom_site_type_symbol
_atom_site_label
_atom_site_fract_x
_atom_site_fract_y
_atom_site_fract_z
Si Si1 0.856063 0.074008 0.187179
Si Si2 0.178873 0.075093 0.986653
Si Si3 0.015226 0.074735 0.761584
Si Si4 0.819134 0.426223 0.383353
Si Si5 0.539409 0.430810 0.419766
Si Si6 0.445536 0.927370 0.062709
O O1 0.874844 0.250000 0.173440
O O2 0.817078 0.051266 0.277795
O O3 0.813920 0.013160 0.106295
O O4 0.920631 0.974397 0.187166
O O5 0.250000 0.062782 0.032503
O O6 0.159907 0.250000 0.969322
O O7 0.124749 0.999636 0.048035
O O8 0.019578 0.250000 0.732701
O O9 0.958279 0.046501 0.832540
O O10 0.004902 0.976555 0.672360
O O11 0.750000 0.496936 0.419243
O O12 0.819763 0.250000 0.408417
O O13 0.886073 0.496496 0.422651
O O14 0.500000 0.500000 0.500000
O O15 0.539594 0.250000 0.426287
O O16 0.443661 0.750000 0.039065
O O17 0.500000 0.000000 0.000000
#
# Coordination Sequence:
#
# PCOD8239614 Si02
#       6
#     8   8   8   8   8   8
#     4  10  18  29  49  75 104 139 174 211 261 320
#     4  11  23  35  48  71 106 145 184 228 274 318
#     4  10  20  34  53  78 106 136 174 221 266 317
#     4   8  15  28  47  73 102 131 166 206 252 310
#     4  10  20  34  55  80 106 138 173 216 267 318
#     4  11  22  35  55  78 105 141 182 224 266 319
#
# _framework density 17.572825000000002
#
# number of rings (size 3 to 8) (size 9 to 14) (size 15 to 20)
#    0.000    2.000    1.667    4.000    0.000    4.000 
#    0.000    0.000    0.000   11.000    0.000    2.333 
#    0.000    0.000    0.000    0.000    0.000    0.000 
#
# Total GULP energy -594836.894207 kJ/mol
# GULP energy per Si atom -12392.435296 kJ/mol
# Density = 1.753283 g / cm^3
# Si number density = 17.572825 Si / 1000 Ang^3
#
#
#
# Elastic Constant Matrix: (Units=GPa)
#
#
# Indices 1 2 3 4 5 6 
#
# 1 132.3613 44.1995 66.2559 0.0000 0.0000 0.0000
# 2 44.1995 70.9811 41.9112 0.0000 0.0000 0.0000
# 3 66.2559 41.9112 81.6409 0.0000 0.0000 0.0000
# 4 0.0000 0.0000 0.0000 28.8637 0.0000 0.0000
# 5 0.0000 0.0000 0.0000 0.0000 13.0899 0.0000
# 6 0.0000 0.0000 0.0000 0.0000 0.0000 22.9312
#
#
#
# Elastic Compliance Matrix: (Units=1/GPa)
#
#
# Indices 1 2 3 4 5 6 
#
# 1 0.013073 -0.002692 -0.009227 0.000000 0.000000 0.000000
# 2 -0.002692 0.020770 -0.008478 0.000000 0.000000 0.000000
# 3 -0.009227 -0.008478 0.024090 0.000000 0.000000 0.000000
# 4 0.000000 0.000000 0.000000 0.034646 0.000000 0.000000
# 5 0.000000 0.000000 0.000000 0.000000 0.076395 0.000000
# 6 0.000000 0.000000 0.000000 0.000000 0.000000 0.043609
#
#
# Mechanical properties :
#
#
# Convention : Reuss Voigt Hill
#
# Bulk Modulus (GPa) = 58.34958 65.52404 61.93681
# Shear Modulus (GPa) = 19.29832 21.81806 20.55819
#
# Velocity S-wave (km/s) = 3.31749 3.52743 3.42407
# Velocity P-wave (km/s) = 6.92466 7.34564 7.13825
#
# Compressibility (1/GPa) = 0.01713808
#
# Stress axis : x y z
#
# Youngs Moduli (GPa) = 76.49345 48.14529 41.51184
#
# Poissons Ratio (x) = 0.12961 0.38305
# Poissons Ratio (y) = 0.20593 0.35193
# Poissons Ratio (z) = 0.70584 0.40817
#
# Static dielectric constant tensor:
#      x y z
#    x 0.496440 0.000000 0.000000 
#    y 0.000000 3.292250 0.000000 
#    z 0.000000 0.000000 2.473600 
# 
# 
# High freq. dielectric constant tensor:
#      x y z
#    x 1.681430 0.000000 0.000000 
#    y 0.000000 1.681020 0.000000 
#    z 0.000000 0.000000 1.649150 
# 
# From -- ./inp_files/20714.got.cif
#   From: 2010.03.12/outbox.cif.g09.slc.cpg/sg59_11_cif.got.tgz:20714.got - 2010.04.16 16:29:54.
