data_PCOD8239192
_publ_section_title
;
Structure prediction by ZEFSAII (Michael W. Deem and Ramdas Pophale) SiO2 
 PCOD8239192
Probable space group: P M M N
;
_chemical_formula_sum "Si O2"
_cell_formula_units_Z 64
_cell_length_a 18.136019
_cell_length_b 16.401559
_cell_length_c 11.714205
_cell_angle_alpha 90.000000
_cell_angle_beta 90.000000
_cell_angle_gamma 90.000000
_cell_volume 3484.495537
_symmetry_space_group_name_H-M "P M M N"
_symmetry_group_IT_number 59
_space_group.IT_coordinate_system_code '2'
_symmetry_cell_setting 'orthorhombic'
loop_
_space_group_symop_operation_xyz
x,y,z
1/2-x,1/2-y,z
1/2+x,-y,-z
-x,1/2+y,-z
-x,-y,-z
1/2+x,1/2+y,-z
1/2-x,y,z
x,1/2-y,z
loop_
_atom_site_type_symbol
_atom_site_label
_atom_site_fract_x
_atom_site_fract_y
_atom_site_fract_z
Si Si1 0.566345 0.840481 0.490310
Si Si2 0.667622 0.514889 0.497900
Si Si3 0.454038 0.568005 0.651367
Si Si4 0.333118 0.977338 0.012562
Si Si5 0.426352 0.655694 0.883014
Si Si6 0.830264 0.071172 0.732154
Si Si7 0.989287 0.106118 0.724075
Si Si8 0.959968 0.584445 0.028238
O O1 0.587254 0.750000 0.529838
O O2 0.640878 0.892398 0.484804
O O3 0.509019 0.877799 0.578741
O O4 0.530045 0.835982 0.364891
O O5 0.750000 0.507929 0.447355
O O6 0.615448 0.454414 0.427097
O O7 0.666475 0.494253 0.631229
O O8 0.423195 0.619724 0.756322
O O9 0.498555 0.488532 0.691420
O O10 0.250000 0.981639 0.965911
O O11 0.336321 0.976417 0.149050
O O12 0.373287 0.062085 0.976023
O O13 0.370447 0.895431 0.962540
O O14 0.401934 0.750000 0.881312
O O15 0.509965 0.648210 0.933653
O O16 0.750000 0.117769 0.726929
O O17 0.901886 0.129276 0.721825
O O18 0.021645 0.122014 0.848938
O O19 0.000000 0.500000 0.000000
#
# Coordination Sequence:
#
# PCOD8239192 Si02
#       8
#     8   8   8   8   8   8   8   8
#     4  11  23  35  54  82 113 144 178 229 282 328
#     4  10  21  36  59  82 105 144 190 230 269 321
#     4  11  19  36  56  80 106 145 188 225 267 327
#     4  10  20  35  57  82 109 142 183 225 269 324
#     4  11  22  34  55  84 113 144 180 227 282 331
#     4  10  17  31  57  82 102 130 176 228 268 311
#     4  11  17  36  58  79 104 141 193 228 256 323
#     4  10  18  34  57  79 107 141 184 227 267 318
#
# _framework density 18.367076999999998
#
# number of rings (size 3 to 8) (size 9 to 14) (size 15 to 20)
#    0.000    1.500    7.500    1.125    0.000    1.500 
#    0.000    0.000    0.000    2.625    0.000    0.000 
#    0.000    0.000    0.000    0.000    0.000    0.000 
#
# Total GULP energy -793271.777976 kJ/mol
# GULP energy per Si atom -12394.871531 kJ/mol
# Density = 1.832527 g / cm^3
# Si number density = 18.367077 Si / 1000 Ang^3
#
#
#
# Elastic Constant Matrix: (Units=GPa)
#
#
# Indices 1 2 3 4 5 6 
#
# 1 114.6556 23.6729 29.2233 0.0000 0.0000 0.0000
# 2 23.6729 69.7258 28.5936 0.0000 0.0000 0.0000
# 3 29.2233 28.5936 108.6430 0.0000 0.0000 0.0000
# 4 0.0000 0.0000 0.0000 15.7730 0.0000 0.0000
# 5 0.0000 0.0000 0.0000 0.0000 25.8126 0.0000
# 6 0.0000 0.0000 0.0000 0.0000 0.0000 10.2373
#
#
#
# Elastic Compliance Matrix: (Units=1/GPa)
#
#
# Indices 1 2 3 4 5 6 
#
# 1 0.009738 -0.002502 -0.001961 0.000000 0.000000 0.000000
# 2 -0.002502 0.016720 -0.003727 0.000000 0.000000 0.000000
# 3 -0.001961 -0.003727 0.010713 0.000000 0.000000 0.000000
# 4 0.000000 0.000000 0.000000 0.063400 0.000000 0.000000
# 5 0.000000 0.000000 0.000000 0.000000 0.038741 0.000000
# 6 0.000000 0.000000 0.000000 0.000000 0.000000 0.097682
#
#
# Mechanical properties :
#
#
# Convention : Reuss Voigt Hill
#
# Bulk Modulus (GPa) = 48.09977 50.66714 49.38346
# Shear Modulus (GPa) = 19.20828 24.46687 21.83758
#
# Velocity S-wave (km/s) = 3.23739 3.65376 3.45186
# Velocity P-wave (km/s) = 6.34186 6.74134 6.54465
#
# Compressibility (1/GPa) = 0.02079012
#
# Stress axis : x y z
#
# Youngs Moduli (GPa) = 102.68860 59.80862 93.34507
#
# Poissons Ratio (x) = 0.14965 0.18304
# Poissons Ratio (y) = 0.25694 0.34794
# Poissons Ratio (z) = 0.20136 0.22294
#
# Static dielectric constant tensor:
#      x y z
#    x 3.834480 0.000000 0.000000 
#    y 0.000000 3.094760 0.000000 
#    z 0.000000 0.000000 3.587030 
# 
# 
# High freq. dielectric constant tensor:
#      x y z
#    x 1.713820 0.000000 0.000000 
#    y 0.000000 1.670210 0.000000 
#    z 0.000000 0.000000 1.730130 
# 
# From -- ./inp_files/17851.got.cif
#   From: 2010.03.12/outbox.cif.g09.slc.cpg/sg59_9_cif.got.tgz:17851.got - 2010.04.16 16:29:54.
