data_PCOD8239961
_publ_section_title
;
Structure prediction by ZEFSAII (Michael W. Deem and Ramdas Pophale) SiO2 
 PCOD8239961
Probable space group: P M M N
;
_chemical_formula_sum "Si O2"
_cell_formula_units_Z 64
_cell_length_a 22.768820
_cell_length_b 18.184967
_cell_length_c 9.096774
_cell_angle_alpha 90.000000
_cell_angle_beta 90.000000
_cell_angle_gamma 90.000000
_cell_volume 3766.521461
_symmetry_space_group_name_H-M "P M M N"
_symmetry_group_IT_number 59
_space_group.IT_coordinate_system_code '2'
_symmetry_cell_setting 'orthorhombic'
loop_
_space_group_symop_operation_xyz
x,y,z
1/2-x,1/2-y,z
1/2+x,-y,-z
-x,1/2+y,-z
-x,-y,-z
1/2+x,1/2+y,-z
1/2-x,y,z
x,1/2-y,z
loop_
_atom_site_type_symbol
_atom_site_label
_atom_site_fract_x
_atom_site_fract_y
_atom_site_fract_z
Si Si1 0.435815 0.467052 0.527666
Si Si2 0.319301 0.565184 0.937776
Si Si3 0.576596 0.529306 0.135849
Si Si4 0.093059 0.620046 0.454004
Si Si5 0.316177 0.668252 0.671259
Si Si6 0.004681 0.886204 0.933616
Si Si7 0.391810 0.833709 0.128043
Si Si8 0.476221 0.166944 0.377280
O O1 0.500000 0.500000 0.500000
O O2 0.421605 0.445627 0.695310
O O3 0.393655 0.532515 0.471365
O O4 0.427552 0.391853 0.434187
O O5 0.250000 0.546660 0.946220
O O6 0.338057 0.613644 0.078773
O O7 0.358294 0.491031 0.926115
O O8 0.337788 0.611854 0.794510
O O9 0.532799 0.460588 0.128352
O O10 0.550905 0.595555 0.037881
O O11 0.148420 0.662001 0.520708
O O12 0.085101 0.640088 0.285285
O O13 0.036912 0.647582 0.543342
O O14 0.250000 0.651105 0.627222
O O15 0.323322 0.750000 0.737752
O O16 0.982343 0.837972 0.797983
O O17 0.052926 0.839429 0.020073
O O18 0.369246 0.750000 0.132830
O O19 0.456793 0.250000 0.417202
#
# Coordination Sequence:
#
# PCOD8239961 Si02
#       8
#     8   8   8   8   8   8   8   8
#     4  10  18  32  49  74 100 135 170 210 259 310
#     4  10  21  36  52  72 103 142 188 225 258 306
#     4  10  18  32  52  76  99 136 174 224 268 311
#     4  11  20  33  49  72 103 143 177 209 250 307
#     4  10  19  32  50  70  97 135 179 218 250 292
#     4  10  19  31  51  74 104 133 176 214 264 317
#     4  11  22  32  48  75 110 145 177 217 264 311
#     4  11  21  32  51  75 105 137 168 205 255 325
#
# _framework density 16.991804999999999
#
# number of rings (size 3 to 8) (size 9 to 14) (size 15 to 20)
#    0.000    1.625    3.750    4.125    3.500    1.250 
#    0.000    0.625    0.000    0.000    0.000    0.000 
#    0.000    8.000    0.000    0.000    0.000    0.000 
#
# Total GULP energy -793515.144548 kJ/mol
# GULP energy per Si atom -12398.674134 kJ/mol
# Density = 1.695313 g / cm^3
# Si number density = 16.991805 Si / 1000 Ang^3
#
#
#
# Elastic Constant Matrix: (Units=GPa)
#
#
# Indices 1 2 3 4 5 6 
#
# 1 63.0659 16.6836 19.3736 0.0000 0.0000 0.0000
# 2 16.6836 73.0744 22.8239 0.0000 0.0000 0.0000
# 3 19.3736 22.8239 101.6784 0.0000 0.0000 0.0000
# 4 0.0000 0.0000 0.0000 21.0287 0.0000 0.0000
# 5 0.0000 0.0000 0.0000 0.0000 13.1268 0.0000
# 6 0.0000 0.0000 0.0000 0.0000 0.0000 16.8377
#
#
#
# Elastic Compliance Matrix: (Units=1/GPa)
#
#
# Indices 1 2 3 4 5 6 
#
# 1 0.017502 -0.003177 -0.002622 0.000000 0.000000 0.000000
# 2 -0.003177 0.015293 -0.002828 0.000000 0.000000 0.000000
# 3 -0.002622 -0.002828 0.010969 0.000000 0.000000 0.000000
# 4 0.000000 0.000000 0.000000 0.047554 0.000000 0.000000
# 5 0.000000 0.000000 0.000000 0.000000 0.076180 0.000000
# 6 0.000000 0.000000 0.000000 0.000000 0.000000 0.059390
#
#
# Mechanical properties :
#
#
# Convention : Reuss Voigt Hill
#
# Bulk Modulus (GPa) = 37.71876 39.50901 38.61389
# Shear Modulus (GPa) = 19.76447 22.12782 20.94615
#
# Velocity S-wave (km/s) = 3.41424 3.61260 3.51482
# Velocity P-wave (km/s) = 6.14728 6.37993 6.26469
#
# Compressibility (1/GPa) = 0.02651200
#
# Stress axis : x y z
#
# Youngs Moduli (GPa) = 57.13547 65.38861 91.16465
#
# Poissons Ratio (x) = 0.20775 0.23900
# Poissons Ratio (y) = 0.18152 0.25777
# Poissons Ratio (z) = 0.14979 0.18489
#
# Static dielectric constant tensor:
#      x y z
#    x 3.137440 0.000000 0.000000 
#    y 0.000000 3.495430 0.000000 
#    z 0.000000 0.000000 3.312840 
# 
# 
# High freq. dielectric constant tensor:
#      x y z
#    x 1.615130 0.000000 0.000000 
#    y 0.000000 1.642510 0.000000 
#    z 0.000000 0.000000 1.667900 
# 
# From -- ./inp_files/10802.got.cif
#   From: 2010.03.12/outbox.cif.g09.slc.cpg/sg59_6_cif.got.tgz:10802.got - 2010.04.16 16:29:54.
