data_PCOD8239417
_publ_section_title
;
Structure prediction by ZEFSAII (Michael W. Deem and Ramdas Pophale) SiO2 
 PCOD8239417
Probable space group: P M M N
;
_chemical_formula_sum "Si O2"
_cell_formula_units_Z 48
_cell_length_a 22.086723
_cell_length_b 8.982479
_cell_length_c 13.724537
_cell_angle_alpha 90.000000
_cell_angle_beta 90.000000
_cell_angle_gamma 90.000000
_cell_volume 2722.859282
_symmetry_space_group_name_H-M "P M M N"
_symmetry_group_IT_number 59
_space_group.IT_coordinate_system_code '2'
_symmetry_cell_setting 'orthorhombic'
loop_
_space_group_symop_operation_xyz
x,y,z
1/2-x,1/2-y,z
1/2+x,-y,-z
-x,1/2+y,-z
-x,-y,-z
1/2+x,1/2+y,-z
1/2-x,y,z
x,1/2-y,z
loop_
_atom_site_type_symbol
_atom_site_label
_atom_site_fract_x
_atom_site_fract_y
_atom_site_fract_z
Si Si1 0.868989 0.075206 0.213167
Si Si2 0.250000 0.426483 0.752542
Si Si3 0.551031 0.417262 0.729746
Si Si4 0.624291 0.422742 0.553660
Si Si5 0.750000 0.076790 0.457901
Si Si6 0.070250 0.419503 0.616009
Si Si7 0.489193 0.924440 0.897764
O O1 0.856564 0.250000 0.209982
O O2 0.922660 0.027650 0.139748
O O3 0.807765 0.987400 0.187007
O O4 0.886697 0.028264 0.322093
O O5 0.250000 0.250000 0.753279
O O6 0.250000 0.483375 0.641287
O O7 0.552806 0.250000 0.772254
O O8 0.612397 0.455044 0.669280
O O9 0.498450 0.434416 0.649732
O O10 0.540746 0.525917 0.820917
O O11 0.609915 0.250000 0.532117
O O12 0.692697 0.464661 0.525190
O O13 0.577136 0.525105 0.494310
O O14 0.750000 0.250000 0.428293
O O15 0.093319 0.250000 0.627077
O O16 0.494382 0.750000 0.910772
O O17 0.500000 0.000000 0.000000
#
# Coordination Sequence:
#
# PCOD8239417 Si02
#       7
#     8   4   8   8   4   8   8
#     4  10  20  34  52  75 105 140 174 209 259 320
#     4  12  22  32  50  77 108 141 176 215 256 298
#     4   9  19  33  49  72 101 133 171 214 260 312
#     4  10  19  31  47  68 100 142 179 211 252 302
#     4  10  20  32  48  69 102 147 184 213 248 300
#     4  10  18  28  45  71 102 134 170 214 256 300
#     4  10  21  37  59  82 103 131 169 219 276 325
#
# _framework density 17.628526999999998
#
# number of rings (size 3 to 8) (size 9 to 14) (size 15 to 20)
#    0.000    2.000    1.667    2.750    0.000    3.333 
#    0.000    0.000    0.000    1.000    0.000    5.833 
#    0.000    0.000    0.000    0.000    0.000    0.000 
#
# Total GULP energy -595136.144821 kJ/mol
# GULP energy per Si atom -12398.669684 kJ/mol
# Density = 1.758840 g / cm^3
# Si number density = 17.628527 Si / 1000 Ang^3
#
#
#
# Elastic Constant Matrix: (Units=GPa)
#
#
# Indices 1 2 3 4 5 6 
#
# 1 72.2591 40.4588 47.3034 0.0000 0.0000 0.0000
# 2 40.4588 85.5554 50.1456 0.0000 0.0000 0.0000
# 3 47.3034 50.1456 108.8125 0.0000 0.0000 0.0000
# 4 0.0000 0.0000 0.0000 28.9891 0.0000 0.0000
# 5 0.0000 0.0000 0.0000 0.0000 18.6343 0.0000
# 6 0.0000 0.0000 0.0000 0.0000 0.0000 23.5185
#
#
#
# Elastic Compliance Matrix: (Units=1/GPa)
#
#
# Indices 1 2 3 4 5 6 
#
# 1 0.021683 -0.006479 -0.006440 0.000000 0.000000 0.000000
# 2 -0.006479 0.017950 -0.005456 0.000000 0.000000 0.000000
# 3 -0.006440 -0.005456 0.014504 0.000000 0.000000 0.000000
# 4 0.000000 0.000000 0.000000 0.034496 0.000000 0.000000
# 5 0.000000 0.000000 0.000000 0.000000 0.053664 0.000000
# 6 0.000000 0.000000 0.000000 0.000000 0.000000 0.042520
#
#
# Mechanical properties :
#
#
# Convention : Reuss Voigt Hill
#
# Bulk Modulus (GPa) = 57.51373 60.27141 58.89257
# Shear Modulus (GPa) = 21.99143 22.80966 22.40055
#
# Velocity S-wave (km/s) = 3.53582 3.60099 3.56855
# Velocity P-wave (km/s) = 7.02606 7.18007 7.10348
#
# Compressibility (1/GPa) = 0.01738715
#
# Stress axis : x y z
#
# Youngs Moduli (GPa) = 46.11970 55.71102 68.94661
#
# Poissons Ratio (x) = 0.36095 0.44403
# Poissons Ratio (y) = 0.29881 0.37614
# Poissons Ratio (z) = 0.29702 0.30393
#
# Static dielectric constant tensor:
#      x y z
#    x 3.506280 0.000000 0.000000 
#    y 0.000000 3.323650 0.000000 
#    z 0.000000 0.000000 3.050240 
# 
# 
# High freq. dielectric constant tensor:
#      x y z
#    x 1.676070 0.000000 0.000000 
#    y 0.000000 1.688350 0.000000 
#    z 0.000000 0.000000 1.652320 
# 
# From -- ./inp_files/24115.got.cif
#   From: 2010.03.12/outbox.cif.g09.slc.cpg/sg59_13_cif.got.tgz:24115.got - 2010.04.16 16:29:54.
