data_PCOD8239076
_publ_section_title
;
Structure prediction by ZEFSAII (Michael W. Deem and Ramdas Pophale) SiO2 
 PCOD8239076
Probable space group: P M M N
;
_chemical_formula_sum "Si O2"
_cell_formula_units_Z 56
_cell_length_a 22.251886
_cell_length_b 8.905302
_cell_length_c 17.787117
_cell_angle_alpha 90.000000
_cell_angle_beta 90.000000
_cell_angle_gamma 90.000000
_cell_volume 3524.690923
_symmetry_space_group_name_H-M "P M M N"
_symmetry_group_IT_number 59
_space_group.IT_coordinate_system_code '2'
_symmetry_cell_setting 'orthorhombic'
loop_
_space_group_symop_operation_xyz
x,y,z
1/2-x,1/2-y,z
1/2+x,-y,-z
-x,1/2+y,-z
-x,-y,-z
1/2+x,1/2+y,-z
1/2-x,y,z
x,1/2-y,z
loop_
_atom_site_type_symbol
_atom_site_label
_atom_site_fract_x
_atom_site_fract_y
_atom_site_fract_z
Si Si1 0.594795 0.074481 0.130453
Si Si2 0.682743 0.071894 0.255110
Si Si3 0.036937 0.573366 0.327242
Si Si4 0.059806 0.423912 0.471623
Si Si5 0.560990 0.073413 0.972433
Si Si6 0.962345 0.571702 0.827520
Si Si7 0.599163 0.921674 0.369643
O O1 0.592099 0.250000 0.145724
O O2 0.647484 0.005090 0.182205
O O3 0.529986 0.011372 0.156719
O O4 0.607646 0.042907 0.041600
O O5 0.750000 0.004612 0.254642
O O6 0.685321 0.250000 0.252353
O O7 0.648797 0.024626 0.330803
O O8 0.046810 0.750000 0.322560
O O9 0.078874 0.507239 0.394505
O O10 0.059775 0.496282 0.250971
O O11 0.967520 0.529968 0.342860
O O12 0.047642 0.250000 0.454309
O O13 0.107367 0.442057 0.539991
O O14 0.000000 0.500000 0.500000
O O15 0.552243 0.250000 0.959069
O O16 0.580434 0.993567 0.894477
O O17 0.500000 0.000000 0.000000
O O18 0.956930 0.750000 0.826276
O O19 0.610481 0.750000 0.346385
#
# Coordination Sequence:
#
# PCOD8239076 Si02
#       7
#     8   8   8   8   8   8   8
#     4   8  15  27  40  56  79 109 140 175 215 246
#     4  10  19  30  45  63  82 110 149 184 213 248
#     4  10  18  27  41  63  86 112 143 172 208 256
#     4   9  17  28  41  59  82 110 142 174 210 255
#     4   9  16  26  39  56  80 108 141 175 209 255
#     4  10  17  26  41  60  84 113 141 171 210 254
#     4   9  18  30  42  58  82 111 142 176 214 251
#
# _framework density 15.887918000000001
#
# number of rings (size 3 to 8) (size 9 to 14) (size 15 to 20)
#    0.000    2.714    1.429    3.429    0.000    3.143 
#    0.000    0.714    0.000    0.000    0.000    0.000 
#    0.000    1.143    0.000    6.000    0.000    3.000 
#
# Total GULP energy -693885.662813 kJ/mol
# GULP energy per Si atom -12390.815407 kJ/mol
# Density = 1.585176 g / cm^3
# Si number density = 15.887918 Si / 1000 Ang^3
#
#
#
# Elastic Constant Matrix: (Units=GPa)
#
#
# Indices 1 2 3 4 5 6 
#
# 1 39.3431 15.9051 29.3934 0.0000 0.0000 0.0000
# 2 15.9051 72.9622 51.9401 0.0000 0.0000 0.0000
# 3 29.3934 51.9401 157.3583 0.0000 0.0000 0.0000
# 4 0.0000 0.0000 0.0000 32.0569 0.0000 0.0000
# 5 0.0000 0.0000 0.0000 0.0000 12.5112 0.0000
# 6 0.0000 0.0000 0.0000 0.0000 0.0000 11.2970
#
#
#
# Elastic Compliance Matrix: (Units=1/GPa)
#
#
# Indices 1 2 3 4 5 6 
#
# 1 0.030154 -0.003351 -0.004526 0.000000 0.000000 0.000000
# 2 -0.003351 0.018288 -0.005410 0.000000 0.000000 0.000000
# 3 -0.004526 -0.005410 0.008986 0.000000 0.000000 0.000000
# 4 0.000000 0.000000 0.000000 0.031195 0.000000 0.000000
# 5 0.000000 0.000000 0.000000 0.000000 0.079928 0.000000
# 6 0.000000 0.000000 0.000000 0.000000 0.000000 0.088519
#
#
# Mechanical properties :
#
#
# Convention : Reuss Voigt Hill
#
# Bulk Modulus (GPa) = 32.41261 51.57119 41.99190
# Shear Modulus (GPa) = 17.01088 22.66802 19.83945
#
# Velocity S-wave (km/s) = 3.27567 3.78133 3.53755
# Velocity P-wave (km/s) = 5.89507 7.18293 6.57062
#
# Compressibility (1/GPa) = 0.03085219
#
# Stress axis : x y z
#
# Youngs Moduli (GPa) = 33.16328 54.68141 111.28090
#
# Poissons Ratio (x) = 0.18324 0.50371
# Poissons Ratio (y) = 0.11113 0.60207
# Poissons Ratio (z) = 0.15011 0.29585
#
# Static dielectric constant tensor:
#      x y z
#    x 2.640660 0.000000 0.000000 
#    y 0.000000 3.038980 0.000000 
#    z 0.000000 0.000000 3.653660 
# 
# 
# High freq. dielectric constant tensor:
#      x y z
#    x 1.528830 0.000000 0.000000 
#    y 0.000000 1.612140 0.000000 
#    z 0.000000 0.000000 1.633430 
# 
# From -- ./inp_files/26141.got.cif
#   From: 2010.03.12/outbox.cif.g09.slc.cpg/sg59_14_cif.got.tgz:26141.got - 2010.04.16 16:29:54.
