data_PCOD8239434
_publ_section_title
;
Structure prediction by ZEFSAII (Michael W. Deem and Ramdas Pophale) SiO2 
 PCOD8239434
Probable space group: P M M N
;
_chemical_formula_sum "Si O2"
_cell_formula_units_Z 56
_cell_length_a 18.714971
_cell_length_b 9.073617
_cell_length_c 18.888656
_cell_angle_alpha 90.000000
_cell_angle_beta 90.000000
_cell_angle_gamma 90.000000
_cell_volume 3207.529501
_symmetry_space_group_name_H-M "P M M N"
_symmetry_group_IT_number 59
_space_group.IT_coordinate_system_code '2'
_symmetry_cell_setting 'orthorhombic'
loop_
_space_group_symop_operation_xyz
x,y,z
1/2-x,1/2-y,z
1/2+x,-y,-z
-x,1/2+y,-z
-x,-y,-z
1/2+x,1/2+y,-z
1/2-x,y,z
x,1/2-y,z
loop_
_atom_site_type_symbol
_atom_site_label
_atom_site_fract_x
_atom_site_fract_y
_atom_site_fract_z
Si Si1 0.976018 0.423003 0.070936
Si Si2 0.170133 0.924017 0.467192
Si Si3 0.058000 0.924173 0.353400
Si Si4 0.412538 0.574736 0.606118
Si Si5 0.476728 0.587264 0.202916
Si Si6 0.672997 0.417710 0.130702
Si Si7 0.134963 0.413747 0.737702
O O1 0.986189 0.250000 0.062655
O O2 0.893041 0.470363 0.082126
O O3 0.025527 0.476214 0.136543
O O4 0.000000 0.500000 0.000000
O O5 0.250000 0.993971 0.467284
O O6 0.177015 0.750000 0.472110
O O7 0.129614 0.970046 0.395053
O O8 0.123312 0.979980 0.533294
O O9 0.041580 0.750000 0.359735
O O10 0.070991 0.966410 0.270155
O O11 0.991833 0.009132 0.388527
O O12 0.417308 0.750000 0.612019
O O13 0.361192 0.513280 0.667762
O O14 0.452726 0.750000 0.176462
O O15 0.554942 0.594942 0.234923
O O16 0.750000 0.430814 0.090315
O O17 0.657312 0.250000 0.153549
O O18 0.682019 0.512842 0.201363
O O19 0.164368 0.250000 0.721351
#
# Coordination Sequence:
#
# PCOD8239434 Si02
#       7
#     8   8   8   8   8   8   8
#     4  10  19  31  50  74  99 126 154 188 229 273
#     4   9  18  31  46  66  92 123 161 204 249 291
#     4   9  17  31  51  70  90 120 159 203 243 283
#     4  10  18  28  46  70  95 125 160 198 240 288
#     4   8  15  28  46  68  91 115 147 187 229 274
#     4   9  18  32  49  70  97 129 162 193 230 280
#     4   9  17  29  45  67  95 124 155 191 231 278
#
# _framework density 17.458919000000002
#
# number of rings (size 3 to 8) (size 9 to 14) (size 15 to 20)
#    0.000    2.857    0.000    2.571    0.000    4.857 
#    0.000    2.143    0.000    4.286    0.000    4.000 
#    0.000    0.000    0.000    0.000    0.000    0.000 
#
# Total GULP energy -693986.639320 kJ/mol
# GULP energy per Si atom -12392.618559 kJ/mol
# Density = 1.741918 g / cm^3
# Si number density = 17.458919 Si / 1000 Ang^3
#
#
#
# Elastic Constant Matrix: (Units=GPa)
#
#
# Indices 1 2 3 4 5 6 
#
# 1 82.3499 33.0229 58.7314 0.0000 0.0000 0.0000
# 2 33.0229 71.8868 51.9036 0.0000 0.0000 0.0000
# 3 58.7314 51.9036 142.2796 0.0000 0.0000 0.0000
# 4 0.0000 0.0000 0.0000 27.0450 0.0000 0.0000
# 5 0.0000 0.0000 0.0000 0.0000 16.4705 0.0000
# 6 0.0000 0.0000 0.0000 0.0000 0.0000 15.0934
#
#
#
# Elastic Compliance Matrix: (Units=1/GPa)
#
#
# Indices 1 2 3 4 5 6 
#
# 1 0.017997 -0.003942 -0.005991 0.000000 0.000000 0.000000
# 2 -0.003942 0.019748 -0.005577 0.000000 0.000000 0.000000
# 3 -0.005991 -0.005577 0.011536 0.000000 0.000000 0.000000
# 4 0.000000 0.000000 0.000000 0.036975 0.000000 0.000000
# 5 0.000000 0.000000 0.000000 0.000000 0.060715 0.000000
# 6 0.000000 0.000000 0.000000 0.000000 0.000000 0.066254
#
#
# Mechanical properties :
#
#
# Convention : Reuss Voigt Hill
#
# Bulk Modulus (GPa) = 54.76002 64.87025 59.81513
# Shear Modulus (GPa) = 19.97354 21.91234 20.94294
#
# Velocity S-wave (km/s) = 3.38602 3.54655 3.46722
# Velocity P-wave (km/s) = 6.83520 7.34897 7.09674
#
# Compressibility (1/GPa) = 0.01826150
#
# Stress axis : x y z
#
# Youngs Moduli (GPa) = 55.56614 50.63756 86.68584
#
# Poissons Ratio (x) = 0.19959 0.51932
# Poissons Ratio (y) = 0.21902 0.48345
# Poissons Ratio (z) = 0.33289 0.28241
#
# Static dielectric constant tensor:
#      x y z
#    x 3.231160 0.000000 0.000000 
#    y 0.000000 3.273380 0.000000 
#    z 0.000000 0.000000 3.408110 
# 
# 
# High freq. dielectric constant tensor:
#      x y z
#    x 1.650840 0.000000 0.000000 
#    y 0.000000 1.667070 0.000000 
#    z 0.000000 0.000000 1.667510 
# 
# From -- ./inp_files/28026.got.cif
#   From: 2010.03.12/outbox.cif.g09.slc.cpg/sg59_15_cif.got.tgz:28026.got - 2010.04.16 16:29:54.
