data_PCOD8239436
_publ_section_title
;
Structure prediction by ZEFSAII (Michael W. Deem and Ramdas Pophale) SiO2 
 PCOD8239436
Probable space group: P M M N
;
_chemical_formula_sum "Si O2"
_cell_formula_units_Z 48
_cell_length_a 18.226156
_cell_length_b 9.197732
_cell_length_c 16.398759
_cell_angle_alpha 90.000000
_cell_angle_beta 90.000000
_cell_angle_gamma 90.000000
_cell_volume 2749.076451
_symmetry_space_group_name_H-M "P M M N"
_symmetry_group_IT_number 59
_space_group.IT_coordinate_system_code '2'
_symmetry_cell_setting 'orthorhombic'
loop_
_space_group_symop_operation_xyz
x,y,z
1/2-x,1/2-y,z
1/2+x,-y,-z
-x,1/2+y,-z
-x,-y,-z
1/2+x,1/2+y,-z
1/2-x,y,z
x,1/2-y,z
loop_
_atom_site_type_symbol
_atom_site_label
_atom_site_fract_x
_atom_site_fract_y
_atom_site_fract_z
Si Si1 0.333671 0.079950 0.155902
Si Si2 0.923289 0.580949 0.501971
Si Si3 0.330802 0.077998 0.649446
Si Si4 0.589058 0.584117 0.681950
Si Si5 0.033217 0.922363 0.077799
Si Si6 0.960457 0.919096 0.243571
O O1 0.250000 0.036119 0.136766
O O2 0.347119 0.250000 0.137936
O O3 0.349306 0.042378 0.251106
O O4 0.386295 0.985807 0.097625
O O5 0.939379 0.750000 0.486083
O O6 0.869569 0.517709 0.432432
O O7 0.883006 0.556952 0.589660
O O8 0.000000 0.500000 0.500000
O O9 0.250000 0.007396 0.658249
O O10 0.323459 0.250000 0.642367
O O11 0.378153 0.035291 0.729811
O O12 0.565800 0.750000 0.694635
O O13 0.515859 0.492574 0.693998
O O14 0.039515 0.750000 0.063673
O O15 0.976987 0.963130 0.150573
O O16 0.000000 0.000000 0.000000
O O17 0.972980 0.750000 0.255998
#
# Coordination Sequence:
#
# PCOD8239436 Si02
#       6
#     8   8   8   8   8   8
#     4   9  18  33  52  75 105 135 164 205 256 304
#     4  10  18  28  46  70  97 131 168 205 244 289
#     4   9  17  29  46  69  96 126 163 205 242 279
#     4   9  17  28  46  72  97 127 164 201 243 291
#     4  10  20  34  54  78 102 130 167 208 251 307
#     4   9  17  31  50  70  93 125 163 200 241 293
#
# _framework density 17.460408999999999
#
# number of rings (size 3 to 8) (size 9 to 14) (size 15 to 20)
#    0.000    2.667    1.667    0.500    0.000    1.667 
#    0.000    4.167    0.000    5.000    0.000    2.333 
#    0.000    0.000    0.000    0.000    0.000    0.000 
#
# Total GULP energy -594952.084789 kJ/mol
# GULP energy per Si atom -12394.835100 kJ/mol
# Density = 1.742067 g / cm^3
# Si number density = 17.460409 Si / 1000 Ang^3
#
#
#
# Elastic Constant Matrix: (Units=GPa)
#
#
# Indices 1 2 3 4 5 6 
#
# 1 149.2621 40.5647 74.6391 0.0000 0.0000 0.0000
# 2 40.5647 41.8059 38.4451 0.0000 0.0000 0.0000
# 3 74.6391 38.4451 122.7972 0.0000 0.0000 0.0000
# 4 0.0000 0.0000 0.0000 20.9066 0.0000 0.0000
# 5 0.0000 0.0000 0.0000 0.0000 22.9401 0.0000
# 6 0.0000 0.0000 0.0000 0.0000 0.0000 23.0261
#
#
#
# Elastic Compliance Matrix: (Units=1/GPa)
#
#
# Indices 1 2 3 4 5 6 
#
# 1 0.010643 -0.006148 -0.004544 0.000000 0.000000 0.000000
# 2 -0.006148 0.037143 -0.007892 0.000000 0.000000 0.000000
# 3 -0.004544 -0.007892 0.013376 0.000000 0.000000 0.000000
# 4 0.000000 0.000000 0.000000 0.047832 0.000000 0.000000
# 5 0.000000 0.000000 0.000000 0.000000 0.043592 0.000000
# 6 0.000000 0.000000 0.000000 0.000000 0.000000 0.043429
#
#
# Mechanical properties :
#
#
# Convention : Reuss Voigt Hill
#
# Bulk Modulus (GPa) = 41.67672 69.01812 55.34742
# Shear Modulus (GPa) = 20.73139 24.05563 22.39351
#
# Velocity S-wave (km/s) = 3.44951 3.71580 3.58513
# Velocity P-wave (km/s) = 6.30766 7.61733 6.99322
#
# Compressibility (1/GPa) = 0.02399421
#
# Stress axis : x y z
#
# Youngs Moduli (GPa) = 93.96061 26.92312 74.75921
#
# Poissons Ratio (x) = 0.16552 0.33972
# Poissons Ratio (y) = 0.57766 0.58998
# Poissons Ratio (z) = 0.42697 0.21247
#
# Static dielectric constant tensor:
#      x y z
#    x 3.427320 0.000000 0.000000 
#    y 0.000000 3.115610 0.000000 
#    z 0.000000 0.000000 3.420860 
# 
# 
# High freq. dielectric constant tensor:
#      x y z
#    x 1.662730 0.000000 0.000000 
#    y 0.000000 1.656350 0.000000 
#    z 0.000000 0.000000 1.677510 
# 
# From -- ./inp_files/25738.got.cif
#   From: 2010.03.12/outbox.cif.g09.slc.cpg/sg59_13_cif.got.tgz:25738.got - 2010.04.16 16:29:54.
