data_PCOD8239174
_publ_section_title
;
Structure prediction by ZEFSAII (Michael W. Deem and Ramdas Pophale) SiO2 
 PCOD8239174
Probable space group: P M M N
;
_chemical_formula_sum "Si O2"
_cell_formula_units_Z 56
_cell_length_a 31.494271
_cell_length_b 23.752541
_cell_length_c 5.328758
_cell_angle_alpha 90.000000
_cell_angle_beta 90.000000
_cell_angle_gamma 90.000000
_cell_volume 3986.278472
_symmetry_space_group_name_H-M "P M M N"
_symmetry_group_IT_number 59
_space_group.IT_coordinate_system_code '2'
_symmetry_cell_setting 'orthorhombic'
loop_
_space_group_symop_operation_xyz
x,y,z
1/2-x,1/2-y,z
1/2+x,-y,-z
-x,1/2+y,-z
-x,-y,-z
1/2+x,1/2+y,-z
1/2-x,y,z
x,1/2-y,z
loop_
_atom_site_type_symbol
_atom_site_label
_atom_site_fract_x
_atom_site_fract_y
_atom_site_fract_z
Si Si1 0.407579 0.750000 0.781675
Si Si2 0.589223 0.447519 0.245305
Si Si3 0.938627 0.023257 0.745445
Si Si4 0.996907 0.129032 0.747260
Si Si5 0.541059 0.250000 0.717607
Si Si6 0.300155 0.684942 0.259897
Si Si7 0.844864 0.350992 0.243882
Si Si8 0.993157 0.916300 0.752845
O O1 0.443888 0.750000 0.570516
O O2 0.380595 0.695281 0.732367
O O3 0.422630 0.750000 0.070260
O O4 0.589979 0.485962 0.496795
O O5 0.631325 0.410229 0.245462
O O6 0.544545 0.413347 0.243618
O O7 0.590190 0.485781 0.993264
O O8 0.955843 0.087614 0.743532
O O9 0.978470 0.981050 0.746638
O O10 0.023755 0.116580 0.493585
O O11 0.986241 0.194409 0.761063
O O12 0.024268 0.114414 0.996774
O O13 0.250000 0.680738 0.243080
O O14 0.315120 0.750000 0.265788
O O15 0.314655 0.653566 0.513253
O O16 0.318822 0.655081 0.013439
#
# Coordination Sequence:
#
# PCOD8239174 Si02
#       8
#     4   8   8   8   4   8   8   8
#     4  12  20  30  41  58  78 104 122 158 212 274
#     4  10  18  27  42  62  83  94 119 163 203 247
#     4  10  17  30  44  60  79 108 134 160 196 250
#     4  10  18  28  38  55  72 105 132 164 190 244
#     4  12  22  30  40  56  89 110 130 160 222 270
#     4  11  22  38  50  60  76 105 142 174 208 266
#     4  12  21  33  46  67  80 100 131 170 221 258
#     4  10  18  30  44  58  78 107 138 160 193 252
#
# _framework density 14.048192
#
# number of rings (size 3 to 8) (size 9 to 14) (size 15 to 20)
#    0.000    1.286    1.429   10.714    0.000    1.143 
#    0.000    0.000    0.000    0.000    0.000    0.000 
#    0.000    0.000    0.000    0.000    0.000    0.000 
#
# Total GULP energy -693935.698181 kJ/mol
# GULP energy per Si atom -12391.708896 kJ/mol
# Density = 1.401622 g / cm^3
# Si number density = 14.048192 Si / 1000 Ang^3
#
#
#
# Elastic Constant Matrix: (Units=GPa)
#
#
# Indices 1 2 3 4 5 6 
#
# 1 40.2905 28.1573 26.9452 0.0000 0.0000 0.0000
# 2 28.1573 56.0170 26.7017 0.0000 0.0000 0.0000
# 3 26.9452 26.7017 156.9811 0.0000 0.0000 0.0000
# 4 0.0000 0.0000 0.0000 12.4735 0.0000 0.0000
# 5 0.0000 0.0000 0.0000 0.0000 20.8298 0.0000
# 6 0.0000 0.0000 0.0000 0.0000 0.0000 19.5085
#
#
#
# Elastic Compliance Matrix: (Units=1/GPa)
#
#
# Indices 1 2 3 4 5 6 
#
# 1 0.040210 -0.018415 -0.003770 0.000000 0.000000 0.000000
# 2 -0.018415 0.027860 -0.001578 0.000000 0.000000 0.000000
# 3 -0.003770 -0.001578 0.007286 0.000000 0.000000 0.000000
# 4 0.000000 0.000000 0.000000 0.080170 0.000000 0.000000
# 5 0.000000 0.000000 0.000000 0.000000 0.048008 0.000000
# 6 0.000000 0.000000 0.000000 0.000000 0.000000 0.051260
#
#
# Mechanical properties :
#
#
# Convention : Reuss Voigt Hill
#
# Bulk Modulus (GPa) = 35.93140 46.32191 41.12666
# Shear Modulus (GPa) = 16.04639 21.99465 19.02052
#
# Velocity S-wave (km/s) = 3.38337 3.96113 3.68360
# Velocity P-wave (km/s) = 6.39497 7.34615 6.88700
#
# Compressibility (1/GPa) = 0.02783081
#
# Stress axis : x y z
#
# Youngs Moduli (GPa) = 24.86928 35.89327 137.25609
#
# Poissons Ratio (x) = 0.66098 0.51740
# Poissons Ratio (y) = 0.45797 0.21659
# Poissons Ratio (z) = 0.09375 0.05664
#
# Static dielectric constant tensor:
#      x y z
#    x 2.368650 0.000000 0.000000 
#    y 0.000000 2.564100 0.000000 
#    z 0.000000 0.000000 3.807190 
# 
# 
# High freq. dielectric constant tensor:
#      x y z
#    x 1.473170 0.000000 0.000000 
#    y 0.000000 1.504440 0.000000 
#    z 0.000000 0.000000 1.583350 
# 
# From -- ./inp_files/3922.got.cif
#   From: 2010.03.12/outbox.cif.g09.slc.cpg/sg59_2_cif.got.tgz:3922.got - 2010.04.16 16:29:54.
