data_PCOD8239793
_publ_section_title
;
Structure prediction by ZEFSAII (Michael W. Deem and Ramdas Pophale) SiO2 
 PCOD8239793
Probable space group: P M M N
;
_chemical_formula_sum "Si O2"
_cell_formula_units_Z 40
_cell_length_a 26.127481
_cell_length_b 8.519489
_cell_length_c 9.235499
_cell_angle_alpha 90.000000
_cell_angle_beta 90.000000
_cell_angle_gamma 90.000000
_cell_volume 2055.755462
_symmetry_space_group_name_H-M "P M M N"
_symmetry_group_IT_number 59
_space_group.IT_coordinate_system_code '2'
_symmetry_cell_setting 'orthorhombic'
loop_
_space_group_symop_operation_xyz
x,y,z
1/2-x,1/2-y,z
1/2+x,-y,-z
-x,1/2+y,-z
-x,-y,-z
1/2+x,1/2+y,-z
1/2-x,y,z
x,1/2-y,z
loop_
_atom_site_type_symbol
_atom_site_label
_atom_site_fract_x
_atom_site_fract_y
_atom_site_fract_z
Si Si1 0.047160 0.936535 0.589275
Si Si2 0.139891 0.931909 0.405259
Si Si3 0.750000 0.431235 0.619742
Si Si4 0.356919 0.564249 0.075155
Si Si5 0.750000 0.568208 0.925567
Si Si6 0.547021 0.565508 0.090236
O O1 0.046877 0.750000 0.590595
O O2 0.098288 0.007954 0.512284
O O3 0.044232 0.996747 0.750579
O O4 0.000000 0.000000 0.500000
O O5 0.127183 0.750000 0.397224
O O6 0.197534 0.961236 0.469762
O O7 0.136566 0.996465 0.240888
O O8 0.750000 0.250000 0.678865
O O9 0.750000 0.549193 0.753182
O O10 0.363187 0.750000 0.062044
O O11 0.301344 0.514122 0.012581
O O12 0.399488 0.480265 0.980459
O O13 0.750000 0.750000 0.968963
O O14 0.541568 0.750000 0.098672
O O15 0.500000 0.500000 0.000000
#
# Coordination Sequence:
#
# PCOD8239793 Si02
#       6
#     8   8   4   8   4   8
#     4  11  22  38  58  83 113 148 188 234 284 341
#     4   8  16  31  56  83 108 139 183 230 274 324
#     4   8  14  30  53  78 107 144 186 230 272 320
#     4  10  19  36  60  86 114 150 192 236 282 335
#     4  10  18  30  51  84 119 152 188 230 278 334
#     4  12  25  41  59  83 113 149 191 240 293 349
#
# _framework density 19.457567000000001
#
# number of rings (size 3 to 8) (size 9 to 14) (size 15 to 20)
#    0.000    2.000    0.000    6.300    0.000    1.600 
#    0.000   10.000    0.000    2.400    0.000    0.000 
#    0.000    0.000    0.000    0.000    0.000    0.000 
#
# Total GULP energy -495796.112051 kJ/mol
# GULP energy per Si atom -12394.902801 kJ/mol
# Density = 1.941328 g / cm^3
# Si number density = 19.457567 Si / 1000 Ang^3
#
#
#
# Elastic Constant Matrix: (Units=GPa)
#
#
# Indices 1 2 3 4 5 6 
#
# 1 197.1318 32.5758 85.0184 0.0000 0.0000 0.0000
# 2 32.5758 71.0642 24.9513 0.0000 0.0000 0.0000
# 3 85.0184 24.9513 118.6381 0.0000 0.0000 0.0000
# 4 0.0000 0.0000 0.0000 25.9305 0.0000 0.0000
# 5 0.0000 0.0000 0.0000 0.0000 21.9318 0.0000
# 6 0.0000 0.0000 0.0000 0.0000 0.0000 33.1069
#
#
#
# Elastic Compliance Matrix: (Units=1/GPa)
#
#
# Indices 1 2 3 4 5 6 
#
# 1 0.007523 -0.001680 -0.005038 0.000000 0.000000 0.000000
# 2 -0.001680 0.015569 -0.002071 0.000000 0.000000 0.000000
# 3 -0.005038 -0.002071 0.012475 0.000000 0.000000 0.000000
# 4 0.000000 0.000000 0.000000 0.038565 0.000000 0.000000
# 5 0.000000 0.000000 0.000000 0.000000 0.045596 0.000000
# 6 0.000000 0.000000 0.000000 0.000000 0.000000 0.030205
#
#
# Mechanical properties :
#
#
# Convention : Reuss Voigt Hill
#
# Bulk Modulus (GPa) = 55.58614 74.65834 65.12224
# Shear Modulus (GPa) = 28.81755 32.47974 30.64864
#
# Velocity S-wave (km/s) = 3.85261 4.09009 3.97313
# Velocity P-wave (km/s) = 6.95845 7.79476 7.38845
#
# Compressibility (1/GPa) = 0.01799010
#
# Stress axis : x y z
#
# Youngs Moduli (GPa) = 132.92492 64.23110 80.16207
#
# Poissons Ratio (x) = 0.10789 0.40385
# Poissons Ratio (y) = 0.22328 0.16599
# Poissons Ratio (z) = 0.66966 0.13300
#
# Static dielectric constant tensor:
#      x y z
#    x 4.103610 0.000000 0.000000 
#    y 0.000000 3.476610 0.000000 
#    z 0.000000 0.000000 3.566060 
# 
# 
# High freq. dielectric constant tensor:
#      x y z
#    x 1.787980 0.000000 0.000000 
#    y 0.000000 1.748400 0.000000 
#    z 0.000000 0.000000 1.727990 
# 
# From -- ./inp_files/12448.got.cif
#   From: 2010.03.12/outbox.cif.g09.slc.cpg/sg59_7_cif.got.tgz:12448.got - 2010.04.16 16:29:54.
