data_PCOD8239586
_publ_section_title
;
Structure prediction by ZEFSAII (Michael W. Deem and Ramdas Pophale) SiO2 
 PCOD8239586
Probable space group: P M M N
;
_chemical_formula_sum "Si O2"
_cell_formula_units_Z 56
_cell_length_a 21.355236
_cell_length_b 9.387066
_cell_length_c 16.671726
_cell_angle_alpha 90.000000
_cell_angle_beta 90.000000
_cell_angle_gamma 90.000000
_cell_volume 3342.064372
_symmetry_space_group_name_H-M "P M M N"
_symmetry_group_IT_number 59
_space_group.IT_coordinate_system_code '2'
_symmetry_cell_setting 'orthorhombic'
loop_
_space_group_symop_operation_xyz
x,y,z
1/2-x,1/2-y,z
1/2+x,-y,-z
-x,1/2+y,-z
-x,-y,-z
1/2+x,1/2+y,-z
1/2-x,y,z
x,1/2-y,z
loop_
_atom_site_type_symbol
_atom_site_label
_atom_site_fract_x
_atom_site_fract_y
_atom_site_fract_z
Si Si1 0.503576 0.087081 0.791322
Si Si2 0.967742 0.413707 0.614217
Si Si3 0.620273 0.416746 0.204260
Si Si4 0.593782 0.585410 0.481362
Si Si5 0.056319 0.584791 0.041143
Si Si6 0.323578 0.588039 0.628831
Si Si7 0.318738 0.917561 0.959172
O O1 0.480972 0.250000 0.782996
O O2 0.534199 0.038752 0.707136
O O3 0.553953 0.068748 0.862451
O O4 0.444409 0.993413 0.814457
O O5 0.947255 0.250000 0.602749
O O6 0.919579 0.513668 0.567088
O O7 0.037159 0.439132 0.580339
O O8 0.606394 0.250000 0.206740
O O9 0.648605 0.470751 0.287889
O O10 0.668784 0.454693 0.133830
O O11 0.608183 0.750000 0.496373
O O12 0.654318 0.510917 0.443778
O O13 0.049544 0.750000 0.015120
O O14 0.123924 0.522158 0.013273
O O15 0.000000 0.500000 0.000000
O O16 0.250000 0.578810 0.634808
O O17 0.345892 0.750000 0.613169
O O18 0.250000 0.982468 0.982426
O O19 0.315811 0.750000 0.972284
#
# Coordination Sequence:
#
# PCOD8239586 Si02
#       7
#     8   8   8   8   8   8   8
#     4  10  19  31  48  72 103 131 158 201 254 299
#     4   9  18  32  48  67  95 127 156 197 249 293
#     4  10  18  29  48  72  98 131 167 199 239 293
#     4  10  19  31  49  71  93 124 164 200 241 289
#     4  10  19  31  50  74  99 131 167 207 252 297
#     4  10  20  32  47  70 101 134 164 197 240 292
#     4   9  17  30  48  71  99 131 168 206 242 287
#
# _framework density 16.756111000000001
#
# number of rings (size 3 to 8) (size 9 to 14) (size 15 to 20)
#    0.000    2.286    2.857    0.857    0.000    3.143 
#    0.000    0.000    0.000    3.429    0.000    4.000 
#    0.000    0.000    0.000    0.000    0.000    0.000 
#
# Total GULP energy -694330.687993 kJ/mol
# GULP energy per Si atom -12398.762286 kJ/mol
# Density = 1.671797 g / cm^3
# Si number density = 16.756111 Si / 1000 Ang^3
#
#
#
# Elastic Constant Matrix: (Units=GPa)
#
#
# Indices 1 2 3 4 5 6 
#
# 1 102.6356 33.4125 51.6650 0.0000 0.0000 0.0000
# 2 33.4125 49.6584 32.5733 0.0000 0.0000 0.0000
# 3 51.6650 32.5733 104.0853 0.0000 0.0000 0.0000
# 4 0.0000 0.0000 0.0000 18.9108 0.0000 0.0000
# 5 0.0000 0.0000 0.0000 0.0000 24.7653 0.0000
# 6 0.0000 0.0000 0.0000 0.0000 0.0000 22.2076
#
#
#
# Elastic Compliance Matrix: (Units=1/GPa)
#
#
# Indices 1 2 3 4 5 6 
#
# 1 0.014398 -0.006291 -0.005178 0.000000 0.000000 0.000000
# 2 -0.006291 0.028088 -0.005667 0.000000 0.000000 0.000000
# 3 -0.005178 -0.005667 0.013951 0.000000 0.000000 0.000000
# 4 0.000000 0.000000 0.000000 0.052880 0.000000 0.000000
# 5 0.000000 0.000000 0.000000 0.000000 0.040379 0.000000
# 6 0.000000 0.000000 0.000000 0.000000 0.000000 0.045030
#
#
# Mechanical properties :
#
#
# Convention : Reuss Voigt Hill
#
# Bulk Modulus (GPa) = 45.11742 54.63121 49.87432
# Shear Modulus (GPa) = 21.15183 22.42530 21.78856
#
# Velocity S-wave (km/s) = 3.55679 3.66230 3.60993
# Velocity P-wave (km/s) = 6.62209 7.11040 6.87058
#
# Compressibility (1/GPa) = 0.02216439
#
# Stress axis : x y z
#
# Youngs Moduli (GPa) = 69.45579 35.60237 71.67828
#
# Poissons Ratio (x) = 0.22398 0.37114
# Poissons Ratio (y) = 0.43695 0.40623
# Poissons Ratio (z) = 0.35963 0.20177
#
# Static dielectric constant tensor:
#      x y z
#    x 3.103400 0.000000 0.000000 
#    y 0.000000 3.057730 0.000000 
#    z 0.000000 0.000000 3.297280 
# 
# 
# High freq. dielectric constant tensor:
#      x y z
#    x 1.625690 0.000000 0.000000 
#    y 0.000000 1.631000 0.000000 
#    z 0.000000 0.000000 1.648760 
# 
# From -- ./inp_files/26117.got.cif
#   From: 2010.03.12/outbox.cif.g09.slc.cpg/sg59_14_cif.got.tgz:26117.got - 2010.04.16 16:29:54.
