data_PCOD8239115
_publ_section_title
;
Structure prediction by ZEFSAII (Michael W. Deem and Ramdas Pophale) SiO2 
 PCOD8239115
Probable space group: P M M N
;
_chemical_formula_sum "Si O2"
_cell_formula_units_Z 48
_cell_length_a 8.916816
_cell_length_b 21.237662
_cell_length_c 15.232748
_cell_angle_alpha 90.000000
_cell_angle_beta 90.000000
_cell_angle_gamma 90.000000
_cell_volume 2884.660895
_symmetry_space_group_name_H-M "P M M N"
_symmetry_group_IT_number 59
_space_group.IT_coordinate_system_code '2'
_symmetry_cell_setting 'orthorhombic'
loop_
_space_group_symop_operation_xyz
x,y,z
1/2-x,1/2-y,z
1/2+x,-y,-z
-x,1/2+y,-z
-x,-y,-z
1/2+x,1/2+y,-z
1/2-x,y,z
x,1/2-y,z
loop_
_atom_site_type_symbol
_atom_site_label
_atom_site_fract_x
_atom_site_fract_y
_atom_site_fract_z
Si Si1 0.422816 0.823985 0.692214
Si Si2 0.424847 0.089910 0.447654
Si Si3 0.926981 0.900436 0.837639
Si Si4 0.424504 0.950649 0.381832
Si Si5 0.073492 0.034017 0.793784
Si Si6 0.078023 0.063951 0.979192
O O1 0.250000 0.844805 0.690077
O O2 0.442138 0.750000 0.683121
O O3 0.508374 0.855003 0.611129
O O4 0.494923 0.844772 0.784353
O O5 0.250000 0.101448 0.462343
O O6 0.505532 0.091914 0.541687
O O7 0.456434 0.023947 0.399834
O O8 0.750000 0.900536 0.817053
O O9 0.961921 0.887003 0.942140
O O10 0.992874 0.967279 0.807665
O O11 0.250000 0.935344 0.375143
O O12 0.504805 0.931844 0.291011
O O13 0.250000 0.022359 0.780272
O O14 0.041527 0.081282 0.877411
O O15 0.250000 0.047402 0.987396
O O16 0.000000 0.000000 0.000000
#
# Coordination Sequence:
#
# PCOD8239115 Si02
#       6
#     8   8   8   8   8   8
#     4  11  23  36  50  69  95 128 164 202 243 287
#     4  10  20  33  49  69  94 126 161 200 242 289
#     4  10  18  30  46  66  94 126 161 198 234 279
#     4  10  19  30  47  71  99 128 158 196 242 294
#     4  10  17  27  45  69  98 129 157 190 235 287
#     4   8  16  27  41  64  93 124 155 187 227 274
#
# _framework density 16.639738000000001
#
# number of rings (size 3 to 8) (size 9 to 14) (size 15 to 20)
#    0.000    2.167    1.667    2.500    0.000    4.000 
#    0.000    0.000    0.000    0.000    0.000    1.167 
#    0.000    6.667    0.000    0.000    0.000    0.000 
#
# Total GULP energy -594842.172128 kJ/mol
# GULP energy per Si atom -12392.545253 kJ/mol
# Density = 1.660187 g / cm^3
# Si number density = 16.639738 Si / 1000 Ang^3
#
#
#
# Elastic Constant Matrix: (Units=GPa)
#
#
# Indices 1 2 3 4 5 6 
#
# 1 65.3283 21.5270 37.9138 0.0000 0.0000 0.0000
# 2 21.5270 38.7607 29.9587 0.0000 0.0000 0.0000
# 3 37.9138 29.9587 141.0364 0.0000 0.0000 0.0000
# 4 0.0000 0.0000 0.0000 17.9293 0.0000 0.0000
# 5 0.0000 0.0000 0.0000 0.0000 29.9217 0.0000
# 6 0.0000 0.0000 0.0000 0.0000 0.0000 18.8144
#
#
#
# Elastic Compliance Matrix: (Units=1/GPa)
#
#
# Indices 1 2 3 4 5 6 
#
# 1 0.020189 -0.008396 -0.003644 0.000000 0.000000 0.000000
# 2 -0.008396 0.034359 -0.005041 0.000000 0.000000 0.000000
# 3 -0.003644 -0.005041 0.009141 0.000000 0.000000 0.000000
# 4 0.000000 0.000000 0.000000 0.055775 0.000000 0.000000
# 5 0.000000 0.000000 0.000000 0.000000 0.033421 0.000000
# 6 0.000000 0.000000 0.000000 0.000000 0.000000 0.053151
#
#
# Mechanical properties :
#
#
# Convention : Reuss Voigt Hill
#
# Bulk Modulus (GPa) = 33.86855 47.10270 40.48562
# Shear Modulus (GPa) = 19.99689 23.71479 21.85584
#
# Velocity S-wave (km/s) = 3.47039 3.77926 3.62812
# Velocity P-wave (km/s) = 6.03791 6.88568 6.47568
#
# Compressibility (1/GPa) = 0.02952591
#
# Stress axis : x y z
#
# Youngs Moduli (GPa) = 49.53281 29.10451 109.40024
#
# Poissons Ratio (x) = 0.24437 0.39862
# Poissons Ratio (y) = 0.41589 0.55153
# Poissons Ratio (z) = 0.18048 0.14673
#
# Static dielectric constant tensor:
#      x y z
#    x 3.233270 0.000000 0.000000 
#    y 0.000000 2.604310 0.000000 
#    z 0.000000 0.000000 3.810260 
# 
# 
# High freq. dielectric constant tensor:
#      x y z
#    x 1.662130 0.000000 0.000000 
#    y 0.000000 1.569640 0.000000 
#    z 0.000000 0.000000 1.666130 
# 
# From -- ./inp_files/20728.got.cif
#   From: 2010.03.12/outbox.cif.g09.slc.cpg/sg59_11_cif.got.tgz:20728.got - 2010.04.16 16:29:54.
