data_PCOD8239584
_publ_section_title
;
Structure prediction by ZEFSAII (Michael W. Deem and Ramdas Pophale) SiO2 
 PCOD8239584
Probable space group: P M M N
;
_chemical_formula_sum "Si O2"
_cell_formula_units_Z 48
_cell_length_a 9.106074
_cell_length_b 19.415242
_cell_length_c 15.190068
_cell_angle_alpha 90.000000
_cell_angle_beta 90.000000
_cell_angle_gamma 90.000000
_cell_volume 2685.552838
_symmetry_space_group_name_H-M "P M M N"
_symmetry_group_IT_number 59
_space_group.IT_coordinate_system_code '2'
_symmetry_cell_setting 'orthorhombic'
loop_
_space_group_symop_operation_xyz
x,y,z
1/2-x,1/2-y,z
1/2+x,-y,-z
-x,1/2+y,-z
-x,-y,-z
1/2+x,1/2+y,-z
1/2-x,y,z
x,1/2-y,z
loop_
_atom_site_type_symbol
_atom_site_label
_atom_site_fract_x
_atom_site_fract_y
_atom_site_fract_z
Si Si1 0.075544 0.173222 0.629540
Si Si2 0.424844 0.415122 0.271615
Si Si3 0.078222 0.066646 0.963050
Si Si4 0.076848 0.441838 0.762177
Si Si5 0.076000 0.326845 0.105999
Si Si6 0.424320 0.326754 0.433644
O O1 0.250000 0.174473 0.633340
O O2 0.015875 0.250000 0.651459
O O3 0.014506 0.119186 0.700526
O O4 0.023503 0.150856 0.531442
O O5 0.250000 0.422875 0.269932
O O6 0.495719 0.489439 0.266010
O O7 0.481489 0.368525 0.190714
O O8 0.483929 0.380199 0.361409
O O9 0.250000 0.054316 0.976112
O O10 0.036748 0.078844 0.861723
O O11 0.025677 0.133503 0.017662
O O12 0.000000 0.000000 0.000000
O O13 0.250000 0.452783 0.750102
O O14 0.250000 0.321276 0.110462
O O15 0.007297 0.250000 0.105159
O O16 0.250000 0.325295 0.429177
O O17 0.483685 0.250000 0.412196
#
# Coordination Sequence:
#
# PCOD8239584 Si02
#       6
#     8   8   8   8   8   8
#     4   8  15  29  47  68  95 124 156 196 237 274
#     4  10  18  29  48  72  96 124 156 191 233 280
#     4  10  19  32  49  68  93 125 156 190 234 282
#     4  10  20  31  47  71  97 125 155 191 236 285
#     4   9  17  29  47  71  93 115 153 201 235 264
#     4   8  14  26  46  70  94 122 158 198 234 269
#
# _framework density 17.873415000000001
#
# number of rings (size 3 to 8) (size 9 to 14) (size 15 to 20)
#    0.000    2.833    1.667    1.500    0.000    3.333 
#    0.000    3.333    0.000    4.000    0.000    4.667 
#    0.000    0.000    0.000    0.000    0.000    0.000 
#
# Total GULP energy -595010.624481 kJ/mol
# GULP energy per Si atom -12396.054677 kJ/mol
# Density = 1.783273 g / cm^3
# Si number density = 17.873415 Si / 1000 Ang^3
#
#
#
# Elastic Constant Matrix: (Units=GPa)
#
#
# Indices 1 2 3 4 5 6 
#
# 1 12.9343 23.0706 24.8135 0.0000 0.0000 0.0000
# 2 23.0706 173.7374 115.4607 0.0000 0.0000 0.0000
# 3 24.8135 115.4607 182.8381 0.0000 0.0000 0.0000
# 4 0.0000 0.0000 0.0000 42.6764 0.0000 0.0000
# 5 0.0000 0.0000 0.0000 0.0000 13.6301 0.0000
# 6 0.0000 0.0000 0.0000 0.0000 0.0000 24.3565
#
#
#
# Elastic Compliance Matrix: (Units=1/GPa)
#
#
# Indices 1 2 3 4 5 6 
#
# 1 0.110821 -0.008135 -0.009903 0.000000 0.000000 0.000000
# 2 -0.008135 0.010515 -0.005536 0.000000 0.000000 0.000000
# 3 -0.009903 -0.005536 0.010309 0.000000 0.000000 0.000000
# 4 0.000000 0.000000 0.000000 0.023432 0.000000 0.000000
# 5 0.000000 0.000000 0.000000 0.000000 0.073367 0.000000
# 6 0.000000 0.000000 0.000000 0.000000 0.000000 0.041057
#
#
# Mechanical properties :
#
#
# Convention : Reuss Voigt Hill
#
# Bulk Modulus (GPa) = 11.83459 77.35550 44.59504
# Shear Modulus (GPa) = 14.50048 29.87693 22.18870
#
# Velocity S-wave (km/s) = 2.85140 4.09294 3.52722
# Velocity P-wave (km/s) = 4.18047 8.10616 6.44927
#
# Compressibility (1/GPa) = 0.08449804
#
# Stress axis : x y z
#
# Youngs Moduli (GPa) = 9.02354 95.09929 96.99881
#
# Poissons Ratio (x) = 0.77362 0.96056
# Poissons Ratio (y) = 0.07341 0.53702
# Poissons Ratio (z) = 0.08936 0.52650
#
# Static dielectric constant tensor:
#      x y z
#    x 2.773900 0.000000 0.000000 
#    y 0.000000 3.377020 0.000000 
#    z 0.000000 0.000000 3.734390 
# 
# 
# High freq. dielectric constant tensor:
#      x y z
#    x 1.630510 0.000000 0.000000 
#    y 0.000000 1.698500 0.000000 
#    z 0.000000 0.000000 1.708490 
# 
# From -- ./inp_files/17622.got.cif
#   From: 2010.03.12/outbox.cif.g09.slc.cpg/sg59_9_cif.got.tgz:17622.got - 2010.04.16 16:29:54.
