data_PCOD8239849
_publ_section_title
;
Structure prediction by ZEFSAII (Michael W. Deem and Ramdas Pophale) SiO2 
 PCOD8239849
Probable space group: P M M N
;
_chemical_formula_sum "Si O2"
_cell_formula_units_Z 48
_cell_length_a 18.326825
_cell_length_b 8.749579
_cell_length_c 17.155554
_cell_angle_alpha 90.000000
_cell_angle_beta 90.000000
_cell_angle_gamma 90.000000
_cell_volume 2750.927449
_symmetry_space_group_name_H-M "P M M N"
_symmetry_group_IT_number 59
_space_group.IT_coordinate_system_code '2'
_symmetry_cell_setting 'orthorhombic'
loop_
_space_group_symop_operation_xyz
x,y,z
1/2-x,1/2-y,z
1/2+x,-y,-z
-x,1/2+y,-z
-x,-y,-z
1/2+x,1/2+y,-z
1/2-x,y,z
x,1/2-y,z
loop_
_atom_site_type_symbol
_atom_site_label
_atom_site_fract_x
_atom_site_fract_y
_atom_site_fract_z
Si Si1 0.447231 0.926411 0.561915
Si Si2 0.165097 0.069838 0.032096
Si Si3 0.564512 0.429938 0.836747
Si Si4 0.831747 0.570154 0.529534
Si Si5 0.431367 0.426856 0.325478
Si Si6 0.948878 0.067966 0.066606
O O1 0.440059 0.750000 0.542476
O O2 0.484282 0.951305 0.646739
O O3 0.500000 0.000000 0.500000
O O4 0.367877 0.002633 0.549886
O O5 0.250000 0.028692 0.034464
O O6 0.150993 0.250000 0.032342
O O7 0.127116 0.997861 0.107853
O O8 0.131820 0.997375 0.952136
O O9 0.560184 0.250000 0.850336
O O10 0.585411 0.467635 0.748253
O O11 0.484662 0.505697 0.853433
O O12 0.750000 0.505727 0.536583
O O13 0.832553 0.750000 0.520606
O O14 0.876038 0.520373 0.606565
O O15 0.417770 0.250000 0.303559
O O16 0.947757 0.250000 0.066564
O O17 0.000000 0.000000 0.000000
#
# Coordination Sequence:
#
# PCOD8239849 Si02
#       6
#     8   8   8   8   8   8
#     4   9  17  30  49  70  93 124 162 202 239 282
#     4  10  20  34  52  73  99 130 161 195 238 287
#     4  11  21  32  49  73 100 128 162 202 241 283
#     4   9  18  32  50  72  99 130 161 196 240 289
#     4   9  18  32  48  69  98 130 163 197 239 288
#     4  10  18  31  51  71  95 126 162 200 236 280
#
# _framework density 17.448661000000001
#
# number of rings (size 3 to 8) (size 9 to 14) (size 15 to 20)
#    0.000    2.333    0.000    7.000    0.000    5.667 
#    0.000    1.667    0.000    1.000    0.000    4.667 
#    0.000    0.000    0.000    0.000    0.000    0.000 
#
# Total GULP energy -594889.205425 kJ/mol
# GULP energy per Si atom -12393.525113 kJ/mol
# Density = 1.740895 g / cm^3
# Si number density = 17.448661 Si / 1000 Ang^3
#
#
#
# Elastic Constant Matrix: (Units=GPa)
#
#
# Indices 1 2 3 4 5 6 
#
# 1 136.3387 56.9022 52.8820 0.0000 0.0000 0.0000
# 2 56.9022 102.0857 24.0308 0.0000 0.0000 0.0000
# 3 52.8820 24.0308 30.5320 0.0000 0.0000 0.0000
# 4 0.0000 0.0000 0.0000 27.0961 0.0000 0.0000
# 5 0.0000 0.0000 0.0000 0.0000 19.3637 0.0000
# 6 0.0000 0.0000 0.0000 0.0000 0.0000 28.8759
#
#
#
# Elastic Compliance Matrix: (Units=1/GPa)
#
#
# Indices 1 2 3 4 5 6 
#
# 1 0.023844 -0.004381 -0.037851 0.000000 0.000000 0.000000
# 2 -0.004381 0.012828 -0.002509 0.000000 0.000000 0.000000
# 3 -0.037851 -0.002509 0.100286 0.000000 0.000000 0.000000
# 4 0.000000 0.000000 0.000000 0.036906 0.000000 0.000000
# 5 0.000000 0.000000 0.000000 0.000000 0.051643 0.000000
# 6 0.000000 0.000000 0.000000 0.000000 0.000000 0.034631
#
#
# Mechanical properties :
#
#
# Convention : Reuss Voigt Hill
#
# Bulk Modulus (GPa) = 21.06289 59.62071 40.34180
# Shear Modulus (GPa) = 13.68193 24.07657 18.87925
#
# Velocity S-wave (km/s) = 2.80326 3.71867 3.29293
# Velocity P-wave (km/s) = 4.75134 7.25819 6.13419
#
# Compressibility (1/GPa) = 0.04747687
#
# Stress axis : x y z
#
# Youngs Moduli (GPa) = 41.93859 77.95369 9.97148
#
# Poissons Ratio (x) = 0.34149 0.37743
# Poissons Ratio (y) = 0.18372 0.02502
# Poissons Ratio (z) = 1.58742 0.19559
#
# Static dielectric constant tensor:
#      x y z
#    x 3.721750 0.000000 0.000000 
#    y 0.000000 3.414070 0.000000 
#    z 0.000000 0.000000 3.310890 
# 
# 
# High freq. dielectric constant tensor:
#      x y z
#    x 1.667050 0.000000 0.000000 
#    y 0.000000 1.685860 0.000000 
#    z 0.000000 0.000000 1.648560 
# 
# From -- ./inp_files/27792.got.cif
#   From: 2010.03.12/outbox.cif.g09.slc.cpg/sg59_14_cif.got.tgz:27792.got - 2010.04.16 16:29:54.
