data_PCOD8239178
_publ_section_title
;
Structure prediction by ZEFSAII (Michael W. Deem and Ramdas Pophale) SiO2 
 PCOD8239178
Probable space group: P M M N
;
_chemical_formula_sum "Si O2"
_cell_formula_units_Z 64
_cell_length_a 9.499719
_cell_length_b 29.006130
_cell_length_c 14.962352
_cell_angle_alpha 90.000000
_cell_angle_beta 90.000000
_cell_angle_gamma 90.000000
_cell_volume 4122.877355
_symmetry_space_group_name_H-M "P M M N"
_symmetry_group_IT_number 59
_space_group.IT_coordinate_system_code '2'
_symmetry_cell_setting 'orthorhombic'
loop_
_space_group_symop_operation_xyz
x,y,z
1/2-x,1/2-y,z
1/2+x,-y,-z
-x,1/2+y,-z
-x,-y,-z
1/2+x,1/2+y,-z
1/2-x,y,z
x,1/2-y,z
loop_
_atom_site_type_symbol
_atom_site_label
_atom_site_fract_x
_atom_site_fract_y
_atom_site_fract_z
Si Si1 0.588912 0.937632 0.043816
Si Si2 0.913135 0.603835 0.549279
Si Si3 0.083640 0.443845 0.633747
Si Si4 0.586919 0.462708 0.114398
Si Si5 0.585817 0.622820 0.210022
Si Si6 0.410305 0.301507 0.531664
Si Si7 0.916397 0.044829 0.318847
Si Si8 0.589054 0.302814 0.707089
O O1 0.750000 0.939165 0.013443
O O2 0.559363 0.895804 0.110739
O O3 0.547920 0.984207 0.096120
O O4 0.497458 0.930410 0.954588
O O5 0.750000 0.592266 0.566815
O O6 0.966539 0.578680 0.458975
O O7 0.937267 0.659130 0.542432
O O8 0.005516 0.586256 0.631307
O O9 0.250000 0.445351 0.640899
O O10 0.028027 0.413365 0.716337
O O11 0.026570 0.496061 0.642490
O O12 0.750000 0.453075 0.098657
O O13 0.542945 0.450852 0.215062
O O14 0.750000 0.633698 0.226138
O O15 0.493885 0.668927 0.217493
O O16 0.250000 0.306381 0.567769
O O17 0.434728 0.250000 0.491156
O O18 0.515316 0.310957 0.612319
O O19 0.750000 0.049689 0.333359
O O20 0.750000 0.319539 0.699350
O O21 0.580600 0.250000 0.736662
#
# Coordination Sequence:
#
# PCOD8239178 Si02
#       8
#     8   8   8   8   8   8   8   8
#     4   9  17  29  48  69  89 116 151 190 228 265
#     4  10  19  30  45  66  91 120 156 196 229 264
#     4   9  16  29  45  63  91 124 157 189 219 260
#     4   9  17  30  46  65  91 121 151 187 229 271
#     4  10  17  30  50  68  90 124 159 188 225 273
#     4   9  17  31  50  67  86 118 156 191 232 278
#     4  10  19  31  46  63  91 129 160 186 225 273
#     4  10  20  31  44  67  97 122 148 189 234 273
#
# _framework density 15.523139
#
# number of rings (size 3 to 8) (size 9 to 14) (size 15 to 20)
#    0.000    2.500    2.500    0.750    0.000    2.250 
#    0.000    0.625    0.000    0.000    0.000    0.875 
#    0.000    3.000    0.000    0.000    0.000    0.000 
#
# Total GULP energy -793528.590119 kJ/mol
# GULP energy per Si atom -12398.884221 kJ/mol
# Density = 1.548781 g / cm^3
# Si number density = 15.523139 Si / 1000 Ang^3
#
#
#
# Elastic Constant Matrix: (Units=GPa)
#
#
# Indices 1 2 3 4 5 6 
#
# 1 65.4821 47.0139 49.2911 0.0000 0.0000 0.0000
# 2 47.0139 92.7659 51.8958 0.0000 0.0000 0.0000
# 3 49.2911 51.8958 101.4213 0.0000 0.0000 0.0000
# 4 0.0000 0.0000 0.0000 20.0757 0.0000 0.0000
# 5 0.0000 0.0000 0.0000 0.0000 27.3874 0.0000
# 6 0.0000 0.0000 0.0000 0.0000 0.0000 23.8531
#
#
#
# Elastic Compliance Matrix: (Units=1/GPa)
#
#
# Indices 1 2 3 4 5 6 
#
# 1 0.029109 -0.009581 -0.009245 0.000000 0.000000 0.000000
# 2 -0.009581 0.018256 -0.004685 0.000000 0.000000 0.000000
# 3 -0.009245 -0.004685 0.016750 0.000000 0.000000 0.000000
# 4 0.000000 0.000000 0.000000 0.049811 0.000000 0.000000
# 5 0.000000 0.000000 0.000000 0.000000 0.036513 0.000000
# 6 0.000000 0.000000 0.000000 0.000000 0.000000 0.041923
#
#
# Mechanical properties :
#
#
# Convention : Reuss Voigt Hill
#
# Bulk Modulus (GPa) = 58.49965 61.78566 60.14266
# Shear Modulus (GPa) = 20.40129 21.69449 21.04789
#
# Velocity S-wave (km/s) = 3.62919 3.74245 3.68626
# Velocity P-wave (km/s) = 7.43832 7.65266 7.54625
#
# Compressibility (1/GPa) = 0.01709412
#
# Stress axis : x y z
#
# Youngs Moduli (GPa) = 34.35388 54.77531 59.70072
#
# Poissons Ratio (x) = 0.52478 0.55191
# Poissons Ratio (y) = 0.32913 0.27972
# Poissons Ratio (z) = 0.31759 0.25664
#
# Static dielectric constant tensor:
#      x y z
#    x 2.897550 0.000000 0.000000 
#    y 0.000000 3.022510 0.000000 
#    z 0.000000 0.000000 2.845190 
# 
# 
# High freq. dielectric constant tensor:
#      x y z
#    x 1.587410 0.000000 0.000000 
#    y 0.000000 1.584270 0.000000 
#    z 0.000000 0.000000 1.574980 
# 
# From -- ./inp_files/21845.got.cif
#   From: 2010.03.12/outbox.cif.g09.slc.cpg/sg59_11_cif.got.tgz:21845.got - 2010.04.16 16:29:54.
