data_PCOD8239726
_publ_section_title
;
Structure prediction by ZEFSAII (Michael W. Deem and Ramdas Pophale) SiO2 
 PCOD8239726
Probable space group: P M M N
;
_chemical_formula_sum "Si O2"
_cell_formula_units_Z 64
_cell_length_a 19.784746
_cell_length_b 9.052170
_cell_length_c 19.962700
_cell_angle_alpha 90.000000
_cell_angle_beta 90.000000
_cell_angle_gamma 90.000000
_cell_volume 3575.217445
_symmetry_space_group_name_H-M "P M M N"
_symmetry_group_IT_number 59
_space_group.IT_coordinate_system_code '2'
_symmetry_cell_setting 'orthorhombic'
loop_
_space_group_symop_operation_xyz
x,y,z
1/2-x,1/2-y,z
1/2+x,-y,-z
-x,1/2+y,-z
-x,-y,-z
1/2+x,1/2+y,-z
1/2-x,y,z
x,1/2-y,z
loop_
_atom_site_type_symbol
_atom_site_label
_atom_site_fract_x
_atom_site_fract_y
_atom_site_fract_z
Si Si1 0.408500 0.578342 0.658406
Si Si2 0.674029 0.919254 0.228336
Si Si3 0.942199 0.922342 0.702320
Si Si4 0.172336 0.077416 0.544972
Si Si5 0.675390 0.574629 0.606518
Si Si6 0.891064 0.423595 0.116808
Si Si7 0.066132 0.918907 0.021408
Si Si8 0.970385 0.076033 0.838355
O O1 0.390372 0.750000 0.663148
O O2 0.376386 0.496382 0.721037
O O3 0.488696 0.550638 0.661612
O O4 0.379367 0.514621 0.589760
O O5 0.750000 0.932369 0.255935
O O6 0.652125 0.750000 0.220304
O O7 0.670236 0.000143 0.156342
O O8 0.932540 0.750000 0.718447
O O9 0.881447 0.986578 0.656730
O O10 0.938139 0.010242 0.771639
O O11 0.250000 0.046461 0.566133
O O12 0.156040 0.250000 0.553953
O O13 0.159847 0.022951 0.469158
O O14 0.750000 0.517350 0.628501
O O15 0.674890 0.750000 0.606923
O O16 0.893368 0.250000 0.132748
O O17 0.959603 0.495893 0.144943
O O18 0.878475 0.454521 0.036690
O O19 0.046162 0.750000 0.015935
O O20 0.082788 0.955062 0.099485
O O21 0.000000 0.000000 0.000000
O O22 0.983347 0.250000 0.828664
#
# Coordination Sequence:
#
# PCOD8239726 Si02
#       8
#     8   8   8   8   8   8   8   8
#     4  11  22  33  48  74 107 136 167 212 259 305
#     4  11  23  36  50  70 100 140 182 218 254 305
#     4  10  20  33  51  77 106 134 168 214 259 304
#     4   9  18  34  55  75  97 131 175 216 251 299
#     4   8  16  34  58  78  97 128 170 212 257 309
#     4  10  18  31  50  72  99 130 169 216 258 300
#     4   8  16  28  45  70  97 126 162 202 245 294
#     4  10  18  30  49  74 104 136 167 203 252 305
#
# _framework density 17.901009999999999
#
# number of rings (size 3 to 8) (size 9 to 14) (size 15 to 20)
#    0.000    2.375    1.250    2.625    0.000    4.750 
#    0.000    0.625    0.000    1.875    0.000    3.500 
#    0.000    0.000    0.000    0.000    0.000    0.000 
#
# Total GULP energy -793080.799604 kJ/mol
# GULP energy per Si atom -12391.887494 kJ/mol
# Density = 1.786027 g / cm^3
# Si number density = 17.901010 Si / 1000 Ang^3
#
#
#
# Elastic Constant Matrix: (Units=GPa)
#
#
# Indices 1 2 3 4 5 6 
#
# 1 84.9450 40.9261 61.6637 0.0000 0.0000 0.0000
# 2 40.9261 82.1502 52.3712 0.0000 0.0000 0.0000
# 3 61.6637 52.3712 134.5247 0.0000 0.0000 0.0000
# 4 0.0000 0.0000 0.0000 28.4328 0.0000 0.0000
# 5 0.0000 0.0000 0.0000 0.0000 19.3525 0.0000
# 6 0.0000 0.0000 0.0000 0.0000 0.0000 18.9312
#
#
#
# Elastic Compliance Matrix: (Units=1/GPa)
#
#
# Indices 1 2 3 4 5 6 
#
# 1 0.019214 -0.005264 -0.006758 0.000000 0.000000 0.000000
# 2 -0.005264 0.017633 -0.004452 0.000000 0.000000 0.000000
# 3 -0.006758 -0.004452 0.012265 0.000000 0.000000 0.000000
# 4 0.000000 0.000000 0.000000 0.035171 0.000000 0.000000
# 5 0.000000 0.000000 0.000000 0.000000 0.051673 0.000000
# 6 0.000000 0.000000 0.000000 0.000000 0.000000 0.052823
#
#
# Mechanical properties :
#
#
# Convention : Reuss Voigt Hill
#
# Bulk Modulus (GPa) = 61.86503 67.94910 64.90706
# Shear Modulus (GPa) = 22.01526 23.12055 22.56791
#
# Velocity S-wave (km/s) = 3.51070 3.59775 3.55449
# Velocity P-wave (km/s) = 7.14618 7.43633 7.29270
#
# Compressibility (1/GPa) = 0.01616422
#
# Stress axis : x y z
#
# Youngs Moduli (GPa) = 52.04409 56.71069 81.53557
#
# Poissons Ratio (x) = 0.29852 0.55104
# Poissons Ratio (y) = 0.27396 0.36299
# Poissons Ratio (z) = 0.35173 0.25247
#
# Static dielectric constant tensor:
#      x y z
#    x 3.228720 0.000000 0.000000 
#    y 0.000000 3.243030 0.000000 
#    z 0.000000 0.000000 3.846570 
# 
# 
# High freq. dielectric constant tensor:
#      x y z
#    x 1.660390 0.000000 0.000000 
#    y 0.000000 1.689650 0.000000 
#    z 0.000000 0.000000 1.707300 
# 
# From -- ./inp_files/28268.got.cif
#   From: 2010.03.12/outbox.cif.g09.slc.cpg/sg59_15_cif.got.tgz:28268.got - 2010.04.16 16:29:54.
