data_PCOD8239756
_publ_section_title
;
Structure prediction by ZEFSAII (Michael W. Deem and Ramdas Pophale) SiO2 
 PCOD8239756
Probable space group: P M M N
;
_chemical_formula_sum "Si O2"
_cell_formula_units_Z 64
_cell_length_a 33.117001
_cell_length_b 9.372318
_cell_length_c 11.378494
_cell_angle_alpha 90.000000
_cell_angle_beta 90.000000
_cell_angle_gamma 90.000000
_cell_volume 3531.691838
_symmetry_space_group_name_H-M "P M M N"
_symmetry_group_IT_number 59
_space_group.IT_coordinate_system_code '2'
_symmetry_cell_setting 'orthorhombic'
loop_
_space_group_symop_operation_xyz
x,y,z
1/2-x,1/2-y,z
1/2+x,-y,-z
-x,1/2+y,-z
-x,-y,-z
1/2+x,1/2+y,-z
1/2-x,y,z
x,1/2-y,z
loop_
_atom_site_type_symbol
_atom_site_label
_atom_site_fract_x
_atom_site_fract_y
_atom_site_fract_z
Si Si1 0.080776 0.587881 0.587545
Si Si2 0.704476 0.582996 0.567003
Si Si3 0.021168 0.412381 0.724618
Si Si4 0.436605 0.913361 0.177281
Si Si5 0.796325 0.589090 0.296483
Si Si6 0.574381 0.582557 0.052332
Si Si7 0.136969 0.586692 0.812326
Si Si8 0.870617 0.083988 0.635257
O O1 0.067912 0.750000 0.563555
O O2 0.039776 0.504401 0.618634
O O3 0.111643 0.572837 0.693978
O O4 0.102456 0.523304 0.472503
O O5 0.750000 0.542144 0.607259
O O6 0.697195 0.750000 0.585256
O O7 0.698618 0.540384 0.431177
O O8 0.672008 0.497521 0.644619
O O9 0.031008 0.250000 0.693084
O O10 0.040648 0.451853 0.850386
O O11 0.973378 0.441221 0.732183
O O12 0.438846 0.750000 0.131229
O O13 0.394679 0.941911 0.244218
O O14 0.441585 0.021665 0.070307
O O15 0.750000 0.583144 0.258361
O O16 0.813207 0.750000 0.281362
O O17 0.819468 0.481553 0.210924
O O18 0.582992 0.750000 0.040272
O O19 0.615752 0.501221 0.083796
O O20 0.142085 0.750000 0.852604
O O21 0.861462 0.250000 0.613583
#
# Coordination Sequence:
#
# PCOD8239756 Si02
#       8
#     8   8   8   8   8   8   8   8
#     4   9  18  31  47  72 103 134 166 203 249 299
#     4   9  18  32  51  76 105 136 169 206 246 292
#     4   9  19  34  52  74  99 131 168 213 261 304
#     4  10  21  36  52  72 101 134 172 216 258 299
#     4   9  17  29  47  74 106 134 161 199 248 299
#     4  10  20  34  53  74  97 128 172 217 258 304
#     4  10  18  30  50  74 102 133 165 203 250 300
#     4  10  20  34  51  74 106 139 170 208 251 301
#
# _framework density 18.121627
#
# number of rings (size 3 to 8) (size 9 to 14) (size 15 to 20)
#    0.000    2.500    1.250    1.875    0.000    3.500 
#    0.000    1.250    0.000    0.750    0.000    3.500 
#    0.000    0.000    0.000    0.000    0.000    0.000 
#
# Total GULP energy -793682.339501 kJ/mol
# GULP energy per Si atom -12401.286555 kJ/mol
# Density = 1.808038 g / cm^3
# Si number density = 18.121627 Si / 1000 Ang^3
#
#
#
# Elastic Constant Matrix: (Units=GPa)
#
#
# Indices 1 2 3 4 5 6 
#
# 1 103.6169 47.2134 16.3555 0.0000 0.0000 0.0000
# 2 47.2134 80.0339 21.1780 0.0000 0.0000 0.0000
# 3 16.3555 21.1780 29.9945 0.0000 0.0000 0.0000
# 4 0.0000 0.0000 0.0000 23.1308 0.0000 0.0000
# 5 0.0000 0.0000 0.0000 0.0000 21.4676 0.0000
# 6 0.0000 0.0000 0.0000 0.0000 0.0000 35.5145
#
#
#
# Elastic Compliance Matrix: (Units=1/GPa)
#
#
# Indices 1 2 3 4 5 6 
#
# 1 0.013306 -0.007292 -0.002107 0.000000 0.000000 0.000000
# 2 -0.007292 0.019362 -0.009694 0.000000 0.000000 0.000000
# 3 -0.002107 -0.009694 0.041333 0.000000 0.000000 0.000000
# 4 0.000000 0.000000 0.000000 0.043232 0.000000 0.000000
# 5 0.000000 0.000000 0.000000 0.000000 0.046582 0.000000
# 6 0.000000 0.000000 0.000000 0.000000 0.000000 0.028157
#
#
# Mechanical properties :
#
#
# Convention : Reuss Voigt Hill
#
# Bulk Modulus (GPa) = 27.92185 42.57100 35.24643
# Shear Modulus (GPa) = 20.65288 24.61582 22.63435
#
# Velocity S-wave (km/s) = 3.37958 3.68960 3.53799
# Velocity P-wave (km/s) = 5.53807 6.45707 6.01514
#
# Compressibility (1/GPa) = 0.03581424
#
# Stress axis : x y z
#
# Youngs Moduli (GPa) = 75.15327 51.64864 24.19371
#
# Poissons Ratio (x) = 0.37662 0.05098
# Poissons Ratio (y) = 0.54802 0.23454
# Poissons Ratio (z) = 0.15835 0.50070
#
# Static dielectric constant tensor:
#      x y z
#    x 3.318690 0.000000 0.000000 
#    y 0.000000 3.324380 0.000000 
#    z 0.000000 0.000000 3.030450 
# 
# 
# High freq. dielectric constant tensor:
#      x y z
#    x 1.701450 0.000000 0.000000 
#    y 0.000000 1.701110 0.000000 
#    z 0.000000 0.000000 1.671870 
# 
# From -- ./inp_files/19252.got.cif
#   From: 2010.03.12/outbox.cif.g09.slc.cpg/sg59_10_cif.got.tgz:19252.got - 2010.04.16 16:29:54.
