data_PCOD8239191
_publ_section_title
;
Structure prediction by ZEFSAII (Michael W. Deem and Ramdas Pophale) SiO2 
 PCOD8239191
Probable space group: P M M N
;
_chemical_formula_sum "Si O2"
_cell_formula_units_Z 56
_cell_length_a 21.550987
_cell_length_b 8.992914
_cell_length_c 14.845235
_cell_angle_alpha 90.000000
_cell_angle_beta 90.000000
_cell_angle_gamma 90.000000
_cell_volume 2877.098178
_symmetry_space_group_name_H-M "P M M N"
_symmetry_group_IT_number 59
_space_group.IT_coordinate_system_code '2'
_symmetry_cell_setting 'orthorhombic'
loop_
_space_group_symop_operation_xyz
x,y,z
1/2-x,1/2-y,z
1/2+x,-y,-z
-x,1/2+y,-z
-x,-y,-z
1/2+x,1/2+y,-z
1/2-x,y,z
x,1/2-y,z
loop_
_atom_site_type_symbol
_atom_site_label
_atom_site_fract_x
_atom_site_fract_y
_atom_site_fract_z
Si Si1 0.677208 0.422033 0.263204
Si Si2 0.451654 0.426044 0.208851
Si Si3 0.181257 0.925838 0.535665
Si Si4 0.075565 0.420851 0.847099
Si Si5 0.250000 0.574326 0.057896
Si Si6 0.125795 0.926040 0.354527
Si Si7 0.373894 0.079046 0.037517
Si Si8 0.250000 0.574195 0.260731
O O1 0.750000 0.447208 0.246757
O O2 0.659722 0.250000 0.246981
O O3 0.658674 0.472258 0.364895
O O4 0.640346 0.526177 0.195110
O O5 0.451652 0.250000 0.213851
O O6 0.520992 0.479254 0.191676
O O7 0.430600 0.491813 0.305016
O O8 0.406964 0.483129 0.127957
O O9 0.250000 0.993308 0.515694
O O10 0.188496 0.750000 0.531281
O O11 0.131019 0.974979 0.459797
O O12 0.063723 0.250000 0.821152
O O13 0.078567 0.440354 0.954907
O O14 0.250000 0.750000 0.048583
O O15 0.187691 0.512999 0.012283
O O16 0.250000 0.514201 0.159656
O O17 0.116587 0.750000 0.343265
O O18 0.188961 0.985330 0.309517
O O19 0.354888 0.250000 0.050435
O O20 0.250000 0.750000 0.262993
#
# Coordination Sequence:
#
# PCOD8239191 Si02
#       8
#     8   8   8   8   4   8   8   4
#     4   9  19  37  60  87 115 142 181 232 282 328
#     4  11  23  39  57  80 112 149 186 230 280 329
#     4   8  14  28  55  86 114 146 181 223 275 329
#     4  11  24  41  60  79 105 147 194 234 277 328
#     4  11  21  33  55  88 117 146 184 227 269 323
#     4  10  17  31  56  85 116 148 185 222 268 330
#     4  10  23  40  57  80 114 150 184 228 282 331
#     4   9  16  27  49  82 115 144 178 223 263 313
#
# _framework density 19.464054999999998
#
# number of rings (size 3 to 8) (size 9 to 14) (size 15 to 20)
#    0.000    2.143    2.143    2.357    1.000    2.000 
#    0.000    1.786    0.000    0.857    0.000    0.000 
#    0.000    0.000    0.000    0.000    0.000    0.000 
#
# Total GULP energy -694341.317339 kJ/mol
# GULP energy per Si atom -12398.952095 kJ/mol
# Density = 1.941975 g / cm^3
# Si number density = 19.464055 Si / 1000 Ang^3
#
#
#
# Elastic Constant Matrix: (Units=GPa)
#
#
# Indices 1 2 3 4 5 6 
#
# 1 74.9034 26.1353 20.1740 0.0000 0.0000 0.0000
# 2 26.1353 56.8751 25.3400 0.0000 0.0000 0.0000
# 3 20.1740 25.3400 83.6551 0.0000 0.0000 0.0000
# 4 0.0000 0.0000 0.0000 23.1154 0.0000 0.0000
# 5 0.0000 0.0000 0.0000 0.0000 23.8189 0.0000
# 6 0.0000 0.0000 0.0000 0.0000 0.0000 24.7667
#
#
#
# Elastic Compliance Matrix: (Units=1/GPa)
#
#
# Indices 1 2 3 4 5 6 
#
# 1 0.016158 -0.006576 -0.001905 0.000000 0.000000 0.000000
# 2 -0.006576 0.023002 -0.005382 0.000000 0.000000 0.000000
# 3 -0.001905 -0.005382 0.014043 0.000000 0.000000 0.000000
# 4 0.000000 0.000000 0.000000 0.043261 0.000000 0.000000
# 5 0.000000 0.000000 0.000000 0.000000 0.041984 0.000000
# 6 0.000000 0.000000 0.000000 0.000000 0.000000 0.040377
#
#
# Mechanical properties :
#
#
# Convention : Reuss Voigt Hill
#
# Bulk Modulus (GPa) = 39.24917 39.85916 39.55416
# Shear Modulus (GPa) = 23.25113 23.92580 23.58846
#
# Velocity S-wave (km/s) = 3.46000 3.50984 3.48501
# Velocity P-wave (km/s) = 6.01422 6.07850 6.04644
#
# Compressibility (1/GPa) = 0.02547825
#
# Stress axis : x y z
#
# Youngs Moduli (GPa) = 61.88820 43.47424 71.20834
#
# Poissons Ratio (x) = 0.28591 0.13562
# Poissons Ratio (y) = 0.40701 0.38322
# Poissons Ratio (z) = 0.11787 0.23396
#
# Static dielectric constant tensor:
#      x y z
#    x 3.373420 0.000000 0.000000 
#    y 0.000000 3.227740 0.000000 
#    z 0.000000 0.000000 3.842050 
# 
# 
# High freq. dielectric constant tensor:
#      x y z
#    x 1.746240 0.000000 0.000000 
#    y 0.000000 1.731490 0.000000 
#    z 0.000000 0.000000 1.765880 
# 
# From -- ./inp_files/24384.got.cif
#   From: 2010.03.12/outbox.cif.g09.slc.cpg/sg59_13_cif.got.tgz:24384.got - 2010.04.16 16:29:54.
