data_PCOD8239090
_publ_section_title
;
Structure prediction by ZEFSAII (Michael W. Deem and Ramdas Pophale) SiO2 
 PCOD8239090
Probable space group: P M M N
;
_chemical_formula_sum "Si O2"
_cell_formula_units_Z 48
_cell_length_a 20.829384
_cell_length_b 15.069192
_cell_length_c 8.816962
_cell_angle_alpha 90.000000
_cell_angle_beta 90.000000
_cell_angle_gamma 90.000000
_cell_volume 2767.485550
_symmetry_space_group_name_H-M "P M M N"
_symmetry_group_IT_number 59
_space_group.IT_coordinate_system_code '2'
_symmetry_cell_setting 'orthorhombic'
loop_
_space_group_symop_operation_xyz
x,y,z
1/2-x,1/2-y,z
1/2+x,-y,-z
-x,1/2+y,-z
-x,-y,-z
1/2+x,1/2+y,-z
1/2-x,y,z
x,1/2-y,z
loop_
_atom_site_type_symbol
_atom_site_label
_atom_site_fract_x
_atom_site_fract_y
_atom_site_fract_z
Si Si1 0.916669 0.847911 0.523939
Si Si2 0.020755 0.430210 0.196327
Si Si3 0.675296 0.352065 0.164832
Si Si4 0.930352 0.103177 0.943210
Si Si5 0.601137 0.024030 0.387690
Si Si6 0.945506 0.343314 0.615741
O O1 0.883063 0.750000 0.518493
O O2 0.932616 0.870738 0.699771
O O3 0.981244 0.846188 0.430323
O O4 0.875114 0.925117 0.438584
O O5 0.063650 0.499757 0.102481
O O6 0.967298 0.480471 0.300205
O O7 0.982293 0.370513 0.073808
O O8 0.750000 0.365129 0.135284
O O9 0.659797 0.250000 0.213043
O O10 0.653868 0.422637 0.292670
O O11 0.640217 0.376569 0.007948
O O12 0.941726 0.161779 0.796585
O O13 0.592974 0.074322 0.547880
O O14 0.916101 0.250000 0.554742
#
# Coordination Sequence:
#
# PCOD8239090 Si02
#       6
#     8   8   8   8   8   8
#     4  10  18  29  47  74 104 130 163 200 243 299
#     4   9  17  29  47  73 105 138 158 194 252 309
#     4  10  22  37  52  71  97 133 171 202 243 302
#     4  10  17  29  49  71 104 134 164 198 244 298
#     4  10  17  33  50  69 101 133 165 204 249 295
#     4  10  17  26  46  76 103 132 162 197 243 293
#
# _framework density 17.344262000000001
#
# number of rings (size 3 to 8) (size 9 to 14) (size 15 to 20)
#    0.000    2.167    3.333    2.000    0.000    4.667 
#    0.000    0.833    0.000    3.500    0.000    0.000 
#    0.000    0.000    0.000    0.000    0.000    0.000 
#
# Total GULP energy -594674.482842 kJ/mol
# GULP energy per Si atom -12389.051726 kJ/mol
# Density = 1.730479 g / cm^3
# Si number density = 17.344262 Si / 1000 Ang^3
#
#
#
# Elastic Constant Matrix: (Units=GPa)
#
#
# Indices 1 2 3 4 5 6 
#
# 1 46.5530 32.4758 23.1411 0.0000 0.0000 0.0000
# 2 32.4758 132.5043 38.0808 0.0000 0.0000 0.0000
# 3 23.1411 38.0808 107.1232 0.0000 0.0000 0.0000
# 4 0.0000 0.0000 0.0000 -8.5352 0.0000 0.0000
# 5 0.0000 0.0000 0.0000 0.0000 14.1110 0.0000
# 6 0.0000 0.0000 0.0000 0.0000 0.0000 16.7024
#
#
#
# Elastic Compliance Matrix: (Units=1/GPa)
#
#
# Indices 1 2 3 4 5 6 
#
# 1 0.027314 -0.005568 -0.003921 0.000000 0.000000 0.000000
# 2 -0.005568 0.009541 -0.002189 0.000000 0.000000 0.000000
# 3 -0.003921 -0.002189 0.010960 0.000000 0.000000 0.000000
# 4 0.000000 0.000000 0.000000 -0.117162 0.000000 0.000000
# 5 0.000000 0.000000 0.000000 0.000000 0.070867 0.000000
# 6 0.000000 0.000000 0.000000 0.000000 0.000000 0.059872
#
#
# Mechanical properties :
#
#
# Convention : Reuss Voigt Hill
#
# Bulk Modulus (GPa) = 40.88378 52.61954 46.75166
# Shear Modulus (GPa) = 53.82166 17.28784 35.55475
#
# Velocity S-wave (km/s) = 5.57663 3.16056 4.53254
# Velocity P-wave (km/s) = 8.06772 6.61233 7.37601
#
# Compressibility (1/GPa) = 0.02445958
#
# Stress axis : x y z
#
# Youngs Moduli (GPa) = 36.61118 104.81597 91.23902
#
# Poissons Ratio (x) = 0.58356 0.35777
# Poissons Ratio (y) = 0.20383 0.19971
# Poissons Ratio (z) = 0.14356 0.22942
#
# Static dielectric constant tensor:
#      x y z
#    x 2.687680 0.000000 0.000000 
#    y 0.000000 3.666080 0.000000 
#    z 0.000000 0.000000 3.427130 
# 
# 
# High freq. dielectric constant tensor:
#      x y z
#    x 1.597460 0.000000 0.000000 
#    y 0.000000 1.682050 0.000000 
#    z 0.000000 0.000000 1.684410 
# 
# From -- ./inp_files/9231.got.cif
#   From: 2010.03.12/outbox.cif.g09.slc.cpg/sg59_5_cif.got.tgz:9231.got - 2010.04.16 16:29:54.
