data_PCOD8239403
_publ_section_title
;
Structure prediction by ZEFSAII (Michael W. Deem and Ramdas Pophale) SiO2 
 PCOD8239403
Probable space group: P M M N
;
_chemical_formula_sum "Si O2"
_cell_formula_units_Z 64
_cell_length_a 13.766739
_cell_length_b 9.187723
_cell_length_c 28.179413
_cell_angle_alpha 90.000000
_cell_angle_beta 90.000000
_cell_angle_gamma 90.000000
_cell_volume 3564.272618
_symmetry_space_group_name_H-M "P M M N"
_symmetry_group_IT_number 59
_space_group.IT_coordinate_system_code '2'
_symmetry_cell_setting 'orthorhombic'
loop_
_space_group_symop_operation_xyz
x,y,z
1/2-x,1/2-y,z
1/2+x,-y,-z
-x,1/2+y,-z
-x,-y,-z
1/2+x,1/2+y,-z
1/2-x,y,z
x,1/2-y,z
loop_
_atom_site_type_symbol
_atom_site_label
_atom_site_fract_x
_atom_site_fract_y
_atom_site_fract_z
Si Si1 0.142066 0.589292 0.120078
Si Si2 0.364474 0.910716 0.469679
Si Si3 0.532002 0.579089 0.805981
Si Si4 0.524501 0.916410 0.047673
Si Si5 0.138202 0.578558 0.872748
Si Si6 0.143533 0.922645 0.573809
Si Si7 0.949902 0.577845 0.616592
Si Si8 0.139004 0.423685 0.286016
O O1 0.250000 0.559222 0.101990
O O2 0.131254 0.750000 0.143321
O O3 0.116189 0.468384 0.158434
O O4 0.076935 0.577594 0.074157
O O5 0.250000 0.895715 0.469937
O O6 0.410430 0.750000 0.460735
O O7 0.394298 0.974097 0.521696
O O8 0.393947 0.021075 0.428978
O O9 0.530562 0.750000 0.802722
O O10 0.427545 0.525694 0.827368
O O11 0.564034 0.517270 0.754417
O O12 0.557637 0.750000 0.037703
O O13 0.607168 0.995110 0.079305
O O14 0.500000 0.000000 0.000000
O O15 0.250000 0.541472 0.860865
O O16 0.123296 0.750000 0.881777
O O17 0.250000 0.989010 0.586837
O O18 0.152833 0.750000 0.571595
O O19 0.063641 0.969710 0.612992
O O20 0.939479 0.750000 0.616539
O O21 0.902450 0.513473 0.664443
O O22 0.250000 0.479960 0.278081
O O23 0.139323 0.250000 0.286392
#
# Coordination Sequence:
#
# PCOD8239403 Si02
#       8
#     8   8   8   8   8   8   8   8
#     4   9  18  32  49  69  93 120 151 190 231 266
#     4   9  17  29  44  62  87 118 149 185 231 278
#     4   9  17  31  50  69  90 120 155 187 227 280
#     4  10  20  33  49  72 102 133 163 194 232 280
#     4   9  18  33  52  72  95 125 163 207 246 276
#     4   8  15  28  44  62  86 117 152 189 229 271
#     4  10  18  28  45  67  90 118 152 188 227 277
#     4   9  17  28  43  67  97 121 143 183 238 285
#
# _framework density 17.955978999999999
#
# number of rings (size 3 to 8) (size 9 to 14) (size 15 to 20)
#    0.000    2.875    0.000    2.250    0.000    2.750 
#    0.000    2.500    0.000    7.125    0.000    0.000 
#    0.000    2.000    0.000    0.000    0.000    0.000 
#
# Total GULP energy -793003.731093 kJ/mol
# GULP energy per Si atom -12390.683298 kJ/mol
# Density = 1.791511 g / cm^3
# Si number density = 17.955979 Si / 1000 Ang^3
#
#
#
# Elastic Constant Matrix: (Units=GPa)
#
#
# Indices 1 2 3 4 5 6 
#
# 1 111.6000 23.6930 70.3012 0.0000 0.0000 0.0000
# 2 23.6930 22.2271 25.3392 0.0000 0.0000 0.0000
# 3 70.3012 25.3392 115.7310 0.0000 0.0000 0.0000
# 4 0.0000 0.0000 0.0000 20.3810 0.0000 0.0000
# 5 0.0000 0.0000 0.0000 0.0000 21.9644 0.0000
# 6 0.0000 0.0000 0.0000 0.0000 0.0000 17.1112
#
#
#
# Elastic Compliance Matrix: (Units=1/GPa)
#
#
# Indices 1 2 3 4 5 6 
#
# 1 0.015441 -0.007684 -0.007697 0.000000 0.000000 0.000000
# 2 -0.007684 0.063779 -0.009297 0.000000 0.000000 0.000000
# 3 -0.007697 -0.009297 0.015352 0.000000 0.000000 0.000000
# 4 0.000000 0.000000 0.000000 0.049065 0.000000 0.000000
# 5 0.000000 0.000000 0.000000 0.000000 0.045528 0.000000
# 6 0.000000 0.000000 0.000000 0.000000 0.000000 0.058441
#
#
# Mechanical properties :
#
#
# Convention : Reuss Voigt Hill
#
# Bulk Modulus (GPa) = 22.11605 54.24723 38.18164
# Shear Modulus (GPa) = 16.02388 20.57296 18.29842
#
# Velocity S-wave (km/s) = 2.99054 3.38856 3.19575
# Velocity P-wave (km/s) = 4.92626 6.75178 5.90993
#
# Compressibility (1/GPa) = 0.04521603
#
# Stress axis : x y z
#
# Youngs Moduli (GPa) = 64.76439 15.67905 65.13901
#
# Poissons Ratio (x) = 0.12048 0.50137
# Poissons Ratio (y) = 0.49766 0.60557
# Poissons Ratio (z) = 0.49849 0.14576
#
# Static dielectric constant tensor:
#      x y z
#    x 3.608640 0.000000 0.000000 
#    y 0.000000 3.174440 0.000000 
#    z 0.000000 0.000000 3.458940 
# 
# 
# High freq. dielectric constant tensor:
#      x y z
#    x 1.702250 0.000000 0.000000 
#    y 0.000000 1.665440 0.000000 
#    z 0.000000 0.000000 1.685490 
# 
# From -- ./inp_files/33310.got.cif
#   From: 2010.03.12/outbox.cif.g09.slc.cpg/sg59_17_cif.got.tgz:33310.got - 2010.04.16 16:29:54.
