data_PCOD8239296
_publ_section_title
;
Structure prediction by ZEFSAII (Michael W. Deem and Ramdas Pophale) SiO2 
 PCOD8239296
Probable space group: P M M N
;
_chemical_formula_sum "Si O2"
_cell_formula_units_Z 56
_cell_length_a 9.123932
_cell_length_b 27.810228
_cell_length_c 13.603137
_cell_angle_alpha 90.000000
_cell_angle_beta 90.000000
_cell_angle_gamma 90.000000
_cell_volume 3451.641335
_symmetry_space_group_name_H-M "P M M N"
_symmetry_group_IT_number 59
_space_group.IT_coordinate_system_code '2'
_symmetry_cell_setting 'orthorhombic'
loop_
_space_group_symop_operation_xyz
x,y,z
1/2-x,1/2-y,z
1/2+x,-y,-z
-x,1/2+y,-z
-x,-y,-z
1/2+x,1/2+y,-z
1/2-x,y,z
x,1/2-y,z
loop_
_atom_site_type_symbol
_atom_site_label
_atom_site_fract_x
_atom_site_fract_y
_atom_site_fract_z
Si Si1 0.581327 0.695523 0.027981
Si Si2 0.414660 0.884666 0.928324
Si Si3 0.079580 0.804462 0.232932
Si Si4 0.579108 0.030567 0.200058
Si Si5 0.577895 0.891153 0.291150
Si Si6 0.917923 0.444148 0.878581
Si Si7 0.080246 0.485186 0.597752
O O1 0.750000 0.684320 0.052357
O O2 0.562044 0.750000 0.989486
O O3 0.487091 0.687053 0.125372
O O4 0.525102 0.659751 0.942657
O O5 0.250000 0.863577 0.926755
O O6 0.449175 0.913323 0.826688
O O7 0.430710 0.925356 0.011110
O O8 0.250000 0.817221 0.226269
O O9 0.053248 0.750000 0.268882
O O10 0.000761 0.839792 0.311618
O O11 0.750000 0.016809 0.185275
O O12 0.482562 0.997776 0.127456
O O13 0.532453 0.020211 0.312779
O O14 0.750000 0.883029 0.281343
O O15 0.515420 0.909293 0.187961
O O16 0.540983 0.929822 0.375872
O O17 0.750000 0.444004 0.841805
O O18 0.250000 0.490859 0.576445
O O19 0.000000 0.500000 0.500000
#
# Coordination Sequence:
#
# PCOD8239296 Si02
#       7
#     8   8   8   8   8   8   8
#     4  10  20  31  44  64  92 128 165 196 228 267
#     4  10  19  30  45  65  92 125 159 192 228 268
#     4  10  19  30  45  67  95 126 161 196 228 269
#     4   9  19  33  46  65  93 122 153 190 231 278
#     4  10  19  31  47  68  95 127 158 192 234 279
#     4  10  18  27  42  66  93 124 158 187 221 265
#     4   9  19  34  51  70  93 120 152 193 238 284
#
# _framework density 16.224164999999999
#
# number of rings (size 3 to 8) (size 9 to 14) (size 15 to 20)
#    0.000    2.286    1.429    3.000    0.000    5.714 
#    0.000    0.000    0.000    0.000    0.000    1.000 
#    0.000    1.143    0.000    0.000    0.000    0.000 
#
# Total GULP energy -694248.510130 kJ/mol
# GULP energy per Si atom -12397.294824 kJ/mol
# Density = 1.618724 g / cm^3
# Si number density = 16.224165 Si / 1000 Ang^3
#
#
#
# Elastic Constant Matrix: (Units=GPa)
#
#
# Indices 1 2 3 4 5 6 
#
# 1 95.2070 64.7652 38.8401 0.0000 0.0000 0.0000
# 2 64.7652 113.1245 47.2422 0.0000 0.0000 0.0000
# 3 38.8401 47.2422 64.4925 0.0000 0.0000 0.0000
# 4 0.0000 0.0000 0.0000 17.4869 0.0000 0.0000
# 5 0.0000 0.0000 0.0000 0.0000 20.7676 0.0000
# 6 0.0000 0.0000 0.0000 0.0000 0.0000 32.3096
#
#
#
# Elastic Compliance Matrix: (Units=1/GPa)
#
#
# Indices 1 2 3 4 5 6 
#
# 1 0.018175 -0.008406 -0.004788 0.000000 0.000000 0.000000
# 2 -0.008406 0.016623 -0.007115 0.000000 0.000000 0.000000
# 3 -0.004788 -0.007115 0.023601 0.000000 0.000000 0.000000
# 4 0.000000 0.000000 0.000000 0.057186 0.000000 0.000000
# 5 0.000000 0.000000 0.000000 0.000000 0.048152 0.000000
# 6 0.000000 0.000000 0.000000 0.000000 0.000000 0.030951
#
#
# Mechanical properties :
#
#
# Convention : Reuss Voigt Hill
#
# Bulk Modulus (GPa) = 56.23702 63.83543 60.03622
# Shear Modulus (GPa) = 20.72690 22.24458 21.48574
#
# Velocity S-wave (km/s) = 3.57814 3.70682 3.64305
# Velocity P-wave (km/s) = 7.19781 7.59948 7.40137
#
# Compressibility (1/GPa) = 0.01778188
#
# Stress axis : x y z
#
# Youngs Moduli (GPa) = 55.02106 60.15628 42.37086
#
# Poissons Ratio (x) = 0.50565 0.20289
# Poissons Ratio (y) = 0.46249 0.30146
# Poissons Ratio (z) = 0.26346 0.42800
#
# Static dielectric constant tensor:
#      x y z
#    x 3.217690 0.000000 0.000000 
#    y 0.000000 3.319420 0.000000 
#    z 0.000000 0.000000 2.710680 
# 
# 
# High freq. dielectric constant tensor:
#      x y z
#    x 1.637090 0.000000 0.000000 
#    y 0.000000 1.627660 0.000000 
#    z 0.000000 0.000000 1.571660 
# 
# From -- ./inp_files/21758.got.cif
#   From: 2010.03.12/outbox.cif.g09.slc.cpg/sg59_11_cif.got.tgz:21758.got - 2010.04.16 16:29:54.
