data_PCOD8239044
_publ_section_title
;
Structure prediction by ZEFSAII (Michael W. Deem and Ramdas Pophale) SiO2 
 PCOD8239044
Probable space group: P M M N
;
_chemical_formula_sum "Si O2"
_cell_formula_units_Z 64
_cell_length_a 9.214065
_cell_length_b 24.789550
_cell_length_c 18.598070
_cell_angle_alpha 90.000000
_cell_angle_beta 90.000000
_cell_angle_gamma 90.000000
_cell_volume 4248.032129
_symmetry_space_group_name_H-M "P M M N"
_symmetry_group_IT_number 59
_space_group.IT_coordinate_system_code '2'
_symmetry_cell_setting 'orthorhombic'
loop_
_space_group_symop_operation_xyz
x,y,z
1/2-x,1/2-y,z
1/2+x,-y,-z
-x,1/2+y,-z
-x,-y,-z
1/2+x,1/2+y,-z
1/2-x,y,z
x,1/2-y,z
loop_
_atom_site_type_symbol
_atom_site_label
_atom_site_fract_x
_atom_site_fract_y
_atom_site_fract_z
Si Si1 0.577776 0.308822 0.279206
Si Si2 0.582656 0.012976 0.602840
Si Si3 0.590524 0.047277 0.910699
Si Si4 0.422292 0.601270 0.827372
Si Si5 0.582563 0.999085 0.767483
Si Si6 0.919883 0.914019 0.505475
Si Si7 0.920854 0.311945 0.441095
Si Si8 0.088146 0.424345 0.037885
O O1 0.750000 0.309413 0.279166
O O2 0.519332 0.250000 0.256897
O O3 0.516453 0.350486 0.221523
O O4 0.525789 0.322597 0.359654
O O5 0.750000 0.026591 0.585772
O O6 0.481634 0.056815 0.565076
O O7 0.548663 0.018295 0.687224
O O8 0.546902 0.952412 0.574460
O O9 0.750000 0.071883 0.924621
O O10 0.555186 0.047746 0.825012
O O11 0.587550 0.985736 0.936775
O O12 0.476137 0.081542 0.957194
O O13 0.250000 0.600735 0.835292
O O14 0.471895 0.547725 0.787165
O O15 0.490762 0.609195 0.906212
O O16 0.750000 0.979006 0.774529
O O17 0.750000 0.904691 0.495068
O O18 0.994247 0.855453 0.511107
O O19 0.750000 0.322125 0.449660
O O20 0.958057 0.250000 0.463791
O O21 0.250000 0.400458 0.036538
#
# Coordination Sequence:
#
# PCOD8239044 Si02
#       8
#     8   8   8   8   8   8   8   8
#     4   8  15  27  41  58  79 103 134 170 203 234
#     4   9  18  31  44  59  83 115 144 169 206 254
#     4   8  14  24  37  53  73  98 129 161 191 224
#     4  10  17  24  39  59  78 104 136 168 199 236
#     4   9  17  28  41  57  79 106 134 167 203 238
#     4  10  19  29  43  63  86 111 140 175 209 245
#     4   9  17  30  47  63  81 109 142 174 210 251
#     4   9  16  25  36  51  75 104 130 158 191 227
#
# _framework density 15.065799999999999
#
# number of rings (size 3 to 8) (size 9 to 14) (size 15 to 20)
#    0.000    3.000    0.000    3.375    0.000    4.250 
#    0.000    0.625    0.000    3.000    0.000    0.000 
#    0.000    1.000    0.000    8.000    0.000    3.875 
#
# Total GULP energy -793195.954793 kJ/mol
# GULP energy per Si atom -12393.686794 kJ/mol
# Density = 1.503151 g / cm^3
# Si number density = 15.065800 Si / 1000 Ang^3
#
#
#
# Elastic Constant Matrix: (Units=GPa)
#
#
# Indices 1 2 3 4 5 6 
#
# 1 76.8382 39.5787 44.0345 0.0000 0.0000 0.0000
# 2 39.5787 69.7418 37.3718 0.0000 0.0000 0.0000
# 3 44.0345 37.3718 105.8591 0.0000 0.0000 0.0000
# 4 0.0000 0.0000 0.0000 19.8413 0.0000 0.0000
# 5 0.0000 0.0000 0.0000 0.0000 22.3697 0.0000
# 6 0.0000 0.0000 0.0000 0.0000 0.0000 15.6485
#
#
#
# Elastic Compliance Matrix: (Units=1/GPa)
#
#
# Indices 1 2 3 4 5 6 
#
# 1 0.020701 -0.008798 -0.005505 0.000000 0.000000 0.000000
# 2 -0.008798 0.021423 -0.003903 0.000000 0.000000 0.000000
# 3 -0.005505 -0.003903 0.013115 0.000000 0.000000 0.000000
# 4 0.000000 0.000000 0.000000 0.050400 0.000000 0.000000
# 5 0.000000 0.000000 0.000000 0.000000 0.044703 0.000000
# 6 0.000000 0.000000 0.000000 0.000000 0.000000 0.063904
#
#
# Mechanical properties :
#
#
# Convention : Reuss Voigt Hill
#
# Bulk Modulus (GPa) = 53.11854 54.93437 54.02645
# Shear Modulus (GPa) = 19.46027 20.33551 19.89789
#
# Velocity S-wave (km/s) = 3.59790 3.67792 3.63813
# Velocity P-wave (km/s) = 7.25218 7.38771 7.32026
#
# Compressibility (1/GPa) = 0.01882582
#
# Stress axis : x y z
#
# Youngs Moduli (GPa) = 48.30691 46.67850 76.25142
#
# Poissons Ratio (x) = 0.41067 0.41977
# Poissons Ratio (y) = 0.42500 0.29764
# Poissons Ratio (z) = 0.26593 0.18220
#
# Static dielectric constant tensor:
#      x y z
#    x 2.894940 0.000000 0.000000 
#    y 0.000000 2.699070 0.000000 
#    z 0.000000 0.000000 3.045330 
# 
# 
# High freq. dielectric constant tensor:
#      x y z
#    x 1.577960 0.000000 0.000000 
#    y 0.000000 1.530960 0.000000 
#    z 0.000000 0.000000 1.574780 
# 
# From -- ./inp_files/26605.got.cif
#   From: 2010.03.12/outbox.cif.g09.slc.cpg/sg59_14_cif.got.tgz:26605.got - 2010.04.16 16:29:54.
