data_PCOD8239097
_publ_section_title
;
Structure prediction by ZEFSAII (Michael W. Deem and Ramdas Pophale) SiO2 
 PCOD8239097
Probable space group: P M M N
;
_chemical_formula_sum "Si O2"
_cell_formula_units_Z 48
_cell_length_a 21.755318
_cell_length_b 8.942828
_cell_length_c 15.207104
_cell_angle_alpha 90.000000
_cell_angle_beta 90.000000
_cell_angle_gamma 90.000000
_cell_volume 2958.603930
_symmetry_space_group_name_H-M "P M M N"
_symmetry_group_IT_number 59
_space_group.IT_coordinate_system_code '2'
_symmetry_cell_setting 'orthorhombic'
loop_
_space_group_symop_operation_xyz
x,y,z
1/2-x,1/2-y,z
1/2+x,-y,-z
-x,1/2+y,-z
-x,-y,-z
1/2+x,1/2+y,-z
1/2-x,y,z
x,1/2-y,z
loop_
_atom_site_type_symbol
_atom_site_label
_atom_site_fract_x
_atom_site_fract_y
_atom_site_fract_z
Si Si1 0.092635 0.075493 0.840752
Si Si2 0.818047 0.926388 0.305740
Si Si3 0.455039 0.573308 0.197225
Si Si4 0.563101 0.574758 0.972338
Si Si5 0.959840 0.923377 0.627543
Si Si6 0.420084 0.422863 0.561732
O O1 0.089780 0.250000 0.820640
O O2 0.144984 0.004394 0.778038
O O3 0.025066 0.014050 0.815050
O O4 0.108571 0.045913 0.944063
O O5 0.750000 0.999166 0.310301
O O6 0.811557 0.750000 0.294062
O O7 0.854421 0.964055 0.395724
O O8 0.448387 0.750000 0.192592
O O9 0.413775 0.502442 0.118014
O O10 0.430673 0.513550 0.290792
O O11 0.553508 0.750000 0.956652
O O12 0.500000 0.500000 0.000000
O O13 0.961655 0.750000 0.651999
O O14 0.916966 0.954533 0.542559
O O15 0.028697 0.976863 0.607913
O O16 0.437527 0.250000 0.580101
#
# Coordination Sequence:
#
# PCOD8239097 Si02
#       6
#     8   8   8   8   8   8
#     4   8  14  24  38  58  85 112 136 172 208 244
#     4   9  15  25  44  66  86 113 146 176 211 256
#     4  10  17  27  42  60  86 114 142 178 217 258
#     4   9  16  25  38  59  87 115 142 170 208 252
#     4  10  18  26  41  63  87 116 144 175 221 268
#     4   9  17  29  42  61  88 114 144 181 216 257
#
# _framework density 16.223868
#
# number of rings (size 3 to 8) (size 9 to 14) (size 15 to 20)
#    0.000    2.833    1.667    2.500    0.000    0.667 
#    0.000    0.000    0.000    0.500    0.000    1.167 
#    0.000    9.333    0.000    0.000    0.000    0.000 
#
# Total GULP energy -594762.145382 kJ/mol
# GULP energy per Si atom -12390.878029 kJ/mol
# Density = 1.618694 g / cm^3
# Si number density = 16.223868 Si / 1000 Ang^3
#
#
#
# Elastic Constant Matrix: (Units=GPa)
#
#
# Indices 1 2 3 4 5 6 
#
# 1 63.4698 13.8176 43.7818 0.0000 0.0000 0.0000
# 2 13.8176 62.1060 47.8202 0.0000 0.0000 0.0000
# 3 43.7818 47.8202 159.8915 0.0000 0.0000 0.0000
# 4 0.0000 0.0000 0.0000 27.4468 0.0000 0.0000
# 5 0.0000 0.0000 0.0000 0.0000 17.0245 0.0000
# 6 0.0000 0.0000 0.0000 0.0000 0.0000 8.7982
#
#
#
# Elastic Compliance Matrix: (Units=1/GPa)
#
#
# Indices 1 2 3 4 5 6 
#
# 1 0.019429 -0.000294 -0.005232 0.000000 0.000000 0.000000
# 2 -0.000294 0.020923 -0.006177 0.000000 0.000000 0.000000
# 3 -0.005232 -0.006177 0.009534 0.000000 0.000000 0.000000
# 4 0.000000 0.000000 0.000000 0.036434 0.000000 0.000000
# 5 0.000000 0.000000 0.000000 0.000000 0.058739 0.000000
# 6 0.000000 0.000000 0.000000 0.000000 0.000000 0.113660
#
#
# Mechanical properties :
#
#
# Convention : Reuss Voigt Hill
#
# Bulk Modulus (GPa) = 37.76478 55.14516 46.45497
# Shear Modulus (GPa) = 17.18494 22.65707 19.92101
#
# Velocity S-wave (km/s) = 3.25813 3.74107 3.50792
# Velocity P-wave (km/s) = 6.12223 7.26118 6.71589
#
# Compressibility (1/GPa) = 0.02647970
#
# Stress axis : x y z
#
# Youngs Moduli (GPa) = 51.47047 47.79385 104.88382
#
# Poissons Ratio (x) = 0.01405 0.54876
# Poissons Ratio (y) = 0.01513 0.64789
# Poissons Ratio (z) = 0.26930 0.29523
#
# Static dielectric constant tensor:
#      x y z
#    x 2.809750 0.000000 0.000000 
#    y 0.000000 2.936140 0.000000 
#    z 0.000000 0.000000 3.608960 
# 
# 
# High freq. dielectric constant tensor:
#      x y z
#    x 1.555280 0.000000 0.000000 
#    y 0.000000 1.606380 0.000000 
#    z 0.000000 0.000000 1.648600 
# 
# From -- ./inp_files/21243.got.cif
#   From: 2010.03.12/outbox.cif.g09.slc.cpg/sg59_11_cif.got.tgz:21243.got - 2010.04.16 16:29:54.
