data_PCOD8239990
_publ_section_title
;
Structure prediction by ZEFSAII (Michael W. Deem and Ramdas Pophale) SiO2 
 PCOD8239990
Probable space group: P M M N
;
_chemical_formula_sum "Si O2"
_cell_formula_units_Z 48
_cell_length_a 8.967954
_cell_length_b 34.467937
_cell_length_c 8.011889
_cell_angle_alpha 90.000000
_cell_angle_beta 90.000000
_cell_angle_gamma 90.000000
_cell_volume 2476.529960
_symmetry_space_group_name_H-M "P M M N"
_symmetry_group_IT_number 59
_space_group.IT_coordinate_system_code '2'
_symmetry_cell_setting 'orthorhombic'
loop_
_space_group_symop_operation_xyz
x,y,z
1/2-x,1/2-y,z
1/2+x,-y,-z
-x,1/2+y,-z
-x,-y,-z
1/2+x,1/2+y,-z
1/2-x,y,z
x,1/2-y,z
loop_
_atom_site_type_symbol
_atom_site_label
_atom_site_fract_x
_atom_site_fract_y
_atom_site_fract_z
Si Si1 0.572039 0.706103 0.491325
Si Si2 0.073166 0.157405 0.821499
Si Si3 0.573113 0.499314 0.821867
Si Si4 0.419006 0.079016 0.316228
Si Si5 0.919278 0.924368 0.299729
Si Si6 0.927992 0.841092 0.809179
O O1 0.750000 0.704804 0.489537
O O2 0.512856 0.750000 0.483605
O O3 0.506665 0.683801 0.327999
O O4 0.510858 0.687345 0.664181
O O5 0.250000 0.158689 0.805815
O O6 0.021880 0.112528 0.805284
O O7 0.021919 0.172834 0.004940
O O8 0.750000 0.499066 0.834717
O O9 0.508132 0.537389 0.726778
O O10 0.524279 0.461092 0.724129
O O11 0.500000 0.500000 0.000000
O O12 0.250000 0.075845 0.254166
O O13 0.428128 0.088799 0.509955
O O14 0.493608 0.115467 0.220658
O O15 0.750000 0.935482 0.248811
O O16 0.750000 0.842368 0.796823
#
# Coordination Sequence:
#
# PCOD8239990 Si02
#       6
#     8   8   8   8   8   8
#     4   9  16  25  37  58  90 125 161 200 242 292
#     4   9  16  26  43  64  89 126 165 199 243 298
#     4  11  22  34  48  71 100 131 169 211 250 295
#     4   9  17  30  48  68  92 125 167 207 246 296
#     4  10  18  32  52  71  94 129 169 207 250 300
#     4   9  15  25  40  59  86 122 162 198 237 291
#
# _framework density 19.381958000000001
#
# number of rings (size 3 to 8) (size 9 to 14) (size 15 to 20)
#    0.000    2.500    1.667    2.000    0.000    3.333 
#    0.000    4.167    0.000    0.000    0.000    0.000 
#    0.000    0.667    0.000    0.667    0.000    1.833 
#
# Total GULP energy -594865.310815 kJ/mol
# GULP energy per Si atom -12393.027309 kJ/mol
# Density = 1.933784 g / cm^3
# Si number density = 19.381958 Si / 1000 Ang^3
#
#
#
# Elastic Constant Matrix: (Units=GPa)
#
#
# Indices 1 2 3 4 5 6 
#
# 1 23.5698 15.0259 11.7865 0.0000 0.0000 0.0000
# 2 15.0259 150.9983 78.5123 0.0000 0.0000 0.0000
# 3 11.7865 78.5123 143.4050 0.0000 0.0000 0.0000
# 4 0.0000 0.0000 0.0000 27.7348 0.0000 0.0000
# 5 0.0000 0.0000 0.0000 0.0000 12.1573 0.0000
# 6 0.0000 0.0000 0.0000 0.0000 0.0000 15.4395
#
#
#
# Elastic Compliance Matrix: (Units=1/GPa)
#
#
# Indices 1 2 3 4 5 6 
#
# 1 0.045619 -0.003621 -0.001767 0.000000 0.000000 0.000000
# 2 -0.003621 0.009545 -0.004928 0.000000 0.000000 0.000000
# 3 -0.001767 -0.004928 0.009817 0.000000 0.000000 0.000000
# 4 0.000000 0.000000 0.000000 0.036056 0.000000 0.000000
# 5 0.000000 0.000000 0.000000 0.000000 0.082255 0.000000
# 6 0.000000 0.000000 0.000000 0.000000 0.000000 0.064769
#
#
# Mechanical properties :
#
#
# Convention : Reuss Voigt Hill
#
# Bulk Modulus (GPa) = 22.54856 58.73581 40.64218
# Shear Modulus (GPa) = 17.63814 25.24288 21.44051
#
# Velocity S-wave (km/s) = 3.01994 3.61278 3.32958
# Velocity P-wave (km/s) = 4.88048 6.91181 5.98298
#
# Compressibility (1/GPa) = 0.04434873
#
# Stress axis : x y z
#
# Youngs Moduli (GPa) = 21.92064 104.76209 101.86683
#
# Poissons Ratio (x) = 0.37932 0.18001
# Poissons Ratio (y) = 0.07937 0.50204
# Poissons Ratio (z) = 0.03874 0.51631
#
# Static dielectric constant tensor:
#      x y z
#    x -0.323900 0.000000 0.000000 
#    y 0.000000 4.192490 0.000000 
#    z 0.000000 0.000000 3.788910 
# 
# 
# High freq. dielectric constant tensor:
#      x y z
#    x 1.664690 0.000000 0.000000 
#    y 0.000000 1.763830 0.000000 
#    z 0.000000 0.000000 1.773370 
# 
# From -- ./inp_files/7872.got.cif
#   From: 2010.03.12/outbox.cif.g09.slc.cpg/sg59_4_cif.got.tgz:7872.got - 2010.04.16 16:29:54.
