data_PCOD8239925
_publ_section_title
;
Structure prediction by ZEFSAII (Michael W. Deem and Ramdas Pophale) SiO2 
 PCOD8239925
Probable space group: P M M N
;
_chemical_formula_sum "Si O2"
_cell_formula_units_Z 64
_cell_length_a 9.390258
_cell_length_b 16.290843
_cell_length_c 22.301477
_cell_angle_alpha 90.000000
_cell_angle_beta 90.000000
_cell_angle_gamma 90.000000
_cell_volume 3411.573324
_symmetry_space_group_name_H-M "P M M N"
_symmetry_group_IT_number 59
_space_group.IT_coordinate_system_code '2'
_symmetry_cell_setting 'orthorhombic'
loop_
_space_group_symop_operation_xyz
x,y,z
1/2-x,1/2-y,z
1/2+x,-y,-z
-x,1/2+y,-z
-x,-y,-z
1/2+x,1/2+y,-z
1/2-x,y,z
x,1/2-y,z
loop_
_atom_site_type_symbol
_atom_site_label
_atom_site_fract_x
_atom_site_fract_y
_atom_site_fract_z
Si Si1 0.581763 0.158208 0.120737
Si Si2 0.580633 0.341617 0.363275
Si Si3 0.084781 0.844079 0.128129
Si Si4 0.911504 0.903425 0.237589
Si Si5 0.920250 0.999440 0.437622
Si Si6 0.581236 0.083752 0.998320
Si Si7 0.918923 0.841282 0.362248
Si Si8 0.087951 0.590869 0.758339
O O1 0.750000 0.147597 0.116881
O O2 0.533466 0.250000 0.133145
O O3 0.515460 0.106584 0.176594
O O4 0.521549 0.131456 0.056357
O O5 0.750000 0.345501 0.360905
O O6 0.530545 0.250000 0.385018
O O7 0.528354 0.416040 0.405608
O O8 0.518335 0.357422 0.296213
O O9 0.250000 0.862888 0.136749
O O10 0.047457 0.750000 0.138903
O O11 0.035859 0.867488 0.061299
O O12 0.002069 0.895750 0.177579
O O13 0.750000 0.877807 0.222062
O O14 0.972792 0.850737 0.293371
O O15 0.919690 0.996487 0.260106
O O16 0.750000 0.997784 0.446155
O O17 0.974587 0.916787 0.403087
O O18 0.000000 0.000000 0.500000
O O19 0.750000 0.069683 0.000350
O O20 0.500000 0.000000 0.000000
O O21 0.750000 0.846947 0.361296
O O22 0.968283 0.750000 0.385333
O O23 0.250000 0.620876 0.765203
#
# Coordination Sequence:
#
# PCOD8239925 Si02
#       8
#     8   8   8   8   8   8   8   8
#     4   9  16  26  43  68  95 124 160 201 244 292
#     4   9  16  28  48  74 104 134 163 204 258 306
#     4  10  21  35  49  69 102 140 171 204 256 316
#     4  10  18  31  53  79 102 127 169 218 256 294
#     4  10  20  35  53  76 105 136 170 207 249 303
#     4  10  20  34  50  69  95 129 167 208 253 301
#     4   9  17  31  52  76 103 136 172 212 256 299
#     4   9  15  25  45  74 102 125 157 206 256 297
#
# _framework density 18.759672999999999
#
# number of rings (size 3 to 8) (size 9 to 14) (size 15 to 20)
#    0.000    2.500    1.250    1.875    0.000    5.750 
#    0.000    0.625    0.000    1.875    0.000    0.000 
#    0.000    3.000    0.000    0.000    0.000    0.000 
#
# Total GULP energy -793062.336022 kJ/mol
# GULP energy per Si atom -12391.599000 kJ/mol
# Density = 1.871697 g / cm^3
# Si number density = 18.759673 Si / 1000 Ang^3
#
#
#
# Elastic Constant Matrix: (Units=GPa)
#
#
# Indices 1 2 3 4 5 6 
#
# 1 14.6891 15.7700 22.8453 0.0000 0.0000 0.0000
# 2 15.7700 118.5264 67.6332 0.0000 0.0000 0.0000
# 3 22.8453 67.6332 150.2983 0.0000 0.0000 0.0000
# 4 0.0000 0.0000 0.0000 30.7044 0.0000 0.0000
# 5 0.0000 0.0000 0.0000 0.0000 25.5456 0.0000
# 6 0.0000 0.0000 0.0000 0.0000 0.0000 15.4537
#
#
#
# Elastic Compliance Matrix: (Units=1/GPa)
#
#
# Indices 1 2 3 4 5 6 
#
# 1 0.091959 -0.005731 -0.011399 0.000000 0.000000 0.000000
# 2 -0.005731 0.011709 -0.004398 0.000000 0.000000 0.000000
# 3 -0.011399 -0.004398 0.010365 0.000000 0.000000 0.000000
# 4 0.000000 0.000000 0.000000 0.032569 0.000000 0.000000
# 5 0.000000 0.000000 0.000000 0.000000 0.039146 0.000000
# 6 0.000000 0.000000 0.000000 0.000000 0.000000 0.064710
#
#
# Mechanical properties :
#
#
# Convention : Reuss Voigt Hill
#
# Bulk Modulus (GPa) = 14.08897 55.11231 34.60064
# Shear Modulus (GPa) = 15.76439 26.15841 20.96140
#
# Velocity S-wave (km/s) = 2.90200 3.73821 3.34633
# Velocity P-wave (km/s) = 4.33074 6.93355 5.78055
#
# Compressibility (1/GPa) = 0.07097753
#
# Stress axis : x y z
#
# Youngs Moduli (GPa) = 10.87447 85.40508 96.47790
#
# Poissons Ratio (x) = 0.48944 1.09974
# Poissons Ratio (y) = 0.06232 0.42430
# Poissons Ratio (z) = 0.12396 0.37560
#
# Static dielectric constant tensor:
#      x y z
#    x 2.810710 0.000000 0.000000 
#    y 0.000000 3.694340 0.000000 
#    z 0.000000 0.000000 3.638970 
# 
# 
# High freq. dielectric constant tensor:
#      x y z
#    x 1.656150 0.000000 0.000000 
#    y 0.000000 1.744580 0.000000 
#    z 0.000000 0.000000 1.742260 
# 
# From -- ./inp_files/31533.got.cif
#   From: 2010.03.12/outbox.cif.g09.slc.cpg/sg59_16_cif.got.tgz:31533.got - 2010.04.16 16:29:54.
