data_PCOD8239915
_publ_section_title
;
Structure prediction by ZEFSAII (Michael W. Deem and Ramdas Pophale) SiO2 
 PCOD8239915
Probable space group: P M M N
;
_chemical_formula_sum "Si O2"
_cell_formula_units_Z 56
_cell_length_a 15.392751
_cell_length_b 9.335755
_cell_length_c 21.522295
_cell_angle_alpha 90.000000
_cell_angle_beta 90.000000
_cell_angle_gamma 90.000000
_cell_volume 3092.817328
_symmetry_space_group_name_H-M "P M M N"
_symmetry_group_IT_number 59
_space_group.IT_coordinate_system_code '2'
_symmetry_cell_setting 'orthorhombic'
loop_
_space_group_symop_operation_xyz
x,y,z
1/2-x,1/2-y,z
1/2+x,-y,-z
-x,1/2+y,-z
-x,-y,-z
1/2+x,1/2+y,-z
1/2-x,y,z
x,1/2-y,z
loop_
_atom_site_type_symbol
_atom_site_label
_atom_site_fract_x
_atom_site_fract_y
_atom_site_fract_z
Si Si1 0.655537 0.919540 0.130711
Si Si2 0.848993 0.585674 0.864798
Si Si3 0.493044 0.921152 0.208592
Si Si4 0.498805 0.919464 0.348407
Si Si5 0.651376 0.917389 0.436257
Si Si6 0.088581 0.083614 0.000537
Si Si7 0.151312 0.582723 0.438722
O O1 0.750000 0.978020 0.152898
O O2 0.654213 0.750000 0.136709
O O3 0.578660 0.981640 0.173689
O O4 0.643659 0.966022 0.059153
O O5 0.750000 0.558745 0.844750
O O6 0.876382 0.750000 0.852908
O O7 0.857668 0.547923 0.937586
O O8 0.907820 0.482296 0.823873
O O9 0.487656 0.750000 0.205876
O O10 0.496903 0.981119 0.278797
O O11 0.499088 0.750000 0.344795
O O12 0.586491 0.972416 0.382623
O O13 0.413096 0.972722 0.384926
O O14 0.750000 0.950514 0.414876
O O15 0.638051 0.750000 0.449674
O O16 0.627441 0.999814 0.498829
O O17 0.065603 0.250000 0.995713
O O18 0.000000 0.000000 0.000000
O O19 0.250000 0.550096 0.417477
O O20 0.137479 0.750000 0.452149
#
# Coordination Sequence:
#
# PCOD8239915 Si02
#       7
#     8   8   8   8   8   8   8
#     4   9  17  30  50  75 100 127 162 203 247 295
#     4  10  21  36  53  73 101 136 168 203 254 306
#     4  10  20  34  52  75 100 131 172 212 244 287
#     4   9  18  31  48  71  99 128 159 196 242 288
#     4   9  17  30  49  73  99 124 154 197 244 286
#     4  10  18  31  53  76 100 128 162 206 253 297
#     4   9  17  30  48  69  94 125 160 196 237 286
#
# _framework density 18.106469000000001
#
# number of rings (size 3 to 8) (size 9 to 14) (size 15 to 20)
#    0.000    2.571    1.429    0.857    0.000    3.143 
#    0.000    5.714    0.000    4.286    0.000    0.000 
#    0.000    0.000    0.000    0.000    0.000    0.000 
#
# Total GULP energy -694296.895547 kJ/mol
# GULP energy per Si atom -12398.158849 kJ/mol
# Density = 1.806526 g / cm^3
# Si number density = 18.106469 Si / 1000 Ang^3
#
#
#
# Elastic Constant Matrix: (Units=GPa)
#
#
# Indices 1 2 3 4 5 6 
#
# 1 143.0861 29.2084 83.4862 0.0000 0.0000 0.0000
# 2 29.2084 26.0864 31.8750 0.0000 0.0000 0.0000
# 3 83.4862 31.8750 156.3149 0.0000 0.0000 0.0000
# 4 0.0000 0.0000 0.0000 20.1570 0.0000 0.0000
# 5 0.0000 0.0000 0.0000 0.0000 14.4216 0.0000
# 6 0.0000 0.0000 0.0000 0.0000 0.0000 21.7989
#
#
#
# Elastic Compliance Matrix: (Units=1/GPa)
#
#
# Indices 1 2 3 4 5 6 
#
# 1 0.010999 -0.006842 -0.004479 0.000000 0.000000 0.000000
# 2 -0.006842 0.055312 -0.007625 0.000000 0.000000 0.000000
# 3 -0.004479 -0.007625 0.010344 0.000000 0.000000 0.000000
# 4 0.000000 0.000000 0.000000 0.049611 0.000000 0.000000
# 5 0.000000 0.000000 0.000000 0.000000 0.069340 0.000000
# 6 0.000000 0.000000 0.000000 0.000000 0.000000 0.045874
#
#
# Mechanical properties :
#
#
# Convention : Reuss Voigt Hill
#
# Bulk Modulus (GPa) = 25.79765 68.29185 47.04475
# Shear Modulus (GPa) = 17.10612 23.33668 20.22140
#
# Velocity S-wave (km/s) = 3.07702 3.59396 3.34549
# Velocity P-wave (km/s) = 5.18678 7.41760 6.40014
#
# Compressibility (1/GPa) = 0.03876322
#
# Stress axis : x y z
#
# Youngs Moduli (GPa) = 90.91742 18.07932 96.67047
#
# Poissons Ratio (x) = 0.12370 0.43301
# Poissons Ratio (y) = 0.62207 0.73707
# Poissons Ratio (z) = 0.40724 0.13785
#
# Static dielectric constant tensor:
#      x y z
#    x 3.333610 0.000000 0.000000 
#    y 0.000000 3.018090 0.000000 
#    z 0.000000 0.000000 3.703370 
# 
# 
# High freq. dielectric constant tensor:
#      x y z
#    x 1.716750 0.000000 0.000000 
#    y 0.000000 1.662170 0.000000 
#    z 0.000000 0.000000 1.700450 
# 
# From -- ./inp_files/29106.got.cif
#   From: 2010.03.12/outbox.cif.g09.slc.cpg/sg59_15_cif.got.tgz:29106.got - 2010.04.16 16:29:54.
