data_PCOD8239342
_publ_section_title
;
Structure prediction by ZEFSAII (Michael W. Deem and Ramdas Pophale) SiO2 
 PCOD8239342
Probable space group: P M M N
;
_chemical_formula_sum "Si O2"
_cell_formula_units_Z 48
_cell_length_a 13.261919
_cell_length_b 32.156264
_cell_length_c 7.670509
_cell_angle_alpha 90.000000
_cell_angle_beta 90.000000
_cell_angle_gamma 90.000000
_cell_volume 3271.117469
_symmetry_space_group_name_H-M "P M M N"
_symmetry_group_IT_number 59
_space_group.IT_coordinate_system_code '2'
_symmetry_cell_setting 'orthorhombic'
loop_
_space_group_symop_operation_xyz
x,y,z
1/2-x,1/2-y,z
1/2+x,-y,-z
-x,1/2+y,-z
-x,-y,-z
1/2+x,1/2+y,-z
1/2-x,y,z
x,1/2-y,z
loop_
_atom_site_type_symbol
_atom_site_label
_atom_site_fract_x
_atom_site_fract_y
_atom_site_fract_z
Si Si1 0.131964 0.856559 0.338348
Si Si2 0.132289 0.852814 0.947606
Si Si3 0.864634 0.501994 0.363646
Si Si4 0.131179 0.945259 0.961245
Si Si5 0.370055 0.796461 0.642929
Si Si6 0.554731 0.052586 0.662762
O O1 0.250000 0.867251 0.360849
O O2 0.094955 0.821559 0.472077
O O3 0.070357 0.898681 0.372070
O O4 0.109743 0.838763 0.145504
O O5 0.250000 0.853655 0.908378
O O6 0.089399 0.899184 0.914295
O O7 0.084171 0.819812 0.812894
O O8 0.750000 0.517872 0.347201
O O9 0.897871 0.475716 0.194522
O O10 0.873844 0.473443 0.534100
O O11 0.937729 0.541802 0.375683
O O12 0.250000 0.942866 0.993991
O O13 0.081078 0.960666 0.140219
O O14 0.250000 0.793976 0.650135
O O15 0.415746 0.750000 0.635621
#
# Coordination Sequence:
#
# PCOD8239342 Si02
#       6
#     8   8   8   8   8   8
#     4   9  16  26  39  54  74 102 132 157 185 227
#     4   8  14  23  35  50  69  96 126 153 182 221
#     4  10  19  28  40  59  81 105 135 171 203 229
#     4   9  16  27  42  58  77 102 134 168 198 231
#     4   9  16  24  35  53  76 100 125 154 189 228
#     4  10  18  28  42  58  79 108 138 165 196 234
#
# _framework density 14.673885
#
# number of rings (size 3 to 8) (size 9 to 14) (size 15 to 20)
#    0.000    2.833    0.000    4.000    0.000    3.333 
#    0.000    3.333    0.000    0.000    0.000    0.000 
#    0.000    0.667    0.000    1.333    0.000    0.000 
#
# Total GULP energy -595024.981991 kJ/mol
# GULP energy per Si atom -12396.353791 kJ/mol
# Density = 1.464049 g / cm^3
# Si number density = 14.673885 Si / 1000 Ang^3
#
#
#
# Elastic Constant Matrix: (Units=GPa)
#
#
# Indices 1 2 3 4 5 6 
#
# 1 36.9283 29.3183 23.7817 0.0000 0.0000 0.0000
# 2 29.3183 88.8152 54.2923 0.0000 0.0000 0.0000
# 3 23.7817 54.2923 100.2281 0.0000 0.0000 0.0000
# 4 0.0000 0.0000 0.0000 19.0617 0.0000 0.0000
# 5 0.0000 0.0000 0.0000 0.0000 9.7830 0.0000
# 6 0.0000 0.0000 0.0000 0.0000 0.0000 13.1701
#
#
#
# Elastic Compliance Matrix: (Units=1/GPa)
#
#
# Indices 1 2 3 4 5 6 
#
# 1 0.037400 -0.010348 -0.003269 0.000000 0.000000 0.000000
# 2 -0.010348 0.019696 -0.008214 0.000000 0.000000 0.000000
# 3 -0.003269 -0.008214 0.015202 0.000000 0.000000 0.000000
# 4 0.000000 0.000000 0.000000 0.052461 0.000000 0.000000
# 5 0.000000 0.000000 0.000000 0.000000 0.102218 0.000000
# 6 0.000000 0.000000 0.000000 0.000000 0.000000 0.075930
#
#
# Mechanical properties :
#
#
# Convention : Reuss Voigt Hill
#
# Bulk Modulus (GPa) = 34.91930 48.97291 41.94610
# Shear Modulus (GPa) = 14.04043 16.30825 15.17434
#
# Velocity S-wave (km/s) = 3.09662 3.33735 3.21924
# Velocity P-wave (km/s) = 6.05260 6.94962 6.51656
#
# Compressibility (1/GPa) = 0.02863746
#
# Stress axis : x y z
#
# Youngs Moduli (GPa) = 26.73802 50.77107 65.77957
#
# Poissons Ratio (x) = 0.52536 0.21503
# Poissons Ratio (y) = 0.27667 0.54031
# Poissons Ratio (z) = 0.08741 0.41703
#
# Static dielectric constant tensor:
#      x y z
#    x 2.385210 0.000000 0.000000 
#    y 0.000000 2.927140 0.000000 
#    z 0.000000 0.000000 3.074900 
# 
# 
# High freq. dielectric constant tensor:
#      x y z
#    x 1.496790 0.000000 0.000000 
#    y 0.000000 1.552450 0.000000 
#    z 0.000000 0.000000 1.583930 
# 
# From -- ./inp_files/7691.got.cif
#   From: 2010.03.12/outbox.cif.g09.slc.cpg/sg59_4_cif.got.tgz:7691.got - 2010.04.16 16:29:54.
