data_PCOD8239093
_publ_section_title
;
Structure prediction by ZEFSAII (Michael W. Deem and Ramdas Pophale) SiO2 
 PCOD8239093
Probable space group: P M M N
;
_chemical_formula_sum "Si O2"
_cell_formula_units_Z 64
_cell_length_a 9.055504
_cell_length_b 26.878826
_cell_length_c 17.194018
_cell_angle_alpha 90.000000
_cell_angle_beta 90.000000
_cell_angle_gamma 90.000000
_cell_volume 4185.046615
_symmetry_space_group_name_H-M "P M M N"
_symmetry_group_IT_number 59
_space_group.IT_coordinate_system_code '2'
_symmetry_cell_setting 'orthorhombic'
loop_
_space_group_symop_operation_xyz
x,y,z
1/2-x,1/2-y,z
1/2+x,-y,-z
-x,1/2+y,-z
-x,-y,-z
1/2+x,1/2+y,-z
1/2-x,y,z
x,1/2-y,z
loop_
_atom_site_type_symbol
_atom_site_label
_atom_site_fract_x
_atom_site_fract_y
_atom_site_fract_z
Si Si1 0.923688 0.076331 0.853467
Si Si2 0.084183 0.440992 0.329293
Si Si3 0.424267 0.304852 0.588586
Si Si4 0.581227 0.049986 0.016325
Si Si5 0.924490 0.621294 0.280443
Si Si6 0.423002 0.106848 0.482357
Si Si7 0.422461 0.971605 0.818435
Si Si8 0.418840 0.951283 0.391896
O O1 0.750000 0.075799 0.835543
O O2 0.000128 0.120863 0.804802
O O3 0.958863 0.087906 0.945509
O O4 0.988161 0.022903 0.827025
O O5 0.250000 0.435419 0.296310
O O6 0.046737 0.395964 0.389450
O O7 0.070163 0.489859 0.382218
O O8 0.973942 0.440562 0.256585
O O9 0.250000 0.299400 0.587526
O O10 0.497661 0.250000 0.581654
O O11 0.472710 0.330033 0.670392
O O12 0.474166 0.339388 0.515981
O O13 0.750000 0.036036 0.006961
O O14 0.548405 0.064973 0.106206
O O15 0.500000 0.000000 0.000000
O O16 0.750000 0.618126 0.270922
O O17 0.982142 0.572502 0.324303
O O18 0.250000 0.097968 0.500764
O O19 0.516102 0.063819 0.524656
O O20 0.250000 0.984614 0.810301
O O21 0.250000 0.932749 0.384756
#
# Coordination Sequence:
#
# PCOD8239093 Si02
#       8
#     8   8   8   8   8   8   8   8
#     4  10  17  27  41  57  82 110 138 172 206 237
#     4  10  19  28  38  56  83 112 138 170 206 238
#     4   8  15  29  47  63  80 103 131 168 210 248
#     4   8  16  27  38  54  76 106 141 171 197 227
#     4  10  18  27  42  63  83 106 140 172 201 245
#     4   9  18  30  43  59  79 104 138 171 202 246
#     4  10  18  27  40  57  79 111 146 173 198 233
#     4  10  18  27  39  55  80 110 137 165 203 241
#
# _framework density 15.292543
#
# number of rings (size 3 to 8) (size 9 to 14) (size 15 to 20)
#    0.000    2.625    1.250    2.625    0.000    2.000 
#    0.000    0.000    0.000    9.375    0.000    0.000 
#    0.000    1.000    0.000   10.250    0.000    1.250 
#
# Total GULP energy -792840.455079 kJ/mol
# GULP energy per Si atom -12388.132111 kJ/mol
# Density = 1.525774 g / cm^3
# Si number density = 15.292543 Si / 1000 Ang^3
#
#
#
# Elastic Constant Matrix: (Units=GPa)
#
#
# Indices 1 2 3 4 5 6 
#
# 1 58.8489 20.9921 42.8965 0.0000 0.0000 0.0000
# 2 20.9921 58.0163 45.0555 0.0000 0.0000 0.0000
# 3 42.8965 45.0555 127.0971 0.0000 0.0000 0.0000
# 4 0.0000 0.0000 0.0000 13.0958 0.0000 0.0000
# 5 0.0000 0.0000 0.0000 0.0000 24.2621 0.0000
# 6 0.0000 0.0000 0.0000 0.0000 0.0000 9.1587
#
#
#
# Elastic Compliance Matrix: (Units=1/GPa)
#
#
# Indices 1 2 3 4 5 6 
#
# 1 0.022949 -0.003158 -0.006626 0.000000 0.000000 0.000000
# 2 -0.003158 0.024219 -0.007520 0.000000 0.000000 0.000000
# 3 -0.006626 -0.007520 0.012770 0.000000 0.000000 0.000000
# 4 0.000000 0.000000 0.000000 0.076360 0.000000 0.000000
# 5 0.000000 0.000000 0.000000 0.000000 0.041217 0.000000
# 6 0.000000 0.000000 0.000000 0.000000 0.000000 0.109186
#
#
# Mechanical properties :
#
#
# Convention : Reuss Voigt Hill
#
# Bulk Modulus (GPa) = 39.47768 51.31671 45.39719
# Shear Modulus (GPa) = 15.16293 18.30452 16.73373
#
# Velocity S-wave (km/s) = 3.15226 3.46346 3.31152
# Velocity P-wave (km/s) = 6.25460 7.04440 6.66122
#
# Compressibility (1/GPa) = 0.02533077
#
# Stress axis : x y z
#
# Youngs Moduli (GPa) = 43.57479 41.28986 78.30799
#
# Poissons Ratio (x) = 0.13039 0.51887
# Poissons Ratio (y) = 0.13760 0.58886
# Poissons Ratio (z) = 0.28873 0.31049
#
# Static dielectric constant tensor:
#      x y z
#    x 2.942740 0.000000 0.000000 
#    y 0.000000 2.711640 0.000000 
#    z 0.000000 0.000000 3.477330 
# 
# 
# High freq. dielectric constant tensor:
#      x y z
#    x 1.589260 0.000000 0.000000 
#    y 0.000000 1.521420 0.000000 
#    z 0.000000 0.000000 1.597260 
# 
# From -- ./inp_files/26609.got.cif
#   From: 2010.03.12/outbox.cif.g09.slc.cpg/sg59_14_cif.got.tgz:26609.got - 2010.04.16 16:29:54.
