data_PCOD8239321
_publ_section_title
;
Structure prediction by ZEFSAII (Michael W. Deem and Ramdas Pophale) SiO2 
 PCOD8239321
Probable space group: P M M N
;
_chemical_formula_sum "Si O2"
_cell_formula_units_Z 64
_cell_length_a 9.091841
_cell_length_b 13.904796
_cell_length_c 31.347128
_cell_angle_alpha 90.000000
_cell_angle_beta 90.000000
_cell_angle_gamma 90.000000
_cell_volume 3962.910015
_symmetry_space_group_name_H-M "P M M N"
_symmetry_group_IT_number 59
_space_group.IT_coordinate_system_code '2'
_symmetry_cell_setting 'orthorhombic'
loop_
_space_group_symop_operation_xyz
x,y,z
1/2-x,1/2-y,z
1/2+x,-y,-z
-x,1/2+y,-z
-x,-y,-z
1/2+x,1/2+y,-z
1/2-x,y,z
x,1/2-y,z
loop_
_atom_site_type_symbol
_atom_site_label
_atom_site_fract_x
_atom_site_fract_y
_atom_site_fract_z
Si Si1 0.420151 0.638445 0.431543
Si Si2 0.584565 0.635878 0.773134
Si Si3 0.574913 0.356756 0.473791
Si Si4 0.079150 0.452797 0.063264
Si Si5 0.075786 0.525897 0.606262
Si Si6 0.918658 0.140740 0.986233
Si Si7 0.078113 0.638327 0.689278
Si Si8 0.576670 0.138508 0.141829
O O1 0.250000 0.613321 0.425899
O O2 0.450051 0.750000 0.423713
O O3 0.475380 0.608243 0.479162
O O4 0.511951 0.581643 0.395628
O O5 0.750000 0.594819 0.775865
O O6 0.584936 0.750000 0.771735
O O7 0.507280 0.597168 0.730332
O O8 0.493144 0.601290 0.814082
O O9 0.750000 0.354549 0.472444
O O10 0.513431 0.250000 0.465709
O O11 0.511265 0.422018 0.435915
O O12 0.250000 0.431002 0.071347
O O13 0.052190 0.565424 0.052112
O O14 0.987963 0.428876 0.105233
O O15 0.024774 0.384167 0.025295
O O16 0.250000 0.523595 0.605942
O O17 0.019794 0.579792 0.648471
O O18 0.750000 0.130947 0.002057
O O19 0.950865 0.250000 0.970582
O O20 0.250000 0.622113 0.697397
O O21 0.043610 0.750000 0.680909
O O22 0.750000 0.124047 0.144508
O O23 0.536291 0.250000 0.132775
#
# Coordination Sequence:
#
# PCOD8239321 Si02
#       8
#     8   8   8   8   8   8   8   8
#     4   9  18  31  44  58  81 114 147 179 216 254
#     4   9  17  29  45  65  89 116 145 177 212 252
#     4   8  14  26  43  62  85 113 143 173 208 253
#     4  10  19  29  44  67  91 117 154 195 228 261
#     4  10  18  27  44  67  86 109 143 179 212 249
#     4   9  18  32  46  61  88 125 158 188 226 268
#     4   9  17  29  44  64  91 118 141 167 207 262
#     4  10  19  30  45  65  91 122 151 180 218 263
#
# _framework density 16.149749
#
# number of rings (size 3 to 8) (size 9 to 14) (size 15 to 20)
#    0.000    2.750    0.000    3.000    0.000    6.750 
#    0.000    0.000    0.000    1.875    0.000    0.875 
#    0.000    5.000    0.000    0.000    0.000    0.000 
#
# Total GULP energy -793447.828728 kJ/mol
# GULP energy per Si atom -12397.622324 kJ/mol
# Density = 1.611299 g / cm^3
# Si number density = 16.149749 Si / 1000 Ang^3
#
#
#
# Elastic Constant Matrix: (Units=GPa)
#
#
# Indices 1 2 3 4 5 6 
#
# 1 62.2723 34.0912 52.6092 0.0000 0.0000 0.0000
# 2 34.0912 74.8108 56.4416 0.0000 0.0000 0.0000
# 3 52.6092 56.4416 123.8314 0.0000 0.0000 0.0000
# 4 0.0000 0.0000 0.0000 22.4047 0.0000 0.0000
# 5 0.0000 0.0000 0.0000 0.0000 27.7610 0.0000
# 6 0.0000 0.0000 0.0000 0.0000 0.0000 21.7284
#
#
#
# Elastic Compliance Matrix: (Units=1/GPa)
#
#
# Indices 1 2 3 4 5 6 
#
# 1 0.026428 -0.005445 -0.008746 0.000000 0.000000 0.000000
# 2 -0.005445 0.021494 -0.007484 0.000000 0.000000 0.000000
# 3 -0.008746 -0.007484 0.015202 0.000000 0.000000 0.000000
# 4 0.000000 0.000000 0.000000 0.044634 0.000000 0.000000
# 5 0.000000 0.000000 0.000000 0.000000 0.036022 0.000000
# 6 0.000000 0.000000 0.000000 0.000000 0.000000 0.046023
#
#
# Mechanical properties :
#
#
# Convention : Reuss Voigt Hill
#
# Bulk Modulus (GPa) = 50.56767 60.79985 55.68376
# Shear Modulus (GPa) = 20.85552 22.23033 21.54292
#
# Velocity S-wave (km/s) = 3.59748 3.71416 3.65629
# Velocity P-wave (km/s) = 6.97392 7.49150 7.23734
#
# Compressibility (1/GPa) = 0.01977548
#
# Stress axis : x y z
#
# Youngs Moduli (GPa) = 37.83831 46.52356 65.77892
#
# Poissons Ratio (x) = 0.25330 0.57532
# Poissons Ratio (y) = 0.20602 0.49229
# Poissons Ratio (z) = 0.33094 0.34818
#
# Static dielectric constant tensor:
#      x y z
#    x 2.992950 0.000000 0.000000 
#    y 0.000000 2.937910 0.000000 
#    z 0.000000 0.000000 3.099410 
# 
# 
# High freq. dielectric constant tensor:
#      x y z
#    x 1.617260 0.000000 0.000000 
#    y 0.000000 1.596340 0.000000 
#    z 0.000000 0.000000 1.612450 
# 
# From -- ./inp_files/33230.got.cif
#   From: 2010.03.12/outbox.cif.g09.slc.cpg/sg59_17_cif.got.tgz:33230.got - 2010.04.16 16:29:54.
