data_PCOD8239715
_publ_section_title
;
Structure prediction by ZEFSAII (Michael W. Deem and Ramdas Pophale) SiO2 
 PCOD8239715
Probable space group: P M M N
;
_chemical_formula_sum "Si O2"
_cell_formula_units_Z 56
_cell_length_a 9.285744
_cell_length_b 14.191261
_cell_length_c 22.789480
_cell_angle_alpha 90.000000
_cell_angle_beta 90.000000
_cell_angle_gamma 90.000000
_cell_volume 3003.116012
_symmetry_space_group_name_H-M "P M M N"
_symmetry_group_IT_number 59
_space_group.IT_coordinate_system_code '2'
_symmetry_cell_setting 'orthorhombic'
loop_
_space_group_symop_operation_xyz
x,y,z
1/2-x,1/2-y,z
1/2+x,-y,-z
-x,1/2+y,-z
-x,-y,-z
1/2+x,1/2+y,-z
1/2-x,y,z
x,1/2-y,z
loop_
_atom_site_type_symbol
_atom_site_label
_atom_site_fract_x
_atom_site_fract_y
_atom_site_fract_z
Si Si1 0.416875 0.860369 0.034039
Si Si2 0.908661 0.352773 0.397150
Si Si3 0.420690 0.851197 0.352962
Si Si4 0.418777 0.458123 0.305394
Si Si5 0.579393 0.860188 0.812248
Si Si6 0.914397 0.411382 0.521394
Si Si7 0.918134 0.469367 0.085740
O O1 0.250000 0.869633 0.052530
O O2 0.465469 0.750000 0.037479
O O3 0.512158 0.926736 0.076553
O O4 0.441064 0.899435 0.968810
O O5 0.750000 0.395051 0.383969
O O6 0.923818 0.250000 0.368511
O O7 0.929430 0.339451 0.467093
O O8 0.025642 0.418571 0.367017
O O9 0.250000 0.846611 0.357831
O O10 0.481295 0.750000 0.331014
O O11 0.482007 0.870107 0.418591
O O12 0.464794 0.931410 0.305693
O O13 0.250000 0.444839 0.306301
O O14 0.479447 0.403362 0.248977
O O15 0.750000 0.875285 0.820054
O O16 0.539131 0.750000 0.814993
O O17 0.496681 0.917574 0.861487
O O18 0.750000 0.440406 0.533289
O O19 0.000000 0.500000 0.500000
O O20 0.750000 0.483898 0.099542
#
# Coordination Sequence:
#
# PCOD8239715 Si02
#       7
#     8   8   8   8   8   8   8
#     4   9  18  34  56  83 116 151 185 222 265 315
#     4  10  20  32  48  72 101 130 160 202 260 319
#     4   9  17  31  52  74  96 127 167 209 256 312
#     4  10  20  35  54  75  99 131 175 221 258 300
#     4  10  21  36  53  75 106 142 178 220 269 319
#     4  10  18  30  49  72  98 127 160 202 255 315
#     4  10  20  34  55  84 115 146 184 227 268 314
#
# _framework density 18.647296999999998
#
# number of rings (size 3 to 8) (size 9 to 14) (size 15 to 20)
#    0.000    2.286    1.429    1.714    0.000    4.857 
#    0.000    0.714    0.000    5.143    0.000    0.000 
#    0.000    0.000    0.000    0.000    0.000    0.000 
#
# Total GULP energy -693927.103235 kJ/mol
# GULP energy per Si atom -12391.555415 kJ/mol
# Density = 1.860486 g / cm^3
# Si number density = 18.647297 Si / 1000 Ang^3
#
#
#
# Elastic Constant Matrix: (Units=GPa)
#
#
# Indices 1 2 3 4 5 6 
#
# 1 45.6929 47.1399 35.6259 0.0000 0.0000 0.0000
# 2 47.1399 160.3299 57.0251 0.0000 0.0000 0.0000
# 3 35.6259 57.0251 87.1775 0.0000 0.0000 0.0000
# 4 0.0000 0.0000 0.0000 30.1095 0.0000 0.0000
# 5 0.0000 0.0000 0.0000 0.0000 24.5208 0.0000
# 6 0.0000 0.0000 0.0000 0.0000 0.0000 23.5197
#
#
#
# Elastic Compliance Matrix: (Units=1/GPa)
#
#
# Indices 1 2 3 4 5 6 
#
# 1 0.037713 -0.007307 -0.010632 0.000000 0.000000 0.000000
# 2 -0.007307 0.009544 -0.003257 0.000000 0.000000 0.000000
# 3 -0.010632 -0.003257 0.017946 0.000000 0.000000 0.000000
# 4 0.000000 0.000000 0.000000 0.033212 0.000000 0.000000
# 5 0.000000 0.000000 0.000000 0.000000 0.040782 0.000000
# 6 0.000000 0.000000 0.000000 0.000000 0.000000 0.042518
#
#
# Mechanical properties :
#
#
# Convention : Reuss Voigt Hill
#
# Bulk Modulus (GPa) = 43.83774 63.64243 53.74009
# Shear Modulus (GPa) = 21.57866 25.85728 23.71797
#
# Velocity S-wave (km/s) = 3.40545 3.72782 3.57028
# Velocity P-wave (km/s) = 6.24682 7.26171 6.77330
#
# Compressibility (1/GPa) = 0.02281139
#
# Stress axis : x y z
#
# Youngs Moduli (GPa) = 26.51594 104.77952 55.72186
#
# Poissons Ratio (x) = 0.76559 0.59245
# Poissons Ratio (y) = 0.19374 0.18148
# Poissons Ratio (z) = 0.28193 0.34126
#
# Static dielectric constant tensor:
#      x y z
#    x 3.247550 0.000000 0.000000 
#    y 0.000000 4.524080 0.000000 
#    z 0.000000 0.000000 3.542520 
# 
# 
# High freq. dielectric constant tensor:
#      x y z
#    x 1.701260 0.000000 0.000000 
#    y 0.000000 1.736720 0.000000 
#    z 0.000000 0.000000 1.708720 
# 
# From -- ./inp_files/29152.got.cif
#   From: 2010.03.12/outbox.cif.g09.slc.cpg/sg59_15_cif.got.tgz:29152.got - 2010.04.16 16:29:54.
