data_PCOD8239367
_publ_section_title
;
Structure prediction by ZEFSAII (Michael W. Deem and Ramdas Pophale) SiO2 
 PCOD8239367
Probable space group: P M M N
;
_chemical_formula_sum "Si O2"
_cell_formula_units_Z 56
_cell_length_a 9.060388
_cell_length_b 24.787166
_cell_length_c 16.169058
_cell_angle_alpha 90.000000
_cell_angle_beta 90.000000
_cell_angle_gamma 90.000000
_cell_volume 3631.268734
_symmetry_space_group_name_H-M "P M M N"
_symmetry_group_IT_number 59
_space_group.IT_coordinate_system_code '2'
_symmetry_cell_setting 'orthorhombic'
loop_
_space_group_symop_operation_xyz
x,y,z
1/2-x,1/2-y,z
1/2+x,-y,-z
-x,1/2+y,-z
-x,-y,-z
1/2+x,1/2+y,-z
1/2-x,y,z
x,1/2-y,z
loop_
_atom_site_type_symbol
_atom_site_label
_atom_site_fract_x
_atom_site_fract_y
_atom_site_fract_z
Si Si1 0.422854 0.989880 0.371334
Si Si2 0.076127 0.006826 0.797558
Si Si3 0.581523 0.549933 0.036243
Si Si4 0.424721 0.691381 0.592068
Si Si5 0.422556 0.097997 0.127341
Si Si6 0.077399 0.920499 0.527210
Si Si7 0.418312 0.687904 0.778611
O O1 0.250000 0.997678 0.357354
O O2 0.499485 0.973392 0.286104
O O3 0.457648 0.941630 0.435467
O O4 0.488052 0.045854 0.404874
O O5 0.250000 0.999641 0.782020
O O6 0.041192 0.054362 0.865939
O O7 0.010511 0.949824 0.827274
O O8 0.750000 0.533546 0.031047
O O9 0.500000 0.500000 0.000000
O O10 0.548677 0.599420 0.973204
O O11 0.250000 0.695815 0.593434
O O12 0.488171 0.750000 0.561789
O O13 0.474949 0.642100 0.532930
O O14 0.477794 0.679456 0.685362
O O15 0.250000 0.090474 0.147082
O O16 0.477827 0.155022 0.159979
O O17 0.250000 0.926619 0.548444
O O18 0.250000 0.667484 0.786534
O O19 0.430212 0.750000 0.804692
#
# Coordination Sequence:
#
# PCOD8239367 Si02
#       7
#     8   8   8   8   8   8   8
#     4  10  19  28  40  62  89 113 140 175 211 250
#     4  10  18  29  44  60  82 113 143 168 204 254
#     4   8  16  28  41  59  81 105 135 168 202 244
#     4   8  14  26  44  62  79 104 139 173 201 238
#     4  10  18  28  43  63  86 109 137 176 214 244
#     4   9  17  29  44  62  85 112 141 172 211 257
#     4   9  17  28  42  62  87 114 143 169 198 247
#
# _framework density 15.421607
#
# number of rings (size 3 to 8) (size 9 to 14) (size 15 to 20)
#    0.000    2.857    0.000    3.000    0.000    3.143 
#    0.000    0.000    0.000    1.286    0.000    1.000 
#    0.000    3.429    0.000    0.000    0.000    0.000 
#
# Total GULP energy -693783.571398 kJ/mol
# GULP energy per Si atom -12388.992346 kJ/mol
# Density = 1.538651 g / cm^3
# Si number density = 15.421607 Si / 1000 Ang^3
#
#
#
# Elastic Constant Matrix: (Units=GPa)
#
#
# Indices 1 2 3 4 5 6 
#
# 1 53.8948 28.2153 43.7153 0.0000 0.0000 0.0000
# 2 28.2153 95.4303 56.7548 0.0000 0.0000 0.0000
# 3 43.7153 56.7548 116.0227 0.0000 0.0000 0.0000
# 4 0.0000 0.0000 0.0000 20.6470 0.0000 0.0000
# 5 0.0000 0.0000 0.0000 0.0000 23.4262 0.0000
# 6 0.0000 0.0000 0.0000 0.0000 0.0000 18.7219
#
#
#
# Elastic Compliance Matrix: (Units=1/GPa)
#
#
# Indices 1 2 3 4 5 6 
#
# 1 0.027223 -0.002748 -0.008913 0.000000 0.000000 0.000000
# 2 -0.002748 0.015056 -0.006329 0.000000 0.000000 0.000000
# 3 -0.008913 -0.006329 0.015073 0.000000 0.000000 0.000000
# 4 0.000000 0.000000 0.000000 0.048433 0.000000 0.000000
# 5 0.000000 0.000000 0.000000 0.000000 0.042687 0.000000
# 6 0.000000 0.000000 0.000000 0.000000 0.000000 0.053413
#
#
# Mechanical properties :
#
#
# Convention : Reuss Voigt Hill
#
# Bulk Modulus (GPa) = 46.79186 58.07985 52.43585
# Shear Modulus (GPa) = 20.40903 21.66983 21.03943
#
# Velocity S-wave (km/s) = 3.64181 3.75261 3.69763
# Velocity P-wave (km/s) = 6.93479 7.51793 7.23224
#
# Compressibility (1/GPa) = 0.02137124
#
# Stress axis : x y z
#
# Youngs Moduli (GPa) = 36.73398 66.42071 66.34267
#
# Poissons Ratio (x) = 0.18253 0.59130
# Poissons Ratio (y) = 0.10095 0.41990
# Poissons Ratio (z) = 0.32740 0.42039
#
# Static dielectric constant tensor:
#      x y z
#    x 2.900600 0.000000 0.000000 
#    y 0.000000 3.021180 0.000000 
#    z 0.000000 0.000000 3.309730 
# 
# 
# High freq. dielectric constant tensor:
#      x y z
#    x 1.590220 0.000000 0.000000 
#    y 0.000000 1.563850 0.000000 
#    z 0.000000 0.000000 1.587830 
# 
# From -- ./inp_files/26420.got.cif
#   From: 2010.03.12/outbox.cif.g09.slc.cpg/sg59_14_cif.got.tgz:26420.got - 2010.04.16 16:29:54.
