data_PCOD8239439
_publ_section_title
;
Structure prediction by ZEFSAII (Michael W. Deem and Ramdas Pophale) SiO2 
 PCOD8239439
Probable space group: P M M N
;
_chemical_formula_sum "Si O2"
_cell_formula_units_Z 40
_cell_length_a 14.397645
_cell_length_b 14.355751
_cell_length_c 10.385647
_cell_angle_alpha 90.000000
_cell_angle_beta 90.000000
_cell_angle_gamma 90.000000
_cell_volume 2146.599061
_symmetry_space_group_name_H-M "P M M N"
_symmetry_group_IT_number 59
_space_group.IT_coordinate_system_code '2'
_symmetry_cell_setting 'orthorhombic'
loop_
_space_group_symop_operation_xyz
x,y,z
1/2-x,1/2-y,z
1/2+x,-y,-z
-x,1/2+y,-z
-x,-y,-z
1/2+x,1/2+y,-z
1/2-x,y,z
x,1/2-y,z
loop_
_atom_site_type_symbol
_atom_site_label
_atom_site_fract_x
_atom_site_fract_y
_atom_site_fract_z
Si Si1 0.461962 0.642779 0.515779
Si Si2 0.143156 0.539954 0.739117
Si Si3 0.139716 0.646030 0.988301
Si Si4 0.352993 0.639353 0.268405
Si Si5 0.353627 0.353841 0.612057
O O1 0.434714 0.750000 0.538670
O O2 0.422857 0.584213 0.632525
O O3 0.419203 0.603716 0.382187
O O4 0.573187 0.628506 0.503610
O O5 0.250000 0.572267 0.716457
O O6 0.134650 0.427955 0.728171
O O7 0.107156 0.573814 0.878355
O O8 0.250000 0.651393 0.995309
O O9 0.100651 0.750000 0.957426
O O10 0.105591 0.608990 0.128547
O O11 0.250000 0.597472 0.291497
O O12 0.347434 0.750000 0.268399
O O13 0.250000 0.362143 0.552401
O O14 0.370606 0.250000 0.670298
#
# Coordination Sequence:
#
# PCOD8239439 Si02
#       5
#     8   8   8   8   8
#     4  10  18  28  46  71  94 115 145 186 226 266
#     4  10  18  28  46  71  94 115 145 186 226 266
#     4   8  14  25  41  64  96 125 140 160 212 282
#     4   8  14  25  41  64  96 125 140 160 212 282
#     4   9  19  34  47  60  84 121 160 192 222 259
#
# _framework density 18.634128
#
# number of rings (size 3 to 8) (size 9 to 14) (size 15 to 20)
#    0.000    3.000    0.000    3.000    0.000    2.000 
#    0.000    1.000    0.000    0.000    0.000    2.800 
#    0.000   16.000    0.000    0.000    0.000    0.000 
#
# Total GULP energy -495663.298259 kJ/mol
# GULP energy per Si atom -12391.582456 kJ/mol
# Density = 1.859172 g / cm^3
# Si number density = 18.634128 Si / 1000 Ang^3
#
#
#
# Elastic Constant Matrix: (Units=GPa)
#
#
# Indices 1 2 3 4 5 6 
#
# 1 75.3875 23.5659 37.7607 0.0000 0.0000 0.0000
# 2 23.5659 60.8379 28.2627 0.0000 0.0000 0.0000
# 3 37.7607 28.2627 113.8390 0.0000 0.0000 0.0000
# 4 0.0000 0.0000 0.0000 4.4319 0.0000 0.0000
# 5 0.0000 0.0000 0.0000 0.0000 9.2388 0.0000
# 6 0.0000 0.0000 0.0000 0.0000 0.0000 15.7520
#
#
#
# Elastic Compliance Matrix: (Units=1/GPa)
#
#
# Indices 1 2 3 4 5 6 
#
# 1 0.016915 -0.004460 -0.004503 0.000000 0.000000 0.000000
# 2 -0.004460 0.019756 -0.003425 0.000000 0.000000 0.000000
# 3 -0.004503 -0.003425 0.011129 0.000000 0.000000 0.000000
# 4 0.000000 0.000000 0.000000 0.225636 0.000000 0.000000
# 5 0.000000 0.000000 0.000000 0.000000 0.108240 0.000000
# 6 0.000000 0.000000 0.000000 0.000000 0.000000 0.063484
#
#
# Mechanical properties :
#
#
# Convention : Reuss Voigt Hill
#
# Bulk Modulus (GPa) = 43.43718 47.69367 45.56543
# Shear Modulus (GPa) = 10.46878 16.58287 13.52583
#
# Velocity S-wave (km/s) = 2.37282 2.98639 2.69711
# Velocity P-wave (km/s) = 5.55591 6.12713 5.84850
#
# Compressibility (1/GPa) = 0.02302175
#
# Stress axis : x y z
#
# Youngs Moduli (GPa) = 59.12037 50.61757 89.85898
#
# Poissons Ratio (x) = 0.22575 0.40467
# Poissons Ratio (y) = 0.26367 0.30781
# Poissons Ratio (z) = 0.26624 0.17339
#
# Static dielectric constant tensor:
#      x y z
#    x 3.429100 0.000000 0.000000 
#    y 0.000000 3.445250 0.000000 
#    z 0.000000 0.000000 3.555050 
# 
# 
# High freq. dielectric constant tensor:
#      x y z
#    x 1.710300 0.000000 0.000000 
#    y 0.000000 1.708690 0.000000 
#    z 0.000000 0.000000 1.701190 
# 
# From -- ./inp_files/8625.got.cif
#   From: 2010.03.12/outbox.cif.g09.slc.cpg/sg59_5_cif.got.tgz:8625.got - 2010.04.16 16:29:54.
