data_PCOD8239968
_publ_section_title
;
Structure prediction by ZEFSAII (Michael W. Deem and Ramdas Pophale) SiO2 
 PCOD8239968
Probable space group: P M M N
;
_chemical_formula_sum "Si O2"
_cell_formula_units_Z 48
_cell_length_a 8.829887
_cell_length_b 9.781675
_cell_length_c 29.577175
_cell_angle_alpha 90.000000
_cell_angle_beta 90.000000
_cell_angle_gamma 90.000000
_cell_volume 2554.612694
_symmetry_space_group_name_H-M "P M M N"
_symmetry_group_IT_number 59
_space_group.IT_coordinate_system_code '2'
_symmetry_cell_setting 'orthorhombic'
loop_
_space_group_symop_operation_xyz
x,y,z
1/2-x,1/2-y,z
1/2+x,-y,-z
-x,1/2+y,-z
-x,-y,-z
1/2+x,1/2+y,-z
1/2-x,y,z
x,1/2-y,z
loop_
_atom_site_type_symbol
_atom_site_label
_atom_site_fract_x
_atom_site_fract_y
_atom_site_fract_z
Si Si1 0.928058 0.250000 0.557220
Si Si2 0.570474 0.750000 0.540604
Si Si3 0.917786 0.088961 0.208304
Si Si4 0.070317 0.410263 0.960142
Si Si5 0.572033 0.908295 0.884098
Si Si6 0.429469 0.481652 0.394005
Si Si7 0.079982 0.087742 0.296482
O O1 0.750000 0.250000 0.548581
O O2 0.982635 0.373888 0.587859
O O3 0.005499 0.250000 0.509139
O O4 0.750000 0.750000 0.536369
O O5 0.507392 0.622057 0.568639
O O6 0.750000 0.027797 0.199510
O O7 0.906458 0.250000 0.213969
O O8 0.028986 0.053240 0.167079
O O9 0.984376 0.026170 0.254705
O O10 0.250000 0.417190 0.964040
O O11 0.017783 0.250000 0.961966
O O12 0.017537 0.483045 0.914320
O O13 0.000000 0.500000 0.000000
O O14 0.750000 0.928264 0.891370
O O15 0.526481 0.750000 0.895359
O O16 0.250000 0.463206 0.390194
O O17 0.497121 0.457639 0.343884
O O18 0.250000 0.028893 0.292359
O O19 0.083933 0.250000 0.294566
#
# Coordination Sequence:
#
# PCOD8239968 Si02
#       7
#     4   4   8   8   8   8   8
#     4  10  20  32  46  68  96 122 154 200 249 296
#     4  10  18  32  50  68  90 124 162 196 241 300
#     4   9  17  29  48  77 109 137 168 215 269 315
#     4  11  24  40  59  85 117 153 192 234 279 326
#     4  10  20  35  57  85 114 146 187 231 274 325
#     4   9  17  30  49  69  92 123 160 201 246 298
#     4   9  15  27  48  70  91 123 168 210 247 298
#
# _framework density 18.789539999999999
#
# number of rings (size 3 to 8) (size 9 to 14) (size 15 to 20)
#    0.000    2.333    0.833    2.500    0.000    6.333 
#    0.000    1.667    1.833    0.000    0.000    0.000 
#    0.000    0.000    0.000    0.000    0.000    0.000 
#
# Total GULP energy -594966.639646 kJ/mol
# GULP energy per Si atom -12395.138326 kJ/mol
# Density = 1.874677 g / cm^3
# Si number density = 18.789540 Si / 1000 Ang^3
#
#
#
# Elastic Constant Matrix: (Units=GPa)
#
#
# Indices 1 2 3 4 5 6 
#
# 1 61.5837 32.9030 37.0256 0.0000 0.0000 0.0000
# 2 32.9030 100.1509 49.2445 0.0000 0.0000 0.0000
# 3 37.0256 49.2445 141.9644 0.0000 0.0000 0.0000
# 4 0.0000 0.0000 0.0000 12.7728 0.0000 0.0000
# 5 0.0000 0.0000 0.0000 0.0000 33.6276 0.0000
# 6 0.0000 0.0000 0.0000 0.0000 0.0000 -7.8975
#
#
#
# Elastic Compliance Matrix: (Units=1/GPa)
#
#
# Indices 1 2 3 4 5 6 
#
# 1 0.021239 -0.005129 -0.003760 0.000000 0.000000 0.000000
# 2 -0.005129 0.013277 -0.003268 0.000000 0.000000 0.000000
# 3 -0.003760 -0.003268 0.009158 0.000000 0.000000 0.000000
# 4 0.000000 0.000000 0.000000 0.078291 0.000000 0.000000
# 5 0.000000 0.000000 0.000000 0.000000 0.029737 0.000000
# 6 0.000000 0.000000 0.000000 0.000000 0.000000 -0.126622
#
#
# Mechanical properties :
#
#
# Convention : Reuss Voigt Hill
#
# Bulk Modulus (GPa) = 51.65210 60.22726 55.93968
# Shear Modulus (GPa) = 89.52973 20.00231 54.76602
#
# Velocity S-wave (km/s) = 6.91029 3.26628 5.40466
# Velocity P-wave (km/s) = 9.55087 6.80793 8.29358
#
# Compressibility (1/GPa) = 0.01936030
#
# Stress axis : x y z
#
# Youngs Moduli (GPa) = 47.08306 75.31985 109.19112
#
# Poissons Ratio (x) = 0.38630 0.41059
# Poissons Ratio (y) = 0.24148 0.35681
# Poissons Ratio (z) = 0.17704 0.24613
#
# Static dielectric constant tensor:
#      x y z
#    x 21.047260 0.000000 0.000000 
#    y 0.000000 3.382260 0.000000 
#    z 0.000000 0.000000 3.694080 
# 
# 
# High freq. dielectric constant tensor:
#      x y z
#    x 1.712670 0.000000 0.000000 
#    y 0.000000 1.701880 0.000000 
#    z 0.000000 0.000000 1.749910 
# 
# From -- ./inp_files/32970.got.cif
#   From: 2010.03.12/outbox.cif.g09.slc.cpg/sg59_17_cif.got.tgz:32970.got - 2010.04.16 16:29:54.
