data_PCOD8239996
_publ_section_title
;
Structure prediction by ZEFSAII (Michael W. Deem and Ramdas Pophale) SiO2 
 PCOD8239996
Probable space group: P M M N
;
_chemical_formula_sum "Si O2"
_cell_formula_units_Z 56
_cell_length_a 8.954197
_cell_length_b 21.068697
_cell_length_c 15.786052
_cell_angle_alpha 90.000000
_cell_angle_beta 90.000000
_cell_angle_gamma 90.000000
_cell_volume 2978.090227
_symmetry_space_group_name_H-M "P M M N"
_symmetry_group_IT_number 59
_space_group.IT_coordinate_system_code '2'
_symmetry_cell_setting 'orthorhombic'
loop_
_space_group_symop_operation_xyz
x,y,z
1/2-x,1/2-y,z
1/2+x,-y,-z
-x,1/2+y,-z
-x,-y,-z
1/2+x,1/2+y,-z
1/2-x,y,z
x,1/2-y,z
loop_
_atom_site_type_symbol
_atom_site_label
_atom_site_fract_x
_atom_site_fract_y
_atom_site_fract_z
Si Si1 0.083265 0.750000 0.603698
Si Si2 0.581169 0.250000 0.197210
Si Si3 0.076572 0.120733 0.185911
Si Si4 0.574832 0.374087 0.479270
Si Si5 0.577148 0.542969 0.649171
Si Si6 0.074685 0.068021 0.748900
Si Si7 0.575659 0.176853 0.662562
Si Si8 0.075014 0.510225 0.910671
O O1 0.250000 0.750000 0.563509
O O2 0.087993 0.750000 0.702922
O O3 0.004611 0.686751 0.569353
O O4 0.750000 0.250000 0.160214
O O5 0.489794 0.310578 0.166792
O O6 0.250000 0.119644 0.161600
O O7 0.052032 0.099448 0.283045
O O8 0.986571 0.075567 0.124413
O O9 0.750000 0.382837 0.461002
O O10 0.491304 0.435604 0.441221
O O11 0.540675 0.362930 0.577628
O O12 0.750000 0.526671 0.635885
O O13 0.499115 0.479104 0.680893
O O14 0.250000 0.067357 0.732695
O O15 0.011044 0.139332 0.736835
O O16 0.035744 0.046271 0.844679
O O17 0.750000 0.176371 0.683332
O O18 0.519346 0.250000 0.656036
O O19 0.250000 0.516336 0.923815
O O20 0.000000 0.500000 0.000000
#
# Coordination Sequence:
#
# PCOD8239996 Si02
#       8
#     4   4   8   8   8   8   8   8
#     4   9  16  27  47  73 104 145 190 229 267 312
#     4  11  19  29  51  79 112 153 188 223 271 328
#     4  10  20  33  51  80 116 149 181 222 271 325
#     4  10  18  32  52  76 107 148 194 235 275 320
#     4  10  20  33  51  78 111 146 187 232 277 323
#     4  10  22  39  59  83 111 143 179 222 279 337
#     4  10  21  37  58  81 108 146 192 236 277 322
#     4  10  21  39  64  89 110 137 176 222 275 339
#
# _framework density 18.803998
#
# number of rings (size 3 to 8) (size 9 to 14) (size 15 to 20)
#    0.000    2.000    2.143    1.929    0.000    4.286 
#    0.000    0.357    1.571    0.000    0.000    0.000 
#    0.000    0.000    0.000    0.000    0.000    0.000 
#
# Total GULP energy -694345.260858 kJ/mol
# GULP energy per Si atom -12399.022515 kJ/mol
# Density = 1.876120 g / cm^3
# Si number density = 18.803998 Si / 1000 Ang^3
#
#
#
# Elastic Constant Matrix: (Units=GPa)
#
#
# Indices 1 2 3 4 5 6 
#
# 1 89.9468 60.0745 53.8038 0.0000 0.0000 0.0000
# 2 60.0745 106.5842 59.7147 0.0000 0.0000 0.0000
# 3 53.8038 59.7147 90.8987 0.0000 0.0000 0.0000
# 4 0.0000 0.0000 0.0000 1.6642 0.0000 0.0000
# 5 0.0000 0.0000 0.0000 0.0000 28.8506 0.0000
# 6 0.0000 0.0000 0.0000 0.0000 0.0000 34.5329
#
#
#
# Elastic Compliance Matrix: (Units=1/GPa)
#
#
# Indices 1 2 3 4 5 6 
#
# 1 0.020399 -0.007489 -0.007155 0.000000 0.000000 0.000000
# 2 -0.007489 0.017596 -0.007127 0.000000 0.000000 0.000000
# 3 -0.007155 -0.007127 0.019918 0.000000 0.000000 0.000000
# 4 0.000000 0.000000 0.000000 0.600898 0.000000 0.000000
# 5 0.000000 0.000000 0.000000 0.000000 0.034661 0.000000
# 6 0.000000 0.000000 0.000000 0.000000 0.000000 0.028958
#
#
# Mechanical properties :
#
#
# Convention : Reuss Voigt Hill
#
# Bulk Modulus (GPa) = 69.57764 70.51285 70.04525
# Shear Modulus (GPa) = 6.48709 20.59867 13.54288
#
# Velocity S-wave (km/s) = 1.85939 3.31334 2.68659
# Velocity P-wave (km/s) = 6.45690 7.22619 6.85235
#
# Compressibility (1/GPa) = 0.01437243
#
# Stress axis : x y z
#
# Youngs Moduli (GPa) = 49.02096 56.83022 50.20638
#
# Poissons Ratio (x) = 0.42563 0.35920
# Poissons Ratio (y) = 0.36714 0.35780
# Poissons Ratio (z) = 0.35072 0.40500
#
# Static dielectric constant tensor:
#      x y z
#    x 3.457700 0.000000 0.000000 
#    y 0.000000 3.576270 0.000000 
#    z 0.000000 0.000000 3.217340 
# 
# 
# High freq. dielectric constant tensor:
#      x y z
#    x 1.729640 0.000000 0.000000 
#    y 0.000000 1.735940 0.000000 
#    z 0.000000 0.000000 1.705950 
# 
# From -- ./inp_files/21233.got.cif
#   From: 2010.03.12/outbox.cif.g09.slc.cpg/sg59_11_cif.got.tgz:21233.got - 2010.04.16 16:29:54.
