data_PCOD8239924
_publ_section_title
;
Structure prediction by ZEFSAII (Michael W. Deem and Ramdas Pophale) SiO2 
 PCOD8239924
Probable space group: P M M N
;
_chemical_formula_sum "Si O2"
_cell_formula_units_Z 64
_cell_length_a 19.598401
_cell_length_b 8.818371
_cell_length_c 19.995668
_cell_angle_alpha 90.000000
_cell_angle_beta 90.000000
_cell_angle_gamma 90.000000
_cell_volume 3455.770738
_symmetry_space_group_name_H-M "P M M N"
_symmetry_group_IT_number 59
_space_group.IT_coordinate_system_code '2'
_symmetry_cell_setting 'orthorhombic'
loop_
_space_group_symop_operation_xyz
x,y,z
1/2-x,1/2-y,z
1/2+x,-y,-z
-x,1/2+y,-z
-x,-y,-z
1/2+x,1/2+y,-z
1/2-x,y,z
x,1/2-y,z
loop_
_atom_site_type_symbol
_atom_site_label
_atom_site_fract_x
_atom_site_fract_y
_atom_site_fract_z
Si Si1 0.056275 0.075703 0.759894
Si Si2 0.329216 0.917153 0.153951
Si Si3 0.582921 0.070377 0.374562
Si Si4 0.828161 0.930662 0.484311
Si Si5 0.583043 0.576414 0.743798
Si Si6 0.068656 0.424043 0.405053
Si Si7 0.093328 0.074713 0.047706
Si Si8 0.457773 0.074334 0.906452
O O1 0.068683 0.250000 0.740563
O O2 0.081632 0.041395 0.836183
O O3 0.092661 0.973031 0.703668
O O4 0.976378 0.039823 0.761873
O O5 0.250000 0.905563 0.161877
O O6 0.361851 0.750000 0.164044
O O7 0.353706 0.035391 0.209906
O O8 0.345972 0.978246 0.079890
O O9 0.587307 0.250000 0.381069
O O10 0.509055 0.008819 0.402233
O O11 0.644909 0.993294 0.413845
O O12 0.750000 0.986545 0.496343
O O13 0.829573 0.750000 0.483718
O O14 0.880034 0.999196 0.540705
O O15 0.559262 0.750000 0.755579
O O16 0.604595 0.554679 0.666610
O O17 0.060794 0.250000 0.424724
O O18 0.107107 0.250000 0.061052
O O19 0.091923 0.037624 0.968631
O O20 0.023898 0.030869 0.086254
O O21 0.481237 0.250000 0.909297
#
# Coordination Sequence:
#
# PCOD8239924 Si02
#       8
#     8   8   8   8   8   8   8   8
#     4  10  18  31  53  78 107 136 165 206 260 315
#     4  11  23  36  48  66 100 144 182 215 254 305
#     4  10  20  34  53  78 108 139 176 221 264 311
#     4  10  20  35  55  77 103 137 176 217 267 326
#     4  10  19  32  51  77 104 131 171 215 258 307
#     4   8  17  33  53  78 106 135 171 217 264 316
#     4  10  19  31  50  75 101 131 169 211 255 304
#     4   9  18  31  50  77 106 131 160 207 262 309
#
# _framework density 18.519746999999999
#
# number of rings (size 3 to 8) (size 9 to 14) (size 15 to 20)
#    0.000    2.250    1.250    3.000    0.000    2.750 
#    0.000    4.375    0.000    0.750    0.000    1.750 
#    0.000    0.000    0.000    0.000    0.000    0.000 
#
# Total GULP energy -793245.279508 kJ/mol
# GULP energy per Si atom -12394.457492 kJ/mol
# Density = 1.847760 g / cm^3
# Si number density = 18.519747 Si / 1000 Ang^3
#
#
#
# Elastic Constant Matrix: (Units=GPa)
#
#
# Indices 1 2 3 4 5 6 
#
# 1 54.8393 16.5048 32.9493 0.0000 0.0000 0.0000
# 2 16.5048 40.7115 20.5265 0.0000 0.0000 0.0000
# 3 32.9493 20.5265 114.2323 0.0000 0.0000 0.0000
# 4 0.0000 0.0000 0.0000 24.8432 0.0000 0.0000
# 5 0.0000 0.0000 0.0000 0.0000 21.5810 0.0000
# 6 0.0000 0.0000 0.0000 0.0000 0.0000 21.0863
#
#
#
# Elastic Compliance Matrix: (Units=1/GPa)
#
#
# Indices 1 2 3 4 5 6 
#
# 1 0.023635 -0.006757 -0.005603 0.000000 0.000000 0.000000
# 2 -0.006757 0.028942 -0.003252 0.000000 0.000000 0.000000
# 3 -0.005603 -0.003252 0.010955 0.000000 0.000000 0.000000
# 4 0.000000 0.000000 0.000000 0.040253 0.000000 0.000000
# 5 0.000000 0.000000 0.000000 0.000000 0.046337 0.000000
# 6 0.000000 0.000000 0.000000 0.000000 0.000000 0.047424
#
#
# Mechanical properties :
#
#
# Convention : Reuss Voigt Hill
#
# Bulk Modulus (GPa) = 30.95179 38.86045 34.90612
# Shear Modulus (GPa) = 20.87350 22.82227 21.84789
#
# Velocity S-wave (km/s) = 3.36086 3.51425 3.43841
# Velocity P-wave (km/s) = 5.64001 6.12335 5.88664
#
# Compressibility (1/GPa) = 0.03230831
#
# Stress axis : x y z
#
# Youngs Moduli (GPa) = 42.30955 34.55208 91.28593
#
# Poissons Ratio (x) = 0.23346 0.51150
# Poissons Ratio (y) = 0.28588 0.29683
# Poissons Ratio (z) = 0.23707 0.11235
#
# Static dielectric constant tensor:
#      x y z
#    x 3.140970 0.000000 0.000000 
#    y 0.000000 3.402980 0.000000 
#    z 0.000000 0.000000 3.778760 
# 
# 
# High freq. dielectric constant tensor:
#      x y z
#    x 1.673470 0.000000 0.000000 
#    y 0.000000 1.714600 0.000000 
#    z 0.000000 0.000000 1.734510 
# 
# From -- ./inp_files/30896.got.cif
#   From: 2010.03.12/outbox.cif.g09.slc.cpg/sg59_16_cif.got.tgz:30896.got - 2010.04.16 16:29:54.
