data_PCOD8239134
_publ_section_title
;
Structure prediction by ZEFSAII (Michael W. Deem and Ramdas Pophale) SiO2 
 PCOD8239134
Probable space group: P M M N
;
_chemical_formula_sum "Si O2"
_cell_formula_units_Z 64
_cell_length_a 23.630392
_cell_length_b 9.314656
_cell_length_c 18.952980
_cell_angle_alpha 90.000000
_cell_angle_beta 90.000000
_cell_angle_gamma 90.000000
_cell_volume 4171.720956
_symmetry_space_group_name_H-M "P M M N"
_symmetry_group_IT_number 59
_space_group.IT_coordinate_system_code '2'
_symmetry_cell_setting 'orthorhombic'
loop_
_space_group_symop_operation_xyz
x,y,z
1/2-x,1/2-y,z
1/2+x,-y,-z
-x,1/2+y,-z
-x,-y,-z
1/2+x,1/2+y,-z
1/2-x,y,z
x,1/2-y,z
loop_
_atom_site_type_symbol
_atom_site_label
_atom_site_fract_x
_atom_site_fract_y
_atom_site_fract_z
Si Si1 0.585492 0.917771 0.486197
Si Si2 0.920178 0.584325 0.026378
Si Si3 0.867447 0.579125 0.247939
Si Si4 0.812115 0.580794 0.105186
Si Si5 0.014014 0.082927 0.109507
Si Si6 0.503444 0.581508 0.244039
Si Si7 0.186635 0.420987 0.608621
Si Si8 0.974673 0.415993 0.599877
O O1 0.587493 0.750000 0.501926
O O2 0.644875 0.972959 0.453762
O O3 0.536465 0.956221 0.430191
O O4 0.574358 0.996236 0.560280
O O5 0.932151 0.750000 0.047756
O O6 0.854778 0.543048 0.041069
O O7 0.958053 0.485425 0.076081
O O8 0.933470 0.558738 0.944041
O O9 0.866806 0.750000 0.249676
O O10 0.836090 0.517980 0.178728
O O11 0.835373 0.517543 0.316605
O O12 0.932090 0.526016 0.247543
O O13 0.750000 0.514311 0.089269
O O14 0.806663 0.750000 0.113628
O O15 0.002842 0.250000 0.123218
O O16 0.029230 0.004689 0.182683
O O17 0.500709 0.750000 0.227349
O O18 0.472766 0.545245 0.317619
O O19 0.250000 0.478714 0.593727
O O20 0.185892 0.250000 0.612167
O O21 0.962069 0.250000 0.587055
#
# Coordination Sequence:
#
# PCOD8239134 Si02
#       8
#     8   8   8   8   8   8   8   8
#     4   9  16  27  42  62  86 111 139 176 215 250
#     4   9  17  30  44  61  87 114 142 179 214 250
#     4   9  14  22  37  60  88 113 140 172 201 237
#     4   9  15  23  40  64  85 109 143 178 209 240
#     4  10  19  28  42  63  87 115 145 176 215 257
#     4  10  17  28  45  63  86 115 143 176 214 252
#     4   9  15  23  38  62  89 114 142 175 210 249
#     4   9  17  28  43  61  83 112 144 175 214 257
#
# _framework density 15.341390000000001
#
# number of rings (size 3 to 8) (size 9 to 14) (size 15 to 20)
#    0.000    2.750    2.500    0.750    0.000    2.500 
#    0.000    0.000    0.000    0.750    0.000    0.875 
#    0.000    5.000    0.000    0.000    0.000    0.000 
#
# Total GULP energy -793356.408628 kJ/mol
# GULP energy per Si atom -12396.193885 kJ/mol
# Density = 1.530647 g / cm^3
# Si number density = 15.341390 Si / 1000 Ang^3
#
#
#
# Elastic Constant Matrix: (Units=GPa)
#
#
# Indices 1 2 3 4 5 6 
#
# 1 104.8997 24.7958 69.3897 0.0000 0.0000 0.0000
# 2 24.7958 36.7417 43.2729 0.0000 0.0000 0.0000
# 3 69.3897 43.2729 126.5852 0.0000 0.0000 0.0000
# 4 0.0000 0.0000 0.0000 24.3900 0.0000 0.0000
# 5 0.0000 0.0000 0.0000 0.0000 24.3133 0.0000
# 6 0.0000 0.0000 0.0000 0.0000 0.0000 12.7919
#
#
#
# Elastic Compliance Matrix: (Units=1/GPa)
#
#
# Indices 1 2 3 4 5 6 
#
# 1 0.014968 -0.000733 -0.007954 0.000000 0.000000 0.000000
# 2 -0.000733 0.045596 -0.015185 0.000000 0.000000 0.000000
# 3 -0.007954 -0.015185 0.017451 0.000000 0.000000 0.000000
# 4 0.000000 0.000000 0.000000 0.041000 0.000000 0.000000
# 5 0.000000 0.000000 0.000000 0.000000 0.041130 0.000000
# 6 0.000000 0.000000 0.000000 0.000000 0.000000 0.078175
#
#
# Mechanical properties :
#
#
# Convention : Reuss Voigt Hill
#
# Bulk Modulus (GPa) = 33.03586 60.34926 46.69256
# Shear Modulus (GPa) = 16.88306 21.01691 18.94999
#
# Velocity S-wave (km/s) = 3.32096 3.70530 3.51838
# Velocity P-wave (km/s) = 6.02376 7.59793 6.85617
#
# Compressibility (1/GPa) = 0.03027014
#
# Stress axis : x y z
#
# Youngs Moduli (GPa) = 66.80999 21.93171 57.30321
#
# Poissons Ratio (x) = 0.01608 0.45580
# Poissons Ratio (y) = 0.04898 0.87015
# Poissons Ratio (z) = 0.53142 0.33303
#
# Static dielectric constant tensor:
#      x y z
#    x 2.986160 0.000000 0.000000 
#    y 0.000000 2.642640 0.000000 
#    z 0.000000 0.000000 3.041720 
# 
# 
# High freq. dielectric constant tensor:
#      x y z
#    x 1.566700 0.000000 0.000000 
#    y 0.000000 1.552890 0.000000 
#    z 0.000000 0.000000 1.586250 
# 
# From -- ./inp_files/31054.got.cif
#   From: 2010.03.12/outbox.cif.g09.slc.cpg/sg59_16_cif.got.tgz:31054.got - 2010.04.16 16:29:54.
