data_PCOD8239551
_publ_section_title
;
Structure prediction by ZEFSAII (Michael W. Deem and Ramdas Pophale) SiO2 
 PCOD8239551
Probable space group: P M M N
;
_chemical_formula_sum "Si O2"
_cell_formula_units_Z 56
_cell_length_a 18.179046
_cell_length_b 9.015213
_cell_length_c 21.414234
_cell_angle_alpha 90.000000
_cell_angle_beta 90.000000
_cell_angle_gamma 90.000000
_cell_volume 3509.535378
_symmetry_space_group_name_H-M "P M M N"
_symmetry_group_IT_number 59
_space_group.IT_coordinate_system_code '2'
_symmetry_cell_setting 'orthorhombic'
loop_
_space_group_symop_operation_xyz
x,y,z
1/2-x,1/2-y,z
1/2+x,-y,-z
-x,1/2+y,-z
-x,-y,-z
1/2+x,1/2+y,-z
1/2-x,y,z
x,1/2-y,z
loop_
_atom_site_type_symbol
_atom_site_label
_atom_site_fract_x
_atom_site_fract_y
_atom_site_fract_z
Si Si1 0.334882 0.925511 0.621163
Si Si2 0.044933 0.083262 0.911274
Si Si3 0.475700 0.425275 0.200726
Si Si4 0.045225 0.417812 0.686861
Si Si5 0.890773 0.084056 0.981299
Si Si6 0.668627 0.920017 0.869009
Si Si7 0.949784 0.917861 0.450697
O O1 0.250000 0.971470 0.623150
O O2 0.345779 0.750000 0.621263
O O3 0.375920 0.996410 0.681930
O O4 0.372025 0.994768 0.558255
O O5 0.069639 0.250000 0.894036
O O6 0.970227 0.085193 0.949924
O O7 0.034932 0.988783 0.848265
O O8 0.107505 0.007008 0.953883
O O9 0.485299 0.250000 0.204932
O O10 0.489636 0.496944 0.267896
O O11 0.392882 0.472378 0.180588
O O12 0.058162 0.250000 0.710851
O O13 0.009491 0.417029 0.617139
O O14 0.864120 0.250000 0.996348
O O15 0.834006 0.010504 0.933357
O O16 0.750000 0.941636 0.839463
O O17 0.653051 0.750000 0.886743
O O18 0.934292 0.750000 0.473421
O O19 0.000000 0.000000 0.500000
#
# Coordination Sequence:
#
# PCOD8239551 Si02
#       7
#     8   8   8   8   8   8   8
#     4   9  17  30  50  75 101 128 159 196 238 284
#     4   9  16  26  42  62  87 114 142 184 234 282
#     4  10  18  29  47  69  93 123 162 204 242 289
#     4   9  19  31  47  71  99 131 163 201 242 290
#     4   9  16  26  41  63  86 110 145 187 231 279
#     4   9  18  31  46  65  90 122 160 201 245 291
#     4   9  18  30  49  74 102 133 166 203 241 284
#
# _framework density 15.956526999999999
#
# number of rings (size 3 to 8) (size 9 to 14) (size 15 to 20)
#    0.857    2.000    0.000    2.143    0.000    5.429 
#    0.000    0.000    0.000    1.714    0.000    4.000 
#    0.000    0.000    0.000    0.000    0.000    0.000 
#
# Total GULP energy -693939.227503 kJ/mol
# GULP energy per Si atom -12391.771920 kJ/mol
# Density = 1.592021 g / cm^3
# Si number density = 15.956527 Si / 1000 Ang^3
#
#
#
# Elastic Constant Matrix: (Units=GPa)
#
#
# Indices 1 2 3 4 5 6 
#
# 1 84.6711 46.2297 43.2706 0.0000 0.0000 0.0000
# 2 46.2297 118.7861 45.2975 0.0000 0.0000 0.0000
# 3 43.2706 45.2975 75.9835 0.0000 0.0000 0.0000
# 4 0.0000 0.0000 0.0000 31.4960 0.0000 0.0000
# 5 0.0000 0.0000 0.0000 0.0000 20.4193 0.0000
# 6 0.0000 0.0000 0.0000 0.0000 0.0000 19.9397
#
#
#
# Elastic Compliance Matrix: (Units=1/GPa)
#
#
# Indices 1 2 3 4 5 6 
#
# 1 0.018024 -0.004013 -0.007872 0.000000 0.000000 0.000000
# 2 -0.004013 0.011789 -0.004743 0.000000 0.000000 0.000000
# 3 -0.007872 -0.004743 0.020471 0.000000 0.000000 0.000000
# 4 0.000000 0.000000 0.000000 0.031750 0.000000 0.000000
# 5 0.000000 0.000000 0.000000 0.000000 0.048973 0.000000
# 6 0.000000 0.000000 0.000000 0.000000 0.000000 0.050151
#
#
# Mechanical properties :
#
#
# Convention : Reuss Voigt Hill
#
# Bulk Modulus (GPa) = 58.72371 61.00404 59.86387
# Shear Modulus (GPa) = 22.71793 24.01386 23.36590
#
# Velocity S-wave (km/s) = 3.77734 3.88358 3.83083
# Velocity P-wave (km/s) = 7.47707 7.64356 7.56078
#
# Compressibility (1/GPa) = 0.01702890
#
# Stress axis : x y z
#
# Youngs Moduli (GPa) = 55.48023 84.82633 48.84946
#
# Poissons Ratio (x) = 0.34040 0.38455
# Poissons Ratio (y) = 0.22264 0.23168
# Poissons Ratio (z) = 0.43675 0.40230
#
# Static dielectric constant tensor:
#      x y z
#    x 2.764160 0.000000 0.000000 
#    y 0.000000 3.208520 0.000000 
#    z 0.000000 0.000000 2.833080 
# 
# 
# High freq. dielectric constant tensor:
#      x y z
#    x 1.578810 0.000000 0.000000 
#    y 0.000000 1.634510 0.000000 
#    z 0.000000 0.000000 1.588760 
# 
# From -- ./inp_files/30880.got.cif
#   From: 2010.03.12/outbox.cif.g09.slc.cpg/sg59_16_cif.got.tgz:30880.got - 2010.04.16 16:29:54.
