data_PCOD8239587
_publ_section_title
;
Structure prediction by ZEFSAII (Michael W. Deem and Ramdas Pophale) SiO2 
 PCOD8239587
Probable space group: P M M N
;
_chemical_formula_sum "Si O2"
_cell_formula_units_Z 56
_cell_length_a 19.188781
_cell_length_b 9.048600
_cell_length_c 18.109018
_cell_angle_alpha 90.000000
_cell_angle_beta 90.000000
_cell_angle_gamma 90.000000
_cell_volume 3144.297838
_symmetry_space_group_name_H-M "P M M N"
_symmetry_group_IT_number 59
_space_group.IT_coordinate_system_code '2'
_symmetry_cell_setting 'orthorhombic'
loop_
_space_group_symop_operation_xyz
x,y,z
1/2-x,1/2-y,z
1/2+x,-y,-z
-x,1/2+y,-z
-x,-y,-z
1/2+x,1/2+y,-z
1/2-x,y,z
x,1/2-y,z
loop_
_atom_site_type_symbol
_atom_site_label
_atom_site_fract_x
_atom_site_fract_y
_atom_site_fract_z
Si Si1 0.433398 0.574045 0.222581
Si Si2 0.580473 0.425397 0.226653
Si Si3 0.167290 0.417727 0.651782
Si Si4 0.167219 0.914373 0.509180
Si Si5 0.413907 0.586872 0.936146
Si Si6 0.920910 0.914127 0.925003
Si Si7 0.172477 0.574308 0.347172
O O1 0.439919 0.750000 0.219552
O O2 0.507681 0.505249 0.242560
O O3 0.403237 0.517090 0.144662
O O4 0.380366 0.517125 0.285197
O O5 0.568741 0.250000 0.231844
O O6 0.637387 0.478922 0.284442
O O7 0.609316 0.468814 0.145072
O O8 0.250000 0.428144 0.656229
O O9 0.141159 0.250000 0.661769
O O10 0.139468 0.476224 0.572739
O O11 0.250000 0.905125 0.511303
O O12 0.136279 0.750000 0.523046
O O13 0.145097 0.976214 0.428380
O O14 0.383674 0.750000 0.951814
O O15 0.497032 0.592987 0.936607
O O16 0.385700 0.479831 0.000595
O O17 0.890662 0.750000 0.911779
O O18 0.250000 0.510140 0.331264
O O19 0.176243 0.750000 0.346952
#
# Coordination Sequence:
#
# PCOD8239587 Si02
#       7
#     8   8   8   8   8   8   8
#     4  10  18  29  48  72  99 127 156 195 240 281
#     4  10  20  33  49  70  97 126 158 195 235 282
#     4  10  20  33  50  73  98 122 153 193 236 283
#     4   8  14  28  50  71  91 119 157 196 231 272
#     4   8  15  27  43  64  88 117 155 195 231 270
#     4   9  16  26  42  65  93 123 155 191 232 280
#     4   8  15  29  50  74  96 122 159 198 234 276
#
# _framework density 17.810016999999998
#
# number of rings (size 3 to 8) (size 9 to 14) (size 15 to 20)
#    0.000    3.000    0.000    3.429    0.000    4.857 
#    0.000    2.143    0.000    4.286    0.000    2.000 
#    0.000    0.000    0.000    0.000    0.000    0.000 
#
# Total GULP energy -694099.960867 kJ/mol
# GULP energy per Si atom -12394.642158 kJ/mol
# Density = 1.776948 g / cm^3
# Si number density = 17.810017 Si / 1000 Ang^3
#
#
#
# Elastic Constant Matrix: (Units=GPa)
#
#
# Indices 1 2 3 4 5 6 
#
# 1 29.0325 24.9169 37.6817 0.0000 0.0000 0.0000
# 2 24.9169 90.6091 59.2288 0.0000 0.0000 0.0000
# 3 37.6817 59.2288 154.8527 0.0000 0.0000 0.0000
# 4 0.0000 0.0000 0.0000 27.9784 0.0000 0.0000
# 5 0.0000 0.0000 0.0000 0.0000 11.9595 0.0000
# 6 0.0000 0.0000 0.0000 0.0000 0.0000 13.0776
#
#
#
# Elastic Compliance Matrix: (Units=1/GPa)
#
#
# Indices 1 2 3 4 5 6 
#
# 1 0.054827 -0.008475 -0.010100 0.000000 0.000000 0.000000
# 2 -0.008475 0.016026 -0.004067 0.000000 0.000000 0.000000
# 3 -0.010100 -0.004067 0.010471 0.000000 0.000000 0.000000
# 4 0.000000 0.000000 0.000000 0.035742 0.000000 0.000000
# 5 0.000000 0.000000 0.000000 0.000000 0.083616 0.000000
# 6 0.000000 0.000000 0.000000 0.000000 0.000000 0.076466
#
#
# Mechanical properties :
#
#
# Convention : Reuss Voigt Hill
#
# Bulk Modulus (GPa) = 27.74759 57.57212 42.65985
# Shear Modulus (GPa) = 14.95016 20.78089 17.86552
#
# Velocity S-wave (km/s) = 2.90042 3.41956 3.17064
# Velocity P-wave (km/s) = 5.17979 6.92727 6.11626
#
# Compressibility (1/GPa) = 0.03603917
#
# Stress axis : x y z
#
# Youngs Moduli (GPa) = 18.23932 62.40009 95.50050
#
# Poissons Ratio (x) = 0.52883 0.96455
# Poissons Ratio (y) = 0.15458 0.38843
# Poissons Ratio (z) = 0.18422 0.25380
#
# Static dielectric constant tensor:
#      x y z
#    x 2.857000 0.000000 0.000000 
#    y 0.000000 3.390250 0.000000 
#    z 0.000000 0.000000 3.741220 
# 
# 
# High freq. dielectric constant tensor:
#      x y z
#    x 1.631340 0.000000 0.000000 
#    y 0.000000 1.685490 0.000000 
#    z 0.000000 0.000000 1.707910 
# 
# From -- ./inp_files/28023.got.cif
#   From: 2010.03.12/outbox.cif.g09.slc.cpg/sg59_15_cif.got.tgz:28023.got - 2010.04.16 16:29:54.
