data_PCOD8239344
_publ_section_title
;
Structure prediction by ZEFSAII (Michael W. Deem and Ramdas Pophale) SiO2 
 PCOD8239344
Probable space group: P M M N
;
_chemical_formula_sum "Si O2"
_cell_formula_units_Z 56
_cell_length_a 21.682760
_cell_length_b 9.224309
_cell_length_c 17.677381
_cell_angle_alpha 90.000000
_cell_angle_beta 90.000000
_cell_angle_gamma 90.000000
_cell_volume 3535.626073
_symmetry_space_group_name_H-M "P M M N"
_symmetry_group_IT_number 59
_space_group.IT_coordinate_system_code '2'
_symmetry_cell_setting 'orthorhombic'
loop_
_space_group_symop_operation_xyz
x,y,z
1/2-x,1/2-y,z
1/2+x,-y,-z
-x,1/2+y,-z
-x,-y,-z
1/2+x,1/2+y,-z
1/2-x,y,z
x,1/2-y,z
loop_
_atom_site_type_symbol
_atom_site_label
_atom_site_fract_x
_atom_site_fract_y
_atom_site_fract_z
Si Si1 0.396224 0.581024 0.797565
Si Si2 0.464585 0.081521 0.394546
Si Si3 0.082644 0.085633 0.943755
Si Si4 0.961001 0.916450 0.771241
Si Si5 0.437755 0.913516 0.086353
Si Si6 0.081631 0.082808 0.551593
Si Si7 0.821001 0.581953 0.328368
O O1 0.382117 0.750000 0.808779
O O2 0.383360 0.500153 0.876730
O O3 0.465948 0.553780 0.771097
O O4 0.349984 0.516753 0.736209
O O5 0.481138 0.250000 0.395209
O O6 0.435836 0.041925 0.312550
O O7 0.417044 0.039822 0.462173
O O8 0.529089 0.002183 0.404483
O O9 0.107687 0.250000 0.947272
O O10 0.009922 0.084499 0.930491
O O11 0.098029 0.005378 0.022592
O O12 0.947425 0.750000 0.792401
O O13 0.925462 0.015417 0.831747
O O14 0.412034 0.750000 0.086545
O O15 0.064146 0.250000 0.559932
O O16 0.146999 0.048453 0.590618
O O17 0.750000 0.540330 0.338146
O O18 0.829928 0.750000 0.305821
#
# Coordination Sequence:
#
# PCOD8239344 Si02
#       7
#     8   8   8   8   8   8   8
#     4  10  18  28  42  59  80 108 143 178 213 253
#     4   9  16  27  42  61  83 108 139 177 217 262
#     4   9  16  26  39  55  79 110 140 169 204 245
#     4   9  16  25  38  57  83 110 136 171 213 257
#     4   9  16  24  36  56  81 109 140 169 199 240
#     4   9  17  28  43  60  80 108 142 177 217 260
#     4  10  20  32  44  60  84 113 146 182 218 257
#
# _framework density 15.83878
#
# number of rings (size 3 to 8) (size 9 to 14) (size 15 to 20)
#    0.000    2.714    1.429    1.286    0.000    4.857 
#    0.000    0.000    0.000    0.000    0.000    0.000 
#    0.000    1.143    0.000    8.571    0.000    2.143 
#
# Total GULP energy -694186.309338 kJ/mol
# GULP energy per Si atom -12396.184095 kJ/mol
# Density = 1.580273 g / cm^3
# Si number density = 15.838780 Si / 1000 Ang^3
#
#
#
# Elastic Constant Matrix: (Units=GPa)
#
#
# Indices 1 2 3 4 5 6 
#
# 1 37.2342 26.8171 36.2344 0.0000 0.0000 0.0000
# 2 26.8171 94.5414 70.5704 0.0000 0.0000 0.0000
# 3 36.2344 70.5704 154.0755 0.0000 0.0000 0.0000
# 4 0.0000 0.0000 0.0000 27.1946 0.0000 0.0000
# 5 0.0000 0.0000 0.0000 0.0000 14.0289 0.0000
# 6 0.0000 0.0000 0.0000 0.0000 0.0000 12.4257
#
#
#
# Elastic Compliance Matrix: (Units=1/GPa)
#
#
# Indices 1 2 3 4 5 6 
#
# 1 0.036991 -0.006077 -0.005916 0.000000 0.000000 0.000000
# 2 -0.006077 0.017071 -0.006390 0.000000 0.000000 0.000000
# 3 -0.005916 -0.006390 0.010808 0.000000 0.000000 0.000000
# 4 0.000000 0.000000 0.000000 0.036772 0.000000 0.000000
# 5 0.000000 0.000000 0.000000 0.000000 0.071281 0.000000
# 6 0.000000 0.000000 0.000000 0.000000 0.000000 0.080478
#
#
# Mechanical properties :
#
#
# Convention : Reuss Voigt Hill
#
# Bulk Modulus (GPa) = 35.58087 61.45501 48.51794
# Shear Modulus (GPa) = 16.69259 20.87847 18.78553
#
# Velocity S-wave (km/s) = 3.24991 3.63462 3.44764
# Velocity P-wave (km/s) = 6.04944 7.51655 6.82255
#
# Compressibility (1/GPa) = 0.02810499
#
# Stress axis : x y z
#
# Youngs Moduli (GPa) = 27.03381 58.58009 92.52183
#
# Poissons Ratio (x) = 0.35597 0.54736
# Poissons Ratio (y) = 0.16427 0.59119
# Poissons Ratio (z) = 0.15993 0.37431
#
# Static dielectric constant tensor:
#      x y z
#    x 2.484310 0.000000 0.000000 
#    y 0.000000 3.142120 0.000000 
#    z 0.000000 0.000000 3.349300 
# 
# 
# High freq. dielectric constant tensor:
#      x y z
#    x 1.530930 0.000000 0.000000 
#    y 0.000000 1.619130 0.000000 
#    z 0.000000 0.000000 1.626040 
# 
# From -- ./inp_files/25988.got.cif
#   From: 2010.03.12/outbox.cif.g09.slc.cpg/sg59_13_cif.got.tgz:25988.got - 2010.04.16 16:29:54.
