data_PCOD8239406
_publ_section_title
;
Structure prediction by ZEFSAII (Michael W. Deem and Ramdas Pophale) SiO2 
 PCOD8239406
Probable space group: P M M N
;
_chemical_formula_sum "Si O2"
_cell_formula_units_Z 56
_cell_length_a 28.506733
_cell_length_b 12.858968
_cell_length_c 9.427146
_cell_angle_alpha 90.000000
_cell_angle_beta 90.000000
_cell_angle_gamma 90.000000
_cell_volume 3455.682206
_symmetry_space_group_name_H-M "P M M N"
_symmetry_group_IT_number 59
_space_group.IT_coordinate_system_code '2'
_symmetry_cell_setting 'orthorhombic'
loop_
_space_group_symop_operation_xyz
x,y,z
1/2-x,1/2-y,z
1/2+x,-y,-z
-x,1/2+y,-z
-x,-y,-z
1/2+x,1/2+y,-z
1/2-x,y,z
x,1/2-y,z
loop_
_atom_site_type_symbol
_atom_site_label
_atom_site_fract_x
_atom_site_fract_y
_atom_site_fract_z
Si Si1 0.697307 0.374023 0.515248
Si Si2 0.464495 0.131701 0.407383
Si Si3 0.127704 0.635056 0.248445
Si Si4 0.982784 0.865811 0.918403
Si Si5 0.626990 0.130945 0.277430
Si Si6 0.420075 0.955392 0.984734
Si Si7 0.939051 0.084088 0.520478
O O1 0.750000 0.418820 0.514801
O O2 0.696393 0.250000 0.518018
O O3 0.670670 0.413327 0.657909
O O4 0.671266 0.410484 0.370441
O O5 0.444142 0.250000 0.420537
O O6 0.481003 0.105938 0.247701
O O7 0.506745 0.115601 0.518129
O O8 0.428594 0.040267 0.453850
O O9 0.140726 0.750000 0.189652
O O10 0.113109 0.560466 0.120750
O O11 0.083557 0.648045 0.352080
O O12 0.965636 0.750000 0.945494
O O13 0.945501 0.933031 0.008427
O O14 0.036544 0.874786 0.972921
O O15 0.634792 0.250000 0.225664
O O16 0.581129 0.125219 0.373455
O O17 0.616670 0.055600 0.144768
#
# Coordination Sequence:
#
# PCOD8239406 Si02
#       7
#     8   8   8   8   8   8   8
#     4   8  16  31  49  69  93 121 147 182 236 286
#     4  10  18  29  44  61  87 121 159 201 234 258
#     4  10  18  28  45  68  92 118 155 192 225 271
#     4  10  20  32  45  62  96 133 159 195 233 261
#     4  10  18  30  49  66  93 126 153 185 226 279
#     4  11  20  31  45  68  92 128 165 192 221 269
#     4  10  18  29  43  63  84 120 161 192 227 265
#
# _framework density 16.205193999999999
#
# number of rings (size 3 to 8) (size 9 to 14) (size 15 to 20)
#    0.000    2.143    2.857    3.429    0.000    0.000 
#    0.000    2.857    0.000    3.429    0.000    0.000 
#    0.000   21.714    0.000    0.000    0.000    0.000 
#
# Total GULP energy -693875.470302 kJ/mol
# GULP energy per Si atom -12390.633398 kJ/mol
# Density = 1.616831 g / cm^3
# Si number density = 16.205194 Si / 1000 Ang^3
#
#
#
# Elastic Constant Matrix: (Units=GPa)
#
#
# Indices 1 2 3 4 5 6 
#
# 1 84.6220 15.8452 38.8309 0.0000 0.0000 0.0000
# 2 15.8452 61.7884 15.0325 0.0000 0.0000 0.0000
# 3 38.8309 15.0325 92.6110 0.0000 0.0000 0.0000
# 4 0.0000 0.0000 0.0000 24.0438 0.0000 0.0000
# 5 0.0000 0.0000 0.0000 0.0000 13.3268 0.0000
# 6 0.0000 0.0000 0.0000 0.0000 0.0000 15.8789
#
#
#
# Elastic Compliance Matrix: (Units=1/GPa)
#
#
# Indices 1 2 3 4 5 6 
#
# 1 0.014969 -0.002407 -0.005886 0.000000 0.000000 0.000000
# 2 -0.002407 0.017237 -0.001789 0.000000 0.000000 0.000000
# 3 -0.005886 -0.001789 0.013556 0.000000 0.000000 0.000000
# 4 0.000000 0.000000 0.000000 0.041591 0.000000 0.000000
# 5 0.000000 0.000000 0.000000 0.000000 0.075037 0.000000
# 6 0.000000 0.000000 0.000000 0.000000 0.000000 0.062977
#
#
# Mechanical properties :
#
#
# Convention : Reuss Voigt Hill
#
# Bulk Modulus (GPa) = 39.06364 42.04875 40.55619
# Shear Modulus (GPa) = 19.68038 21.93744 20.80891
#
# Velocity S-wave (km/s) = 3.48867 3.68330 3.58731
# Velocity P-wave (km/s) = 6.35498 6.64025 6.49918
#
# Compressibility (1/GPa) = 0.02559925
#
# Stress axis : x y z
#
# Youngs Moduli (GPa) = 66.80631 58.01604 73.76835
#
# Poissons Ratio (x) = 0.13963 0.43417
# Poissons Ratio (y) = 0.16078 0.13195
# Poissons Ratio (z) = 0.39319 0.10377
#
# Static dielectric constant tensor:
#      x y z
#    x 2.961850 0.000000 0.000000 
#    y 0.000000 2.997350 0.000000 
#    z 0.000000 0.000000 3.329920 
# 
# 
# High freq. dielectric constant tensor:
#      x y z
#    x 1.586230 0.000000 0.000000 
#    y 0.000000 1.598680 0.000000 
#    z 0.000000 0.000000 1.627590 
# 
# From -- ./inp_files/13240.got.cif
#   From: 2010.03.12/outbox.cif.g09.slc.cpg/sg59_7_cif.got.tgz:13240.got - 2010.04.16 16:29:54.
