data_PCOD8239912
_publ_section_title
;
Structure prediction by ZEFSAII (Michael W. Deem and Ramdas Pophale) SiO2 
 PCOD8239912
Probable space group: P M M N
;
_chemical_formula_sum "Si O2"
_cell_formula_units_Z 64
_cell_length_a 9.347014
_cell_length_b 14.661680
_cell_length_c 25.885825
_cell_angle_alpha 90.000000
_cell_angle_beta 90.000000
_cell_angle_gamma 90.000000
_cell_volume 3547.469257
_symmetry_space_group_name_H-M "P M M N"
_symmetry_group_IT_number 59
_space_group.IT_coordinate_system_code '2'
_symmetry_cell_setting 'orthorhombic'
loop_
_space_group_symop_operation_xyz
x,y,z
1/2-x,1/2-y,z
1/2+x,-y,-z
-x,1/2+y,-z
-x,-y,-z
1/2+x,1/2+y,-z
1/2-x,y,z
x,1/2-y,z
loop_
_atom_site_type_symbol
_atom_site_label
_atom_site_fract_x
_atom_site_fract_y
_atom_site_fract_z
Si Si1 0.908599 0.353070 0.115088
Si Si2 0.913325 0.499111 0.447912
Si Si3 0.582450 0.991268 0.823477
Si Si4 0.917538 0.092385 0.002913
Si Si5 0.083223 0.143433 0.637602
Si Si6 0.580747 0.152672 0.892453
Si Si7 0.919320 0.499120 0.703831
Si Si8 0.082349 0.643195 0.638626
O O1 0.750000 0.396714 0.119136
O O2 0.904651 0.250000 0.133362
O O3 0.962209 0.356932 0.055641
O O4 0.013910 0.399694 0.155222
O O5 0.750000 0.495991 0.464553
O O6 0.946755 0.591844 0.416371
O O7 0.952244 0.408464 0.415060
O O8 0.000000 0.500000 0.500000
O O9 0.750000 0.982857 0.832299
O O10 0.513670 0.073717 0.856971
O O11 0.545179 0.005606 0.764045
O O12 0.750000 0.072641 0.001282
O O13 0.964962 0.148737 0.952493
O O14 0.000000 0.000000 0.000000
O O15 0.250000 0.133297 0.652712
O O16 0.039229 0.250000 0.633010
O O17 0.987459 0.092968 0.680412
O O18 0.750000 0.146070 0.887621
O O19 0.526189 0.250000 0.870966
O O20 0.750000 0.500913 0.692357
O O21 0.990300 0.592215 0.682462
O O22 0.250000 0.632776 0.652209
O O23 0.038556 0.750000 0.634743
#
# Coordination Sequence:
#
# PCOD8239912 Si02
#       8
#     8   8   8   8   8   8   8   8
#     4  10  21  35  52  76 103 132 169 211 253 303
#     4   9  18  32  51  79 113 144 176 215 259 308
#     4  10  21  36  53  76 104 134 168 209 262 314
#     4  10  18  31  53  75  98 130 166 204 249 303
#     4   9  19  37  58  78 105 145 186 218 257 313
#     4   9  17  31  52  74  97 129 166 200 243 305
#     4  10  21  35  53  79 108 135 172 226 274 313
#     4   9  19  37  58  77 102 142 186 221 259 312
#
# _framework density 18.041029999999999
#
# number of rings (size 3 to 8) (size 9 to 14) (size 15 to 20)
#    0.000    2.500    1.250    1.500    0.000    6.750 
#    0.000    3.750    0.000    2.250    0.000    0.000 
#    0.000    0.000    0.000    0.000    0.000    0.000 
#
# Total GULP energy -793306.063680 kJ/mol
# GULP energy per Si atom -12395.407245 kJ/mol
# Density = 1.799997 g / cm^3
# Si number density = 18.041030 Si / 1000 Ang^3
#
#
#
# Elastic Constant Matrix: (Units=GPa)
#
#
# Indices 1 2 3 4 5 6 
#
# 1 51.8647 45.4508 64.4932 0.0000 0.0000 0.0000
# 2 45.4508 145.4435 60.3470 0.0000 0.0000 0.0000
# 3 64.4932 60.3470 128.0742 0.0000 0.0000 0.0000
# 4 0.0000 0.0000 0.0000 0.4446 0.0000 0.0000
# 5 0.0000 0.0000 0.0000 0.0000 27.4748 0.0000
# 6 0.0000 0.0000 0.0000 0.0000 0.0000 24.5450
#
#
#
# Elastic Compliance Matrix: (Units=1/GPa)
#
#
# Indices 1 2 3 4 5 6 
#
# 1 0.057309 -0.007377 -0.025382 0.000000 0.000000 0.000000
# 2 -0.007377 0.009496 -0.000760 0.000000 0.000000 0.000000
# 3 -0.025382 -0.000760 0.020947 0.000000 0.000000 0.000000
# 4 0.000000 0.000000 0.000000 2.249095 0.000000 0.000000
# 5 0.000000 0.000000 0.000000 0.000000 0.036397 0.000000
# 6 0.000000 0.000000 0.000000 0.000000 0.000000 0.040741
#
#
# Mechanical properties :
#
#
# Convention : Reuss Voigt Hill
#
# Bulk Modulus (GPa) = 48.27693 73.99605 61.13649
# Shear Modulus (GPa) = 2.00970 20.83231 11.42101
#
# Velocity S-wave (km/s) = 1.05659 3.40180 2.51879
# Velocity P-wave (km/s) = 5.32035 7.51892 6.51307
#
# Compressibility (1/GPa) = 0.02071383
#
# Stress axis : x y z
#
# Youngs Moduli (GPa) = 17.44942 105.30712 47.73859
#
# Poissons Ratio (x) = 0.77687 1.21172
# Poissons Ratio (y) = 0.12873 0.03626
# Poissons Ratio (z) = 0.44291 0.07998
#
# Static dielectric constant tensor:
#      x y z
#    x 3.201600 0.000000 0.000000 
#    y 0.000000 3.517270 0.000000 
#    z 0.000000 0.000000 3.193750 
# 
# 
# High freq. dielectric constant tensor:
#      x y z
#    x 1.682620 0.000000 0.000000 
#    y 0.000000 1.706000 0.000000 
#    z 0.000000 0.000000 1.697270 
# 
# From -- ./inp_files/31613.got.cif
#   From: 2010.03.12/outbox.cif.g09.slc.cpg/sg59_16_cif.got.tgz:31613.got - 2010.04.16 16:29:54.
