data_PCOD8239419
_publ_section_title
;
Structure prediction by ZEFSAII (Michael W. Deem and Ramdas Pophale) SiO2 
 PCOD8239419
Probable space group: P M M N
;
_chemical_formula_sum "Si O2"
_cell_formula_units_Z 64
_cell_length_a 18.013286
_cell_length_b 8.995761
_cell_length_c 21.503466
_cell_angle_alpha 90.000000
_cell_angle_beta 90.000000
_cell_angle_gamma 90.000000
_cell_volume 3484.490779
_symmetry_space_group_name_H-M "P M M N"
_symmetry_group_IT_number 59
_space_group.IT_coordinate_system_code '2'
_symmetry_cell_setting 'orthorhombic'
loop_
_space_group_symop_operation_xyz
x,y,z
1/2-x,1/2-y,z
1/2+x,-y,-z
-x,1/2+y,-z
-x,-y,-z
1/2+x,1/2+y,-z
1/2-x,y,z
x,1/2-y,z
loop_
_atom_site_type_symbol
_atom_site_label
_atom_site_fract_x
_atom_site_fract_y
_atom_site_fract_z
Si Si1 0.922016 0.922254 0.508131
Si Si2 0.410385 0.081888 0.628404
Si Si3 0.468292 0.576694 0.060426
Si Si4 0.165515 0.077522 0.121602
Si Si5 0.091586 0.423896 0.249459
Si Si6 0.413837 0.578043 0.372010
Si Si7 0.335821 0.576394 0.739813
Si Si8 0.044053 0.424008 0.812170
O O1 0.934344 0.750000 0.524289
O O2 0.879229 0.939726 0.442128
O O3 0.879769 0.001722 0.565668
O O4 0.000000 0.000000 0.500000
O O5 0.394883 0.250000 0.651257
O O6 0.498086 0.050715 0.629863
O O7 0.367950 0.968841 0.672854
O O8 0.461336 0.750000 0.047682
O O9 0.386542 0.516380 0.076029
O O10 0.524837 0.540575 0.116441
O O11 0.500000 0.500000 0.000000
O O12 0.250000 0.032176 0.107588
O O13 0.150878 0.250000 0.107602
O O14 0.148615 0.042181 0.193665
O O15 0.081191 0.250000 0.260982
O O16 0.123053 0.500532 0.311757
O O17 0.012075 0.493987 0.233957
O O18 0.392142 0.750000 0.372532
O O19 0.250000 0.533846 0.742488
O O20 0.349337 0.750000 0.749960
O O21 0.374768 0.486806 0.796169
O O22 0.039239 0.250000 0.798045
#
# Coordination Sequence:
#
# PCOD8239419 Si02
#       8
#     8   8   8   8   8   8   8   8
#     4   9  17  28  43  66  95 126 164 211 265 319
#     4   9  18  31  47  67  95 131 171 217 268 323
#     4  10  21  37  60  88 115 146 183 220 261 311
#     4   9  19  36  57  83 115 147 180 219 264 316
#     4  10  18  29  51  78 104 138 174 214 263 311
#     4  10  18  28  45  72 102 131 169 215 265 320
#     4  11  23  35  50  74 102 136 179 224 271 321
#     4  10  20  35  54  77 105 136 173 216 260 310
#
# _framework density 18.367104000000001
#
# number of rings (size 3 to 8) (size 9 to 14) (size 15 to 20)
#    0.000    2.250    1.250    3.000    0.000    5.750 
#    0.000    0.625    0.000    1.500    0.000    1.750 
#    0.000    0.000    0.000    0.000    0.000    0.000 
#
# Total GULP energy -793547.126020 kJ/mol
# GULP energy per Si atom -12399.173844 kJ/mol
# Density = 1.832530 g / cm^3
# Si number density = 18.367104 Si / 1000 Ang^3
#
#
#
# Elastic Constant Matrix: (Units=GPa)
#
#
# Indices 1 2 3 4 5 6 
#
# 1 74.3070 41.1693 41.9684 0.0000 0.0000 0.0000
# 2 41.1693 107.7619 62.6400 0.0000 0.0000 0.0000
# 3 41.9684 62.6400 136.4881 0.0000 0.0000 0.0000
# 4 0.0000 0.0000 0.0000 36.7736 0.0000 0.0000
# 5 0.0000 0.0000 0.0000 0.0000 16.4084 0.0000
# 6 0.0000 0.0000 0.0000 0.0000 0.0000 21.5733
#
#
#
# Elastic Compliance Matrix: (Units=1/GPa)
#
#
# Indices 1 2 3 4 5 6 
#
# 1 0.018074 -0.005011 -0.003258 0.000000 0.000000 0.000000
# 2 -0.005011 0.014046 -0.004905 0.000000 0.000000 0.000000
# 3 -0.003258 -0.004905 0.010579 0.000000 0.000000 0.000000
# 4 0.000000 0.000000 0.000000 0.027193 0.000000 0.000000
# 5 0.000000 0.000000 0.000000 0.000000 0.060944 0.000000
# 6 0.000000 0.000000 0.000000 0.000000 0.000000 0.046354
#
#
# Mechanical properties :
#
#
# Convention : Reuss Voigt Hill
#
# Bulk Modulus (GPa) = 61.15905 67.79025 64.47465
# Shear Modulus (GPa) = 23.92469 26.46968 25.19718
#
# Velocity S-wave (km/s) = 3.61305 3.80036 3.70789
# Velocity P-wave (km/s) = 7.12572 7.49971 7.31511
#
# Compressibility (1/GPa) = 0.01635081
#
# Stress axis : x y z
#
# Youngs Moduli (GPa) = 55.32767 71.19694 94.52257
#
# Poissons Ratio (x) = 0.35680 0.30792
# Poissons Ratio (y) = 0.27727 0.46364
# Poissons Ratio (z) = 0.18024 0.34923
#
# Static dielectric constant tensor:
#      x y z
#    x 3.096730 0.000000 0.000000 
#    y 0.000000 3.494260 0.000000 
#    z 0.000000 0.000000 3.609630 
# 
# 
# High freq. dielectric constant tensor:
#      x y z
#    x 1.668880 0.000000 0.000000 
#    y 0.000000 1.725830 0.000000 
#    z 0.000000 0.000000 1.720460 
# 
# From -- ./inp_files/30799.got.cif
#   From: 2010.03.12/outbox.cif.g09.slc.cpg/sg59_16_cif.got.tgz:30799.got - 2010.04.16 16:29:54.
