data_PCOD8239832
_publ_section_title
;
Structure prediction by ZEFSAII (Michael W. Deem and Ramdas Pophale) SiO2 
 PCOD8239832
Probable space group: P M M N
;
_chemical_formula_sum "Si O2"
_cell_formula_units_Z 56
_cell_length_a 14.695088
_cell_length_b 22.384813
_cell_length_c 9.351700
_cell_angle_alpha 90.000000
_cell_angle_beta 90.000000
_cell_angle_gamma 90.000000
_cell_volume 3076.211761
_symmetry_space_group_name_H-M "P M M N"
_symmetry_group_IT_number 59
_space_group.IT_coordinate_system_code '2'
_symmetry_cell_setting 'orthorhombic'
loop_
_space_group_symop_operation_xyz
x,y,z
1/2-x,1/2-y,z
1/2+x,-y,-z
-x,1/2+y,-z
-x,-y,-z
1/2+x,1/2+y,-z
1/2-x,y,z
x,1/2-y,z
loop_
_atom_site_type_symbol
_atom_site_label
_atom_site_fract_x
_atom_site_fract_y
_atom_site_fract_z
Si Si1 0.146397 0.099291 0.382082
Si Si2 0.851612 0.039106 0.664981
Si Si3 0.853210 0.082450 0.980471
Si Si4 0.646400 0.865459 0.933933
Si Si5 0.354244 0.469352 0.846822
Si Si6 0.511019 0.182934 0.903416
Si Si7 0.474704 0.104695 0.639920
O O1 0.250000 0.116054 0.419665
O O2 0.118751 0.127139 0.230735
O O3 0.081273 0.127301 0.502866
O O4 0.133300 0.028555 0.379706
O O5 0.750000 0.060648 0.620494
O O6 0.865389 0.045596 0.834599
O O7 0.927525 0.079592 0.587021
O O8 0.750000 0.104827 0.998319
O O9 0.916866 0.140404 0.983319
O O10 0.879604 0.037178 0.108745
O O11 0.750000 0.843337 0.949152
O O12 0.581811 0.816159 0.005249
O O13 0.632035 0.928385 0.013836
O O14 0.250000 0.465722 0.792561
O O15 0.419850 0.448445 0.719788
O O16 0.550053 0.250000 0.895559
O O17 0.489824 0.161040 0.743043
#
# Coordination Sequence:
#
# PCOD8239832 Si02
#       7
#     8   8   8   8   8   8   8
#     4  10  18  31  49  76 105 128 157 196 249 310
#     4   9  17  29  46  72 106 136 160 193 240 306
#     4   9  17  31  53  77 102 130 163 204 251 301
#     4   9  18  32  53  73  99 133 165 200 246 301
#     4   9  16  29  49  78 106 128 154 195 252 310
#     4  10  22  36  51  71  97 133 178 215 243 284
#     4  10  20  30  51  76 105 131 164 204 260 297
#
# _framework density 18.204208999999999
#
# number of rings (size 3 to 8) (size 9 to 14) (size 15 to 20)
#    0.000    2.571    1.429    0.857    2.000    2.857 
#    0.000    0.714    0.000    0.857    0.000    0.000 
#    0.000    2.286    0.000    0.000    0.000    0.000 
#
# Total GULP energy -694334.089716 kJ/mol
# GULP energy per Si atom -12398.823031 kJ/mol
# Density = 1.816278 g / cm^3
# Si number density = 18.204209 Si / 1000 Ang^3
#
#
#
# Elastic Constant Matrix: (Units=GPa)
#
#
# Indices 1 2 3 4 5 6 
#
# 1 81.9465 25.2701 23.9235 0.0000 0.0000 0.0000
# 2 25.2701 76.6549 8.5249 0.0000 0.0000 0.0000
# 3 23.9235 8.5249 50.2647 0.0000 0.0000 0.0000
# 4 0.0000 0.0000 0.0000 10.8128 0.0000 0.0000
# 5 0.0000 0.0000 0.0000 0.0000 25.9325 0.0000
# 6 0.0000 0.0000 0.0000 0.0000 0.0000 16.5083
#
#
#
# Elastic Compliance Matrix: (Units=1/GPa)
#
#
# Indices 1 2 3 4 5 6 
#
# 1 0.015485 -0.004368 -0.006630 0.000000 0.000000 0.000000
# 2 -0.004368 0.014528 -0.000385 0.000000 0.000000 0.000000
# 3 -0.006630 -0.000385 0.023115 0.000000 0.000000 0.000000
# 4 0.000000 0.000000 0.000000 0.092483 0.000000 0.000000
# 5 0.000000 0.000000 0.000000 0.000000 0.038562 0.000000
# 6 0.000000 0.000000 0.000000 0.000000 0.000000 0.060576
#
#
# Mechanical properties :
#
#
# Convention : Reuss Voigt Hill
#
# Bulk Modulus (GPa) = 32.93357 36.03367 34.48362
# Shear Modulus (GPa) = 18.00925 20.72723 19.36824
#
# Velocity S-wave (km/s) = 3.14871 3.37797 3.26535
# Velocity P-wave (km/s) = 5.59907 5.92042 5.76199
#
# Compressibility (1/GPa) = 0.03036416
#
# Stress axis : x y z
#
# Youngs Moduli (GPa) = 64.57711 68.83183 43.26138
#
# Poissons Ratio (x) = 0.30063 0.28680
# Poissons Ratio (y) = 0.28205 0.01666
# Poissons Ratio (z) = 0.42811 0.02651
#
# Static dielectric constant tensor:
#      x y z
#    x 3.653280 0.000000 0.000000 
#    y 0.000000 2.943390 0.000000 
#    z 0.000000 0.000000 3.208090 
# 
# 
# High freq. dielectric constant tensor:
#      x y z
#    x 1.719180 0.000000 0.000000 
#    y 0.000000 1.660880 0.000000 
#    z 0.000000 0.000000 1.689510 
# 
# From -- ./inp_files/9359.got.cif
#   From: 2010.03.12/outbox.cif.g09.slc.cpg/sg59_5_cif.got.tgz:9359.got - 2010.04.16 16:29:54.
