data_PCOD8239184
_publ_section_title
;
Structure prediction by ZEFSAII (Michael W. Deem and Ramdas Pophale) SiO2 
 PCOD8239184
Probable space group: P M M N
;
_chemical_formula_sum "Si O2"
_cell_formula_units_Z 28
_cell_length_a 10.384046
_cell_length_b 13.706350
_cell_length_c 9.379062
_cell_angle_alpha 90.000000
_cell_angle_beta 90.000000
_cell_angle_gamma 90.000000
_cell_volume 1334.897217
_symmetry_space_group_name_H-M "P M M N"
_symmetry_group_IT_number 59
_space_group.IT_coordinate_system_code '2'
_symmetry_cell_setting 'orthorhombic'
loop_
_space_group_symop_operation_xyz
x,y,z
1/2-x,1/2-y,z
1/2+x,-y,-z
-x,1/2+y,-z
-x,-y,-z
1/2+x,1/2+y,-z
1/2-x,y,z
x,1/2-y,z
loop_
_atom_site_type_symbol
_atom_site_label
_atom_site_fract_x
_atom_site_fract_y
_atom_site_fract_z
Si Si1 0.893066 0.142701 0.302112
Si Si2 0.250000 0.960820 0.922749
Si Si3 0.250000 0.136357 0.749332
Si Si4 0.750000 0.365507 0.773792
Si Si5 0.506768 0.134069 0.589402
O O1 0.750000 0.153489 0.370639
O O2 0.947731 0.250000 0.261622
O O3 0.879907 0.080546 0.156105
O O4 0.979586 0.091318 0.426769
O O5 0.250000 0.078078 0.899574
O O6 0.250000 0.930540 0.084613
O O7 0.250000 0.250000 0.786994
O O8 0.371858 0.101854 0.656654
O O9 0.750000 0.250000 0.811025
O O10 0.876748 0.399086 0.690047
O O11 0.513210 0.250000 0.571794
#
# Coordination Sequence:
#
# PCOD8239184 Si02
#       5
#     8   4   4   4   8
#     4   8  14  29  50  76 100 118 148 204 252 275
#     4  10  19  29  49  78 102 122 156 206 251 279
#     4  10  22  35  46  68 102 138 166 192 232 293
#     4  10  17  30  55  80  92 118 166 208 241 284
#     4   9  17  32  53  72  97 130 163 195 236 289
#
# _framework density 20.975397999999998
#
# number of rings (size 3 to 8) (size 9 to 14) (size 15 to 20)
#    0.857    2.000    1.429    0.857    0.000    2.286 
#    0.000    0.000    0.000    1.714    0.000   14.000 
#    0.000    0.000    0.000    0.000    0.000    0.000 
#
# Total GULP energy -346872.159336 kJ/mol
# GULP energy per Si atom -12388.291405 kJ/mol
# Density = 2.092766 g / cm^3
# Si number density = 20.975398 Si / 1000 Ang^3
#
#
#
# Elastic Constant Matrix: (Units=GPa)
#
#
# Indices 1 2 3 4 5 6 
#
# 1 112.3081 8.9529 37.9580 0.0000 0.0000 0.0000
# 2 8.9529 38.3478 19.4469 0.0000 0.0000 0.0000
# 3 37.9580 19.4469 109.1156 0.0000 0.0000 0.0000
# 4 0.0000 0.0000 0.0000 14.2238 0.0000 0.0000
# 5 0.0000 0.0000 0.0000 0.0000 9.3996 0.0000
# 6 0.0000 0.0000 0.0000 0.0000 0.0000 9.9612
#
#
#
# Elastic Compliance Matrix: (Units=1/GPa)
#
#
# Indices 1 2 3 4 5 6 
#
# 1 0.010104 -0.000634 -0.003402 0.000000 0.000000 0.000000
# 2 -0.000634 0.028708 -0.004896 0.000000 0.000000 0.000000
# 3 -0.003402 -0.004896 0.011221 0.000000 0.000000 0.000000
# 4 0.000000 0.000000 0.000000 0.070305 0.000000 0.000000
# 5 0.000000 0.000000 0.000000 0.000000 0.106387 0.000000
# 6 0.000000 0.000000 0.000000 0.000000 0.000000 0.100390
#
#
# Mechanical properties :
#
#
# Convention : Reuss Voigt Hill
#
# Bulk Modulus (GPa) = 31.08546 43.60969 37.34757
# Shear Modulus (GPa) = 14.05671 19.61115 16.83393
#
# Velocity S-wave (km/s) = 2.59154 3.06103 2.83602
# Velocity P-wave (km/s) = 4.87923 5.77314 5.34491
#
# Compressibility (1/GPa) = 0.03216938
#
# Stress axis : x y z
#
# Youngs Moduli (GPa) = 98.96640 34.83360 89.12149
#
# Poissons Ratio (x) = 0.02208 0.30320
# Poissons Ratio (y) = 0.06272 0.43633
# Poissons Ratio (z) = 0.33669 0.17054
#
# Static dielectric constant tensor:
#      x y z
#    x 3.674830 0.000000 0.000000 
#    y 0.000000 3.599670 0.000000 
#    z 0.000000 0.000000 3.473640 
# 
# 
# High freq. dielectric constant tensor:
#      x y z
#    x 1.791330 0.000000 0.000000 
#    y 0.000000 1.822840 0.000000 
#    z 0.000000 0.000000 1.802130 
# 
# From -- ./inp_files/6969.got.cif
#   From: 2010.03.12/outbox.cif.g09.slc.cpg/sg59_4_cif.got.tgz:6969.got - 2010.04.16 16:29:54.
