data_PCOD8239757
_publ_section_title
;
Structure prediction by ZEFSAII (Michael W. Deem and Ramdas Pophale) SiO2 
 PCOD8239757
Probable space group: P M M N
;
_chemical_formula_sum "Si O2"
_cell_formula_units_Z 64
_cell_length_a 9.764985
_cell_length_b 19.214424
_cell_length_c 18.776458
_cell_angle_alpha 90.000000
_cell_angle_beta 90.000000
_cell_angle_gamma 90.000000
_cell_volume 3522.999817
_symmetry_space_group_name_H-M "P M M N"
_symmetry_group_IT_number 59
_space_group.IT_coordinate_system_code '2'
_symmetry_cell_setting 'orthorhombic'
loop_
_space_group_symop_operation_xyz
x,y,z
1/2-x,1/2-y,z
1/2+x,-y,-z
-x,1/2+y,-z
-x,-y,-z
1/2+x,1/2+y,-z
1/2-x,y,z
x,1/2-y,z
loop_
_atom_site_type_symbol
_atom_site_label
_atom_site_fract_x
_atom_site_fract_y
_atom_site_fract_z
Si Si1 0.907521 0.572423 0.138730
Si Si2 0.091724 0.451775 0.550394
Si Si3 0.597429 0.826297 0.826928
Si Si4 0.096635 0.388106 0.316013
Si Si5 0.090572 0.831437 0.051646
Si Si6 0.092620 0.011775 0.709549
Si Si7 0.908244 0.078936 0.087309
Si Si8 0.589985 0.674270 0.540463
O O1 0.750000 0.592616 0.124798
O O2 0.933930 0.562124 0.223189
O O3 0.944148 0.503405 0.091374
O O4 0.001398 0.637804 0.116352
O O5 0.250000 0.472251 0.536854
O O6 0.054245 0.453489 0.633739
O O7 0.061746 0.372234 0.528611
O O8 0.000000 0.500000 0.500000
O O9 0.750000 0.842423 0.856730
O O10 0.549520 0.750000 0.852712
O O11 0.601246 0.825852 0.741013
O O12 0.493934 0.884605 0.851693
O O13 0.250000 0.417509 0.330319
O O14 0.026589 0.361790 0.389097
O O15 0.004644 0.446734 0.280362
O O16 0.250000 0.837485 0.071378
O O17 0.052637 0.750000 0.036754
O O18 0.054001 0.882147 0.985839
O O19 0.250000 0.987051 0.710090
O O20 0.750000 0.089538 0.106189
O O21 0.750000 0.683080 0.555607
O O22 0.522595 0.750000 0.527721
#
# Coordination Sequence:
#
# PCOD8239757 Si02
#       8
#     8   8   8   8   8   8   8   8
#     4  10  21  37  57  81 109 142 180 222 268 317
#     4  10  19  32  53  78 105 138 175 217 260 305
#     4  10  20  31  46  75 112 144 177 218 260 310
#     4  10  18  30  50  74 102 139 180 217 258 311
#     4  10  22  39  58  81 107 138 180 226 270 320
#     4  10  20  34  52  79 111 137 174 224 265 311
#     4  10  20  36  57  80 108 142 177 215 265 325
#     4   9  17  30  49  74 103 136 176 217 258 307
#
# _framework density 18.166336000000001
#
# number of rings (size 3 to 8) (size 9 to 14) (size 15 to 20)
#    0.000    2.125    2.500    1.125    0.000    4.000 
#    0.000    0.625    0.000    4.500    0.000    0.000 
#    0.000    0.000    0.000    0.000    0.000    0.000 
#
# Total GULP energy -793194.449797 kJ/mol
# GULP energy per Si atom -12393.663278 kJ/mol
# Density = 1.812499 g / cm^3
# Si number density = 18.166336 Si / 1000 Ang^3
#
#
#
# Elastic Constant Matrix: (Units=GPa)
#
#
# Indices 1 2 3 4 5 6 
#
# 1 50.9648 41.5319 38.1319 0.0000 0.0000 0.0000
# 2 41.5319 91.7111 49.6023 0.0000 0.0000 0.0000
# 3 38.1319 49.6023 105.9732 0.0000 0.0000 0.0000
# 4 0.0000 0.0000 0.0000 25.4887 0.0000 0.0000
# 5 0.0000 0.0000 0.0000 0.0000 23.8481 0.0000
# 6 0.0000 0.0000 0.0000 0.0000 0.0000 24.3567
#
#
#
# Elastic Compliance Matrix: (Units=1/GPa)
#
#
# Indices 1 2 3 4 5 6 
#
# 1 0.034418 -0.011901 -0.006814 0.000000 0.000000 0.000000
# 2 -0.011901 0.018715 -0.004478 0.000000 0.000000 0.000000
# 3 -0.006814 -0.004478 0.013984 0.000000 0.000000 0.000000
# 4 0.000000 0.000000 0.000000 0.039233 0.000000 0.000000
# 5 0.000000 0.000000 0.000000 0.000000 0.041932 0.000000
# 6 0.000000 0.000000 0.000000 0.000000 0.000000 0.041057
#
#
# Mechanical properties :
#
#
# Convention : Reuss Voigt Hill
#
# Bulk Modulus (GPa) = 48.23510 56.35348 52.29429
# Shear Modulus (GPa) = 20.60715 22.69754 21.65235
#
# Velocity S-wave (km/s) = 3.37168 3.53856 3.45613
# Velocity P-wave (km/s) = 6.46275 6.91255 6.69143
#
# Compressibility (1/GPa) = 0.02073179
#
# Stress axis : x y z
#
# Youngs Moduli (GPa) = 29.05462 53.43340 71.51034
#
# Poissons Ratio (x) = 0.63591 0.48728
# Poissons Ratio (y) = 0.34578 0.32019
# Poissons Ratio (z) = 0.19798 0.23925
#
# Static dielectric constant tensor:
#      x y z
#    x 3.222500 0.000000 0.000000 
#    y 0.000000 3.316620 0.000000 
#    z 0.000000 0.000000 3.385100 
# 
# 
# High freq. dielectric constant tensor:
#      x y z
#    x 1.690160 0.000000 0.000000 
#    y 0.000000 1.692750 0.000000 
#    z 0.000000 0.000000 1.706530 
# 
# From -- ./inp_files/26192.got.cif
#   From: 2010.03.12/outbox.cif.g09.slc.cpg/sg59_14_cif.got.tgz:26192.got - 2010.04.16 16:29:54.
