data_PCOD8239056
_publ_section_title
;
Structure prediction by ZEFSAII (Michael W. Deem and Ramdas Pophale) SiO2 
 PCOD8239056
Probable space group: P M M N
;
_chemical_formula_sum "Si O2"
_cell_formula_units_Z 48
_cell_length_a 21.500600
_cell_length_b 9.056017
_cell_length_c 15.221884
_cell_angle_alpha 90.000000
_cell_angle_beta 90.000000
_cell_angle_gamma 90.000000
_cell_volume 2963.849976
_symmetry_space_group_name_H-M "P M M N"
_symmetry_group_IT_number 59
_space_group.IT_coordinate_system_code '2'
_symmetry_cell_setting 'orthorhombic'
loop_
_space_group_symop_operation_xyz
x,y,z
1/2-x,1/2-y,z
1/2+x,-y,-z
-x,1/2+y,-z
-x,-y,-z
1/2+x,1/2+y,-z
1/2-x,y,z
x,1/2-y,z
loop_
_atom_site_type_symbol
_atom_site_label
_atom_site_fract_x
_atom_site_fract_y
_atom_site_fract_z
Si Si1 0.562664 0.580530 0.979917
Si Si2 0.178823 0.422419 0.681012
Si Si3 0.038836 0.578173 0.376194
Si Si4 0.958553 0.576622 0.793542
Si Si5 0.915470 0.422372 0.435198
Si Si6 0.587465 0.578553 0.166306
O O1 0.544521 0.750000 0.975476
O O2 0.583973 0.536662 0.880369
O O3 0.500000 0.500000 0.000000
O O4 0.608261 0.549786 0.063344
O O5 0.250000 0.471464 0.689935
O O6 0.172452 0.250000 0.659439
O O7 0.149082 0.513526 0.600749
O O8 0.145652 0.463581 0.772852
O O9 0.027988 0.750000 0.360409
O O10 0.071245 0.506336 0.290488
O O11 0.082255 0.547826 0.460274
O O12 0.971430 0.505425 0.387228
O O13 0.959237 0.750000 0.773733
O O14 0.029102 0.521690 0.807656
O O15 0.921215 0.250000 0.413967
O O16 0.568643 0.750000 0.179123
#
# Coordination Sequence:
#
# PCOD8239056 Si02
#       6
#     8   8   8   8   8   8
#     4   8  15  25  38  59  86 115 145 176 212 255
#     4  10  20  32  47  67  91 121 154 186 224 270
#     4  10  19  30  45  65  91 120 148 183 233 283
#     4  10  17  25  41  66  91 116 148 182 221 267
#     4  10  20  32  46  65  88 117 153 191 229 271
#     4   9  16  28  43  59  87 122 150 180 219 263
#
# _framework density 16.195152
#
# number of rings (size 3 to 8) (size 9 to 14) (size 15 to 20)
#    0.000    2.500    1.667    1.500    0.000    3.000 
#    0.000    0.000    0.000    0.000    0.000    1.167 
#    0.000    4.000    0.000    0.000    0.000    0.000 
#
# Total GULP energy -594686.377036 kJ/mol
# GULP energy per Si atom -12389.299522 kJ/mol
# Density = 1.615829 g / cm^3
# Si number density = 16.195152 Si / 1000 Ang^3
#
#
#
# Elastic Constant Matrix: (Units=GPa)
#
#
# Indices 1 2 3 4 5 6 
#
# 1 56.9463 23.5542 44.2766 0.0000 0.0000 0.0000
# 2 23.5542 66.8312 56.0013 0.0000 0.0000 0.0000
# 3 44.2766 56.0013 162.7589 0.0000 0.0000 0.0000
# 4 0.0000 0.0000 0.0000 27.0363 0.0000 0.0000
# 5 0.0000 0.0000 0.0000 0.0000 17.2209 0.0000
# 6 0.0000 0.0000 0.0000 0.0000 0.0000 15.4960
#
#
#
# Elastic Compliance Matrix: (Units=1/GPa)
#
#
# Indices 1 2 3 4 5 6 
#
# 1 0.023017 -0.004026 -0.004876 0.000000 0.000000 0.000000
# 2 -0.004026 0.021729 -0.006381 0.000000 0.000000 0.000000
# 3 -0.004876 -0.006381 0.009666 0.000000 0.000000 0.000000
# 4 0.000000 0.000000 0.000000 0.036987 0.000000 0.000000
# 5 0.000000 0.000000 0.000000 0.000000 0.058069 0.000000
# 6 0.000000 0.000000 0.000000 0.000000 0.000000 0.064533
#
#
# Mechanical properties :
#
#
# Convention : Reuss Voigt Hill
#
# Bulk Modulus (GPa) = 41.93706 59.35564 50.64635
# Shear Modulus (GPa) = 19.80063 22.79758 21.29910
#
# Velocity S-wave (km/s) = 3.50040 3.75598 3.63044
# Velocity P-wave (km/s) = 6.50293 7.45249 6.99385
#
# Compressibility (1/GPa) = 0.02384526
#
# Stress axis : x y z
#
# Youngs Moduli (GPa) = 43.44607 46.02099 103.45337
#
# Poissons Ratio (x) = 0.18529 0.50446
# Poissons Ratio (y) = 0.17492 0.66016
# Poissons Ratio (z) = 0.21185 0.29367
#
# Static dielectric constant tensor:
#      x y z
#    x 2.573880 0.000000 0.000000 
#    y 0.000000 2.864360 0.000000 
#    z 0.000000 0.000000 3.860480 
# 
# 
# High freq. dielectric constant tensor:
#      x y z
#    x 1.547690 0.000000 0.000000 
#    y 0.000000 1.633270 0.000000 
#    z 0.000000 0.000000 1.652110 
# 
# From -- ./inp_files/20742.got.cif
#   From: 2010.03.12/outbox.cif.g09.slc.cpg/sg59_11_cif.got.tgz:20742.got - 2010.04.16 16:29:54.
