data_PCOD8239635
_publ_section_title
;
Structure prediction by ZEFSAII (Michael W. Deem and Ramdas Pophale) SiO2 
 PCOD8239635
Probable space group: P M M N
;
_chemical_formula_sum "Si O2"
_cell_formula_units_Z 56
_cell_length_a 21.865354
_cell_length_b 9.172023
_cell_length_c 14.843611
_cell_angle_alpha 90.000000
_cell_angle_beta 90.000000
_cell_angle_gamma 90.000000
_cell_volume 2976.879206
_symmetry_space_group_name_H-M "P M M N"
_symmetry_group_IT_number 59
_space_group.IT_coordinate_system_code '2'
_symmetry_cell_setting 'orthorhombic'
loop_
_space_group_symop_operation_xyz
x,y,z
1/2-x,1/2-y,z
1/2+x,-y,-z
-x,1/2+y,-z
-x,-y,-z
1/2+x,1/2+y,-z
1/2-x,y,z
x,1/2-y,z
loop_
_atom_site_type_symbol
_atom_site_label
_atom_site_fract_x
_atom_site_fract_y
_atom_site_fract_z
Si Si1 0.578703 0.422063 0.839888
Si Si2 0.870250 0.421329 0.367186
Si Si3 0.542962 0.077481 0.206911
Si Si4 0.680706 0.920047 0.525365
Si Si5 0.821050 0.917149 0.731959
Si Si6 0.250000 0.576369 0.931311
Si Si7 0.750000 0.423101 0.269717
Si Si8 0.117574 0.922239 0.965807
O O1 0.572526 0.250000 0.827742
O O2 0.522210 0.500627 0.792891
O O3 0.641114 0.473935 0.794124
O O4 0.579960 0.466839 0.945402
O O5 0.868066 0.250000 0.383888
O O6 0.927011 0.463018 0.303136
O O7 0.870521 0.499439 0.464380
O O8 0.809822 0.481890 0.318851
O O9 0.534055 0.250000 0.197571
O O10 0.584062 0.016729 0.123773
O O11 0.750000 0.977333 0.506285
O O12 0.677455 0.750000 0.504779
O O13 0.663324 0.952111 0.628389
O O14 0.750000 0.945765 0.751539
O O15 0.838160 0.750000 0.754182
O O16 0.250000 0.750000 0.933868
O O17 0.250000 0.515077 0.830409
O O18 0.312770 0.516354 0.976218
O O19 0.750000 0.250000 0.266961
O O20 0.121830 0.750000 0.955255
#
# Coordination Sequence:
#
# PCOD8239635 Si02
#       8
#     8   8   8   8   8   4   4   8
#     4  11  23  36  54  81 108 140 184 230 271 305
#     4  10  18  29  52  83 109 137 177 218 259 311
#     4  10  20  36  55  77 108 150 186 212 255 322
#     4   9  18  33  54  80 109 140 171 209 269 332
#     4   9  20  40  61  79 104 140 179 219 267 326
#     4   9  14  26  48  76 109 138 170 217 263 312
#     4   9  14  24  45  76 109 136 168 215 259 306
#     4   9  18  31  51  79 110 143 179 218 265 316
#
# _framework density 18.811646
#
# number of rings (size 3 to 8) (size 9 to 14) (size 15 to 20)
#    0.000    2.429    2.143    1.714    1.000    1.429 
#    0.000    2.857    0.000    0.000    0.000    0.000 
#    0.000    0.000    0.000    0.000    0.000    0.000 
#
# Total GULP energy -694205.105348 kJ/mol
# GULP energy per Si atom -12396.519738 kJ/mol
# Density = 1.876883 g / cm^3
# Si number density = 18.811646 Si / 1000 Ang^3
#
#
#
# Elastic Constant Matrix: (Units=GPa)
#
#
# Indices 1 2 3 4 5 6 
#
# 1 87.3347 25.5934 29.8427 0.0000 0.0000 0.0000
# 2 25.5934 37.5672 32.9377 0.0000 0.0000 0.0000
# 3 29.8427 32.9377 83.1079 0.0000 0.0000 0.0000
# 4 0.0000 0.0000 0.0000 25.1415 0.0000 0.0000
# 5 0.0000 0.0000 0.0000 0.0000 25.0720 0.0000
# 6 0.0000 0.0000 0.0000 0.0000 0.0000 25.9528
#
#
#
# Elastic Compliance Matrix: (Units=1/GPa)
#
#
# Indices 1 2 3 4 5 6 
#
# 1 0.014516 -0.008152 -0.001982 0.000000 0.000000 0.000000
# 2 -0.008152 0.045372 -0.015055 0.000000 0.000000 0.000000
# 3 -0.001982 -0.015055 0.018711 0.000000 0.000000 0.000000
# 4 0.000000 0.000000 0.000000 0.039775 0.000000 0.000000
# 5 0.000000 0.000000 0.000000 0.000000 0.039885 0.000000
# 6 0.000000 0.000000 0.000000 0.000000 0.000000 0.038531
#
#
# Mechanical properties :
#
#
# Convention : Reuss Voigt Hill
#
# Bulk Modulus (GPa) = 35.43317 42.75082 39.09199
# Shear Modulus (GPa) = 19.48743 23.20901 21.34822
#
# Velocity S-wave (km/s) = 3.22207 3.51630 3.37239
# Velocity P-wave (km/s) = 5.72005 6.26585 5.99916
#
# Compressibility (1/GPa) = 0.02822215
#
# Stress axis : x y z
#
# Youngs Moduli (GPa) = 68.88796 22.03982 53.44516
#
# Poissons Ratio (x) = 0.17967 0.10591
# Poissons Ratio (y) = 0.56158 0.80461
# Poissons Ratio (z) = 0.13652 0.33181
#
# Static dielectric constant tensor:
#      x y z
#    x 3.429820 0.000000 0.000000 
#    y 0.000000 3.041670 0.000000 
#    z 0.000000 0.000000 3.527220 
# 
# 
# High freq. dielectric constant tensor:
#      x y z
#    x 1.726610 0.000000 0.000000 
#    y 0.000000 1.693040 0.000000 
#    z 0.000000 0.000000 1.736220 
# 
# From -- ./inp_files/24408.got.cif
#   From: 2010.03.12/outbox.cif.g09.slc.cpg/sg59_13_cif.got.tgz:24408.got - 2010.04.16 16:29:54.
