data_PCOD8239334
_publ_section_title
;
Structure prediction by ZEFSAII (Michael W. Deem and Ramdas Pophale) SiO2 
 PCOD8239334
Probable space group: P M M N
;
_chemical_formula_sum "Si O2"
_cell_formula_units_Z 64
_cell_length_a 9.200341
_cell_length_b 22.830415
_cell_length_c 20.417848
_cell_angle_alpha 90.000000
_cell_angle_beta 90.000000
_cell_angle_gamma 90.000000
_cell_volume 4288.720034
_symmetry_space_group_name_H-M "P M M N"
_symmetry_group_IT_number 59
_space_group.IT_coordinate_system_code '2'
_symmetry_cell_setting 'orthorhombic'
loop_
_space_group_symop_operation_xyz
x,y,z
1/2-x,1/2-y,z
1/2+x,-y,-z
-x,1/2+y,-z
-x,-y,-z
1/2+x,1/2+y,-z
1/2-x,y,z
x,1/2-y,z
loop_
_atom_site_type_symbol
_atom_site_label
_atom_site_fract_x
_atom_site_fract_y
_atom_site_fract_z
Si Si1 0.582200 0.442649 0.479860
Si Si2 0.582351 0.473831 0.201255
Si Si3 0.081072 0.595655 0.386072
Si Si4 0.419653 0.107707 0.831040
Si Si5 0.585322 0.080941 0.956561
Si Si6 0.919703 0.478905 0.345139
Si Si7 0.419500 0.817671 0.275543
Si Si8 0.413909 0.445033 0.078745
O O1 0.500000 0.500000 0.500000
O O2 0.750000 0.458297 0.483966
O O3 0.544936 0.393642 0.535561
O O4 0.543730 0.430625 0.402815
O O5 0.750000 0.460262 0.185407
O O6 0.551806 0.543075 0.196947
O O7 0.535442 0.453058 0.274287
O O8 0.486136 0.437369 0.150045
O O9 0.250000 0.581825 0.376785
O O10 0.037488 0.653079 0.345166
O O11 0.998253 0.539906 0.358030
O O12 0.250000 0.120302 0.840822
O O13 0.498658 0.115928 0.900755
O O14 0.485781 0.154757 0.781862
O O15 0.750000 0.104702 0.960874
O O16 0.584571 0.012590 0.940708
O O17 0.505337 0.091974 0.025759
O O18 0.750000 0.494128 0.342703
O O19 0.250000 0.827294 0.259266
O O20 0.459817 0.750000 0.281846
O O21 0.250000 0.420635 0.080995
#
# Coordination Sequence:
#
# PCOD8239334 Si02
#       8
#     8   8   8   8   8   8   8   8
#     4   8  14  23  36  53  71  92 120 154 189 229
#     4   9  16  24  35  52  75 101 125 153 190 228
#     4   9  16  26  39  53  70  94 126 161 195 231
#     4  10  18  28  41  55  71  95 128 163 197 232
#     4   9  16  26  39  53  72  97 125 156 189 225
#     4   9  15  24  37  54  75  98 124 154 192 233
#     4  10  20  31  41  54  74 100 131 167 204 237
#     4   9  16  24  35  53  74  98 127 156 182 215
#
# _framework density 14.922867999999999
#
# number of rings (size 3 to 8) (size 9 to 14) (size 15 to 20)
#    0.000    2.875    1.250    1.125    0.000    4.250 
#    0.000    0.000    0.000    0.000    0.000    0.000 
#    0.000    0.000    0.000    1.125    0.000   21.250 
#
# Total GULP energy -792905.674229 kJ/mol
# GULP energy per Si atom -12389.151160 kJ/mol
# Density = 1.488890 g / cm^3
# Si number density = 14.922868 Si / 1000 Ang^3
#
#
#
# Elastic Constant Matrix: (Units=GPa)
#
#
# Indices 1 2 3 4 5 6 
#
# 1 74.6119 23.4655 64.2711 0.0000 0.0000 0.0000
# 2 23.4655 31.7331 40.2740 0.0000 0.0000 0.0000
# 3 64.2711 40.2740 172.2665 0.0000 0.0000 0.0000
# 4 0.0000 0.0000 0.0000 13.1334 0.0000 0.0000
# 5 0.0000 0.0000 0.0000 0.0000 21.8271 0.0000
# 6 0.0000 0.0000 0.0000 0.0000 0.0000 11.0420
#
#
#
# Elastic Compliance Matrix: (Units=1/GPa)
#
#
# Indices 1 2 3 4 5 6 
#
# 1 0.021079 -0.007971 -0.006001 0.000000 0.000000 0.000000
# 2 -0.007971 0.047822 -0.008206 0.000000 0.000000 0.000000
# 3 -0.006001 -0.008206 0.009962 0.000000 0.000000 0.000000
# 4 0.000000 0.000000 0.000000 0.076141 0.000000 0.000000
# 5 0.000000 0.000000 0.000000 0.000000 0.045815 0.000000
# 6 0.000000 0.000000 0.000000 0.000000 0.000000 0.090564
#
#
# Mechanical properties :
#
#
# Convention : Reuss Voigt Hill
#
# Bulk Modulus (GPa) = 28.97974 59.40365 44.19169
# Shear Modulus (GPa) = 14.39919 19.24055 16.81987
#
# Velocity S-wave (km/s) = 3.10967 3.59462 3.36090
# Velocity P-wave (km/s) = 5.68816 7.55791 6.68869
#
# Compressibility (1/GPa) = 0.03450687
#
# Stress axis : x y z
#
# Youngs Moduli (GPa) = 47.44139 20.91076 100.37818
#
# Poissons Ratio (x) = 0.16668 0.60234
# Poissons Ratio (y) = 0.37816 0.82374
# Poissons Ratio (z) = 0.28468 0.17160
#
# Static dielectric constant tensor:
#      x y z
#    x 1.225190 0.000000 0.000000 
#    y 0.000000 2.313840 0.000000 
#    z 0.000000 0.000000 3.437630 
# 
# 
# High freq. dielectric constant tensor:
#      x y z
#    x 1.582050 0.000000 0.000000 
#    y 0.000000 1.485700 0.000000 
#    z 0.000000 0.000000 1.593860 
# 
# From -- ./inp_files/29735.got.cif
#   From: 2010.03.12/outbox.cif.g09.slc.cpg/sg59_15_cif.got.tgz:29735.got - 2010.04.16 16:29:54.
