data_PCOD8239655
_publ_section_title
;
Structure prediction by ZEFSAII (Michael W. Deem and Ramdas Pophale) SiO2 
 PCOD8239655
Probable space group: P M M N
;
_chemical_formula_sum "Si O2"
_cell_formula_units_Z 64
_cell_length_a 8.749641
_cell_length_b 30.045531
_cell_length_c 14.986619
_cell_angle_alpha 90.000000
_cell_angle_beta 90.000000
_cell_angle_gamma 90.000000
_cell_volume 3939.796449
_symmetry_space_group_name_H-M "P M M N"
_symmetry_group_IT_number 59
_space_group.IT_coordinate_system_code '2'
_symmetry_cell_setting 'orthorhombic'
loop_
_space_group_symop_operation_xyz
x,y,z
1/2-x,1/2-y,z
1/2+x,-y,-z
-x,1/2+y,-z
-x,-y,-z
1/2+x,1/2+y,-z
1/2-x,y,z
x,1/2-y,z
loop_
_atom_site_type_symbol
_atom_site_label
_atom_site_fract_x
_atom_site_fract_y
_atom_site_fract_z
Si Si1 0.073571 0.064683 0.949590
Si Si2 0.568384 0.298492 0.512013
Si Si3 0.428060 0.533477 0.879429
Si Si4 0.930392 0.559790 0.365299
Si Si5 0.569011 0.298082 0.712775
Si Si6 0.931603 0.393232 0.463998
Si Si7 0.931362 0.462024 0.320400
Si Si8 0.930321 0.388033 0.794864
O O1 0.250000 0.077795 0.945691
O O2 0.975733 0.101244 0.896275
O O3 0.040633 0.017557 0.903479
O O4 0.018998 0.064885 0.052067
O O5 0.750000 0.298004 0.512526
O O6 0.510223 0.250000 0.474613
O O7 0.506124 0.305151 0.612481
O O8 0.511675 0.341579 0.455360
O O9 0.250000 0.545029 0.886926
O O10 0.494497 0.542547 0.780418
O O11 0.750000 0.564519 0.376466
O O12 0.983073 0.508184 0.366268
O O13 0.012309 0.585649 0.444275
O O14 0.979773 0.579177 0.270406
O O15 0.750000 0.298371 0.708445
O O16 0.511331 0.250000 0.749513
O O17 0.512220 0.337684 0.776180
O O18 0.750000 0.395516 0.465875
O O19 0.995749 0.421193 0.379907
O O20 0.750000 0.461288 0.314726
O O21 0.750000 0.393559 0.779772
#
# Coordination Sequence:
#
# PCOD8239655 Si02
#       8
#     8   8   8   8   8   8   8   8
#     4  10  19  31  47  67  91 116 145 188 230 265
#     4   8  13  23  41  65  89 111 142 187 227 256
#     4   9  17  32  47  63  88 119 152 185 223 266
#     4  11  20  31  42  61  95 127 151 185 224 257
#     4   8  14  25  42  65  90 114 145 186 224 259
#     4  10  18  30  47  66  86 119 159 186 216 268
#     4   9  18  31  46  63  89 121 154 191 226 258
#     4  11  19  29  48  70  89 119 156 184 219 275
#
# _framework density 16.244492999999999
#
# number of rings (size 3 to 8) (size 9 to 14) (size 15 to 20)
#    0.000    2.500    2.500    2.250    0.000    0.500 
#    0.000    1.250    0.000    2.625    0.000    0.875 
#    0.000    5.000    0.000    0.000    0.000    0.000 
#
# Total GULP energy -793191.831250 kJ/mol
# GULP energy per Si atom -12393.622363 kJ/mol
# Density = 1.620752 g / cm^3
# Si number density = 16.244493 Si / 1000 Ang^3
#
#
#
# Elastic Constant Matrix: (Units=GPa)
#
#
# Indices 1 2 3 4 5 6 
#
# 1 16.1963 18.5027 7.4327 0.0000 0.0000 0.0000
# 2 18.5027 138.0049 53.3453 0.0000 0.0000 0.0000
# 3 7.4327 53.3453 78.7936 0.0000 0.0000 0.0000
# 4 0.0000 0.0000 0.0000 21.5468 0.0000 0.0000
# 5 0.0000 0.0000 0.0000 0.0000 19.2139 0.0000
# 6 0.0000 0.0000 0.0000 0.0000 0.0000 13.5528
#
#
#
# Elastic Compliance Matrix: (Units=1/GPa)
#
#
# Indices 1 2 3 4 5 6 
#
# 1 0.072917 -0.009640 -0.000352 0.000000 0.000000 0.000000
# 2 -0.009640 0.011089 -0.006598 0.000000 0.000000 0.000000
# 3 -0.000352 -0.006598 0.017192 0.000000 0.000000 0.000000
# 4 0.000000 0.000000 0.000000 0.046411 0.000000 0.000000
# 5 0.000000 0.000000 0.000000 0.000000 0.052046 0.000000
# 6 0.000000 0.000000 0.000000 0.000000 0.000000 0.073786
#
#
# Mechanical properties :
#
#
# Convention : Reuss Voigt Hill
#
# Bulk Modulus (GPa) = 14.70207 43.50624 29.10415
# Shear Modulus (GPa) = 15.18404 21.11029 18.14717
#
# Velocity S-wave (km/s) = 3.06063 3.60882 3.34597
# Velocity P-wave (km/s) = 4.64329 6.64869 5.73433
#
# Compressibility (1/GPa) = 0.06801763
#
# Stress axis : x y z
#
# Youngs Moduli (GPa) = 13.71420 90.17824 58.16742
#
# Poissons Ratio (x) = 0.86934 0.02046
# Poissons Ratio (y) = 0.13221 0.38380
# Poissons Ratio (z) = 0.00482 0.59502
#
# Static dielectric constant tensor:
#      x y z
#    x 2.777830 0.000000 0.000000 
#    y 0.000000 3.471790 0.000000 
#    z 0.000000 0.000000 3.100110 
# 
# 
# High freq. dielectric constant tensor:
#      x y z
#    x 1.598590 0.000000 0.000000 
#    y 0.000000 1.619560 0.000000 
#    z 0.000000 0.000000 1.605230 
# 
# From -- ./inp_files/21946.got.cif
#   From: 2010.03.12/outbox.cif.g09.slc.cpg/sg59_11_cif.got.tgz:21946.got - 2010.04.16 16:29:54.
