data_PCOD8239025
_publ_section_title
;
Structure prediction by ZEFSAII (Michael W. Deem and Ramdas Pophale) SiO2 
 PCOD8239025
Probable space group: P M M N
;
_chemical_formula_sum "Si O2"
_cell_formula_units_Z 56
_cell_length_a 13.239558
_cell_length_b 28.501067
_cell_length_c 9.593989
_cell_angle_alpha 90.000000
_cell_angle_beta 90.000000
_cell_angle_gamma 90.000000
_cell_volume 3620.210484
_symmetry_space_group_name_H-M "P M M N"
_symmetry_group_IT_number 59
_space_group.IT_coordinate_system_code '2'
_symmetry_cell_setting 'orthorhombic'
loop_
_space_group_symop_operation_xyz
x,y,z
1/2-x,1/2-y,z
1/2+x,-y,-z
-x,1/2+y,-z
-x,-y,-z
1/2+x,1/2+y,-z
1/2-x,y,z
x,1/2-y,z
loop_
_atom_site_type_symbol
_atom_site_label
_atom_site_fract_x
_atom_site_fract_y
_atom_site_fract_z
Si Si1 0.557698 0.592513 0.302517
Si Si2 0.365250 0.989153 0.646536
Si Si3 0.130686 0.115396 0.995630
Si Si4 0.363612 0.958669 0.332205
Si Si5 0.631705 0.870173 0.575046
Si Si6 0.869579 0.801894 0.808951
Si Si7 0.942749 0.949558 0.775721
O O1 0.616853 0.544252 0.331375
O O2 0.437626 0.583923 0.292299
O O3 0.576313 0.629400 0.426667
O O4 0.599136 0.616758 0.164130
O O5 0.250000 0.976788 0.685795
O O6 0.389405 0.976807 0.486926
O O7 0.438433 0.958400 0.745104
O O8 0.250000 0.107015 0.014580
O O9 0.097356 0.165143 0.062342
O O10 0.070988 0.073149 0.071984
O O11 0.250000 0.939943 0.318382
O O12 0.382859 0.001366 0.226067
O O13 0.750000 0.868075 0.547717
O O14 0.593862 0.825159 0.663450
O O15 0.606933 0.917001 0.659428
O O16 0.750000 0.797966 0.806654
O O17 0.918166 0.750000 0.824838
#
# Coordination Sequence:
#
# PCOD8239025 Si02
#       7
#     8   8   8   8   8   8   8
#     4  11  19  30  42  67  92 119 156 189 221 261
#     4  10  18  28  44  64  91 123 158 199 228 244
#     4  10  20  30  45  66  94 124 148 182 224 269
#     4  10  18  29  45  63  89 124 158 195 228 251
#     4  10  16  26  47  65  85 114 151 186 215 259
#     4   8  16  31  48  66  88 116 144 174 221 277
#     4  10  17  30  43  63  85 124 164 184 213 261
#
# _framework density 15.468712999999999
#
# number of rings (size 3 to 8) (size 9 to 14) (size 15 to 20)
#    0.000    2.143    2.857    4.286    0.000    2.286 
#    0.000    2.857    0.000    3.429    0.000    0.000 
#    0.000   21.714    0.000    0.000    0.000    0.000 
#
# Total GULP energy -694322.685694 kJ/mol
# GULP energy per Si atom -12398.619387 kJ/mol
# Density = 1.543351 g / cm^3
# Si number density = 15.468713 Si / 1000 Ang^3
#
#
#
# Elastic Constant Matrix: (Units=GPa)
#
#
# Indices 1 2 3 4 5 6 
#
# 1 63.5287 22.7997 7.0974 0.0000 0.0000 0.0000
# 2 22.7997 77.1743 37.2378 0.0000 0.0000 0.0000
# 3 7.0974 37.2378 87.7226 0.0000 0.0000 0.0000
# 4 0.0000 0.0000 0.0000 15.4885 0.0000 0.0000
# 5 0.0000 0.0000 0.0000 0.0000 20.9694 0.0000
# 6 0.0000 0.0000 0.0000 0.0000 0.0000 13.0650
#
#
#
# Elastic Compliance Matrix: (Units=1/GPa)
#
#
# Indices 1 2 3 4 5 6 
#
# 1 0.017676 -0.005699 0.000989 0.000000 0.000000 0.000000
# 2 -0.005699 0.018133 -0.007236 0.000000 0.000000 0.000000
# 3 0.000989 -0.007236 0.014391 0.000000 0.000000 0.000000
# 4 0.000000 0.000000 0.000000 0.064564 0.000000 0.000000
# 5 0.000000 0.000000 0.000000 0.000000 0.047689 0.000000
# 6 0.000000 0.000000 0.000000 0.000000 0.000000 0.076540
#
#
# Mechanical properties :
#
#
# Convention : Reuss Voigt Hill
#
# Bulk Modulus (GPa) = 38.01205 40.29949 39.15577
# Shear Modulus (GPa) = 18.40571 20.65730 19.53151
#
# Velocity S-wave (km/s) = 3.45319 3.65831 3.55723
# Velocity P-wave (km/s) = 6.36602 6.62972 6.49920
#
# Compressibility (1/GPa) = 0.02630745
#
# Stress axis : x y z
#
# Youngs Moduli (GPa) = 56.57451 55.14796 69.48648
#
# Poissons Ratio (x) = 0.31430 -0.06874
# Poissons Ratio (y) = 0.32243 0.50282
# Poissons Ratio (z) = -0.05596 0.39907
#
# Static dielectric constant tensor:
#      x y z
#    x 2.926760 0.000000 0.000000 
#    y 0.000000 2.931090 0.000000 
#    z 0.000000 0.000000 2.978570 
# 
# 
# High freq. dielectric constant tensor:
#      x y z
#    x 1.578290 0.000000 0.000000 
#    y 0.000000 1.560260 0.000000 
#    z 0.000000 0.000000 1.593160 
# 
# From -- ./inp_files/9704.got.cif
#   From: 2010.03.12/outbox.cif.g09.slc.cpg/sg59_5_cif.got.tgz:9704.got - 2010.04.16 16:29:54.
