data_PCOD8239050
_publ_section_title
;
Structure prediction by ZEFSAII (Michael W. Deem and Ramdas Pophale) SiO2 
 PCOD8239050
Probable space group: P M M N
;
_chemical_formula_sum "Si O2"
_cell_formula_units_Z 56
_cell_length_a 8.994466
_cell_length_b 18.248746
_cell_length_c 18.410779
_cell_angle_alpha 90.000000
_cell_angle_beta 90.000000
_cell_angle_gamma 90.000000
_cell_volume 3021.903389
_symmetry_space_group_name_H-M "P M M N"
_symmetry_group_IT_number 59
_space_group.IT_coordinate_system_code '2'
_symmetry_cell_setting 'orthorhombic'
loop_
_space_group_symop_operation_xyz
x,y,z
1/2-x,1/2-y,z
1/2+x,-y,-z
-x,1/2+y,-z
-x,-y,-z
1/2+x,1/2+y,-z
1/2-x,y,z
x,1/2-y,z
loop_
_atom_site_type_symbol
_atom_site_label
_atom_site_fract_x
_atom_site_fract_y
_atom_site_fract_z
Si Si1 0.575045 0.589112 0.785126
Si Si2 0.426572 0.900781 0.639435
Si Si3 0.915132 0.914570 0.065961
Si Si4 0.077664 0.066950 0.622941
Si Si5 0.077423 0.166251 0.495174
Si Si6 0.917089 0.089600 0.072528
Si Si7 0.422540 0.436971 0.780615
O O1 0.750000 0.602216 0.781802
O O2 0.497836 0.626785 0.715323
O O3 0.512330 0.622730 0.860731
O O4 0.536637 0.503644 0.783736
O O5 0.250000 0.896823 0.646383
O O6 0.483370 0.847296 0.577051
O O7 0.482629 0.983571 0.621453
O O8 0.750000 0.891585 0.042226
O O9 0.951057 0.885349 0.148381
O O10 0.928536 0.002092 0.071931
O O11 0.023552 0.880969 0.005370
O O12 0.250000 0.065428 0.605365
O O13 0.005697 0.116778 0.559949
O O14 0.049561 0.103098 0.703175
O O15 0.250000 0.147894 0.479943
O O16 0.058027 0.250000 0.519262
O O17 0.750000 0.117690 0.081444
O O18 0.250000 0.466122 0.783079
#
# Coordination Sequence:
#
# PCOD8239050 Si02
#       7
#     8   8   8   8   8   8   8
#     4  10  17  25  39  59  83 110 145 186 226 267
#     4  10  19  32  49  66  88 119 155 190 224 268
#     4   8  13  20  31  49  75 109 146 182 218 257
#     4   8  15  29  48  68  90 119 153 188 226 267
#     4  10  20  33  49  70  95 119 146 184 229 274
#     4   9  15  22  32  49  78 114 147 178 217 265
#     4   8  14  25  39  56  81 113 149 185 221 263
#
# _framework density 18.531366999999999
#
# number of rings (size 3 to 8) (size 9 to 14) (size 15 to 20)
#    0.000    3.000    0.000    4.286    0.000    3.714 
#    0.000    2.857    0.000    0.000    0.000    0.000 
#    0.000    1.143    0.000    8.571    0.000    6.000 
#
# Total GULP energy -693789.619855 kJ/mol
# GULP energy per Si atom -12389.100355 kJ/mol
# Density = 1.848919 g / cm^3
# Si number density = 18.531367 Si / 1000 Ang^3
#
#
#
# Elastic Constant Matrix: (Units=GPa)
#
#
# Indices 1 2 3 4 5 6 
#
# 1 92.8494 10.9399 50.6686 0.0000 0.0000 0.0000
# 2 10.9399 20.7351 16.8379 0.0000 0.0000 0.0000
# 3 50.6686 16.8379 155.9087 0.0000 0.0000 0.0000
# 4 0.0000 0.0000 0.0000 3.3128 0.0000 0.0000
# 5 0.0000 0.0000 0.0000 0.0000 30.6448 0.0000
# 6 0.0000 0.0000 0.0000 0.0000 0.0000 9.7576
#
#
#
# Elastic Compliance Matrix: (Units=1/GPa)
#
#
# Indices 1 2 3 4 5 6 
#
# 1 0.013369 -0.003864 -0.003927 0.000000 0.000000 0.000000
# 2 -0.003864 0.053981 -0.004574 0.000000 0.000000 0.000000
# 3 -0.003927 -0.004574 0.008184 0.000000 0.000000 0.000000
# 4 0.000000 0.000000 0.000000 0.301855 0.000000 0.000000
# 5 0.000000 0.000000 0.000000 0.000000 0.032632 0.000000
# 6 0.000000 0.000000 0.000000 0.000000 0.000000 0.102484
#
#
# Mechanical properties :
#
#
# Convention : Reuss Voigt Hill
#
# Bulk Modulus (GPa) = 19.68408 47.37623 33.53016
# Shear Modulus (GPa) = 9.02250 21.47950 15.25100
#
# Velocity S-wave (km/s) = 2.20892 3.40823 2.87188
# Velocity P-wave (km/s) = 4.14136 6.41163 5.39722
#
# Compressibility (1/GPa) = 0.05080248
#
# Stress axis : x y z
#
# Youngs Moduli (GPa) = 74.80225 18.52519 122.18468
#
# Poissons Ratio (x) = 0.07158 0.47986
# Poissons Ratio (y) = 0.28905 0.55888
# Poissons Ratio (z) = 0.29377 0.08473
#
# Static dielectric constant tensor:
#      x y z
#    x 3.254120 0.000000 0.000000 
#    y 0.000000 2.728000 0.000000 
#    z 0.000000 0.000000 4.089890 
# 
# 
# High freq. dielectric constant tensor:
#      x y z
#    x 1.705270 0.000000 0.000000 
#    y 0.000000 1.630380 0.000000 
#    z 0.000000 0.000000 1.752310 
# 
# From -- ./inp_files/26049.got.cif
#   From: 2010.03.12/outbox.cif.g09.slc.cpg/sg59_14_cif.got.tgz:26049.got - 2010.04.16 16:29:54.
