data_PCOD8239395
_publ_section_title
;
Structure prediction by ZEFSAII (Michael W. Deem and Ramdas Pophale) SiO2 
 PCOD8239395
Probable space group: P M M N
;
_chemical_formula_sum "Si O2"
_cell_formula_units_Z 48
_cell_length_a 9.079917
_cell_length_b 21.422738
_cell_length_c 15.027631
_cell_angle_alpha 90.000000
_cell_angle_beta 90.000000
_cell_angle_gamma 90.000000
_cell_volume 2923.124935
_symmetry_space_group_name_H-M "P M M N"
_symmetry_group_IT_number 59
_space_group.IT_coordinate_system_code '2'
_symmetry_cell_setting 'orthorhombic'
loop_
_space_group_symop_operation_xyz
x,y,z
1/2-x,1/2-y,z
1/2+x,-y,-z
-x,1/2+y,-z
-x,-y,-z
1/2+x,1/2+y,-z
1/2-x,y,z
x,1/2-y,z
loop_
_atom_site_type_symbol
_atom_site_label
_atom_site_fract_x
_atom_site_fract_y
_atom_site_fract_z
Si Si1 0.420837 0.912836 0.549849
Si Si2 0.576386 0.044407 0.800152
Si Si3 0.421107 0.049989 0.620027
Si Si4 0.575975 0.320440 0.298115
Si Si5 0.420592 0.061993 0.969548
Si Si6 0.582397 0.901825 0.840720
O O1 0.250000 0.905944 0.523940
O O2 0.517153 0.908338 0.460715
O O3 0.476413 0.857983 0.614655
O O4 0.450153 0.977499 0.600367
O O5 0.750000 0.055677 0.801637
O O6 0.509471 0.068995 0.708114
O O7 0.501847 0.085246 0.879685
O O8 0.534193 0.971853 0.813819
O O9 0.250000 0.064821 0.633440
O O10 0.750000 0.322424 0.291520
O O11 0.516263 0.250000 0.305828
O O12 0.516626 0.351372 0.208403
O O13 0.250000 0.048176 0.948794
O O14 0.435392 0.109712 0.052748
O O15 0.500000 0.000000 0.000000
O O16 0.750000 0.891351 0.810924
#
# Coordination Sequence:
#
# PCOD8239395 Si02
#       6
#     8   8   8   8   8   8
#     4   9  18  31  44  64  92 122 154 194 236 277
#     4  10  18  28  44  68  95 124 153 186 229 280
#     4  10  18  28  46  68  91 124 155 189 236 285
#     4  10  20  33  49  68  91 123 161 196 232 274
#     4   9  17  28  42  64  92 122 153 185 223 270
#     4   9  18  30  44  64  92 123 154 189 228 272
#
# _framework density 16.420781999999999
#
# number of rings (size 3 to 8) (size 9 to 14) (size 15 to 20)
#    0.000    2.500    1.667    2.500    0.000    5.000 
#    0.000    0.000    0.000    0.000    0.000    1.167 
#    0.000    6.667    0.000    0.000    0.000    0.000 
#
# Total GULP energy -595088.897577 kJ/mol
# GULP energy per Si atom -12397.685366 kJ/mol
# Density = 1.638341 g / cm^3
# Si number density = 16.420782 Si / 1000 Ang^3
#
#
#
# Elastic Constant Matrix: (Units=GPa)
#
#
# Indices 1 2 3 4 5 6 
#
# 1 83.3745 23.7533 66.6058 0.0000 0.0000 0.0000
# 2 23.7533 57.2231 39.2944 0.0000 0.0000 0.0000
# 3 66.6058 39.2944 148.2897 0.0000 0.0000 0.0000
# 4 0.0000 0.0000 0.0000 15.5557 0.0000 0.0000
# 5 0.0000 0.0000 0.0000 0.0000 37.1931 0.0000
# 6 0.0000 0.0000 0.0000 0.0000 0.0000 15.2543
#
#
#
# Elastic Compliance Matrix: (Units=1/GPa)
#
#
# Indices 1 2 3 4 5 6 
#
# 1 0.018989 -0.002476 -0.007873 0.000000 0.000000 0.000000
# 2 -0.002476 0.021685 -0.004634 0.000000 0.000000 0.000000
# 3 -0.007873 -0.004634 0.011508 0.000000 0.000000 0.000000
# 4 0.000000 0.000000 0.000000 0.064285 0.000000 0.000000
# 5 0.000000 0.000000 0.000000 0.000000 0.026887 0.000000
# 6 0.000000 0.000000 0.000000 0.000000 0.000000 0.065555
#
#
# Mechanical properties :
#
#
# Convention : Reuss Voigt Hill
#
# Bulk Modulus (GPa) = 45.01286 60.91046 52.96166
# Shear Modulus (GPa) = 20.30201 24.21621 22.25911
#
# Velocity S-wave (km/s) = 3.52001 3.84439 3.68577
# Velocity P-wave (km/s) = 6.63266 7.54187 7.10183
#
# Compressibility (1/GPa) = 0.02221588
#
# Stress axis : x y z
#
# Youngs Moduli (GPa) = 52.66194 46.11382 86.89778
#
# Poissons Ratio (x) = 0.11418 0.68415
# Poissons Ratio (y) = 0.13039 0.40270
# Poissons Ratio (z) = 0.41461 0.21370
#
# Static dielectric constant tensor:
#      x y z
#    x 3.168400 0.000000 0.000000 
#    y 0.000000 2.697020 0.000000 
#    z 0.000000 0.000000 3.213560 
# 
# 
# High freq. dielectric constant tensor:
#      x y z
#    x 1.642000 0.000000 0.000000 
#    y 0.000000 1.565440 0.000000 
#    z 0.000000 0.000000 1.648710 
# 
# From -- ./inp_files/20702.got.cif
#   From: 2010.03.12/outbox.cif.g09.slc.cpg/sg59_11_cif.got.tgz:20702.got - 2010.04.16 16:29:54.
