data_PCOD8239797
_publ_section_title
;
Structure prediction by ZEFSAII (Michael W. Deem and Ramdas Pophale) SiO2 
 PCOD8239797
Probable space group: P M M N
;
_chemical_formula_sum "Si O2"
_cell_formula_units_Z 64
_cell_length_a 19.389794
_cell_length_b 19.335097
_cell_length_c 10.048193
_cell_angle_alpha 90.000000
_cell_angle_beta 90.000000
_cell_angle_gamma 90.000000
_cell_volume 3767.103205
_symmetry_space_group_name_H-M "P M M N"
_symmetry_group_IT_number 59
_space_group.IT_coordinate_system_code '2'
_symmetry_cell_setting 'orthorhombic'
loop_
_space_group_symop_operation_xyz
x,y,z
1/2-x,1/2-y,z
1/2+x,-y,-z
-x,1/2+y,-z
-x,-y,-z
1/2+x,1/2+y,-z
1/2-x,y,z
x,1/2-y,z
loop_
_atom_site_type_symbol
_atom_site_label
_atom_site_fract_x
_atom_site_fract_y
_atom_site_fract_z
Si Si1 0.888005 0.826326 0.156098
Si Si2 0.965242 0.468879 0.129805
Si Si3 0.826869 0.540370 0.526354
Si Si4 0.542998 0.030163 0.620948
Si Si5 0.112753 0.173289 0.370928
Si Si6 0.827874 0.535334 0.215588
Si Si7 0.969234 0.828048 0.887458
Si Si8 0.509487 0.825712 0.398934
O O1 0.853274 0.750000 0.146670
O O2 0.830647 0.886165 0.159262
O O3 0.930909 0.833143 0.290728
O O4 0.938877 0.838521 0.033514
O O5 0.884009 0.487658 0.140286
O O6 0.970999 0.385258 0.132932
O O7 0.008264 0.502959 0.246933
O O8 0.000000 0.500000 0.000000
O O9 0.750000 0.512873 0.551561
O O10 0.878131 0.493794 0.612927
O O11 0.830721 0.619306 0.577692
O O12 0.846252 0.535495 0.371474
O O13 0.545929 0.113657 0.620206
O O14 0.500000 0.000000 0.500000
O O15 0.144453 0.250000 0.388427
O O16 0.092338 0.159471 0.217926
O O17 0.042785 0.165259 0.455806
O O18 0.750000 0.507648 0.189898
O O19 0.999749 0.750000 0.870436
O O20 0.473575 0.750000 0.386835
#
# Coordination Sequence:
#
# PCOD8239797 Si02
#       8
#     8   8   8   8   8   8   8   8
#     4  10  18  33  51  76 108 141 175 208 259 322
#     4  12  20  34  58  82 102 141 184 223 261 309
#     4  11  22  34  52  79 109 143 179 222 269 315
#     4  12  18  34  56  75 102 139 178 222 259 307
#     4  10  18  31  49  75 104 137 173 211 259 315
#     4  11  22  35  52  80 111 141 177 221 269 313
#     4  10  20  32  52  79 109 137 173 222 266 309
#     4  10  18  30  52  77 101 131 177 221 258 305
#
# _framework density 16.989180999999999
#
# number of rings (size 3 to 8) (size 9 to 14) (size 15 to 20)
#    0.000    1.250    7.500    0.000    0.000    0.500 
#    0.000    3.750    0.000    3.000    0.000    1.750 
#    0.000    5.000    0.000    0.000    0.000    0.000 
#
# Total GULP energy -793389.069813 kJ/mol
# GULP energy per Si atom -12396.704216 kJ/mol
# Density = 1.695051 g / cm^3
# Si number density = 16.989181 Si / 1000 Ang^3
#
#
#
# Elastic Constant Matrix: (Units=GPa)
#
#
# Indices 1 2 3 4 5 6 
#
# 1 90.8881 47.4672 26.4903 0.0000 0.0000 0.0000
# 2 47.4672 116.3391 23.0729 0.0000 0.0000 0.0000
# 3 26.4903 23.0729 68.6805 0.0000 0.0000 0.0000
# 4 0.0000 0.0000 0.0000 22.8602 0.0000 0.0000
# 5 0.0000 0.0000 0.0000 0.0000 17.7524 0.0000
# 6 0.0000 0.0000 0.0000 0.0000 0.0000 23.1167
#
#
#
# Elastic Compliance Matrix: (Units=1/GPa)
#
#
# Indices 1 2 3 4 5 6 
#
# 1 0.014932 -0.005303 -0.003978 0.000000 0.000000 0.000000
# 2 -0.005303 0.011093 -0.001681 0.000000 0.000000 0.000000
# 3 -0.003978 -0.001681 0.016659 0.000000 0.000000 0.000000
# 4 0.000000 0.000000 0.000000 0.043744 0.000000 0.000000
# 5 0.000000 0.000000 0.000000 0.000000 0.056330 0.000000
# 6 0.000000 0.000000 0.000000 0.000000 0.000000 0.043259
#
#
# Mechanical properties :
#
#
# Convention : Reuss Voigt Hill
#
# Bulk Modulus (GPa) = 48.17057 52.21871 50.19464
# Shear Modulus (GPa) = 23.27094 24.67102 23.97098
#
# Velocity S-wave (km/s) = 3.70503 3.81486 3.76034
# Velocity P-wave (km/s) = 6.83507 7.08571 6.96152
#
# Compressibility (1/GPa) = 0.02075956
#
# Stress axis : x y z
#
# Youngs Moduli (GPa) = 66.97226 90.14894 60.02740
#
# Poissons Ratio (x) = 0.47809 0.23876
# Poissons Ratio (y) = 0.35518 0.10091
# Poissons Ratio (z) = 0.26638 0.15154
#
# Static dielectric constant tensor:
#      x y z
#    x 2.841850 0.000000 0.000000 
#    y 0.000000 3.622870 0.000000 
#    z 0.000000 0.000000 3.279830 
# 
# 
# High freq. dielectric constant tensor:
#      x y z
#    x 1.606390 0.000000 0.000000 
#    y 0.000000 1.663610 0.000000 
#    z 0.000000 0.000000 1.671130 
# 
# From -- ./inp_files/10721.got.cif
#   From: 2010.03.12/outbox.cif.g09.slc.cpg/sg59_6_cif.got.tgz:10721.got - 2010.04.16 16:29:54.
