data_PCOD8239615
_publ_section_title
;
Structure prediction by ZEFSAII (Michael W. Deem and Ramdas Pophale) SiO2 
 PCOD8239615
Probable space group: P M M N
;
_chemical_formula_sum "Si O2"
_cell_formula_units_Z 64
_cell_length_a 25.171398
_cell_length_b 15.124504
_cell_length_c 9.160352
_cell_angle_alpha 90.000000
_cell_angle_beta 90.000000
_cell_angle_gamma 90.000000
_cell_volume 3487.390981
_symmetry_space_group_name_H-M "P M M N"
_symmetry_group_IT_number 59
_space_group.IT_coordinate_system_code '2'
_symmetry_cell_setting 'orthorhombic'
loop_
_space_group_symop_operation_xyz
x,y,z
1/2-x,1/2-y,z
1/2+x,-y,-z
-x,1/2+y,-z
-x,-y,-z
1/2+x,1/2+y,-z
1/2-x,y,z
x,1/2-y,z
loop_
_atom_site_type_symbol
_atom_site_label
_atom_site_fract_x
_atom_site_fract_y
_atom_site_fract_z
Si Si1 0.867130 0.850176 0.658252
Si Si2 0.393773 0.849720 0.260344
Si Si3 0.188561 0.995377 0.187301
Si Si4 0.929481 0.345834 0.067564
Si Si5 0.538404 0.587088 0.848654
Si Si6 0.008233 0.939253 0.360515
Si Si7 0.120517 0.478949 0.917609
Si Si8 0.397643 0.351041 0.668633
O O1 0.849612 0.750000 0.692960
O O2 0.925061 0.867093 0.726808
O O3 0.869920 0.866839 0.486102
O O4 0.823094 0.915161 0.724021
O O5 0.375535 0.750000 0.298793
O O6 0.342954 0.913896 0.260437
O O7 0.436920 0.883872 0.378819
O O8 0.422857 0.855149 0.105399
O O9 0.250000 0.971638 0.195297
O O10 0.172480 0.010083 0.018337
O O11 0.907512 0.250000 0.119942
O O12 0.896700 0.424622 0.145523
O O13 0.991922 0.347252 0.103825
O O14 0.511913 0.498972 0.783948
O O15 0.572462 0.561186 0.988897
O O16 0.959889 0.872169 0.340580
O O17 0.000000 0.000000 0.500000
O O18 0.132869 0.413938 0.783558
O O19 0.391282 0.250000 0.720157
#
# Coordination Sequence:
#
# PCOD8239615 Si02
#       8
#     8   8   8   8   8   8   8   8
#     4  10  21  37  54  79 110 144 184 222 269 329
#     4  10  20  35  54  81 112 142 182 230 273 320
#     4  10  21  40  62  80 101 136 181 235 288 329
#     4  10  18  29  49  75 106 144 180 217 261 308
#     4  11  18  32  50  74 110 150 183 216 249 314
#     4  12  19  32  53  78 117 156 185 215 255 316
#     4  10  20  35  52  77 107 137 181 226 265 321
#     4  11  22  34  54  81 114 151 178 212 269 327
#
# _framework density 18.351828000000001
#
# number of rings (size 3 to 8) (size 9 to 14) (size 15 to 20)
#    0.000    1.500    6.250    1.875    0.000    4.000 
#    0.000    0.625    0.000    0.750    0.000    0.000 
#    0.000    2.250    0.000    0.000    0.000    0.000 
#
# Total GULP energy -793596.662754 kJ/mol
# GULP energy per Si atom -12399.947856 kJ/mol
# Density = 1.831006 g / cm^3
# Si number density = 18.351828 Si / 1000 Ang^3
#
#
#
# Elastic Constant Matrix: (Units=GPa)
#
#
# Indices 1 2 3 4 5 6 
#
# 1 93.9092 39.7765 17.1397 0.0000 0.0000 0.0000
# 2 39.7765 146.8366 42.3825 0.0000 0.0000 0.0000
# 3 17.1397 42.3825 54.3950 0.0000 0.0000 0.0000
# 4 0.0000 0.0000 0.0000 27.2939 0.0000 0.0000
# 5 0.0000 0.0000 0.0000 0.0000 13.6457 0.0000
# 6 0.0000 0.0000 0.0000 0.0000 0.0000 13.8668
#
#
#
# Elastic Compliance Matrix: (Units=1/GPa)
#
#
# Indices 1 2 3 4 5 6 
#
# 1 0.012140 -0.002818 -0.001629 0.000000 0.000000 0.000000
# 2 -0.002818 0.009441 -0.006468 0.000000 0.000000 0.000000
# 3 -0.001629 -0.006468 0.023937 0.000000 0.000000 0.000000
# 4 0.000000 0.000000 0.000000 0.036638 0.000000 0.000000
# 5 0.000000 0.000000 0.000000 0.000000 0.073283 0.000000
# 6 0.000000 0.000000 0.000000 0.000000 0.000000 0.072114
#
#
# Mechanical properties :
#
#
# Convention : Reuss Voigt Hill
#
# Bulk Modulus (GPa) = 42.21809 54.85982 48.53895
# Shear Modulus (GPa) = 19.43416 24.01742 21.72579
#
# Velocity S-wave (km/s) = 3.25772 3.62155 3.44444
# Velocity P-wave (km/s) = 6.09960 6.88809 6.50580
#
# Compressibility (1/GPa) = 0.02368653
#
# Stress axis : x y z
#
# Youngs Moduli (GPa) = 82.37473 105.92621 41.77665
#
# Poissons Ratio (x) = 0.29852 0.06807
# Poissons Ratio (y) = 0.23215 0.27020
# Poissons Ratio (z) = 0.13421 0.68510
#
# Static dielectric constant tensor:
#      x y z
#    x 3.008070 0.000000 0.000000 
#    y 0.000000 3.742870 0.000000 
#    z 0.000000 0.000000 3.343340 
# 
# 
# High freq. dielectric constant tensor:
#      x y z
#    x 1.671470 0.000000 0.000000 
#    y 0.000000 1.729610 0.000000 
#    z 0.000000 0.000000 1.698630 
# 
# From -- ./inp_files/12182.got.cif
#   From: 2010.03.12/outbox.cif.g09.slc.cpg/sg59_7_cif.got.tgz:12182.got - 2010.04.16 16:29:54.
