data_PCOD8239038
_publ_section_title
;
Structure prediction by ZEFSAII (Michael W. Deem and Ramdas Pophale) SiO2 
 PCOD8239038
Probable space group: P M M N
;
_chemical_formula_sum "Si O2"
_cell_formula_units_Z 64
_cell_length_a 9.100376
_cell_length_b 23.305998
_cell_length_c 20.284748
_cell_angle_alpha 90.000000
_cell_angle_beta 90.000000
_cell_angle_gamma 90.000000
_cell_volume 4302.260053
_symmetry_space_group_name_H-M "P M M N"
_symmetry_group_IT_number 59
_space_group.IT_coordinate_system_code '2'
_symmetry_cell_setting 'orthorhombic'
loop_
_space_group_symop_operation_xyz
x,y,z
1/2-x,1/2-y,z
1/2+x,-y,-z
-x,1/2+y,-z
-x,-y,-z
1/2+x,1/2+y,-z
1/2-x,y,z
x,1/2-y,z
loop_
_atom_site_type_symbol
_atom_site_label
_atom_site_fract_x
_atom_site_fract_y
_atom_site_fract_z
Si Si1 0.417664 0.444845 0.476976
Si Si2 0.578752 0.476240 0.208275
Si Si3 0.922027 0.594502 0.387979
Si Si4 0.420817 0.105966 0.831581
Si Si5 0.584444 0.079916 0.957942
Si Si6 0.077110 0.479533 0.340333
Si Si7 0.575782 0.813796 0.285312
Si Si8 0.416057 0.447654 0.081519
O O1 0.500000 0.500000 0.500000
O O2 0.250000 0.462952 0.479744
O O3 0.448664 0.395777 0.532573
O O4 0.456213 0.433161 0.399843
O O5 0.750000 0.461497 0.209186
O O6 0.549546 0.543805 0.199764
O O7 0.505163 0.455708 0.276205
O O8 0.504600 0.440370 0.149411
O O9 0.750000 0.582001 0.372654
O O10 0.974317 0.652071 0.350903
O O11 0.015551 0.541604 0.360602
O O12 0.250000 0.113577 0.848166
O O13 0.509383 0.115449 0.899060
O O14 0.479324 0.152932 0.779741
O O15 0.750000 0.102249 0.967776
O O16 0.582969 0.013340 0.940180
O O17 0.494851 0.090360 0.025353
O O18 0.250000 0.484958 0.325283
O O19 0.750000 0.809966 0.283137
O O20 0.506381 0.750000 0.287052
O O21 0.250000 0.425379 0.090889
#
# Coordination Sequence:
#
# PCOD8239038 Si02
#       8
#     8   8   8   8   8   8   8   8
#     4   8  15  24  36  52  71  93 122 155 190 229
#     4  10  17  25  37  53  74 102 129 156 187 225
#     4   9  15  27  41  53  70  96 126 160 197 233
#     4   9  16  26  38  52  69  95 127 160 194 226
#     4   9  16  25  37  52  70  95 125 156 186 221
#     4  10  17  24  35  54  75  98 126 158 191 230
#     4   9  16  26  41  59  75  95 129 169 203 232
#     4   9  16  25  36  53  74  97 123 155 185 218
#
# _framework density 14.875902
#
# number of rings (size 3 to 8) (size 9 to 14) (size 15 to 20)
#    0.000    2.875    1.250    1.500    0.000    4.000 
#    0.000    0.000    0.000    1.500    0.000    0.000 
#    0.000    0.000    0.000    1.125    0.000   24.250 
#
# Total GULP energy -792982.607073 kJ/mol
# GULP energy per Si atom -12390.353236 kJ/mol
# Density = 1.484204 g / cm^3
# Si number density = 14.875902 Si / 1000 Ang^3
#
#
#
# Elastic Constant Matrix: (Units=GPa)
#
#
# Indices 1 2 3 4 5 6 
#
# 1 79.1746 15.6569 63.1438 0.0000 0.0000 0.0000
# 2 15.6569 38.1551 42.4509 0.0000 0.0000 0.0000
# 3 63.1438 42.4509 164.4725 0.0000 0.0000 0.0000
# 4 0.0000 0.0000 0.0000 13.3781 0.0000 0.0000
# 5 0.0000 0.0000 0.0000 0.0000 25.8865 0.0000
# 6 0.0000 0.0000 0.0000 0.0000 0.0000 7.1465
#
#
#
# Elastic Compliance Matrix: (Units=1/GPa)
#
#
# Indices 1 2 3 4 5 6 
#
# 1 0.018209 0.000429 -0.007101 0.000000 0.000000 0.000000
# 2 0.000429 0.036777 -0.009657 0.000000 0.000000 0.000000
# 3 -0.007101 -0.009657 0.011299 0.000000 0.000000 0.000000
# 4 0.000000 0.000000 0.000000 0.074749 0.000000 0.000000
# 5 0.000000 0.000000 0.000000 0.000000 0.038630 0.000000
# 6 0.000000 0.000000 0.000000 0.000000 0.000000 0.139928
#
#
# Mechanical properties :
#
#
# Convention : Reuss Voigt Hill
#
# Bulk Modulus (GPa) = 29.73889 58.25616 43.99752
# Shear Modulus (GPa) = 13.75668 19.98560 16.87114
#
# Velocity S-wave (km/s) = 3.04429 3.66934 3.37133
# Velocity P-wave (km/s) = 5.69137 7.56297 6.69291
#
# Compressibility (1/GPa) = 0.03362601
#
# Stress axis : x y z
#
# Youngs Moduli (GPa) = 54.91755 27.19095 88.50409
#
# Poissons Ratio (x) = -0.01166 0.62851
# Poissons Ratio (y) = -0.02356 0.85468
# Poissons Ratio (z) = 0.39000 0.26258
#
# Static dielectric constant tensor:
#      x y z
#    x 2.839880 0.000000 0.000000 
#    y 0.000000 2.451970 0.000000 
#    z 0.000000 0.000000 3.359160 
# 
# 
# High freq. dielectric constant tensor:
#      x y z
#    x 1.572290 0.000000 0.000000 
#    y 0.000000 1.485830 0.000000 
#    z 0.000000 0.000000 1.589950 
# 
# From -- ./inp_files/28500.got.cif
#   From: 2010.03.12/outbox.cif.g09.slc.cpg/sg59_15_cif.got.tgz:28500.got - 2010.04.16 16:29:54.
