data_PCOD8239320
_publ_section_title
;
Structure prediction by ZEFSAII (Michael W. Deem and Ramdas Pophale) SiO2 
 PCOD8239320
Probable space group: P M M N
;
_chemical_formula_sum "Si O2"
_cell_formula_units_Z 64
_cell_length_a 9.401461
_cell_length_b 13.917388
_cell_length_c 31.129365
_cell_angle_alpha 90.000000
_cell_angle_beta 90.000000
_cell_angle_gamma 90.000000
_cell_volume 4073.083801
_symmetry_space_group_name_H-M "P M M N"
_symmetry_group_IT_number 59
_space_group.IT_coordinate_system_code '2'
_symmetry_cell_setting 'orthorhombic'
loop_
_space_group_symop_operation_xyz
x,y,z
1/2-x,1/2-y,z
1/2+x,-y,-z
-x,1/2+y,-z
-x,-y,-z
1/2+x,1/2+y,-z
1/2-x,y,z
x,1/2-y,z
loop_
_atom_site_type_symbol
_atom_site_label
_atom_site_fract_x
_atom_site_fract_y
_atom_site_fract_z
Si Si1 0.419103 0.356168 0.474151
Si Si2 0.084502 0.474684 0.062110
Si Si3 0.084630 0.361258 0.146992
Si Si4 0.085113 0.138255 0.310706
Si Si5 0.410776 0.864167 0.771022
Si Si6 0.582208 0.978214 0.605408
Si Si7 0.083497 0.360456 0.977191
Si Si8 0.413637 0.361926 0.569847
O O1 0.250000 0.351830 0.472344
O O2 0.480757 0.250000 0.465450
O O3 0.478253 0.423989 0.436699
O O4 0.466244 0.390336 0.521682
O O5 0.250000 0.500742 0.061387
O O6 0.039397 0.424161 0.106213
O O7 0.998628 0.574280 0.057535
O O8 0.046254 0.399553 0.024526
O O9 0.250000 0.374195 0.158413
O O10 0.050950 0.250000 0.136837
O O11 0.992799 0.400851 0.186774
O O12 0.250000 0.121200 0.299594
O O13 0.055550 0.250000 0.319941
O O14 0.036683 0.079943 0.352496
O O15 0.992484 0.098349 0.271133
O O16 0.250000 0.904450 0.771167
O O17 0.412287 0.750000 0.770762
O O18 0.750000 0.992198 0.603606
O O19 0.507070 0.081816 0.605068
O O20 0.250000 0.368506 0.967567
O O21 0.032152 0.250000 0.973774
O O22 0.250000 0.390241 0.576113
O O23 0.437388 0.250000 0.578116
#
# Coordination Sequence:
#
# PCOD8239320 Si02
#       8
#     8   8   8   8   8   8   8   8
#     4   8  14  26  43  62  85 112 140 169 203 245
#     4   9  17  28  43  64  87 114 151 188 218 252
#     4   9  16  27  44  64  87 116 147 178 213 253
#     4   9  17  29  44  63  88 115 140 166 203 255
#     4   9  17  28  42  62  88 115 141 171 208 250
#     4  10  18  27  44  67  85 106 140 178 209 239
#     4   9  17  29  43  60  87 121 152 183 220 258
#     4   9  18  31  44  58  81 114 145 172 207 249
#
# _framework density 15.712910000000001
#
# number of rings (size 3 to 8) (size 9 to 14) (size 15 to 20)
#    0.000    3.000    0.000    2.250    0.000    6.000 
#    0.000    0.000    0.000    4.125    0.000    0.875 
#    0.000    7.000    0.000    0.000    0.000    0.000 
#
# Total GULP energy -793462.321744 kJ/mol
# GULP energy per Si atom -12397.848777 kJ/mol
# Density = 1.567715 g / cm^3
# Si number density = 15.712910 Si / 1000 Ang^3
#
#
#
# Elastic Constant Matrix: (Units=GPa)
#
#
# Indices 1 2 3 4 5 6 
#
# 1 57.5575 42.5797 56.2204 0.0000 0.0000 0.0000
# 2 42.5797 83.3193 59.3822 0.0000 0.0000 0.0000
# 3 56.2204 59.3822 117.1415 0.0000 0.0000 0.0000
# 4 0.0000 0.0000 0.0000 22.4113 0.0000 0.0000
# 5 0.0000 0.0000 0.0000 0.0000 23.8596 0.0000
# 6 0.0000 0.0000 0.0000 0.0000 0.0000 24.5355
#
#
#
# Elastic Compliance Matrix: (Units=1/GPa)
#
#
# Indices 1 2 3 4 5 6 
#
# 1 0.037244 -0.009854 -0.012879 0.000000 0.000000 0.000000
# 2 -0.009854 0.021398 -0.006118 0.000000 0.000000 0.000000
# 3 -0.012879 -0.006118 0.017819 0.000000 0.000000 0.000000
# 4 0.000000 0.000000 0.000000 0.044620 0.000000 0.000000
# 5 0.000000 0.000000 0.000000 0.000000 0.041912 0.000000
# 6 0.000000 0.000000 0.000000 0.000000 0.000000 0.040757
#
#
# Mechanical properties :
#
#
# Convention : Reuss Voigt Hill
#
# Bulk Modulus (GPa) = 53.30891 63.82032 58.56461
# Shear Modulus (GPa) = 18.67715 20.81701 19.74708
#
# Velocity S-wave (km/s) = 3.45142 3.64378 3.54890
# Velocity P-wave (km/s) = 7.06283 7.64248 7.35836
#
# Compressibility (1/GPa) = 0.01875859
#
# Stress axis : x y z
#
# Youngs Moduli (GPa) = 26.85001 46.73298 56.11862
#
# Poissons Ratio (x) = 0.46050 0.72278
# Poissons Ratio (y) = 0.26458 0.34334
# Poissons Ratio (z) = 0.34581 0.28591
#
# Static dielectric constant tensor:
#      x y z
#    x 2.887510 0.000000 0.000000 
#    y 0.000000 2.849240 0.000000 
#    z 0.000000 0.000000 3.002850 
# 
# 
# High freq. dielectric constant tensor:
#      x y z
#    x 1.593570 0.000000 0.000000 
#    y 0.000000 1.580000 0.000000 
#    z 0.000000 0.000000 1.594800 
# 
# From -- ./inp_files/33206.got.cif
#   From: 2010.03.12/outbox.cif.g09.slc.cpg/sg59_17_cif.got.tgz:33206.got - 2010.04.16 16:29:54.
