data_PCOD8239953
_publ_section_title
;
Structure prediction by ZEFSAII (Michael W. Deem and Ramdas Pophale) SiO2 
 PCOD8239953
Probable space group: P M M N
;
_chemical_formula_sum "Si O2"
_cell_formula_units_Z 32
_cell_length_a 8.795302
_cell_length_b 15.290752
_cell_length_c 12.013359
_cell_angle_alpha 90.000000
_cell_angle_beta 90.000000
_cell_angle_gamma 90.000000
_cell_volume 1615.637989
_symmetry_space_group_name_H-M "P M M N"
_symmetry_group_IT_number 59
_space_group.IT_coordinate_system_code '2'
_symmetry_cell_setting 'orthorhombic'
loop_
_space_group_symop_operation_xyz
x,y,z
1/2-x,1/2-y,z
1/2+x,-y,-z
-x,1/2+y,-z
-x,-y,-z
1/2+x,1/2+y,-z
1/2-x,y,z
x,1/2-y,z
loop_
_atom_site_type_symbol
_atom_site_label
_atom_site_fract_x
_atom_site_fract_y
_atom_site_fract_z
Si Si1 0.578147 0.354454 0.763001
Si Si2 0.084965 0.347592 0.977458
Si Si3 0.427883 0.750000 0.845594
Si Si4 0.429891 0.089575 0.540967
Si Si5 0.570459 0.250000 0.412149
O O1 0.750000 0.388421 0.747470
O O2 0.575282 0.250000 0.755614
O O3 0.517245 0.392660 0.881670
O O4 0.471343 0.395263 0.669168
O O5 0.250000 0.394733 0.992753
O O6 0.114668 0.250000 0.931597
O O7 0.996941 0.338127 0.096114
O O8 0.250000 0.750000 0.866841
O O9 0.471674 0.750000 0.717459
O O10 0.250000 0.087967 0.527709
O O11 0.498991 0.164885 0.465313
O O12 0.500000 0.000000 0.500000
O O13 0.750000 0.250000 0.433427
#
# Coordination Sequence:
#
# PCOD8239953 Si02
#       5
#     8   8   4   8   4
#     4  10  18  31  55  83 113 146 188 236 285 337
#     4   8  15  26  46  77 109 140 184 232 274 330
#     4   9  17  30  51  80 113 149 189 233 284 343
#     4  12  25  40  60  86 119 156 198 244 295 350
#     4  11  23  40  61  86 119 157 197 239 292 353
#
# _framework density 19.806417
#
# number of rings (size 3 to 8) (size 9 to 14) (size 15 to 20)
#    0.750    1.250    1.250    4.125    0.000    3.000 
#    0.000    0.000    0.000    1.500    0.000    0.000 
#    0.000    0.000    0.000    0.000    0.000    0.000 
#
# Total GULP energy -396528.726507 kJ/mol
# GULP energy per Si atom -12391.522703 kJ/mol
# Density = 1.976134 g / cm^3
# Si number density = 19.806417 Si / 1000 Ang^3
#
#
#
# Elastic Constant Matrix: (Units=GPa)
#
#
# Indices 1 2 3 4 5 6 
#
# 1 155.4816 45.2746 73.2042 0.0000 0.0000 0.0000
# 2 45.2746 74.2980 38.6749 0.0000 0.0000 0.0000
# 3 73.2042 38.6749 136.8566 0.0000 0.0000 0.0000
# 4 0.0000 0.0000 0.0000 -24.5201 0.0000 0.0000
# 5 0.0000 0.0000 0.0000 0.0000 32.6943 0.0000
# 6 0.0000 0.0000 0.0000 0.0000 0.0000 23.4138
#
#
#
# Elastic Compliance Matrix: (Units=1/GPa)
#
#
# Indices 1 2 3 4 5 6 
#
# 1 0.009365 -0.003634 -0.003982 0.000000 0.000000 0.000000
# 2 -0.003634 0.017191 -0.002914 0.000000 0.000000 0.000000
# 3 -0.003982 -0.002914 0.010261 0.000000 0.000000 0.000000
# 4 0.000000 0.000000 0.000000 -0.040783 0.000000 0.000000
# 5 0.000000 0.000000 0.000000 0.000000 0.030586 0.000000
# 6 0.000000 0.000000 0.000000 0.000000 0.000000 0.042710
#
#
# Mechanical properties :
#
#
# Convention : Reuss Voigt Hill
#
# Bulk Modulus (GPa) = 63.47050 75.66038 69.56544
# Shear Modulus (GPa) = 52.27860 20.28309 36.28084
#
# Velocity S-wave (km/s) = 5.14316 3.20358 4.28456
# Velocity P-wave (km/s) = 8.20880 7.20879 7.72500
#
# Compressibility (1/GPa) = 0.01575535
#
# Stress axis : x y z
#
# Youngs Moduli (GPa) = 106.78474 58.17163 97.46002
#
# Poissons Ratio (x) = 0.21137 0.38811
# Poissons Ratio (y) = 0.38801 0.28403
# Poissons Ratio (z) = 0.42525 0.16953
#
# Static dielectric constant tensor:
#      x y z
#    x 3.921390 0.000000 0.000000 
#    y 0.000000 3.137210 0.000000 
#    z 0.000000 0.000000 3.768980 
# 
# 
# High freq. dielectric constant tensor:
#      x y z
#    x 1.795910 0.000000 0.000000 
#    y 0.000000 1.718000 0.000000 
#    z 0.000000 0.000000 1.782650 
# 
# From -- ./inp_files/19718.got.cif
#   From: 2010.03.12/outbox.cif.g09.slc.cpg/sg59_10_cif.got.tgz:19718.got - 2010.04.16 16:29:54.
