data_PCOD8239307
_publ_section_title
;
Structure prediction by ZEFSAII (Michael W. Deem and Ramdas Pophale) SiO2 
 PCOD8239307
Probable space group: P M M N
;
_chemical_formula_sum "Si O2"
_cell_formula_units_Z 64
_cell_length_a 13.843290
_cell_length_b 9.450924
_cell_length_c 31.225556
_cell_angle_alpha 90.000000
_cell_angle_beta 90.000000
_cell_angle_gamma 90.000000
_cell_volume 4085.298249
_symmetry_space_group_name_H-M "P M M N"
_symmetry_group_IT_number 59
_space_group.IT_coordinate_system_code '2'
_symmetry_cell_setting 'orthorhombic'
loop_
_space_group_symop_operation_xyz
x,y,z
1/2-x,1/2-y,z
1/2+x,-y,-z
-x,1/2+y,-z
-x,-y,-z
1/2+x,1/2+y,-z
1/2-x,y,z
x,1/2-y,z
loop_
_atom_site_type_symbol
_atom_site_label
_atom_site_fract_x
_atom_site_fract_y
_atom_site_fract_z
Si Si1 0.951656 0.584744 0.937817
Si Si2 0.637015 0.911984 0.430884
Si Si3 0.859565 0.411790 0.012325
Si Si4 0.020706 0.417538 0.394222
Si Si5 0.135447 0.906025 0.232588
Si Si6 0.638591 0.584785 0.688408
Si Si7 0.856694 0.581829 0.526156
Si Si8 0.138024 0.583817 0.136786
O O1 0.926405 0.750000 0.934319
O O2 0.931241 0.508480 0.893086
O O3 0.064750 0.560623 0.949208
O O4 0.882515 0.516411 0.973464
O O5 0.750000 0.930770 0.423267
O O6 0.605765 0.750000 0.424409
O O7 0.608345 0.964995 0.478843
O O8 0.583572 0.008243 0.395581
O O9 0.750000 0.440268 0.028585
O O10 0.870188 0.250000 0.995854
O O11 0.008107 0.250000 0.394743
O O12 0.077975 0.467789 0.352293
O O13 0.075448 0.476063 0.436307
O O14 0.250000 0.899951 0.234265
O O15 0.092849 0.750000 0.241604
O O16 0.105830 0.956757 0.185079
O O17 0.095982 0.010852 0.269068
O O18 0.750000 0.544332 0.680050
O O19 0.626456 0.750000 0.695806
O O20 0.750000 0.520072 0.534721
O O21 0.851932 0.750000 0.527796
O O22 0.250000 0.544501 0.128461
O O23 0.121949 0.750000 0.128294
#
# Coordination Sequence:
#
# PCOD8239307 Si02
#       8
#     8   8   8   8   8   8   8   8
#     4  10  19  28  42  66  88 109 146 189 218 245
#     4   9  18  31  44  58  79 109 143 176 208 241
#     4   9  18  32  45  57  83 122 152 175 212 258
#     4  10  18  27  43  65  85 108 138 170 205 246
#     4   8  15  28  44  61  83 113 144 169 199 246
#     4   9  17  28  42  63  90 114 135 163 203 251
#     4   8  14  26  43  61  83 111 139 166 200 245
#     4   9  17  29  44  62  87 118 145 169 206 255
#
# _framework density 15.665931
#
# number of rings (size 3 to 8) (size 9 to 14) (size 15 to 20)
#    0.000    3.000    0.000    3.000    0.000    5.250 
#    0.000    1.250    0.000    1.875    0.000    0.875 
#    0.000    3.000    0.000    0.000    0.000    0.000 
#
# Total GULP energy -793319.214583 kJ/mol
# GULP energy per Si atom -12395.612728 kJ/mol
# Density = 1.563027 g / cm^3
# Si number density = 15.665931 Si / 1000 Ang^3
#
#
#
# Elastic Constant Matrix: (Units=GPa)
#
#
# Indices 1 2 3 4 5 6 
#
# 1 72.9439 39.6766 55.8979 0.0000 0.0000 0.0000
# 2 39.6766 58.1098 57.6035 0.0000 0.0000 0.0000
# 3 55.8979 57.6035 120.4401 0.0000 0.0000 0.0000
# 4 0.0000 0.0000 0.0000 28.0729 0.0000 0.0000
# 5 0.0000 0.0000 0.0000 0.0000 21.5510 0.0000
# 6 0.0000 0.0000 0.0000 0.0000 0.0000 22.3101
#
#
#
# Elastic Compliance Matrix: (Units=1/GPa)
#
#
# Indices 1 2 3 4 5 6 
#
# 1 0.024085 -0.010200 -0.006300 0.000000 0.000000 0.000000
# 2 -0.010200 0.037043 -0.012983 0.000000 0.000000 0.000000
# 3 -0.006300 -0.012983 0.017436 0.000000 0.000000 0.000000
# 4 0.000000 0.000000 0.000000 0.035622 0.000000 0.000000
# 5 0.000000 0.000000 0.000000 0.000000 0.046402 0.000000
# 6 0.000000 0.000000 0.000000 0.000000 0.000000 0.044823
#
#
# Mechanical properties :
#
#
# Convention : Reuss Voigt Hill
#
# Bulk Modulus (GPa) = 51.02347 61.98330 56.50339
# Shear Modulus (GPa) = 18.45651 20.94119 19.69885
#
# Velocity S-wave (km/s) = 3.43611 3.66010 3.54988
# Velocity P-wave (km/s) = 6.95578 7.58376 7.27655
#
# Compressibility (1/GPa) = 0.01959882
#
# Stress axis : x y z
#
# Youngs Moduli (GPa) = 41.51993 26.99579 57.35284
#
# Poissons Ratio (x) = 0.27536 0.36130
# Poissons Ratio (y) = 0.42350 0.74459
# Poissons Ratio (z) = 0.26156 0.35048
#
# Static dielectric constant tensor:
#      x y z
#    x 2.858390 0.000000 0.000000 
#    y 0.000000 2.922510 0.000000 
#    z 0.000000 0.000000 3.060540 
# 
# 
# High freq. dielectric constant tensor:
#      x y z
#    x 1.577820 0.000000 0.000000 
#    y 0.000000 1.593960 0.000000 
#    z 0.000000 0.000000 1.591950 
# 
# From -- ./inp_files/33201.got.cif
#   From: 2010.03.12/outbox.cif.g09.slc.cpg/sg59_17_cif.got.tgz:33201.got - 2010.04.16 16:29:54.
