data_PCOD8239382
_publ_section_title
;
Structure prediction by ZEFSAII (Michael W. Deem and Ramdas Pophale) SiO2 
 PCOD8239382
Probable space group: P M M N
;
_chemical_formula_sum "Si O2"
_cell_formula_units_Z 56
_cell_length_a 14.285008
_cell_length_b 13.699873
_cell_length_c 17.105430
_cell_angle_alpha 90.000000
_cell_angle_beta 90.000000
_cell_angle_gamma 90.000000
_cell_volume 3347.580468
_symmetry_space_group_name_H-M "P M M N"
_symmetry_group_IT_number 59
_space_group.IT_coordinate_system_code '2'
_symmetry_cell_setting 'orthorhombic'
loop_
_space_group_symop_operation_xyz
x,y,z
1/2-x,1/2-y,z
1/2+x,-y,-z
-x,1/2+y,-z
-x,-y,-z
1/2+x,1/2+y,-z
1/2-x,y,z
x,1/2-y,z
loop_
_atom_site_type_symbol
_atom_site_label
_atom_site_fract_x
_atom_site_fract_y
_atom_site_fract_z
Si Si1 0.860896 0.473198 0.681644
Si Si2 0.647176 0.365906 0.361263
Si Si3 0.861248 0.480013 0.981636
Si Si4 0.995274 0.635433 0.926067
Si Si5 0.979971 0.862680 0.742819
Si Si6 0.138699 0.858816 0.467018
Si Si7 0.360625 0.642269 0.169609
O O1 0.750000 0.478105 0.681883
O O2 0.897056 0.581673 0.698495
O O3 0.900046 0.431838 0.599504
O O4 0.899658 0.403242 0.750325
O O5 0.750000 0.410710 0.343756
O O6 0.655106 0.250000 0.362889
O O7 0.577965 0.401291 0.293059
O O8 0.610180 0.399316 0.447141
O O9 0.750000 0.490456 0.994897
O O10 0.906551 0.417140 0.051936
O O11 0.909312 0.586845 0.974716
O O12 0.889710 0.424271 0.902748
O O13 0.000026 0.750000 0.946698
O O14 0.978430 0.618395 0.834726
O O15 0.964378 0.750000 0.722924
O O16 0.250000 0.852921 0.461794
O O17 0.097509 0.750000 0.452504
O O18 0.250000 0.649847 0.174322
O O19 0.404438 0.750000 0.158711
#
# Coordination Sequence:
#
# PCOD8239382 Si02
#       7
#     8   8   8   8   8   8   8
#     4  10  18  28  43  67  97 126 156 189 229 280
#     4   8  15  29  47  66  90 121 157 198 239 273
#     4  10  20  35  53  74  98 126 162 202 245 290
#     4  10  21  35  51  73 101 131 164 201 241 291
#     4  10  20  32  46  67  96 128 159 189 226 280
#     4   8  14  26  45  68  93 120 153 196 240 276
#     4   9  16  27  45  68  92 118 148 187 236 282
#
# _framework density 16.7285
#
# number of rings (size 3 to 8) (size 9 to 14) (size 15 to 20)
#    0.000    2.714    1.429    1.714    0.000    4.286 
#    0.000    2.857    0.000    0.000    0.000    0.000 
#    0.000    2.286    0.000    0.143    0.000    0.000 
#
# Total GULP energy -694103.424991 kJ/mol
# GULP energy per Si atom -12394.704018 kJ/mol
# Density = 1.669042 g / cm^3
# Si number density = 16.728500 Si / 1000 Ang^3
#
#
#
# Elastic Constant Matrix: (Units=GPa)
#
#
# Indices 1 2 3 4 5 6 
#
# 1 60.1136 34.9007 19.2313 0.0000 0.0000 0.0000
# 2 34.9007 86.6132 35.0542 0.0000 0.0000 0.0000
# 3 19.2313 35.0542 47.2975 0.0000 0.0000 0.0000
# 4 0.0000 0.0000 0.0000 21.8650 0.0000 0.0000
# 5 0.0000 0.0000 0.0000 0.0000 22.4171 0.0000
# 6 0.0000 0.0000 0.0000 0.0000 0.0000 18.0146
#
#
#
# Elastic Compliance Matrix: (Units=1/GPa)
#
#
# Indices 1 2 3 4 5 6 
#
# 1 0.022093 -0.007523 -0.003407 0.000000 0.000000 0.000000
# 2 -0.007523 0.019055 -0.011063 0.000000 0.000000 0.000000
# 3 -0.003407 -0.011063 0.030728 0.000000 0.000000 0.000000
# 4 0.000000 0.000000 0.000000 0.045735 0.000000 0.000000
# 5 0.000000 0.000000 0.000000 0.000000 0.044609 0.000000
# 6 0.000000 0.000000 0.000000 0.000000 0.000000 0.055510
#
#
# Mechanical properties :
#
#
# Convention : Reuss Voigt Hill
#
# Bulk Modulus (GPa) = 35.85806 41.37741 38.61774
# Shear Modulus (GPa) = 18.44927 19.44854 18.94891
#
# Velocity S-wave (km/s) = 3.32454 3.41339 3.36926
# Velocity P-wave (km/s) = 6.01819 6.35007 6.18636
#
# Compressibility (1/GPa) = 0.02788773
#
# Stress axis : x y z
#
# Youngs Moduli (GPa) = 45.26292 52.48055 32.54413
#
# Poissons Ratio (x) = 0.39484 0.11088
# Poissons Ratio (y) = 0.34053 0.36004
# Poissons Ratio (z) = 0.15422 0.58060
#
# Static dielectric constant tensor:
#      x y z
#    x 2.949900 0.000000 0.000000 
#    y 0.000000 3.134450 0.000000 
#    z 0.000000 0.000000 3.363620 
# 
# 
# High freq. dielectric constant tensor:
#      x y z
#    x 1.612880 0.000000 0.000000 
#    y 0.000000 1.632430 0.000000 
#    z 0.000000 0.000000 1.653080 
# 
# From -- ./inp_files/23311.got.cif
#   From: 2010.03.12/outbox.cif.g09.slc.cpg/sg59_12_cif.got.tgz:23311.got - 2010.04.16 16:29:54.
