data_PCOD8239176
_publ_section_title
;
Structure prediction by ZEFSAII (Michael W. Deem and Ramdas Pophale) SiO2 
 PCOD8239176
Probable space group: P M M N
;
_chemical_formula_sum "Si O2"
_cell_formula_units_Z 64
_cell_length_a 14.344974
_cell_length_b 27.017006
_cell_length_c 9.872065
_cell_angle_alpha 90.000000
_cell_angle_beta 90.000000
_cell_angle_gamma 90.000000
_cell_volume 3826.000222
_symmetry_space_group_name_H-M "P M M N"
_symmetry_group_IT_number 59
_space_group.IT_coordinate_system_code '2'
_symmetry_cell_setting 'orthorhombic'
loop_
_space_group_symop_operation_xyz
x,y,z
1/2-x,1/2-y,z
1/2+x,-y,-z
-x,1/2+y,-z
-x,-y,-z
1/2+x,1/2+y,-z
1/2-x,y,z
x,1/2-y,z
loop_
_atom_site_type_symbol
_atom_site_label
_atom_site_fract_x
_atom_site_fract_y
_atom_site_fract_z
Si Si1 0.960329 0.597254 0.363930
Si Si2 0.582627 0.460762 0.020991
Si Si3 0.142999 0.306610 0.692826
Si Si4 0.650037 0.552211 0.127369
Si Si5 0.143925 0.556093 0.278937
Si Si6 0.358655 0.053823 0.385376
Si Si7 0.431550 0.397924 0.125129
Si Si8 0.356448 0.305355 0.009474
O O1 0.924808 0.653973 0.381922
O O2 0.930657 0.573398 0.221053
O O3 0.917314 0.562590 0.479029
O O4 0.073291 0.593730 0.357018
O O5 0.652945 0.491961 0.116369
O O6 0.539316 0.413970 0.101108
O O7 0.500000 0.500000 0.000000
O O8 0.630358 0.442858 0.882899
O O9 0.250000 0.314388 0.645451
O O10 0.112052 0.250000 0.659906
O O11 0.134610 0.317879 0.851350
O O12 0.750000 0.569506 0.185695
O O13 0.638268 0.573817 0.976524
O O14 0.250000 0.572496 0.311625
O O15 0.123345 0.501398 0.333885
O O16 0.250000 0.063857 0.413531
O O17 0.398209 0.092262 0.276578
O O18 0.424409 0.339497 0.097534
O O19 0.250000 0.312738 0.055994
O O20 0.390104 0.250000 0.038020
#
# Coordination Sequence:
#
# PCOD8239176 Si02
#       8
#     8   8   8   8   8   8   8   8
#     4  12  21  34  49  75 101 135 175 206 246 302
#     4  10  17  30  48  72  92 125 169 206 240 296
#     4   9  17  30  50  75 102 130 164 211 258 301
#     4  11  18  28  50  71  96 127 162 201 237 292
#     4  11  21  35  51  72 103 136 171 213 260 296
#     4  11  22  32  47  73 106 137 165 202 250 306
#     4  11  18  31  49  68  99 132 166 199 250 297
#     4   9  16  26  44  70  94 122 165 207 243 289
#
# _framework density 16.727650000000001
#
# number of rings (size 3 to 8) (size 9 to 14) (size 15 to 20)
#    0.000    1.500    6.250    3.750    0.000    0.000 
#    0.000    0.625    0.000    3.375    0.000    0.000 
#    0.000    1.500    0.000    0.625    0.000    0.000 
#
# Total GULP energy -793298.992774 kJ/mol
# GULP energy per Si atom -12395.296762 kJ/mol
# Density = 1.668958 g / cm^3
# Si number density = 16.727650 Si / 1000 Ang^3
#
#
#
# Elastic Constant Matrix: (Units=GPa)
#
#
# Indices 1 2 3 4 5 6 
#
# 1 89.5573 35.3065 23.5643 0.0000 0.0000 0.0000
# 2 35.3065 85.0251 15.7003 0.0000 0.0000 0.0000
# 3 23.5643 15.7003 43.4619 0.0000 0.0000 0.0000
# 4 0.0000 0.0000 0.0000 10.1592 0.0000 0.0000
# 5 0.0000 0.0000 0.0000 0.0000 19.4915 0.0000
# 6 0.0000 0.0000 0.0000 0.0000 0.0000 25.6109
#
#
#
# Elastic Compliance Matrix: (Units=1/GPa)
#
#
# Indices 1 2 3 4 5 6 
#
# 1 0.014764 -0.004985 -0.006204 0.000000 0.000000 0.000000
# 2 -0.004985 0.014285 -0.002458 0.000000 0.000000 0.000000
# 3 -0.006204 -0.002458 0.027260 0.000000 0.000000 0.000000
# 4 0.000000 0.000000 0.000000 0.098433 0.000000 0.000000
# 5 0.000000 0.000000 0.000000 0.000000 0.051304 0.000000
# 6 0.000000 0.000000 0.000000 0.000000 0.000000 0.039046
#
#
# Mechanical properties :
#
#
# Convention : Reuss Voigt Hill
#
# Bulk Modulus (GPa) = 34.46379 40.79849 37.63114
# Shear Modulus (GPa) = 17.72691 20.61719 19.17205
#
# Velocity S-wave (km/s) = 3.25889 3.51454 3.38913
# Velocity P-wave (km/s) = 5.89984 6.39626 6.15306
#
# Compressibility (1/GPa) = 0.02901596
#
# Stress axis : x y z
#
# Youngs Moduli (GPa) = 67.73395 70.00322 36.68370
#
# Poissons Ratio (x) = 0.34897 0.22758
# Poissons Ratio (y) = 0.33765 0.09015
# Poissons Ratio (z) = 0.42021 0.17204
#
# Static dielectric constant tensor:
#      x y z
#    x 3.418710 0.000000 0.000000 
#    y 0.000000 3.286980 0.000000 
#    z 0.000000 0.000000 2.953890 
# 
# 
# High freq. dielectric constant tensor:
#      x y z
#    x 1.628410 0.000000 0.000000 
#    y 0.000000 1.627040 0.000000 
#    z 0.000000 0.000000 1.625710 
# 
# From -- ./inp_files/9737.got.cif
#   From: 2010.03.12/outbox.cif.g09.slc.cpg/sg59_5_cif.got.tgz:9737.got - 2010.04.16 16:29:54.
