data_PCOD8239970
_publ_section_title
;
Structure prediction by ZEFSAII (Michael W. Deem and Ramdas Pophale) SiO2 
 PCOD8239970
Probable space group: P M M N
;
_chemical_formula_sum "Si O2"
_cell_formula_units_Z 48
_cell_length_a 9.173599
_cell_length_b 9.447639
_cell_length_c 29.234506
_cell_angle_alpha 90.000000
_cell_angle_beta 90.000000
_cell_angle_gamma 90.000000
_cell_volume 2533.721065
_symmetry_space_group_name_H-M "P M M N"
_symmetry_group_IT_number 59
_space_group.IT_coordinate_system_code '2'
_symmetry_cell_setting 'orthorhombic'
loop_
_space_group_symop_operation_xyz
x,y,z
1/2-x,1/2-y,z
1/2+x,-y,-z
-x,1/2+y,-z
-x,-y,-z
1/2+x,1/2+y,-z
1/2-x,y,z
x,1/2-y,z
loop_
_atom_site_type_symbol
_atom_site_label
_atom_site_fract_x
_atom_site_fract_y
_atom_site_fract_z
Si Si1 0.577627 0.407131 0.706513
Si Si2 0.579153 0.085749 0.039481
Si Si3 0.576607 0.587406 0.790791
Si Si4 0.920327 0.031984 0.607013
Si Si5 0.079761 0.084850 0.869328
Si Si6 0.582228 0.750000 0.560747
Si Si7 0.577541 0.250000 0.534478
O O1 0.750000 0.422121 0.702669
O O2 0.533673 0.250000 0.723739
O O3 0.520971 0.524659 0.742248
O O4 0.507664 0.431535 0.656117
O O5 0.750000 0.080329 0.029616
O O6 0.526018 0.250000 0.042041
O O7 0.539153 0.003999 0.085773
O O8 0.500000 0.000000 0.000000
O O9 0.750000 0.579201 0.794922
O O10 0.522543 0.750000 0.795297
O O11 0.509791 0.487281 0.829111
O O12 0.750000 0.066064 0.610660
O O13 0.981988 0.118595 0.563943
O O14 0.958114 0.873632 0.595046
O O15 0.250000 0.072398 0.858049
O O16 0.034624 0.250000 0.875344
O O17 0.750000 0.750000 0.545349
O O18 0.489554 0.750000 0.515287
O O19 0.750000 0.250000 0.527505
#
# Coordination Sequence:
#
# PCOD8239970 Si02
#       7
#     8   8   8   8   8   4   4
#     4   9  16  29  49  73 100 129 166 213 259 305
#     4  10  21  37  58  84 113 148 189 231 275 320
#     4  10  21  34  53  83 112 138 173 222 275 320
#     4   9  17  29  47  71  96 125 162 203 248 300
#     4  10  21  38  59  81 109 148 189 224 266 324
#     4  10  20  30  46  72  98 122 156 204 253 294
#     4  10  18  32  50  68  92 128 166 196 239 304
#
# _framework density 18.944469000000002
#
# number of rings (size 3 to 8) (size 9 to 14) (size 15 to 20)
#    0.000    2.333    0.833    2.000    1.167    3.667 
#    0.000    0.000    0.000    2.000    0.000    0.000 
#    0.000    0.000    0.000    0.000    0.000    0.000 
#
# Total GULP energy -594917.834968 kJ/mol
# GULP energy per Si atom -12394.121562 kJ/mol
# Density = 1.890135 g / cm^3
# Si number density = 18.944469 Si / 1000 Ang^3
#
#
#
# Elastic Constant Matrix: (Units=GPa)
#
#
# Indices 1 2 3 4 5 6 
#
# 1 23.1783 29.8365 33.7574 0.0000 0.0000 0.0000
# 2 29.8365 165.5208 68.5710 0.0000 0.0000 0.0000
# 3 33.7574 68.5710 134.0434 0.0000 0.0000 0.0000
# 4 0.0000 0.0000 0.0000 39.2421 0.0000 0.0000
# 5 0.0000 0.0000 0.0000 0.0000 25.4168 0.0000
# 6 0.0000 0.0000 0.0000 0.0000 0.0000 25.9715
#
#
#
# Elastic Compliance Matrix: (Units=1/GPa)
#
#
# Indices 1 2 3 4 5 6 
#
# 1 0.074261 -0.007155 -0.015042 0.000000 0.000000 0.000000
# 2 -0.007155 0.008356 -0.002472 0.000000 0.000000 0.000000
# 3 -0.015042 -0.002472 0.012513 0.000000 0.000000 0.000000
# 4 0.000000 0.000000 0.000000 0.025483 0.000000 0.000000
# 5 0.000000 0.000000 0.000000 0.000000 0.039344 0.000000
# 6 0.000000 0.000000 0.000000 0.000000 0.000000 0.038504
#
#
# Mechanical properties :
#
#
# Convention : Reuss Voigt Hill
#
# Bulk Modulus (GPa) = 21.83807 65.23024 43.53415
# Shear Modulus (GPa) = 19.00695 30.83128 24.91911
#
# Velocity S-wave (km/s) = 3.17092 4.03855 3.63075
# Velocity P-wave (km/s) = 4.99588 7.50024 6.37230
#
# Compressibility (1/GPa) = 0.04579160
#
# Stress axis : x y z
#
# Youngs Moduli (GPa) = 13.46607 119.68138 79.91563
#
# Poissons Ratio (x) = 0.85628 1.20207
# Poissons Ratio (y) = 0.09635 0.19759
# Poissons Ratio (z) = 0.20255 0.29591
#
# Static dielectric constant tensor:
#      x y z
#    x 3.027710 0.000000 0.000000 
#    y 0.000000 3.816190 0.000000 
#    z 0.000000 0.000000 3.666140 
# 
# 
# High freq. dielectric constant tensor:
#      x y z
#    x 1.684010 0.000000 0.000000 
#    y 0.000000 1.759450 0.000000 
#    z 0.000000 0.000000 1.751520 
# 
# From -- ./inp_files/32964.got.cif
#   From: 2010.03.12/outbox.cif.g09.slc.cpg/sg59_17_cif.got.tgz:32964.got - 2010.04.16 16:29:54.
