data_PCOD8239375
_publ_section_title
;
Structure prediction by ZEFSAII (Michael W. Deem and Ramdas Pophale) SiO2 
 PCOD8239375
Probable space group: P M M N
;
_chemical_formula_sum "Si O2"
_cell_formula_units_Z 56
_cell_length_a 28.146190
_cell_length_b 9.052525
_cell_length_c 13.618808
_cell_angle_alpha 90.000000
_cell_angle_beta 90.000000
_cell_angle_gamma 90.000000
_cell_volume 3469.991773
_symmetry_space_group_name_H-M "P M M N"
_symmetry_group_IT_number 59
_space_group.IT_coordinate_system_code '2'
_symmetry_cell_setting 'orthorhombic'
loop_
_space_group_symop_operation_xyz
x,y,z
1/2-x,1/2-y,z
1/2+x,-y,-z
-x,1/2+y,-z
-x,-y,-z
1/2+x,1/2+y,-z
1/2-x,y,z
x,1/2-y,z
loop_
_atom_site_type_symbol
_atom_site_label
_atom_site_fract_x
_atom_site_fract_y
_atom_site_fract_z
Si Si1 0.488810 0.578791 0.600550
Si Si2 0.943047 0.920312 0.102254
Si Si3 0.108862 0.921845 0.068564
Si Si4 0.466168 0.581559 0.221193
Si Si5 0.698060 0.418876 0.216265
Si Si6 0.599882 0.418521 0.279379
Si Si7 0.196251 0.076687 0.986917
O O1 0.500000 0.500000 0.500000
O O2 0.498897 0.750000 0.586194
O O3 0.523704 0.523087 0.686554
O O4 0.433280 0.546401 0.626732
O O5 0.932958 0.750000 0.077727
O O6 0.997629 0.949716 0.131417
O O7 0.911233 0.967389 0.194012
O O8 0.928901 0.016834 0.009295
O O9 0.116575 0.750000 0.047050
O O10 0.086444 0.947192 0.177206
O O11 0.159678 0.002883 0.063232
O O12 0.471911 0.750000 0.257728
O O13 0.750000 0.461354 0.260697
O O14 0.698408 0.250000 0.179526
O O15 0.656727 0.439676 0.299121
O O16 0.686205 0.517772 0.122069
O O17 0.589233 0.250000 0.245260
O O18 0.250000 0.038666 0.020180
O O19 0.187016 0.250000 0.986092
#
# Coordination Sequence:
#
# PCOD8239375 Si02
#       7
#     8   8   8   8   8   8   8
#     4  10  20  34  52  71  93 120 152 194 242 291
#     4  10  18  28  43  64  93 127 158 189 226 267
#     4  11  20  30  45  65  93 127 160 194 231 273
#     4   9  20  34  47  67  93 121 156 194 231 277
#     4   9  16  27  44  65  91 123 156 189 226 270
#     4   9  17  29  45  67  93 123 156 189 229 278
#     4  10  20  31  43  63  92 126 164 200 232 269
#
# _framework density 16.138368
#
# number of rings (size 3 to 8) (size 9 to 14) (size 15 to 20)
#    0.000    2.286    1.429    2.143    0.000    3.143 
#    0.000    0.000    0.000    0.000    0.000    1.000 
#    0.000    5.714    0.000    0.000    0.000    0.000 
#
# Total GULP energy -694035.635550 kJ/mol
# GULP energy per Si atom -12393.493492 kJ/mol
# Density = 1.610164 g / cm^3
# Si number density = 16.138368 Si / 1000 Ang^3
#
#
#
# Elastic Constant Matrix: (Units=GPa)
#
#
# Indices 1 2 3 4 5 6 
#
# 1 126.8910 52.3719 55.9337 0.0000 0.0000 0.0000
# 2 52.3719 89.3252 44.1197 0.0000 0.0000 0.0000
# 3 55.9337 44.1197 70.9594 0.0000 0.0000 0.0000
# 4 0.0000 0.0000 0.0000 22.5413 0.0000 0.0000
# 5 0.0000 0.0000 0.0000 0.0000 16.3904 0.0000
# 6 0.0000 0.0000 0.0000 0.0000 0.0000 23.1608
#
#
#
# Elastic Compliance Matrix: (Units=1/GPa)
#
#
# Indices 1 2 3 4 5 6 
#
# 1 0.012854 -0.003654 -0.007860 0.000000 0.000000 0.000000
# 2 -0.003654 0.017196 -0.007811 0.000000 0.000000 0.000000
# 3 -0.007860 -0.007811 0.025145 0.000000 0.000000 0.000000
# 4 0.000000 0.000000 0.000000 0.044363 0.000000 0.000000
# 5 0.000000 0.000000 0.000000 0.000000 0.061011 0.000000
# 6 0.000000 0.000000 0.000000 0.000000 0.000000 0.043176
#
#
# Mechanical properties :
#
#
# Convention : Reuss Voigt Hill
#
# Bulk Modulus (GPa) = 60.44603 65.78070 63.11336
# Shear Modulus (GPa) = 20.16865 21.40185 20.78525
#
# Velocity S-wave (km/s) = 3.53899 3.64558 3.59268
# Velocity P-wave (km/s) = 7.36447 7.65306 7.51015
#
# Compressibility (1/GPa) = 0.01654368
#
# Stress axis : x y z
#
# Youngs Moduli (GPa) = 77.79968 58.15467 39.76954
#
# Poissons Ratio (x) = 0.21249 0.31259
# Poissons Ratio (y) = 0.28427 0.31065
# Poissons Ratio (z) = 0.61150 0.45426
#
# Static dielectric constant tensor:
#      x y z
#    x 3.397830 0.000000 0.000000 
#    y 0.000000 3.168880 0.000000 
#    z 0.000000 0.000000 2.646430 
# 
# 
# High freq. dielectric constant tensor:
#      x y z
#    x 1.628620 0.000000 0.000000 
#    y 0.000000 1.634600 0.000000 
#    z 0.000000 0.000000 1.564900 
# 
# From -- ./inp_files/24958.got.cif
#   From: 2010.03.12/outbox.cif.g09.slc.cpg/sg59_13_cif.got.tgz:24958.got - 2010.04.16 16:29:54.
