data_PCOD8239242
_publ_section_title
;
Structure prediction by ZEFSAII (Michael W. Deem and Ramdas Pophale) SiO2 
 PCOD8239242
Probable space group: P M M N
;
_chemical_formula_sum "Si O2"
_cell_formula_units_Z 64
_cell_length_a 9.297600
_cell_length_b 21.962256
_cell_length_c 20.293700
_cell_angle_alpha 90.000000
_cell_angle_beta 90.000000
_cell_angle_gamma 90.000000
_cell_volume 4143.897873
_symmetry_space_group_name_H-M "P M M N"
_symmetry_group_IT_number 59
_space_group.IT_coordinate_system_code '2'
_symmetry_cell_setting 'orthorhombic'
loop_
_space_group_symop_operation_xyz
x,y,z
1/2-x,1/2-y,z
1/2+x,-y,-z
-x,1/2+y,-z
-x,-y,-z
1/2+x,1/2+y,-z
1/2-x,y,z
x,1/2-y,z
loop_
_atom_site_type_symbol
_atom_site_label
_atom_site_fract_x
_atom_site_fract_y
_atom_site_fract_z
Si Si1 0.084764 0.034129 0.263165
Si Si2 0.917790 0.680541 0.355250
Si Si3 0.083361 0.607495 0.245320
Si Si4 0.081140 0.438523 0.017167
Si Si5 0.083482 0.467422 0.407988
Si Si6 0.087022 0.944561 0.859745
Si Si7 0.083731 0.418440 0.543692
Si Si8 0.090727 0.411072 0.876735
O O1 0.250000 0.045943 0.243548
O O2 0.052792 0.962049 0.264911
O O3 0.047495 0.060340 0.336009
O O4 0.984965 0.069471 0.211065
O O5 0.750000 0.674853 0.338215
O O6 0.965684 0.750000 0.364834
O O7 0.954583 0.646535 0.424134
O O8 0.004718 0.651745 0.295542
O O9 0.250000 0.623882 0.245680
O O10 0.023677 0.620394 0.171565
O O11 0.250000 0.451312 0.030700
O O12 0.005421 0.410938 0.082678
O O13 0.061985 0.393783 0.953720
O O14 0.000000 0.500000 0.000000
O O15 0.250000 0.485468 0.410452
O O16 0.043456 0.418961 0.465608
O O17 0.999973 0.529886 0.417399
O O18 0.250000 0.919617 0.860294
O O19 0.081475 0.016291 0.871444
O O20 0.250000 0.434008 0.553121
O O21 0.250000 0.389209 0.855776
#
# Coordination Sequence:
#
# PCOD8239242 Si02
#       8
#     8   8   8   8   8   8   8   8
#     4   9  16  25  37  54  77 102 127 162 202 241
#     4  10  20  32  44  58  79 107 136 167 204 247
#     4  10  18  27  40  57  75  98 131 169 203 238
#     4   9  15  23  34  49  70  98 131 163 193 226
#     4   9  16  27  42  60  80 100 128 167 208 246
#     4   9  16  23  33  50  73 101 132 161 190 230
#     4   9  17  28  43  60  77 101 131 165 204 247
#     4   8  15  25  36  50  70  98 129 162 195 230
#
# _framework density 15.444395
#
# number of rings (size 3 to 8) (size 9 to 14) (size 15 to 20)
#    0.000    2.875    1.250    1.875    0.000    4.750 
#    0.000    0.000    0.000    0.000    0.000    0.000 
#    0.000    0.000    0.000    1.125    0.000   23.375 
#
# Total GULP energy -793103.495859 kJ/mol
# GULP energy per Si atom -12392.242123 kJ/mol
# Density = 1.540924 g / cm^3
# Si number density = 15.444395 Si / 1000 Ang^3
#
#
#
# Elastic Constant Matrix: (Units=GPa)
#
#
# Indices 1 2 3 4 5 6 
#
# 1 81.1266 24.0049 63.5722 0.0000 0.0000 0.0000
# 2 24.0049 31.9327 32.3790 0.0000 0.0000 0.0000
# 3 63.5722 32.3790 146.2089 0.0000 0.0000 0.0000
# 4 0.0000 0.0000 0.0000 11.0111 0.0000 0.0000
# 5 0.0000 0.0000 0.0000 0.0000 26.0801 0.0000
# 6 0.0000 0.0000 0.0000 0.0000 0.0000 10.4206
#
#
#
# Elastic Compliance Matrix: (Units=1/GPa)
#
#
# Indices 1 2 3 4 5 6 
#
# 1 0.020200 -0.008097 -0.006990 0.000000 0.000000 0.000000
# 2 -0.008097 0.043630 -0.006141 0.000000 0.000000 0.000000
# 3 -0.006990 -0.006141 0.011239 0.000000 0.000000 0.000000
# 4 0.000000 0.000000 0.000000 0.090817 0.000000 0.000000
# 5 0.000000 0.000000 0.000000 0.000000 0.038343 0.000000
# 6 0.000000 0.000000 0.000000 0.000000 0.000000 0.095963
#
#
# Mechanical properties :
#
#
# Convention : Reuss Voigt Hill
#
# Bulk Modulus (GPa) = 30.66394 55.46448 43.06421
# Shear Modulus (GPa) = 14.14347 18.78985 16.46666
#
# Velocity S-wave (km/s) = 3.02945 3.49178 3.26880
# Velocity P-wave (km/s) = 5.66871 7.22821 6.49543
#
# Compressibility (1/GPa) = 0.03261160
#
# Stress axis : x y z
#
# Youngs Moduli (GPa) = 49.50598 22.91986 88.97825
#
# Poissons Ratio (x) = 0.18559 0.62192
# Poissons Ratio (y) = 0.40087 0.54645
# Poissons Ratio (z) = 0.34603 0.14076
#
# Static dielectric constant tensor:
#      x y z
#    x 3.085400 0.000000 0.000000 
#    y 0.000000 2.392280 0.000000 
#    z 0.000000 0.000000 3.521400 
# 
# 
# High freq. dielectric constant tensor:
#      x y z
#    x 1.603260 0.000000 0.000000 
#    y 0.000000 1.504290 0.000000 
#    z 0.000000 0.000000 1.613880 
# 
# From -- ./inp_files/29763.got.cif
#   From: 2010.03.12/outbox.cif.g09.slc.cpg/sg59_15_cif.got.tgz:29763.got - 2010.04.16 16:29:54.
