data_PCOD8239140
_publ_section_title
;
Structure prediction by ZEFSAII (Michael W. Deem and Ramdas Pophale) SiO2 
 PCOD8239140
Probable space group: P M M N
;
_chemical_formula_sum "Si O2"
_cell_formula_units_Z 64
_cell_length_a 18.494704
_cell_length_b 14.094284
_cell_length_c 15.390337
_cell_angle_alpha 90.000000
_cell_angle_beta 90.000000
_cell_angle_gamma 90.000000
_cell_volume 4011.793154
_symmetry_space_group_name_H-M "P M M N"
_symmetry_group_IT_number 59
_space_group.IT_coordinate_system_code '2'
_symmetry_cell_setting 'orthorhombic'
loop_
_space_group_symop_operation_xyz
x,y,z
1/2-x,1/2-y,z
1/2+x,-y,-z
-x,1/2+y,-z
-x,-y,-z
1/2+x,1/2+y,-z
1/2-x,y,z
x,1/2-y,z
loop_
_atom_site_type_symbol
_atom_site_label
_atom_site_fract_x
_atom_site_fract_y
_atom_site_fract_z
Si Si1 0.334181 0.027121 0.308600
Si Si2 0.333224 0.138601 0.133531
Si Si3 0.596792 0.358372 0.776551
Si Si4 0.665536 0.355962 0.959408
Si Si5 0.169434 0.137028 0.661486
Si Si6 0.835799 0.644588 0.529649
Si Si7 0.431479 0.139052 0.815267
Si Si8 0.917329 0.972651 0.012961
O O1 0.250000 0.003705 0.318303
O O2 0.348880 0.097796 0.228821
O O3 0.365996 0.075744 0.395492
O O4 0.376488 0.927847 0.299056
O O5 0.250000 0.118769 0.105951
O O6 0.349788 0.250000 0.135047
O O7 0.387444 0.088384 0.067130
O O8 0.604200 0.250000 0.744228
O O9 0.646699 0.378993 0.859751
O O10 0.515061 0.383205 0.800800
O O11 0.750000 0.367118 0.972357
O O12 0.638845 0.250000 0.982934
O O13 0.625988 0.428914 0.022914
O O14 0.250000 0.098373 0.682841
O O15 0.171001 0.250000 0.660283
O O16 0.143723 0.102922 0.565624
O O17 0.113686 0.099096 0.733461
O O18 0.750000 0.652123 0.537648
O O19 0.869024 0.750000 0.542517
O O20 0.417340 0.250000 0.829374
O O21 0.403651 0.086282 0.900338
O O22 0.000000 0.000000 0.000000
#
# Coordination Sequence:
#
# PCOD8239140 Si02
#       8
#     8   8   8   8   8   8   8   8
#     4  10  17  28  46  69  94 122 156 192 234 285
#     4  10  20  31  44  67  98 124 148 186 239 294
#     4  10  19  32  47  65  92 126 163 200 237 275
#     4  10  20  34  50  66  88 123 166 206 236 270
#     4   8  15  29  48  70  94 121 154 191 231 281
#     4   8  14  26  46  70  95 122 151 185 231 288
#     4  10  20  33  49  69  96 127 159 196 242 291
#     4  12  21  32  48  68  94 127 160 196 239 288
#
# _framework density 15.952966
#
# number of rings (size 3 to 8) (size 9 to 14) (size 15 to 20)
#    0.000    2.250    2.500    2.250    0.000    3.750 
#    0.000    1.875    0.000    0.000    0.000    0.875 
#    0.000    1.000    0.000    0.000    0.000    0.000 
#
# Total GULP energy -793532.282448 kJ/mol
# GULP energy per Si atom -12398.941913 kJ/mol
# Density = 1.591666 g / cm^3
# Si number density = 15.952966 Si / 1000 Ang^3
#
#
#
# Elastic Constant Matrix: (Units=GPa)
#
#
# Indices 1 2 3 4 5 6 
#
# 1 52.8264 33.5793 39.0637 0.0000 0.0000 0.0000
# 2 33.5793 82.3559 45.4516 0.0000 0.0000 0.0000
# 3 39.0637 45.4516 110.0620 0.0000 0.0000 0.0000
# 4 0.0000 0.0000 0.0000 18.7670 0.0000 0.0000
# 5 0.0000 0.0000 0.0000 0.0000 16.9582 0.0000
# 6 0.0000 0.0000 0.0000 0.0000 0.0000 24.4816
#
#
#
# Elastic Compliance Matrix: (Units=1/GPa)
#
#
# Indices 1 2 3 4 5 6 
#
# 1 0.029262 -0.008029 -0.007070 0.000000 0.000000 0.000000
# 2 -0.008029 0.017930 -0.004555 0.000000 0.000000 0.000000
# 3 -0.007070 -0.004555 0.013476 0.000000 0.000000 0.000000
# 4 0.000000 0.000000 0.000000 0.053285 0.000000 0.000000
# 5 0.000000 0.000000 0.000000 0.000000 0.058968 0.000000
# 6 0.000000 0.000000 0.000000 0.000000 0.000000 0.040847
#
#
# Mechanical properties :
#
#
# Convention : Reuss Voigt Hill
#
# Bulk Modulus (GPa) = 46.81627 53.49259 50.15443
# Shear Modulus (GPa) = 19.21632 20.51802 19.86717
#
# Velocity S-wave (km/s) = 3.47444 3.59019 3.53279
# Velocity P-wave (km/s) = 6.74580 7.12673 6.93888
#
# Compressibility (1/GPa) = 0.02136010
#
# Stress axis : x y z
#
# Youngs Moduli (GPa) = 34.17430 55.77292 74.20602
#
# Poissons Ratio (x) = 0.44781 0.52463
# Poissons Ratio (y) = 0.27439 0.33798
# Poissons Ratio (z) = 0.24161 0.25403
#
# Static dielectric constant tensor:
#      x y z
#    x 2.970340 0.000000 0.000000 
#    y 0.000000 3.107950 0.000000 
#    z 0.000000 0.000000 3.124020 
# 
# 
# High freq. dielectric constant tensor:
#      x y z
#    x 1.601520 0.000000 0.000000 
#    y 0.000000 1.606460 0.000000 
#    z 0.000000 0.000000 1.601220 
# 
# From -- ./inp_files/24026.got.cif
#   From: 2010.03.12/outbox.cif.g09.slc.cpg/sg59_13_cif.got.tgz:24026.got - 2010.04.16 16:29:54.
