data_PCOD8239386
_publ_section_title
;
Structure prediction by ZEFSAII (Michael W. Deem and Ramdas Pophale) SiO2 
 PCOD8239386
Probable space group: P M M N
;
_chemical_formula_sum "Si O2"
_cell_formula_units_Z 56
_cell_length_a 22.022538
_cell_length_b 8.999634
_cell_length_c 17.538438
_cell_angle_alpha 90.000000
_cell_angle_beta 90.000000
_cell_angle_gamma 90.000000
_cell_volume 3476.026892
_symmetry_space_group_name_H-M "P M M N"
_symmetry_group_IT_number 59
_space_group.IT_coordinate_system_code '2'
_symmetry_cell_setting 'orthorhombic'
loop_
_space_group_symop_operation_xyz
x,y,z
1/2-x,1/2-y,z
1/2+x,-y,-z
-x,1/2+y,-z
-x,-y,-z
1/2+x,1/2+y,-z
1/2-x,y,z
x,1/2-y,z
loop_
_atom_site_type_symbol
_atom_site_label
_atom_site_fract_x
_atom_site_fract_y
_atom_site_fract_z
Si Si1 0.399587 0.574357 0.784565
Si Si2 0.558012 0.915325 0.907957
Si Si3 0.027717 0.925870 0.239503
Si Si4 0.078212 0.419874 0.550597
Si Si5 0.180857 0.078835 0.665317
Si Si6 0.917370 0.085543 0.049533
Si Si7 0.962762 0.578545 0.611705
O O1 0.411607 0.750000 0.776810
O O2 0.459527 0.488732 0.757553
O O3 0.343200 0.523392 0.733798
O O4 0.383866 0.533571 0.872797
O O5 0.581443 0.750000 0.889858
O O6 0.488452 0.913996 0.932284
O O7 0.565865 0.015630 0.832816
O O8 0.597753 0.978983 0.978361
O O9 0.025411 0.750000 0.236097
O O10 0.060738 0.981632 0.316708
O O11 0.056791 0.250000 0.565816
O O12 0.143760 0.450859 0.587512
O O13 0.082402 0.448796 0.459696
O O14 0.030586 0.530920 0.588510
O O15 0.250000 0.034220 0.648406
O O16 0.174925 0.250000 0.690742
O O17 0.896015 0.250000 0.025940
O O18 0.964495 0.750000 0.636226
#
# Coordination Sequence:
#
# PCOD8239386 Si02
#       7
#     8   8   8   8   8   8   8
#     4  10  19  30  44  62  84 114 151 186 220 260
#     4   9  16  25  38  58  83 112 145 175 208 251
#     4  11  19  27  41  61  88 118 147 180 222 267
#     4   9  18  31  45  63  86 115 147 182 227 271
#     4  10  20  33  48  66  89 117 150 187 226 269
#     4   8  15  26  38  55  81 111 143 176 210 250
#     4  10  18  28  44  64  87 114 148 186 221 269
#
# _framework density 16.110347000000001
#
# number of rings (size 3 to 8) (size 9 to 14) (size 15 to 20)
#    0.000    2.429    1.429    3.429    0.000    4.857 
#    0.000    0.000    0.000    0.000    0.000    0.000 
#    0.000    1.143    0.000    6.000    0.000    3.286 
#
# Total GULP energy -694231.920668 kJ/mol
# GULP energy per Si atom -12396.998583 kJ/mol
# Density = 1.607368 g / cm^3
# Si number density = 16.110347 Si / 1000 Ang^3
#
#
#
# Elastic Constant Matrix: (Units=GPa)
#
#
# Indices 1 2 3 4 5 6 
#
# 1 48.2134 24.5354 41.9974 0.0000 0.0000 0.0000
# 2 24.5354 110.6310 69.5667 0.0000 0.0000 0.0000
# 3 41.9974 69.5667 145.1441 0.0000 0.0000 0.0000
# 4 0.0000 0.0000 0.0000 31.8435 0.0000 0.0000
# 5 0.0000 0.0000 0.0000 0.0000 14.4836 0.0000
# 6 0.0000 0.0000 0.0000 0.0000 0.0000 12.0396
#
#
#
# Elastic Compliance Matrix: (Units=1/GPa)
#
#
# Indices 1 2 3 4 5 6 
#
# 1 0.027925 -0.001592 -0.007317 0.000000 0.000000 0.000000
# 2 -0.001592 0.013029 -0.005784 0.000000 0.000000 0.000000
# 3 -0.007317 -0.005784 0.011779 0.000000 0.000000 0.000000
# 4 0.000000 0.000000 0.000000 0.031404 0.000000 0.000000
# 5 0.000000 0.000000 0.000000 0.000000 0.069044 0.000000
# 6 0.000000 0.000000 0.000000 0.000000 0.000000 0.083059
#
#
# Mechanical properties :
#
#
# Convention : Reuss Voigt Hill
#
# Bulk Modulus (GPa) = 42.83211 64.02082 53.42646
# Shear Modulus (GPa) = 18.28763 22.86594 20.57679
#
# Velocity S-wave (km/s) = 3.37285 3.77149 3.57773
# Velocity P-wave (km/s) = 6.46627 7.66751 7.09237
#
# Compressibility (1/GPa) = 0.02334697
#
# Stress axis : x y z
#
# Youngs Moduli (GPa) = 35.81025 76.74966 84.89516
#
# Poissons Ratio (x) = 0.12219 0.62118
# Poissons Ratio (y) = 0.05701 0.49105
# Poissons Ratio (z) = 0.26202 0.44394
#
# Static dielectric constant tensor:
#      x y z
#    x 2.502010 0.000000 0.000000 
#    y 0.000000 3.183970 0.000000 
#    z 0.000000 0.000000 3.437090 
# 
# 
# High freq. dielectric constant tensor:
#      x y z
#    x 1.537980 0.000000 0.000000 
#    y 0.000000 1.631860 0.000000 
#    z 0.000000 0.000000 1.638060 
# 
# From -- ./inp_files/26378.got.cif
#   From: 2010.03.12/outbox.cif.g09.slc.cpg/sg59_14_cif.got.tgz:26378.got - 2010.04.16 16:29:54.
