data_PCOD8239764
_publ_section_title
;
Structure prediction by ZEFSAII (Michael W. Deem and Ramdas Pophale) SiO2 
 PCOD8239764
Probable space group: P M M N
;
_chemical_formula_sum "Si O2"
_cell_formula_units_Z 56
_cell_length_a 8.738841
_cell_length_b 21.440616
_cell_length_c 16.855507
_cell_angle_alpha 90.000000
_cell_angle_beta 90.000000
_cell_angle_gamma 90.000000
_cell_volume 3158.151186
_symmetry_space_group_name_H-M "P M M N"
_symmetry_group_IT_number 59
_space_group.IT_coordinate_system_code '2'
_symmetry_cell_setting 'orthorhombic'
loop_
_space_group_symop_operation_xyz
x,y,z
1/2-x,1/2-y,z
1/2+x,-y,-z
-x,1/2+y,-z
-x,-y,-z
1/2+x,1/2+y,-z
1/2-x,y,z
x,1/2-y,z
loop_
_atom_site_type_symbol
_atom_site_label
_atom_site_fract_x
_atom_site_fract_y
_atom_site_fract_z
Si Si1 0.930366 0.939573 0.543792
Si Si2 0.429356 0.682432 0.149240
Si Si3 0.930722 0.482396 0.302225
Si Si4 0.427357 0.584492 0.029217
Si Si5 0.573657 0.112505 0.698418
Si Si6 0.570724 0.024786 0.125792
Si Si7 0.426035 0.678819 0.461459
O O1 0.750000 0.947013 0.539295
O O2 0.986276 0.937700 0.634919
O O3 0.976648 0.872824 0.507837
O O4 0.000000 0.000000 0.500000
O O5 0.250000 0.689294 0.165117
O O6 0.509093 0.750000 0.150371
O O7 0.460522 0.653479 0.062127
O O8 0.495020 0.639744 0.219715
O O9 0.750000 0.472394 0.308897
O O10 0.997241 0.465503 0.214122
O O11 0.970983 0.553466 0.324713
O O12 0.250000 0.565941 0.036988
O O13 0.518773 0.539325 0.087012
O O14 0.477812 0.579607 0.936543
O O15 0.750000 0.090716 0.707086
O O16 0.557429 0.165804 0.632170
O O17 0.750000 0.021548 0.137249
O O18 0.250000 0.672071 0.487954
O O19 0.483449 0.750000 0.478052
#
# Coordination Sequence:
#
# PCOD8239764 Si02
#       7
#     8   8   8   8   8   8   8
#     4  12  24  38  57  81 108 140 180 226 274 323
#     4   9  16  26  44  72 103 134 169 207 248 301
#     4  11  21  33  51  75 107 141 174 220 270 315
#     4   9  16  28  47  70  96 130 168 205 248 302
#     4  10  18  30  50  76 106 139 172 207 254 316
#     4   9  18  30  46  70 100 129 163 211 260 300
#     4  10  21  37  57  81 111 145 178 216 266 325
#
# _framework density 17.731891999999998
#
# number of rings (size 3 to 8) (size 9 to 14) (size 15 to 20)
#    0.000    2.000    2.857    2.143    0.000    2.571 
#    0.000    0.000    0.000    3.429    0.000    4.000 
#    0.000    0.000    0.000    0.000    0.000    0.000 
#
# Total GULP energy -694046.569800 kJ/mol
# GULP energy per Si atom -12393.688746 kJ/mol
# Density = 1.769153 g / cm^3
# Si number density = 17.731892 Si / 1000 Ang^3
#
#
#
# Elastic Constant Matrix: (Units=GPa)
#
#
# Indices 1 2 3 4 5 6 
#
# 1 54.2936 27.8402 34.7934 0.0000 0.0000 0.0000
# 2 27.8402 97.6314 51.7064 0.0000 0.0000 0.0000
# 3 34.7934 51.7064 128.2445 0.0000 0.0000 0.0000
# 4 0.0000 0.0000 0.0000 23.6204 0.0000 0.0000
# 5 0.0000 0.0000 0.0000 0.0000 20.8480 0.0000
# 6 0.0000 0.0000 0.0000 0.0000 0.0000 19.8356
#
#
#
# Elastic Compliance Matrix: (Units=1/GPa)
#
#
# Indices 1 2 3 4 5 6 
#
# 1 0.023602 -0.004246 -0.004692 0.000000 0.000000 0.000000
# 2 -0.004246 0.013787 -0.004407 0.000000 0.000000 0.000000
# 3 -0.004692 -0.004407 0.010847 0.000000 0.000000 0.000000
# 4 0.000000 0.000000 0.000000 0.042336 0.000000 0.000000
# 5 0.000000 0.000000 0.000000 0.000000 0.047966 0.000000
# 6 0.000000 0.000000 0.000000 0.000000 0.000000 0.050414
#
#
# Mechanical properties :
#
#
# Convention : Reuss Voigt Hill
#
# Bulk Modulus (GPa) = 46.40748 56.53882 51.47315
# Shear Modulus (GPa) = 22.43921 23.91611 23.17766
#
# Velocity S-wave (km/s) = 3.56121 3.67653 3.61933
# Velocity P-wave (km/s) = 6.56796 7.06945 6.82332
#
# Compressibility (1/GPa) = 0.02154825
#
# Stress axis : x y z
#
# Youngs Moduli (GPa) = 42.36944 72.53099 92.18894
#
# Poissons Ratio (x) = 0.30793 0.43251
# Poissons Ratio (y) = 0.17988 0.40627
# Poissons Ratio (z) = 0.19878 0.31964
#
# Static dielectric constant tensor:
#      x y z
#    x 3.128780 0.000000 0.000000 
#    y 0.000000 3.264930 0.000000 
#    z 0.000000 0.000000 3.669350 
# 
# 
# High freq. dielectric constant tensor:
#      x y z
#    x 1.667900 0.000000 0.000000 
#    y 0.000000 1.662190 0.000000 
#    z 0.000000 0.000000 1.694880 
# 
# From -- ./inp_files/26128.got.cif
#   From: 2010.03.12/outbox.cif.g09.slc.cpg/sg59_14_cif.got.tgz:26128.got - 2010.04.16 16:29:54.
