data_PCOD8239952
_publ_section_title
;
Structure prediction by ZEFSAII (Michael W. Deem and Ramdas Pophale) SiO2 
 PCOD8239952
Probable space group: P M M N
;
_chemical_formula_sum "Si O2"
_cell_formula_units_Z 64
_cell_length_a 8.963459
_cell_length_b 15.425828
_cell_length_c 23.849715
_cell_angle_alpha 90.000000
_cell_angle_beta 90.000000
_cell_angle_gamma 90.000000
_cell_volume 3297.670921
_symmetry_space_group_name_H-M "P M M N"
_symmetry_group_IT_number 59
_space_group.IT_coordinate_system_code '2'
_symmetry_cell_setting 'orthorhombic'
loop_
_space_group_symop_operation_xyz
x,y,z
1/2-x,1/2-y,z
1/2+x,-y,-z
-x,1/2+y,-z
-x,-y,-z
1/2+x,1/2+y,-z
1/2-x,y,z
x,1/2-y,z
loop_
_atom_site_type_symbol
_atom_site_label
_atom_site_fract_x
_atom_site_fract_y
_atom_site_fract_z
Si Si1 0.926111 0.497597 0.182267
Si Si2 0.072830 0.155614 0.617098
Si Si3 0.579120 0.348190 0.880410
Si Si4 0.073492 0.997339 0.689721
Si Si5 0.577091 0.407784 0.004079
Si Si6 0.077699 0.348045 0.112715
Si Si7 0.925482 0.907958 0.501617
Si Si8 0.922797 0.651850 0.622418
O O1 0.750000 0.486095 0.176698
O O2 0.979271 0.504024 0.246333
O O3 0.972013 0.585958 0.151656
O O4 0.003316 0.413746 0.156021
O O5 0.250000 0.151751 0.620386
O O6 0.015901 0.250000 0.638070
O O7 0.019803 0.144758 0.552832
O O8 0.005412 0.079965 0.656341
O O9 0.750000 0.370323 0.865109
O O10 0.538711 0.250000 0.862437
O O11 0.554704 0.355839 0.946778
O O12 0.250000 0.996701 0.685117
O O13 0.015686 0.908839 0.663237
O O14 0.750000 0.421431 0.018787
O O15 0.500000 0.500000 0.000000
O O16 0.501094 0.352204 0.052659
O O17 0.250000 0.374384 0.105505
O O18 0.061290 0.250000 0.135887
O O19 0.750000 0.921416 0.499535
O O20 0.974475 0.858132 0.557866
O O21 0.000000 0.000000 0.500000
O O22 0.750000 0.627240 0.628382
O O23 0.953506 0.750000 0.641329
#
# Coordination Sequence:
#
# PCOD8239952 Si02
#       8
#     8   8   8   8   8   8   8   8
#     4  11  24  40  60  85 115 153 198 249 295 340
#     4   9  17  32  56  82 110 145 183 225 276 337
#     4  10  22  40  62  88 120 157 192 230 284 348
#     4  10  22  39  58  83 111 146 194 240 286 336
#     4  11  21  36  62  93 124 156 190 231 287 348
#     4  11  24  41  62  88 118 155 198 242 292 351
#     4  10  18  31  55  83 112 146 182 224 279 339
#     4  10  21  36  56  84 115 148 187 230 282 344
#
# _framework density 19.407637999999999
#
# number of rings (size 3 to 8) (size 9 to 14) (size 15 to 20)
#    0.000    1.750    2.500    1.875    0.000    6.000 
#    0.000    3.750    0.000    2.250    0.000    0.000 
#    0.000    0.000    0.000    0.000    0.000    0.000 
#
# Total GULP energy -793680.448995 kJ/mol
# GULP energy per Si atom -12401.257016 kJ/mol
# Density = 1.936347 g / cm^3
# Si number density = 19.407638 Si / 1000 Ang^3
#
#
#
# Elastic Constant Matrix: (Units=GPa)
#
#
# Indices 1 2 3 4 5 6 
#
# 1 61.9256 35.8017 47.4721 0.0000 0.0000 0.0000
# 2 35.8017 134.2152 58.6572 0.0000 0.0000 0.0000
# 3 47.4721 58.6572 132.6969 0.0000 0.0000 0.0000
# 4 0.0000 0.0000 0.0000 8.0552 0.0000 0.0000
# 5 0.0000 0.0000 0.0000 0.0000 21.1893 0.0000
# 6 0.0000 0.0000 0.0000 0.0000 0.0000 27.6925
#
#
#
# Elastic Compliance Matrix: (Units=1/GPa)
#
#
# Indices 1 2 3 4 5 6 
#
# 1 0.023302 -0.003188 -0.006927 0.000000 0.000000 0.000000
# 2 -0.003188 0.009671 -0.003134 0.000000 0.000000 0.000000
# 3 -0.006927 -0.003134 0.011400 0.000000 0.000000 0.000000
# 4 0.000000 0.000000 0.000000 0.124143 0.000000 0.000000
# 5 0.000000 0.000000 0.000000 0.000000 0.047194 0.000000
# 6 0.000000 0.000000 0.000000 0.000000 0.000000 0.036111
#
#
# Mechanical properties :
#
#
# Convention : Reuss Voigt Hill
#
# Bulk Modulus (GPa) = 55.94940 68.07772 62.01356
# Shear Modulus (GPa) = 17.58851 23.84787 20.71819
#
# Velocity S-wave (km/s) = 3.01369 3.50921 3.27085
# Velocity P-wave (km/s) = 6.40320 7.18146 6.80347
#
# Compressibility (1/GPa) = 0.01787329
#
# Stress axis : x y z
#
# Youngs Moduli (GPa) = 42.91510 103.40134 87.72313
#
# Poissons Ratio (x) = 0.32969 0.60764
# Poissons Ratio (y) = 0.13683 0.27495
# Poissons Ratio (z) = 0.29726 0.32409
#
# Static dielectric constant tensor:
#      x y z
#    x 3.467830 0.000000 0.000000 
#    y 0.000000 3.622930 0.000000 
#    z 0.000000 0.000000 4.157320 
# 
# 
# High freq. dielectric constant tensor:
#      x y z
#    x 1.740410 0.000000 0.000000 
#    y 0.000000 1.769910 0.000000 
#    z 0.000000 0.000000 1.756270 
# 
# From -- ./inp_files/31466.got.cif
#   From: 2010.03.12/outbox.cif.g09.slc.cpg/sg59_16_cif.got.tgz:31466.got - 2010.04.16 16:29:54.
