data_PCOD8239938
_publ_section_title
;
Structure prediction by ZEFSAII (Michael W. Deem and Ramdas Pophale) SiO2 
 PCOD8239938
Probable space group: P M M N
;
_chemical_formula_sum "Si O2"
_cell_formula_units_Z 56
_cell_length_a 9.510660
_cell_length_b 15.343523
_cell_length_c 21.163208
_cell_angle_alpha 90.000000
_cell_angle_beta 90.000000
_cell_angle_gamma 90.000000
_cell_volume 3088.284098
_symmetry_space_group_name_H-M "P M M N"
_symmetry_group_IT_number 59
_space_group.IT_coordinate_system_code '2'
_symmetry_cell_setting 'orthorhombic'
loop_
_space_group_symop_operation_xyz
x,y,z
1/2-x,1/2-y,z
1/2+x,-y,-z
-x,1/2+y,-z
-x,-y,-z
1/2+x,1/2+y,-z
1/2-x,y,z
x,1/2-y,z
loop_
_atom_site_type_symbol
_atom_site_label
_atom_site_fract_x
_atom_site_fract_y
_atom_site_fract_z
Si Si1 0.412680 0.913512 0.993725
Si Si2 0.087435 0.849476 0.856921
Si Si3 0.413549 0.004508 0.207541
Si Si4 0.912818 0.149401 0.417969
Si Si5 0.084838 0.844191 0.127392
Si Si6 0.583203 0.153888 0.561219
Si Si7 0.413403 0.496572 0.353767
O O1 0.250000 0.939902 0.993923
O O2 0.449423 0.853046 0.053282
O O3 0.454334 0.863117 0.930049
O O4 0.500000 0.000000 0.000000
O O5 0.250000 0.873125 0.845983
O O6 0.056477 0.750000 0.838656
O O7 0.994603 0.908205 0.810985
O O8 0.250000 0.018977 0.191472
O O9 0.437092 0.983154 0.280574
O O10 0.479598 0.923525 0.168077
O O11 0.750000 0.124536 0.409511
O O12 0.937842 0.250000 0.399768
O O13 0.962742 0.131794 0.489746
O O14 0.004535 0.090761 0.371540
O O15 0.250000 0.844799 0.139679
O O16 0.023280 0.750000 0.149213
O O17 0.750000 0.157411 0.565128
O O18 0.524331 0.250000 0.580534
O O19 0.524347 0.079376 0.607737
O O20 0.250000 0.481864 0.369693
#
# Coordination Sequence:
#
# PCOD8239938 Si02
#       7
#     8   8   8   8   8   8   8
#     4  10  18  31  54  78 101 127 160 206 255 297
#     4  10  21  36  54  75  99 132 173 211 249 295
#     4  10  21  35  50  74 104 134 168 206 249 297
#     4   9  18  33  53  75  99 131 169 205 246 298
#     4   9  17  31  52  75  99 128 162 201 246 296
#     4   8  15  30  52  77 103 129 161 205 252 297
#     4  10  20  32  50  76 104 132 165 206 251 295
#
# _framework density 18.133046
#
# number of rings (size 3 to 8) (size 9 to 14) (size 15 to 20)
#    0.000    2.571    1.429    1.714    0.000    4.000 
#    0.000    5.714    0.000    3.857    0.000    2.000 
#    0.000    0.000    0.000    0.000    0.000    0.000 
#
# Total GULP energy -694298.870536 kJ/mol
# GULP energy per Si atom -12398.194117 kJ/mol
# Density = 1.809177 g / cm^3
# Si number density = 18.133046 Si / 1000 Ang^3
#
#
#
# Elastic Constant Matrix: (Units=GPa)
#
#
# Indices 1 2 3 4 5 6 
#
# 1 36.3852 37.6014 25.4175 0.0000 0.0000 0.0000
# 2 37.6014 117.4416 35.1751 0.0000 0.0000 0.0000
# 3 25.4175 35.1751 64.8337 0.0000 0.0000 0.0000
# 4 0.0000 0.0000 0.0000 19.6343 0.0000 0.0000
# 5 0.0000 0.0000 0.0000 0.0000 23.7722 0.0000
# 6 0.0000 0.0000 0.0000 0.0000 0.0000 25.1852
#
#
#
# Elastic Compliance Matrix: (Units=1/GPa)
#
#
# Indices 1 2 3 4 5 6 
#
# 1 0.048412 -0.011720 -0.012621 0.000000 0.000000 0.000000
# 2 -0.011720 0.013004 -0.002461 0.000000 0.000000 0.000000
# 3 -0.012621 -0.002461 0.021707 0.000000 0.000000 0.000000
# 4 0.000000 0.000000 0.000000 0.050931 0.000000 0.000000
# 5 0.000000 0.000000 0.000000 0.000000 0.042066 0.000000
# 6 0.000000 0.000000 0.000000 0.000000 0.000000 0.039706
#
#
# Mechanical properties :
#
#
# Convention : Reuss Voigt Hill
#
# Bulk Modulus (GPa) = 33.87514 46.11647 39.99580
# Shear Modulus (GPa) = 17.90385 21.74943 19.82664
#
# Velocity S-wave (km/s) = 3.14564 3.46704 3.31024
# Velocity P-wave (km/s) = 5.64937 6.44319 6.05929
#
# Compressibility (1/GPa) = 0.02952017
#
# Stress axis : x y z
#
# Youngs Moduli (GPa) = 20.65605 76.89785 46.06816
#
# Poissons Ratio (x) = 0.90124 0.58142
# Poissons Ratio (y) = 0.24209 0.11336
# Poissons Ratio (z) = 0.26070 0.18922
#
# Static dielectric constant tensor:
#      x y z
#    x 3.034480 0.000000 0.000000 
#    y 0.000000 2.748830 0.000000 
#    z 0.000000 0.000000 3.268410 
# 
# 
# High freq. dielectric constant tensor:
#      x y z
#    x 1.663500 0.000000 0.000000 
#    y 0.000000 1.714310 0.000000 
#    z 0.000000 0.000000 1.703560 
# 
# From -- ./inp_files/29026.got.cif
#   From: 2010.03.12/outbox.cif.g09.slc.cpg/sg59_15_cif.got.tgz:29026.got - 2010.04.16 16:29:54.
