data_PCOD8239759
_publ_section_title
;
Structure prediction by ZEFSAII (Michael W. Deem and Ramdas Pophale) SiO2 
 PCOD8239759
Probable space group: P M M N
;
_chemical_formula_sum "Si O2"
_cell_formula_units_Z 48
_cell_length_a 19.188500
_cell_length_b 8.839929
_cell_length_c 16.042037
_cell_angle_alpha 90.000000
_cell_angle_beta 90.000000
_cell_angle_gamma 90.000000
_cell_volume 2721.130167
_symmetry_space_group_name_H-M "P M M N"
_symmetry_group_IT_number 59
_space_group.IT_coordinate_system_code '2'
_symmetry_cell_setting 'orthorhombic'
loop_
_space_group_symop_operation_xyz
x,y,z
1/2-x,1/2-y,z
1/2+x,-y,-z
-x,1/2+y,-z
-x,-y,-z
1/2+x,1/2+y,-z
1/2-x,y,z
x,1/2-y,z
loop_
_atom_site_type_symbol
_atom_site_label
_atom_site_fract_x
_atom_site_fract_y
_atom_site_fract_z
Si Si1 0.030008 0.927518 0.621177
Si Si2 0.567723 0.576644 0.033326
Si Si3 0.523037 0.928002 0.204235
Si Si4 0.891678 0.927737 0.527021
Si Si5 0.882688 0.927561 0.862785
Si Si6 0.750000 0.423685 0.783433
Si Si7 0.250000 0.577201 0.413427
O O1 0.042560 0.750000 0.613340
O O2 0.950753 0.970375 0.595333
O O3 0.085188 0.010575 0.562471
O O4 0.045646 0.981364 0.714370
O O5 0.547986 0.750000 0.034997
O O6 0.580059 0.530683 0.130632
O O7 0.500000 0.500000 0.000000
O O8 0.627436 0.545072 0.963720
O O9 0.520947 0.750000 0.224856
O O10 0.447524 0.980778 0.173595
O O11 0.881461 0.750000 0.520507
O O12 0.818759 0.999634 0.551474
O O13 0.892742 0.750000 0.843166
O O14 0.815769 0.988869 0.817668
O O15 0.750000 0.250000 0.813267
O O16 0.750000 0.436978 0.685071
O O17 0.250000 0.750000 0.442802
#
# Coordination Sequence:
#
# PCOD8239759 Si02
#       7
#     8   8   8   8   8   4   4
#     4  10  20  34  53  78 105 134 171 214 259 306
#     4   8  16  29  46  69  96 126 159 197 240 284
#     4  10  18  30  50  75 102 130 164 206 250 297
#     4  10  21  36  54  75 102 135 170 210 258 309
#     4  10  19  32  49  71 100 133 168 204 245 292
#     4  11  23  35  49  72 101 134 167 199 242 295
#     4  11  23  37  53  74 103 136 169 207 252 307
#
# _framework density 17.639728999999999
#
# number of rings (size 3 to 8) (size 9 to 14) (size 15 to 20)
#    0.000    2.167    0.000    3.500    0.000    7.333 
#    0.000    0.000    0.000    1.000    0.000    4.667 
#    0.000    0.000    0.000    0.000    0.000    0.000 
#
# Total GULP energy -594800.702819 kJ/mol
# GULP energy per Si atom -12391.681309 kJ/mol
# Density = 1.759958 g / cm^3
# Si number density = 17.639729 Si / 1000 Ang^3
#
#
#
# Elastic Constant Matrix: (Units=GPa)
#
#
# Indices 1 2 3 4 5 6 
#
# 1 63.4208 31.1468 28.9546 0.0000 0.0000 0.0000
# 2 31.1468 64.9992 40.7770 0.0000 0.0000 0.0000
# 3 28.9546 40.7770 121.0393 0.0000 0.0000 0.0000
# 4 0.0000 0.0000 0.0000 31.5000 0.0000 0.0000
# 5 0.0000 0.0000 0.0000 0.0000 39.6809 0.0000
# 6 0.0000 0.0000 0.0000 0.0000 0.0000 38.8016
#
#
#
# Elastic Compliance Matrix: (Units=1/GPa)
#
#
# Indices 1 2 3 4 5 6 
#
# 1 0.021023 -0.008773 -0.002073 0.000000 0.000000 0.000000
# 2 -0.008773 0.023169 -0.005707 0.000000 0.000000 0.000000
# 3 -0.002073 -0.005707 0.010680 0.000000 0.000000 0.000000
# 4 0.000000 0.000000 0.000000 0.031746 0.000000 0.000000
# 5 0.000000 0.000000 0.000000 0.000000 0.025201 0.000000
# 6 0.000000 0.000000 0.000000 0.000000 0.000000 0.025772
#
#
# Mechanical properties :
#
#
# Convention : Reuss Voigt Hill
#
# Bulk Modulus (GPa) = 45.94418 50.13512 48.03965
# Shear Modulus (GPa) = 28.09729 31.90189 29.99959
#
# Velocity S-wave (km/s) = 3.99537 4.25729 4.12841
# Velocity P-wave (km/s) = 6.88378 7.25599 7.07233
#
# Compressibility (1/GPa) = 0.02176554
#
# Stress axis : x y z
#
# Youngs Moduli (GPa) = 47.56712 43.16136 93.63019
#
# Poissons Ratio (x) = 0.37866 0.19414
# Poissons Ratio (y) = 0.41731 0.53432
# Poissons Ratio (z) = 0.09863 0.24631
#
# Static dielectric constant tensor:
#      x y z
#    x 3.021230 0.000000 0.000000 
#    y 0.000000 2.413600 0.000000 
#    z 0.000000 0.000000 3.801930 
# 
# 
# High freq. dielectric constant tensor:
#      x y z
#    x 1.644970 0.000000 0.000000 
#    y 0.000000 1.700820 0.000000 
#    z 0.000000 0.000000 1.699130 
# 
# From -- ./inp_files/23682.got.cif
#   From: 2010.03.12/outbox.cif.g09.slc.cpg/sg59_12_cif.got.tgz:23682.got - 2010.04.16 16:29:54.
