data_PCOD8239711
_publ_section_title
;
Structure prediction by ZEFSAII (Michael W. Deem and Ramdas Pophale) SiO2 
 PCOD8239711
Probable space group: P M M N
;
_chemical_formula_sum "Si O2"
_cell_formula_units_Z 56
_cell_length_a 12.597686
_cell_length_b 21.126399
_cell_length_c 12.304508
_cell_angle_alpha 90.000000
_cell_angle_beta 90.000000
_cell_angle_gamma 90.000000
_cell_volume 3274.767789
_symmetry_space_group_name_H-M "P M M N"
_symmetry_group_IT_number 59
_space_group.IT_coordinate_system_code '2'
_symmetry_cell_setting 'orthorhombic'
loop_
_space_group_symop_operation_xyz
x,y,z
1/2-x,1/2-y,z
1/2+x,-y,-z
-x,1/2+y,-z
-x,-y,-z
1/2+x,1/2+y,-z
1/2-x,y,z
x,1/2-y,z
loop_
_atom_site_type_symbol
_atom_site_label
_atom_site_fract_x
_atom_site_fract_y
_atom_site_fract_z
Si Si1 0.874410 0.178174 0.484989
Si Si2 0.628851 0.937671 0.989582
Si Si3 0.870962 0.408204 0.680313
Si Si4 0.013685 0.006357 0.817503
Si Si5 0.366880 0.679811 0.115039
Si Si6 0.624737 0.379443 0.252450
Si Si7 0.015430 0.177532 0.074161
O O1 0.750000 0.185326 0.502684
O O2 0.923598 0.250000 0.488492
O O3 0.918495 0.131717 0.579200
O O4 0.901197 0.142219 0.374074
O O5 0.750000 0.957833 0.990742
O O6 0.618367 0.866662 0.939747
O O7 0.572214 0.983692 0.904730
O O8 0.586448 0.944563 0.114000
O O9 0.750000 0.433491 0.657310
O O10 0.869319 0.361274 0.779532
O O11 0.952657 0.463917 0.713174
O O12 0.087618 0.951044 0.769225
O O13 0.250000 0.680723 0.063160
O O14 0.403681 0.750000 0.148224
O O15 0.442661 0.652035 0.023735
O O16 0.750000 0.372617 0.226353
O O17 0.553851 0.331707 0.181811
O O18 0.051217 0.250000 0.065291
#
# Coordination Sequence:
#
# PCOD8239711 Si02
#       7
#     8   8   8   8   8   8   8
#     4   9  18  32  50  73 100 129 160 201 253 297
#     4  10  20  34  49  69 101 134 164 202 248 295
#     4  10  18  30  49  72 100 131 162 199 243 292
#     4  10  20  33  49  73  97 134 171 202 239 294
#     4   9  16  26  43  69  98 125 156 197 243 289
#     4  10  20  33  50  72 101 133 167 206 247 291
#     4  10  19  31  49  73  98 126 164 202 247 299
#
# _framework density 17.100448
#
# number of rings (size 3 to 8) (size 9 to 14) (size 15 to 20)
#    0.000    2.286    1.429    2.143    0.000    4.000 
#    0.000    0.000    0.000    0.000    0.000    1.000 
#    0.000   11.429    0.000    0.000    0.000    0.000 
#
# Total GULP energy -693964.299380 kJ/mol
# GULP energy per Si atom -12392.219632 kJ/mol
# Density = 1.706153 g / cm^3
# Si number density = 17.100448 Si / 1000 Ang^3
#
#
#
# Elastic Constant Matrix: (Units=GPa)
#
#
# Indices 1 2 3 4 5 6 
#
# 1 52.6190 22.9545 19.8081 0.0000 0.0000 0.0000
# 2 22.9545 82.9599 36.9156 0.0000 0.0000 0.0000
# 3 19.8081 36.9156 83.5985 0.0000 0.0000 0.0000
# 4 0.0000 0.0000 0.0000 17.2296 0.0000 0.0000
# 5 0.0000 0.0000 0.0000 0.0000 16.7072 0.0000
# 6 0.0000 0.0000 0.0000 0.0000 0.0000 23.5379
#
#
#
# Elastic Compliance Matrix: (Units=1/GPa)
#
#
# Indices 1 2 3 4 5 6 
#
# 1 0.022273 -0.004747 -0.003181 0.000000 0.000000 0.000000
# 2 -0.004747 0.016014 -0.005947 0.000000 0.000000 0.000000
# 3 -0.003181 -0.005947 0.015342 0.000000 0.000000 0.000000
# 4 0.000000 0.000000 0.000000 0.058040 0.000000 0.000000
# 5 0.000000 0.000000 0.000000 0.000000 0.059854 0.000000
# 6 0.000000 0.000000 0.000000 0.000000 0.000000 0.042485
#
#
# Mechanical properties :
#
#
# Convention : Reuss Voigt Hill
#
# Bulk Modulus (GPa) = 38.64229 42.05933 40.35081
# Shear Modulus (GPa) = 19.96941 20.79488 20.38214
#
# Velocity S-wave (km/s) = 3.42097 3.49096 3.45615
# Velocity P-wave (km/s) = 6.18469 6.39515 6.29080
#
# Compressibility (1/GPa) = 0.02587838
#
# Stress axis : x y z
#
# Youngs Moduli (GPa) = 44.89740 62.44674 65.18239
#
# Poissons Ratio (x) = 0.29645 0.20735
# Poissons Ratio (y) = 0.21314 0.38761
# Poissons Ratio (z) = 0.14282 0.37134
#
# Static dielectric constant tensor:
#      x y z
#    x 3.142510 0.000000 0.000000 
#    y 0.000000 3.952620 0.000000 
#    z 0.000000 0.000000 3.296370 
# 
# 
# High freq. dielectric constant tensor:
#      x y z
#    x 1.629850 0.000000 0.000000 
#    y 0.000000 1.666270 0.000000 
#    z 0.000000 0.000000 1.658050 
# 
# From -- ./inp_files/16012.got.cif
#   From: 2010.03.12/outbox.cif.g09.slc.cpg/sg59_9_cif.got.tgz:16012.got - 2010.04.16 16:29:54.
