data_PCOD8239554
_publ_section_title
;
Structure prediction by ZEFSAII (Michael W. Deem and Ramdas Pophale) SiO2 
 PCOD8239554
Probable space group: P M M N
;
_chemical_formula_sum "Si O2"
_cell_formula_units_Z 64
_cell_length_a 29.444100
_cell_length_b 9.293613
_cell_length_c 14.780811
_cell_angle_alpha 90.000000
_cell_angle_beta 90.000000
_cell_angle_gamma 90.000000
_cell_volume 4044.651726
_symmetry_space_group_name_H-M "P M M N"
_symmetry_group_IT_number 59
_space_group.IT_coordinate_system_code '2'
_symmetry_cell_setting 'orthorhombic'
loop_
_space_group_symop_operation_xyz
x,y,z
1/2-x,1/2-y,z
1/2+x,-y,-z
-x,1/2+y,-z
-x,-y,-z
1/2+x,1/2+y,-z
1/2-x,y,z
x,1/2-y,z
loop_
_atom_site_type_symbol
_atom_site_label
_atom_site_fract_x
_atom_site_fract_y
_atom_site_fract_z
Si Si1 0.388748 0.917461 0.711665
Si Si2 0.465911 0.415364 0.374007
Si Si3 0.800365 0.583944 0.012568
Si Si4 0.063364 0.913749 0.536553
Si Si5 0.541256 0.418100 0.812726
Si Si6 0.799934 0.416201 0.193654
Si Si7 0.896351 0.582145 0.946678
Si Si8 0.059262 0.084141 0.864675
O O1 0.399546 0.750000 0.725781
O O2 0.397821 0.960782 0.607708
O O3 0.336234 0.956391 0.729606
O O4 0.421405 0.998518 0.780183
O O5 0.452325 0.250000 0.356688
O O6 0.432837 0.481812 0.450506
O O7 0.516733 0.431299 0.409163
O O8 0.460807 0.505192 0.283369
O O9 0.750000 0.540798 0.973542
O O10 0.800723 0.750000 0.039421
O O11 0.811729 0.500657 0.103470
O O12 0.841772 0.552496 0.943670
O O13 0.069436 0.750000 0.502786
O O14 0.550778 0.250000 0.797350
O O15 0.582576 0.486439 0.868075
O O16 0.494807 0.442693 0.868606
O O17 0.750000 0.456866 0.230912
O O18 0.802928 0.250000 0.167172
O O19 0.907238 0.750000 0.929516
O O20 0.917866 0.531640 0.042157
O O21 0.070815 0.250000 0.847767
#
# Coordination Sequence:
#
# PCOD8239554 Si02
#       8
#     8   8   8   8   8   8   8   8
#     4  10  18  29  47  69  95 127 158 189 228 276
#     4  10  19  32  49  68  91 120 153 194 237 276
#     4   9  17  30  48  68  91 121 156 195 237 276
#     4   9  18  31  47  68  92 120 154 190 231 278
#     4  11  22  33  47  67  94 127 162 200 237 275
#     4   9  17  28  44  68  96 124 154 189 229 274
#     4  10  20  33  47  66  94 127 162 196 231 278
#     4  10  20  32  45  66  95 127 163 197 227 268
#
# _framework density 15.823366
#
# number of rings (size 3 to 8) (size 9 to 14) (size 15 to 20)
#    0.000    2.250    2.500    1.125    0.000    2.500 
#    0.000    0.000    0.000    0.000    0.000    0.875 
#    0.000    3.000    0.000    0.000    0.000    0.000 
#
# Total GULP energy -793442.757344 kJ/mol
# GULP energy per Si atom -12397.543083 kJ/mol
# Density = 1.578735 g / cm^3
# Si number density = 15.823366 Si / 1000 Ang^3
#
#
#
# Elastic Constant Matrix: (Units=GPa)
#
#
# Indices 1 2 3 4 5 6 
#
# 1 77.0750 33.7018 30.3582 0.0000 0.0000 0.0000
# 2 33.7018 66.2083 39.8424 0.0000 0.0000 0.0000
# 3 30.3582 39.8424 67.3638 0.0000 0.0000 0.0000
# 4 0.0000 0.0000 0.0000 28.9660 0.0000 0.0000
# 5 0.0000 0.0000 0.0000 0.0000 20.8309 0.0000
# 6 0.0000 0.0000 0.0000 0.0000 0.0000 17.1158
#
#
#
# Elastic Compliance Matrix: (Units=1/GPa)
#
#
# Indices 1 2 3 4 5 6 
#
# 1 0.017367 -0.006413 -0.004034 0.000000 0.000000 0.000000
# 2 -0.006413 0.025818 -0.012380 0.000000 0.000000 0.000000
# 3 -0.004034 -0.012380 0.023985 0.000000 0.000000 0.000000
# 4 0.000000 0.000000 0.000000 0.034523 0.000000 0.000000
# 5 0.000000 0.000000 0.000000 0.000000 0.048006 0.000000
# 6 0.000000 0.000000 0.000000 0.000000 0.000000 0.058425
#
#
# Mechanical properties :
#
#
# Convention : Reuss Voigt Hill
#
# Bulk Modulus (GPa) = 46.47576 46.49466 46.48521
# Shear Modulus (GPa) = 19.16067 20.49885 19.82976
#
# Velocity S-wave (km/s) = 3.48359 3.60318 3.54389
# Velocity P-wave (km/s) = 6.75395 6.83797 6.79609
#
# Compressibility (1/GPa) = 0.02151659
#
# Stress axis : x y z
#
# Youngs Moduli (GPa) = 57.57928 38.73216 41.69283
#
# Poissons Ratio (x) = 0.24839 0.16818
# Poissons Ratio (y) = 0.36926 0.51617
# Poissons Ratio (z) = 0.23226 0.47951
#
# Static dielectric constant tensor:
#      x y z
#    x 3.218480 0.000000 0.000000 
#    y 0.000000 3.807570 0.000000 
#    z 0.000000 0.000000 2.901730 
# 
# 
# High freq. dielectric constant tensor:
#      x y z
#    x 1.598850 0.000000 0.000000 
#    y 0.000000 1.614390 0.000000 
#    z 0.000000 0.000000 1.585350 
# 
# From -- ./inp_files/21821.got.cif
#   From: 2010.03.12/outbox.cif.g09.slc.cpg/sg59_11_cif.got.tgz:21821.got - 2010.04.16 16:29:54.
