data_PCOD8239568
_publ_section_title
;
Structure prediction by ZEFSAII (Michael W. Deem and Ramdas Pophale) SiO2 
 PCOD8239568
Probable space group: P M M N
;
_chemical_formula_sum "Si O2"
_cell_formula_units_Z 48
_cell_length_a 18.282373
_cell_length_b 8.853078
_cell_length_c 16.560978
_cell_angle_alpha 90.000000
_cell_angle_beta 90.000000
_cell_angle_gamma 90.000000
_cell_volume 2680.481635
_symmetry_space_group_name_H-M "P M M N"
_symmetry_group_IT_number 59
_space_group.IT_coordinate_system_code '2'
_symmetry_cell_setting 'orthorhombic'
loop_
_space_group_symop_operation_xyz
x,y,z
1/2-x,1/2-y,z
1/2+x,-y,-z
-x,1/2+y,-z
-x,-y,-z
1/2+x,1/2+y,-z
1/2-x,y,z
x,1/2-y,z
loop_
_atom_site_type_symbol
_atom_site_label
_atom_site_fract_x
_atom_site_fract_y
_atom_site_fract_z
Si Si1 0.329716 0.072499 0.163842
Si Si2 0.921679 0.574897 0.501527
Si Si3 0.331123 0.071355 0.647971
Si Si4 0.587120 0.575854 0.680988
Si Si5 0.023360 0.070854 0.083573
Si Si6 0.956884 0.926770 0.235212
O O1 0.250000 0.000148 0.142578
O O2 0.324567 0.250000 0.151856
O O3 0.348070 0.033231 0.257085
O O4 0.394760 0.011406 0.106174
O O5 0.933881 0.750000 0.483300
O O6 0.868828 0.504207 0.433168
O O7 0.885252 0.548735 0.589729
O O8 0.000000 0.500000 0.500000
O O9 0.250000 0.000921 0.657432
O O10 0.325629 0.250000 0.638505
O O11 0.378092 0.030125 0.727371
O O12 0.563252 0.750000 0.694708
O O13 0.517198 0.471461 0.698411
O O14 0.021062 0.250000 0.077317
O O15 0.966903 0.018563 0.152442
O O16 0.000000 0.000000 0.000000
O O17 0.962954 0.750000 0.216192
#
# Coordination Sequence:
#
# PCOD8239568 Si02
#       6
#     8   8   8   8   8   8
#     4   8  15  29  49  74 101 126 157 201 248 290
#     4  10  18  29  47  71  99 134 173 215 255 293
#     4   9  18  31  47  71 101 134 176 220 255 289
#     4   9  17  28  47  73  99 129 167 208 250 297
#     4  10  20  35  56  80 103 128 162 201 244 300
#     4  10  18  31  52  73  97 131 166 204 249 297
#
# _framework density 17.907229999999998
#
# number of rings (size 3 to 8) (size 9 to 14) (size 15 to 20)
#    0.000    2.667    1.667    2.000    0.000    0.667 
#    0.000    4.167    0.000   22.000    0.000    4.667 
#    0.000    0.000    0.000    0.000    0.000    0.000 
#
# Total GULP energy -594927.680165 kJ/mol
# GULP energy per Si atom -12394.326670 kJ/mol
# Density = 1.786647 g / cm^3
# Si number density = 17.907230 Si / 1000 Ang^3
#
#
#
# Elastic Constant Matrix: (Units=GPa)
#
#
# Indices 1 2 3 4 5 6 
#
# 1 154.2825 26.2834 81.5511 0.0000 0.0000 0.0000
# 2 26.2834 40.5451 32.8492 0.0000 0.0000 0.0000
# 3 81.5511 32.8492 143.9478 0.0000 0.0000 0.0000
# 4 0.0000 0.0000 0.0000 25.6332 0.0000 0.0000
# 5 0.0000 0.0000 0.0000 0.0000 21.5549 0.0000
# 6 0.0000 0.0000 0.0000 0.0000 0.0000 18.6710
#
#
#
# Elastic Compliance Matrix: (Units=1/GPa)
#
#
# Indices 1 2 3 4 5 6 
#
# 1 0.009407 -0.002184 -0.004831 0.000000 0.000000 0.000000
# 2 -0.002184 0.030765 -0.005783 0.000000 0.000000 0.000000
# 3 -0.004831 -0.005783 0.011004 0.000000 0.000000 0.000000
# 4 0.000000 0.000000 0.000000 0.039012 0.000000 0.000000
# 5 0.000000 0.000000 0.000000 0.000000 0.046393 0.000000
# 6 0.000000 0.000000 0.000000 0.000000 0.000000 0.053559
#
#
# Mechanical properties :
#
#
# Convention : Reuss Voigt Hill
#
# Bulk Modulus (GPa) = 39.09434 68.90478 53.99956
# Shear Modulus (GPa) = 22.29515 26.37794 24.33655
#
# Velocity S-wave (km/s) = 3.53233 3.84218 3.69051
# Velocity P-wave (km/s) = 6.20609 7.63186 6.95560
#
# Compressibility (1/GPa) = 0.02557915
#
# Stress axis : x y z
#
# Youngs Moduli (GPa) = 106.29952 32.50410 90.87828
#
# Poissons Ratio (x) = 0.07100 0.43905
# Poissons Ratio (y) = 0.23218 0.52558
# Poissons Ratio (z) = 0.51355 0.18798
#
# Static dielectric constant tensor:
#      x y z
#    x 3.624160 0.000000 0.000000 
#    y 0.000000 3.063720 0.000000 
#    z 0.000000 0.000000 3.477930 
# 
# 
# High freq. dielectric constant tensor:
#      x y z
#    x 1.684020 0.000000 0.000000 
#    y 0.000000 1.663070 0.000000 
#    z 0.000000 0.000000 1.695190 
# 
# From -- ./inp_files/25438.got.cif
#   From: 2010.03.12/outbox.cif.g09.slc.cpg/sg59_13_cif.got.tgz:25438.got - 2010.04.16 16:29:54.
