data_PCOD8239011
_publ_section_title
;
Structure prediction by ZEFSAII (Michael W. Deem and Ramdas Pophale) SiO2 
 PCOD8239011
Probable space group: P N N M
;
_chemical_formula_sum "Si O2"
_cell_formula_units_Z 64
_cell_length_a 24.000000
_cell_length_b 15.000000
_cell_length_c 9.000000
_cell_angle_alpha 90.000000
_cell_angle_beta 90.000000
_cell_angle_gamma 90.000000
_cell_volume 3240.000000
_symmetry_space_group_name_H-M "P N N M"
_symmetry_group_IT_number 58
_symmetry_cell_setting 'orthorhombic'
loop_
_space_group_symop_operation_xyz
x,y,z
-x,-y,z
1/2+x,1/2-y,1/2-z
1/2-x,1/2+y,1/2-z
-x,-y,-z
x,y,-z
1/2-x,1/2+y,1/2+z
1/2+x,1/2-y,1/2+z
loop_
_atom_site_type_symbol
_atom_site_label
_atom_site_fract_x
_atom_site_fract_y
_atom_site_fract_z
Si Si1 0.186943 0.725914 0.829428
Si Si2 0.750401 0.951808 0.671012
Si Si3 0.218130 0.365463 0.326218
Si Si4 0.500627 0.895372 0.326201
Si Si5 0.448575 0.439593 0.325831
Si Si6 0.888160 0.710639 0.170835
Si Si7 0.861961 0.909379 0.172000
Si Si8 0.573584 0.746839 0.175777
O O1 0.202919 0.622693 0.808176
O O2 0.237227 0.790497 0.783647
O O3 0.138149 0.750335 0.717290
O O4 0.168665 0.744012 0.000000
O O5 0.758772 0.976289 0.500000
O O6 0.806979 0.908566 0.730187
O O7 0.733479 0.040469 0.755485
O O8 0.215079 0.381183 0.500000
O O9 0.158945 0.331356 0.272105
O O10 0.515290 0.892240 0.500000
O O11 0.443042 0.845462 0.290754
O O12 0.546656 0.837340 0.240591
O O13 0.500000 0.000000 0.273625
O O14 0.500000 0.500000 0.275512
O O15 0.451409 0.416952 0.500000
O O16 0.395379 0.500765 0.286300
O O17 0.451055 0.345647 0.240218
O O18 0.895997 0.817000 0.204064
O O19 0.871285 0.696524 0.000000
O O20 0.844982 0.912885 0.000000
O O21 0.565348 0.746090 0.000000
#
# Coordination Sequence:
#
# PCOD8239011 Si02
#       8
#     8   8   8   8   8   8   8   8
#     4  10  23  43  63  85 123 170 211 246 303 377
#     4  11  23  39  60  87 119 160 206 252 306 371
#     4  11  23  40  62  92 126 164 204 253 313 369
#     4  10  23  44  68  91 121 167 218 259 305 375
#     4  10  21  40  66  92 123 165 209 249 300 373
#     4  10  21  39  64  93 123 160 207 256 308 368
#     4  10  20  36  61  92 124 158 201 256 311 366
#     4  12  26  41  62  94 129 163 205 264 321 364
#
# _framework density 19.753086
#
# number of rings (size 3 to 8) (size 9 to 14) (size 15 to 20)
#    0.000    1.500    1.250    3.375    1.750    8.500 
#    0.000    1.250    0.000    0.000    0.000    0.000 
#    0.000    0.000    0.000    0.000    0.000    0.000 
#
# Total GULP energy -793668.105255 kJ/mol
# GULP energy per Si atom -12401.064145 kJ/mol
# Density = 1.970813 g / cm^3
# Si number density = 19.753086 Si / 1000 Ang^3
#
#
#
# Elastic Constant Matrix: (Units=GPa)
#
#
# Indices 1 2 3 4 5 6 
#
# 1 78.9180 33.2647 43.5814 0.0000 0.0000 0.0000
# 2 33.2647 159.5434 50.2904 0.0000 0.0000 0.0000
# 3 43.5814 50.2904 88.6113 0.0000 0.0000 0.0000
# 4 0.0000 0.0000 0.0000 34.8989 0.0000 0.0000
# 5 0.0000 0.0000 0.0000 0.0000 30.2726 0.0000
# 6 0.0000 0.0000 0.0000 0.0000 0.0000 37.9344
#
#
#
# Elastic Compliance Matrix: (Units=1/GPa)
#
#
# Indices 1 2 3 4 5 6 
#
# 1 0.017566 -0.001144 -0.007990 0.000000 0.000000 0.000000
# 2 -0.001144 0.007708 -0.003812 0.000000 0.000000 0.000000
# 3 -0.007990 -0.003812 0.017379 0.000000 0.000000 0.000000
# 4 0.000000 0.000000 0.000000 0.028654 0.000000 0.000000
# 5 0.000000 0.000000 0.000000 0.000000 0.033033 0.000000
# 6 0.000000 0.000000 0.000000 0.000000 0.000000 0.026361
#
#
# Mechanical properties :
#
#
# Convention : Reuss Voigt Hill
#
# Bulk Modulus (GPa) = 59.66480 64.59397 62.12939
# Shear Modulus (GPa) = 30.82992 33.95027 32.39009
#
# Velocity S-wave (km/s) = 3.95494 4.15026 4.05377
# Velocity P-wave (km/s) = 7.15026 7.46578 7.30972
#
# Compressibility (1/GPa) = 0.01676030
#
# Stress axis : x y z
#
# Youngs Moduli (GPa) = 56.92808 129.73571 57.54234
#
# Poissons Ratio (x) = 0.14840 0.45978
# Poissons Ratio (y) = 0.06512 0.21935
# Poissons Ratio (z) = 0.45487 0.49455
#
# Static dielectric constant tensor:
#      x y z
#    x 3.574080 0.000000 0.000000 
#    y 0.000000 4.047260 0.000000 
#    z 0.000000 0.000000 3.554630 
# 
# 
# High freq. dielectric constant tensor:
#      x y z
#    x 1.772430 0.000000 0.000000 
#    y 0.000000 1.806150 0.000000 
#    z 0.000000 0.000000 1.764770 
# 
# From -- ./inp_files/9961.got.cif
#   From: 2010.06.25/outbox.ucp.g09.slc.cvg/sg58_5_cif.got.tgz:9961.got - 2010.06.28 15:54:47.
