data_PCOD8239252
_publ_section_title
;
Structure prediction by ZEFSAII (Michael W. Deem and Ramdas Pophale) SiO2 
 PCOD8239252
Probable space group: P M M N
;
_chemical_formula_sum "Si O2"
_cell_formula_units_Z 64
_cell_length_a 24.797913
_cell_length_b 9.184939
_cell_length_c 18.208191
_cell_angle_alpha 90.000000
_cell_angle_beta 90.000000
_cell_angle_gamma 90.000000
_cell_volume 4147.230834
_symmetry_space_group_name_H-M "P M M N"
_symmetry_group_IT_number 59
_space_group.IT_coordinate_system_code '2'
_symmetry_cell_setting 'orthorhombic'
loop_
_space_group_symop_operation_xyz
x,y,z
1/2-x,1/2-y,z
1/2+x,-y,-z
-x,1/2+y,-z
-x,-y,-z
1/2+x,1/2+y,-z
1/2-x,y,z
x,1/2-y,z
loop_
_atom_site_type_symbol
_atom_site_label
_atom_site_fract_x
_atom_site_fract_y
_atom_site_fract_z
Si Si1 0.922292 0.085959 0.032340
Si Si2 0.080207 0.582236 0.491198
Si Si3 0.689579 0.419198 0.438317
Si Si4 0.496915 0.584817 0.232606
Si Si5 0.540885 0.585060 0.899786
Si Si6 0.311890 0.417474 0.709300
Si Si7 0.885941 0.585931 0.162969
Si Si8 0.005492 0.080455 0.385131
O O1 0.902974 0.250000 0.016987
O O2 0.981585 0.084720 0.066310
O O3 0.881737 0.011279 0.090003
O O4 0.919700 0.997454 0.956225
O O5 0.072275 0.750000 0.467502
O O6 0.143749 0.544504 0.501445
O O7 0.058124 0.478538 0.427503
O O8 0.048058 0.552237 0.566796
O O9 0.750000 0.466004 0.465550
O O10 0.688563 0.250000 0.419336
O O11 0.672855 0.500171 0.364536
O O12 0.475837 0.750000 0.243290
O O13 0.456811 0.498098 0.178236
O O14 0.554870 0.585532 0.195985
O O15 0.500807 0.505294 0.309973
O O16 0.561305 0.750000 0.888304
O O17 0.250000 0.438688 0.729924
O O18 0.327511 0.250000 0.696507
O O19 0.345863 0.482596 0.776753
O O20 0.868553 0.750000 0.142144
O O21 0.013957 0.250000 0.368342
#
# Coordination Sequence:
#
# PCOD8239252 Si02
#       8
#     8   8   8   8   8   8   8   8
#     4   9  16  25  38  56  77 103 134 165 197 231
#     4   9  18  31  44  59  82 110 139 172 209 250
#     4   9  17  29  45  63  82 106 137 173 212 251
#     4  10  18  27  40  58  81 108 138 170 204 243
#     4   9  16  26  39  55  78 105 132 163 196 232
#     4   9  17  28  41  58  81 108 138 172 207 241
#     4   9  17  27  39  56  79 109 141 170 202 241
#     4  10  19  29  42  60  82 110 142 173 207 248
#
# _framework density 15.431984
#
# number of rings (size 3 to 8) (size 9 to 14) (size 15 to 20)
#    0.000    2.750    0.000    2.250    0.000    5.000 
#    0.000    0.000    0.000    0.000    0.000    0.000 
#    0.000    1.000    0.000    2.750    0.000    4.000 
#
# Total GULP energy -793466.113694 kJ/mol
# GULP energy per Si atom -12397.908026 kJ/mol
# Density = 1.539686 g / cm^3
# Si number density = 15.431984 Si / 1000 Ang^3
#
#
#
# Elastic Constant Matrix: (Units=GPa)
#
#
# Indices 1 2 3 4 5 6 
#
# 1 40.6182 12.7003 2.0503 0.0000 0.0000 0.0000
# 2 12.7003 90.7304 32.1062 0.0000 0.0000 0.0000
# 3 2.0503 32.1062 45.3583 0.0000 0.0000 0.0000
# 4 0.0000 0.0000 0.0000 32.2294 0.0000 0.0000
# 5 0.0000 0.0000 0.0000 0.0000 23.1002 0.0000
# 6 0.0000 0.0000 0.0000 0.0000 0.0000 15.5077
#
#
#
# Elastic Compliance Matrix: (Units=1/GPa)
#
#
# Indices 1 2 3 4 5 6 
#
# 1 0.025863 -0.004278 0.001859 0.000000 0.000000 0.000000
# 2 -0.004278 0.015413 -0.010716 0.000000 0.000000 0.000000
# 3 0.001859 -0.010716 0.029548 0.000000 0.000000 0.000000
# 4 0.000000 0.000000 0.000000 0.031028 0.000000 0.000000
# 5 0.000000 0.000000 0.000000 0.000000 0.043290 0.000000
# 6 0.000000 0.000000 0.000000 0.000000 0.000000 0.064484
#
#
# Mechanical properties :
#
#
# Convention : Reuss Voigt Hill
#
# Bulk Modulus (GPa) = 22.44495 30.04671 26.24583
# Shear Modulus (GPa) = 19.94043 22.82413 21.38228
#
# Velocity S-wave (km/s) = 3.59855 3.84997 3.72638
# Velocity P-wave (km/s) = 5.64288 6.26703 5.96313
#
# Compressibility (1/GPa) = 0.04455345
#
# Stress axis : x y z
#
# Youngs Moduli (GPa) = 38.66473 64.88210 33.84335
#
# Poissons Ratio (x) = 0.27758 -0.06292
# Poissons Ratio (y) = 0.16542 0.36267
# Poissons Ratio (z) = -0.07188 0.69529
#
# Static dielectric constant tensor:
#      x y z
#    x 2.764260 0.000000 0.000000 
#    y 0.000000 3.165300 0.000000 
#    z 0.000000 0.000000 2.915620 
# 
# 
# High freq. dielectric constant tensor:
#      x y z
#    x 1.548740 0.000000 0.000000 
#    y 0.000000 1.604660 0.000000 
#    z 0.000000 0.000000 1.581270 
# 
# From -- ./inp_files/28538.got.cif
#   From: 2010.03.12/outbox.cif.g09.slc.cpg/sg59_15_cif.got.tgz:28538.got - 2010.04.16 16:29:54.
