data_PCOD8239917
_publ_section_title
;
Structure prediction by ZEFSAII (Michael W. Deem and Ramdas Pophale) SiO2 
 PCOD8239917
Probable space group: P M M N
;
_chemical_formula_sum "Si O2"
_cell_formula_units_Z 64
_cell_length_a 31.733073
_cell_length_b 8.864985
_cell_length_c 12.179944
_cell_angle_alpha 90.000000
_cell_angle_beta 90.000000
_cell_angle_gamma 90.000000
_cell_volume 3426.379219
_symmetry_space_group_name_H-M "P M M N"
_symmetry_group_IT_number 59
_space_group.IT_coordinate_system_code '2'
_symmetry_cell_setting 'orthorhombic'
loop_
_space_group_symop_operation_xyz
x,y,z
1/2-x,1/2-y,z
1/2+x,-y,-z
-x,1/2+y,-z
-x,-y,-z
1/2+x,1/2+y,-z
1/2-x,y,z
x,1/2-y,z
loop_
_atom_site_type_symbol
_atom_site_label
_atom_site_fract_x
_atom_site_fract_y
_atom_site_fract_z
Si Si1 0.453845 0.570561 0.985006
Si Si2 0.059670 0.925721 0.744372
Si Si3 0.202820 0.929314 0.986179
Si Si4 0.611462 0.570812 0.640679
Si Si5 0.703644 0.071331 0.258593
Si Si6 0.131219 0.930000 0.584200
Si Si7 0.874956 0.429338 0.868801
Si Si8 0.482116 0.425191 0.392992
O O1 0.459529 0.750000 0.984643
O O2 0.419484 0.519005 0.075998
O O3 0.500000 0.500000 0.000000
O O4 0.434815 0.513147 0.868100
O O5 0.069772 0.750000 0.745032
O O6 0.091357 0.994667 0.653637
O O7 0.011859 0.962200 0.710019
O O8 0.250000 0.982420 0.024308
O O9 0.201649 0.750000 0.985817
O O10 0.193562 0.990869 0.863353
O O11 0.165401 0.990891 0.063277
O O12 0.614979 0.750000 0.644661
O O13 0.634985 0.507627 0.533958
O O14 0.631373 0.501929 0.749925
O O15 0.563562 0.511011 0.635821
O O16 0.750000 0.018408 0.295417
O O17 0.700584 0.250000 0.253603
O O18 0.671352 0.010493 0.348443
O O19 0.129683 0.750000 0.568354
O O20 0.874056 0.250000 0.859438
O O21 0.500000 0.500000 0.500000
O O22 0.479918 0.250000 0.418345
#
# Coordination Sequence:
#
# PCOD8239917 Si02
#       8
#     8   8   8   8   8   8   8   8
#     4  10  20  34  51  74 105 137 171 208 253 309
#     4   9  17  30  50  73  96 124 159 202 249 295
#     4   8  14  28  53  84 110 129 162 217 271 312
#     4  11  23  36  50  71 103 140 173 213 258 301
#     4   8  14  26  49  82 110 127 153 204 263 308
#     4  10  18  31  53  76  99 130 167 205 248 302
#     4  10  20  34  54  78 103 138 179 217 258 311
#     4  10  19  32  49  69  95 129 167 206 248 291
#
# _framework density 18.678611
#
# number of rings (size 3 to 8) (size 9 to 14) (size 15 to 20)
#    0.000    2.500    1.250    2.625    0.000    5.000 
#    0.000    1.875    0.000    6.750    0.000    1.750 
#    0.000    0.000    0.000    0.000    0.000    0.000 
#
# Total GULP energy -793230.763973 kJ/mol
# GULP energy per Si atom -12394.230687 kJ/mol
# Density = 1.863610 g / cm^3
# Si number density = 18.678611 Si / 1000 Ang^3
#
#
#
# Elastic Constant Matrix: (Units=GPa)
#
#
# Indices 1 2 3 4 5 6 
#
# 1 140.8509 25.1972 77.6097 0.0000 0.0000 0.0000
# 2 25.1972 22.2360 27.0305 0.0000 0.0000 0.0000
# 3 77.6097 27.0305 157.6326 0.0000 0.0000 0.0000
# 4 0.0000 0.0000 0.0000 17.8876 0.0000 0.0000
# 5 0.0000 0.0000 0.0000 0.0000 31.3659 0.0000
# 6 0.0000 0.0000 0.0000 0.0000 0.0000 16.9554
#
#
#
# Elastic Compliance Matrix: (Units=1/GPa)
#
#
# Indices 1 2 3 4 5 6 
#
# 1 0.010570 -0.007140 -0.003980 0.000000 0.000000 0.000000
# 2 -0.007140 0.061638 -0.007054 0.000000 0.000000 0.000000
# 3 -0.003980 -0.007054 0.009513 0.000000 0.000000 0.000000
# 4 0.000000 0.000000 0.000000 0.055905 0.000000 0.000000
# 5 0.000000 0.000000 0.000000 0.000000 0.031882 0.000000
# 6 0.000000 0.000000 0.000000 0.000000 0.000000 0.058978
#
#
# Mechanical properties :
#
#
# Convention : Reuss Voigt Hill
#
# Bulk Modulus (GPa) = 22.03945 64.48825 43.26385
# Shear Modulus (GPa) = 17.85992 25.96726 21.91359
#
# Velocity S-wave (km/s) = 3.09555 3.73260 3.42890
# Velocity P-wave (km/s) = 4.95999 7.29223 6.23611
#
# Compressibility (1/GPa) = 0.04537318
#
# Stress axis : x y z
#
# Youngs Moduli (GPa) = 94.60960 16.22384 105.12011
#
# Poissons Ratio (x) = 0.11583 0.41835
# Poissons Ratio (y) = 0.67547 0.74156
# Poissons Ratio (z) = 0.37652 0.11445
#
# Static dielectric constant tensor:
#      x y z
#    x 3.675600 0.000000 0.000000 
#    y 0.000000 2.992990 0.000000 
#    z 0.000000 0.000000 3.546640 
# 
# 
# High freq. dielectric constant tensor:
#      x y z
#    x 1.728650 0.000000 0.000000 
#    y 0.000000 1.675630 0.000000 
#    z 0.000000 0.000000 1.733580 
# 
# From -- ./inp_files/19286.got.cif
#   From: 2010.03.12/outbox.cif.g09.slc.cpg/sg59_10_cif.got.tgz:19286.got - 2010.04.16 16:29:54.
