data_PCOD8239255
_publ_section_title
;
Structure prediction by ZEFSAII (Michael W. Deem and Ramdas Pophale) SiO2 
 PCOD8239255
Probable space group: P M M N
;
_chemical_formula_sum "Si O2"
_cell_formula_units_Z 56
_cell_length_a 8.971347
_cell_length_b 24.682699
_cell_length_c 16.162327
_cell_angle_alpha 90.000000
_cell_angle_beta 90.000000
_cell_angle_gamma 90.000000
_cell_volume 3578.938135
_symmetry_space_group_name_H-M "P M M N"
_symmetry_group_IT_number 59
_space_group.IT_coordinate_system_code '2'
_symmetry_cell_setting 'orthorhombic'
loop_
_space_group_symop_operation_xyz
x,y,z
1/2-x,1/2-y,z
1/2+x,-y,-z
-x,1/2+y,-z
-x,-y,-z
1/2+x,1/2+y,-z
1/2-x,y,z
x,1/2-y,z
loop_
_atom_site_type_symbol
_atom_site_label
_atom_site_fract_x
_atom_site_fract_y
_atom_site_fract_z
Si Si1 0.925242 0.688341 0.924128
Si Si2 0.924164 0.007732 0.873844
Si Si3 0.574668 0.512898 0.295821
Si Si4 0.424198 0.583173 0.973234
Si Si5 0.926726 0.691183 0.736661
Si Si6 0.579156 0.551116 0.463703
Si Si7 0.425269 0.407139 0.369474
O O1 0.750000 0.679255 0.935407
O O2 0.967592 0.750000 0.950729
O O3 0.976582 0.677655 0.829919
O O4 0.011829 0.644174 0.979304
O O5 0.750000 0.996709 0.864402
O O6 0.959772 0.054442 0.939880
O O7 0.990002 0.028986 0.787553
O O8 0.998380 0.950788 0.899749
O O9 0.750000 0.510004 0.277091
O O10 0.535023 0.558971 0.366606
O O11 0.518414 0.455541 0.329780
O O12 0.250000 0.585102 0.954493
O O13 0.750000 0.692998 0.734022
O O14 0.990770 0.750000 0.710673
O O15 0.988413 0.647203 0.672413
O O16 0.500000 0.500000 0.500000
O O17 0.750000 0.535076 0.464124
O O18 0.548227 0.599227 0.530316
O O19 0.250000 0.416275 0.350121
#
# Coordination Sequence:
#
# PCOD8239255 Si02
#       7
#     8   8   8   8   8   8   8
#     4   9  17  29  45  65  90 119 147 174 208 254
#     4  10  20  32  45  62  86 115 145 177 218 269
#     4  10  18  27  40  60  85 110 139 174 210 249
#     4  10  20  32  46  65  87 111 143 182 221 260
#     4   8  14  24  39  60  82 105 136 167 193 232
#     4   8  15  25  37  57  82 106 134 166 200 239
#     4   9  15  25  42  60  82 113 141 167 204 246
#
# _framework density 15.647098
#
# number of rings (size 3 to 8) (size 9 to 14) (size 15 to 20)
#    0.000    2.857    0.000    3.000    0.000    3.714 
#    0.000    0.000    0.000    1.286    0.000    1.000 
#    0.000    3.429    0.000    0.000    0.000    0.000 
#
# Total GULP energy -693781.643855 kJ/mol
# GULP energy per Si atom -12388.957926 kJ/mol
# Density = 1.561148 g / cm^3
# Si number density = 15.647098 Si / 1000 Ang^3
#
#
#
# Elastic Constant Matrix: (Units=GPa)
#
#
# Indices 1 2 3 4 5 6 
#
# 1 52.9991 31.1263 36.7785 0.0000 0.0000 0.0000
# 2 31.1263 89.1256 43.0043 0.0000 0.0000 0.0000
# 3 36.7785 43.0043 100.3168 0.0000 0.0000 0.0000
# 4 0.0000 0.0000 0.0000 24.3117 0.0000 0.0000
# 5 0.0000 0.0000 0.0000 0.0000 21.9295 0.0000
# 6 0.0000 0.0000 0.0000 0.0000 0.0000 19.5918
#
#
#
# Elastic Compliance Matrix: (Units=1/GPa)
#
#
# Indices 1 2 3 4 5 6 
#
# 1 0.027641 -0.006006 -0.007559 0.000000 0.000000 0.000000
# 2 -0.006006 0.015451 -0.004422 0.000000 0.000000 0.000000
# 3 -0.007559 -0.004422 0.014635 0.000000 0.000000 0.000000
# 4 0.000000 0.000000 0.000000 0.041133 0.000000 0.000000
# 5 0.000000 0.000000 0.000000 0.000000 0.045601 0.000000
# 6 0.000000 0.000000 0.000000 0.000000 0.000000 0.051042
#
#
# Mechanical properties :
#
#
# Convention : Reuss Voigt Hill
#
# Bulk Modulus (GPa) = 45.96899 51.58442 48.77670
# Shear Modulus (GPa) = 20.94432 21.93542 21.43987
#
# Velocity S-wave (km/s) = 3.66258 3.74824 3.70566
# Velocity P-wave (km/s) = 6.87956 7.19523 7.03917
#
# Compressibility (1/GPa) = 0.02175380
#
# Stress axis : x y z
#
# Youngs Moduli (GPa) = 36.17779 64.71976 68.32772
#
# Poissons Ratio (x) = 0.38871 0.51651
# Poissons Ratio (y) = 0.21728 0.30213
# Poissons Ratio (z) = 0.27348 0.28617
#
# Static dielectric constant tensor:
#      x y z
#    x 3.698750 0.000000 0.000000 
#    y 0.000000 3.051420 0.000000 
#    z 0.000000 0.000000 3.345100 
# 
# 
# High freq. dielectric constant tensor:
#      x y z
#    x 1.597000 0.000000 0.000000 
#    y 0.000000 1.570980 0.000000 
#    z 0.000000 0.000000 1.599200 
# 
# From -- ./inp_files/26411.got.cif
#   From: 2010.03.12/outbox.cif.g09.slc.cpg/sg59_14_cif.got.tgz:26411.got - 2010.04.16 16:29:54.
