data_PCOD8239492
_publ_section_title
;
Structure prediction by ZEFSAII (Michael W. Deem and Ramdas Pophale) SiO2 
 PCOD8239492
Probable space group: P M M N
;
_chemical_formula_sum "Si O2"
_cell_formula_units_Z 64
_cell_length_a 9.066644
_cell_length_b 23.351046
_cell_length_c 19.016650
_cell_angle_alpha 90.000000
_cell_angle_beta 90.000000
_cell_angle_gamma 90.000000
_cell_volume 4026.121866
_symmetry_space_group_name_H-M "P M M N"
_symmetry_group_IT_number 59
_space_group.IT_coordinate_system_code '2'
_symmetry_cell_setting 'orthorhombic'
loop_
_space_group_symop_operation_xyz
x,y,z
1/2-x,1/2-y,z
1/2+x,-y,-z
-x,1/2+y,-z
-x,-y,-z
1/2+x,1/2+y,-z
1/2-x,y,z
x,1/2-y,z
loop_
_atom_site_type_symbol
_atom_site_label
_atom_site_fract_x
_atom_site_fract_y
_atom_site_fract_z
Si Si1 0.421418 0.518161 0.106068
Si Si2 0.422861 0.998046 0.759800
Si Si3 0.578293 0.415080 0.031088
Si Si4 0.575319 0.686878 0.614713
Si Si5 0.922912 0.915672 0.526079
Si Si6 0.421884 0.376920 0.245707
Si Si7 0.078634 0.015632 0.604217
Si Si8 0.420802 0.184271 0.100268
O O1 0.250000 0.506514 0.118564
O O2 0.497777 0.535478 0.179618
O O3 0.491033 0.458686 0.080565
O O4 0.449053 0.568898 0.050464
O O5 0.250000 0.996454 0.774933
O O6 0.483208 0.933882 0.761049
O O7 0.458600 0.028932 0.685387
O O8 0.750000 0.418829 0.050296
O O9 0.517006 0.351584 0.044309
O O10 0.750000 0.692634 0.617595
O O11 0.504009 0.750000 0.606412
O O12 0.525362 0.648217 0.547692
O O13 0.520455 0.657848 0.686673
O O14 0.750000 0.921582 0.537331
O O15 0.967576 0.930436 0.445401
O O16 0.992876 0.959521 0.580810
O O17 0.250000 0.393474 0.252519
O O18 0.451737 0.336790 0.179030
O O19 0.250000 0.001706 0.594767
O O20 0.250000 0.176862 0.080517
O O21 0.470679 0.250000 0.094433
#
# Coordination Sequence:
#
# PCOD8239492 Si02
#       8
#     8   8   8   8   8   8   8   8
#     4  10  20  33  49  68  92 120 153 191 234 283
#     4  11  20  29  44  67  94 123 153 187 232 277
#     4  10  20  33  49  70  93 119 152 194 237 274
#     4   9  16  26  43  66  89 117 156 192 219 258
#     4   9  16  28  45  64  86 117 152 185 226 270
#     4  10  18  29  44  64  92 124 157 187 217 259
#     4   9  18  29  42  63  92 117 145 188 231 271
#     4  10  20  32  47  68  96 130 161 188 222 268
#
# _framework density 15.896190000000001
#
# number of rings (size 3 to 8) (size 9 to 14) (size 15 to 20)
#    0.000    2.250    2.500    1.500    0.000    3.750 
#    0.000    0.000    0.000    2.250    0.000    0.875 
#    0.000    3.000    0.000    0.000    0.000    0.000 
#
# Total GULP energy -793445.304257 kJ/mol
# GULP energy per Si atom -12397.582879 kJ/mol
# Density = 1.586001 g / cm^3
# Si number density = 15.896190 Si / 1000 Ang^3
#
#
#
# Elastic Constant Matrix: (Units=GPa)
#
#
# Indices 1 2 3 4 5 6 
#
# 1 60.1076 31.5205 50.2895 0.0000 0.0000 0.0000
# 2 31.5205 82.0183 59.7348 0.0000 0.0000 0.0000
# 3 50.2895 59.7348 127.4126 0.0000 0.0000 0.0000
# 4 0.0000 0.0000 0.0000 23.2167 0.0000 0.0000
# 5 0.0000 0.0000 0.0000 0.0000 20.9368 0.0000
# 6 0.0000 0.0000 0.0000 0.0000 0.0000 18.2203
#
#
#
# Elastic Compliance Matrix: (Units=1/GPa)
#
#
# Indices 1 2 3 4 5 6 
#
# 1 0.025582 -0.003762 -0.008333 0.000000 0.000000 0.000000
# 2 -0.003762 0.019067 -0.007454 0.000000 0.000000 0.000000
# 3 -0.008333 -0.007454 0.014633 0.000000 0.000000 0.000000
# 4 0.000000 0.000000 0.000000 0.043072 0.000000 0.000000
# 5 0.000000 0.000000 0.000000 0.000000 0.047763 0.000000
# 6 0.000000 0.000000 0.000000 0.000000 0.000000 0.054884
#
#
# Mechanical properties :
#
#
# Convention : Reuss Voigt Hill
#
# Bulk Modulus (GPa) = 49.54915 61.40311 55.47613
# Shear Modulus (GPa) = 19.93398 21.00767 20.47083
#
# Velocity S-wave (km/s) = 3.54504 3.63926 3.59246
# Velocity P-wave (km/s) = 6.92781 7.50802 7.22374
#
# Compressibility (1/GPa) = 0.02018198
#
# Stress axis : x y z
#
# Youngs Moduli (GPa) = 39.09025 52.44555 68.34084
#
# Poissons Ratio (x) = 0.19731 0.56951
# Poissons Ratio (y) = 0.14706 0.50944
# Poissons Ratio (z) = 0.32575 0.39095
#
# Static dielectric constant tensor:
#      x y z
#    x 2.981460 0.000000 0.000000 
#    y 0.000000 3.046630 0.000000 
#    z 0.000000 0.000000 3.315610 
# 
# 
# High freq. dielectric constant tensor:
#      x y z
#    x 1.606030 0.000000 0.000000 
#    y 0.000000 1.581940 0.000000 
#    z 0.000000 0.000000 1.612810 
# 
# From -- ./inp_files/29741.got.cif
#   From: 2010.03.12/outbox.cif.g09.slc.cpg/sg59_15_cif.got.tgz:29741.got - 2010.04.16 16:29:54.
