data_PCOD8239165
_publ_section_title
;
Structure prediction by ZEFSAII (Michael W. Deem and Ramdas Pophale) SiO2 
 PCOD8239165
Probable space group: P M M N
;
_chemical_formula_sum "Si O2"
_cell_formula_units_Z 64
_cell_length_a 16.444180
_cell_length_b 23.815106
_cell_length_c 9.162712
_cell_angle_alpha 90.000000
_cell_angle_beta 90.000000
_cell_angle_gamma 90.000000
_cell_volume 3588.300264
_symmetry_space_group_name_H-M "P M M N"
_symmetry_group_IT_number 59
_space_group.IT_coordinate_system_code '2'
_symmetry_cell_setting 'orthorhombic'
loop_
_space_group_symop_operation_xyz
x,y,z
1/2-x,1/2-y,z
1/2+x,-y,-z
-x,1/2+y,-z
-x,-y,-z
1/2+x,1/2+y,-z
1/2-x,y,z
x,1/2-y,z
loop_
_atom_site_type_symbol
_atom_site_label
_atom_site_fract_x
_atom_site_fract_y
_atom_site_fract_z
Si Si1 0.434157 0.607552 0.724916
Si Si2 0.908203 0.874871 0.535755
Si Si3 0.658797 0.107443 0.546715
Si Si4 0.993225 0.372169 0.732644
Si Si5 0.996802 0.683444 0.959040
Si Si6 0.993667 0.001028 0.829203
Si Si7 0.338272 0.184458 0.205779
Si Si8 0.158759 0.483584 0.352928
O O1 0.507230 0.617553 0.615681
O O2 0.355151 0.620734 0.625417
O O3 0.436065 0.649944 0.863352
O O4 0.437555 0.542387 0.773467
O O5 0.856053 0.829237 0.624517
O O6 0.859530 0.933618 0.533030
O O7 0.931483 0.854233 0.372655
O O8 0.750000 0.126979 0.589774
O O9 0.594632 0.137197 0.655662
O O10 0.647556 0.040768 0.559452
O O11 0.009576 0.436971 0.769809
O O12 0.994272 0.332226 0.872517
O O13 0.009079 0.750000 0.937203
O O14 0.908385 0.661887 0.902489
O O15 0.903607 0.979963 0.782756
O O16 0.000000 0.000000 0.000000
O O17 0.250000 0.158403 0.162481
O O18 0.334047 0.250000 0.189299
O O19 0.250000 0.477847 0.289480
#
# Coordination Sequence:
#
# PCOD8239165 Si02
#       8
#     8   8   8   8   8   8   8   8
#     4   9  17  32  52  73  97 129 166 200 238 296
#     4   9  17  29  49  72  97 128 165 200 238 286
#     4   9  18  33  53  75  99 128 163 207 255 300
#     4  10  19  32  51  77 102 129 166 204 249 300
#     4  10  20  34  53  75 100 132 168 207 248 293
#     4  10  17  29  50  74 103 132 163 200 243 299
#     4   9  18  33  51  70  95 132 173 206 240 284
#     4   9  17  29  47  72 101 131 162 200 248 296
#
# _framework density 17.835742
#
# number of rings (size 3 to 8) (size 9 to 14) (size 15 to 20)
#    0.000    2.625    1.250    1.125    0.000    3.500 
#    0.000    4.375    0.000    6.000    0.000    0.000 
#    0.000    0.000    0.000    0.000    0.000    0.000 
#
# Total GULP energy -793087.620614 kJ/mol
# GULP energy per Si atom -12391.994072 kJ/mol
# Density = 1.779515 g / cm^3
# Si number density = 17.835742 Si / 1000 Ang^3
#
#
#
# Elastic Constant Matrix: (Units=GPa)
#
#
# Indices 1 2 3 4 5 6 
#
# 1 85.8137 15.2586 47.2140 0.0000 0.0000 0.0000
# 2 15.2586 42.3474 20.9358 0.0000 0.0000 0.0000
# 3 47.2140 20.9358 124.9309 0.0000 0.0000 0.0000
# 4 0.0000 0.0000 0.0000 22.6270 0.0000 0.0000
# 5 0.0000 0.0000 0.0000 0.0000 21.1100 0.0000
# 6 0.0000 0.0000 0.0000 0.0000 0.0000 16.6030
#
#
#
# Elastic Compliance Matrix: (Units=1/GPa)
#
#
# Indices 1 2 3 4 5 6 
#
# 1 0.015019 -0.002841 -0.005200 0.000000 0.000000 0.000000
# 2 -0.002841 0.026285 -0.003331 0.000000 0.000000 0.000000
# 3 -0.005200 -0.003331 0.010528 0.000000 0.000000 0.000000
# 4 0.000000 0.000000 0.000000 0.044195 0.000000 0.000000
# 5 0.000000 0.000000 0.000000 0.000000 0.047371 0.000000
# 6 0.000000 0.000000 0.000000 0.000000 0.000000 0.060230
#
#
# Mechanical properties :
#
#
# Convention : Reuss Voigt Hill
#
# Bulk Modulus (GPa) = 34.37883 46.65654 40.51769
# Shear Modulus (GPa) = 21.18034 23.38023 22.28028
#
# Velocity S-wave (km/s) = 3.44978 3.62451 3.53823
# Velocity P-wave (km/s) = 5.93170 6.61301 6.28160
#
# Compressibility (1/GPa) = 0.02908767
#
# Stress axis : x y z
#
# Youngs Moduli (GPa) = 66.58093 38.04495 94.98615
#
# Poissons Ratio (x) = 0.10808 0.49393
# Poissons Ratio (y) = 0.18915 0.31641
# Poissons Ratio (z) = 0.34622 0.12673
#
# Static dielectric constant tensor:
#      x y z
#    x 3.623420 0.000000 0.000000 
#    y 0.000000 2.615270 0.000000 
#    z 0.000000 0.000000 3.223480 
# 
# 
# High freq. dielectric constant tensor:
#      x y z
#    x 1.674830 0.000000 0.000000 
#    y 0.000000 1.678930 0.000000 
#    z 0.000000 0.000000 1.682520 
# 
# From -- ./inp_files/10792.got.cif
#   From: 2010.03.12/outbox.cif.g09.slc.cpg/sg59_6_cif.got.tgz:10792.got - 2010.04.16 16:29:54.
