data_PCOD8239782
_publ_section_title
;
Structure prediction by ZEFSAII (Michael W. Deem and Ramdas Pophale) SiO2 
 PCOD8239782
Probable space group: P M M N
;
_chemical_formula_sum "Si O2"
_cell_formula_units_Z 64
_cell_length_a 9.103865
_cell_length_b 14.825921
_cell_length_c 24.353884
_cell_angle_alpha 90.000000
_cell_angle_beta 90.000000
_cell_angle_gamma 90.000000
_cell_volume 3287.121249
_symmetry_space_group_name_H-M "P M M N"
_symmetry_group_IT_number 59
_space_group.IT_coordinate_system_code '2'
_symmetry_cell_setting 'orthorhombic'
loop_
_space_group_symop_operation_xyz
x,y,z
1/2-x,1/2-y,z
1/2+x,-y,-z
-x,1/2+y,-z
-x,-y,-z
1/2+x,1/2+y,-z
1/2-x,y,z
x,1/2-y,z
loop_
_atom_site_type_symbol
_atom_site_label
_atom_site_fract_x
_atom_site_fract_y
_atom_site_fract_z
Si Si1 0.418472 0.914909 0.615612
Si Si2 0.076943 0.354327 0.995945
Si Si3 0.422595 0.503303 0.205134
Si Si4 0.422314 0.898168 0.380515
Si Si5 0.083749 0.649270 0.732764
Si Si6 0.581540 0.407167 0.501981
Si Si7 0.922065 0.491660 0.920460
Si Si8 0.584780 0.850260 0.274833
O O1 0.250000 0.950766 0.615637
O O2 0.446009 0.850311 0.667273
O O3 0.446826 0.859802 0.557641
O O4 0.530048 0.997651 0.621357
O O5 0.250000 0.354843 0.986168
O O6 0.021983 0.250000 0.002734
O O7 0.002372 0.403037 0.944034
O O8 0.033935 0.414665 0.049153
O O9 0.250000 0.514387 0.211001
O O10 0.470088 0.412784 0.235563
O O11 0.472148 0.497101 0.142130
O O12 0.496521 0.588995 0.232712
O O13 0.250000 0.890321 0.367115
O O14 0.462052 0.855331 0.441275
O O15 0.510760 0.844705 0.334548
O O16 0.250000 0.616790 0.744948
O O17 0.058683 0.750000 0.754422
O O18 0.500000 0.500000 0.500000
O O19 0.750000 0.431876 0.509337
O O20 0.750000 0.473603 0.926289
O O21 0.750000 0.888453 0.280941
O O22 0.586254 0.750000 0.250038
#
# Coordination Sequence:
#
# PCOD8239782 Si02
#       8
#     8   8   8   8   8   8   8   8
#     4   9  16  30  51  73 104 144 180 219 274 337
#     4   9  18  35  60  88 119 154 188 221 260 312
#     4  11  23  39  60  84 113 149 189 236 282 324
#     4  10  18  30  51  78 106 135 174 227 283 336
#     4  10  21  36  55  80 111 148 189 231 276 331
#     4   8  15  26  44  73 102 133 172 216 271 336
#     4   9  20  37  57  85 118 151 186 226 274 321
#     4  11  24  40  57  77 105 145 189 233 286 345
#
# _framework density 19.469923999999999
#
# number of rings (size 3 to 8) (size 9 to 14) (size 15 to 20)
#    0.000    2.375    1.250    1.125    0.000    4.000 
#    0.000    4.375    0.000    2.250    0.000    0.000 
#    0.000    0.000    0.000    0.000    0.000    0.000 
#
# Total GULP energy -792979.045573 kJ/mol
# GULP energy per Si atom -12390.297587 kJ/mol
# Density = 1.942561 g / cm^3
# Si number density = 19.469924 Si / 1000 Ang^3
#
#
#
# Elastic Constant Matrix: (Units=GPa)
#
#
# Indices 1 2 3 4 5 6 
#
# 1 70.3516 34.5795 53.9867 0.0000 0.0000 0.0000
# 2 34.5795 105.0832 52.6532 0.0000 0.0000 0.0000
# 3 53.9867 52.6532 158.0941 0.0000 0.0000 0.0000
# 4 0.0000 0.0000 0.0000 -15.9204 0.0000 0.0000
# 5 0.0000 0.0000 0.0000 0.0000 26.2523 0.0000
# 6 0.0000 0.0000 0.0000 0.0000 0.0000 15.9659
#
#
#
# Elastic Compliance Matrix: (Units=1/GPa)
#
#
# Indices 1 2 3 4 5 6 
#
# 1 0.020505 -0.003888 -0.005707 0.000000 0.000000 0.000000
# 2 -0.003888 0.012160 -0.002722 0.000000 0.000000 0.000000
# 3 -0.005707 -0.002722 0.009181 0.000000 0.000000 0.000000
# 4 0.000000 0.000000 0.000000 -0.062812 0.000000 0.000000
# 5 0.000000 0.000000 0.000000 0.000000 0.038092 0.000000
# 6 0.000000 0.000000 0.000000 0.000000 0.000000 0.062633
#
#
# Mechanical properties :
#
#
# Convention : Reuss Voigt Hill
#
# Bulk Modulus (GPa) = 58.10244 68.44088 63.27166
# Shear Modulus (GPa) = 45.40106 18.08020 31.74063
#
# Velocity S-wave (km/s) = 4.83417 3.05064 4.04200
# Velocity P-wave (km/s) = 7.81446 6.90195 7.37234
#
# Compressibility (1/GPa) = 0.01721098
#
# Stress axis : x y z
#
# Youngs Moduli (GPa) = 48.76866 82.23970 108.92181
#
# Poissons Ratio (x) = 0.31973 0.62165
# Poissons Ratio (y) = 0.18960 0.29650
# Poissons Ratio (z) = 0.27834 0.22387
#
# Static dielectric constant tensor:
#      x y z
#    x 3.541080 0.000000 0.000000 
#    y 0.000000 3.314040 0.000000 
#    z 0.000000 0.000000 3.931000 
# 
# 
# High freq. dielectric constant tensor:
#      x y z
#    x 1.756150 0.000000 0.000000 
#    y 0.000000 1.737580 0.000000 
#    z 0.000000 0.000000 1.768050 
# 
# From -- ./inp_files/31642.got.cif
#   From: 2010.03.12/outbox.cif.g09.slc.cpg/sg59_16_cif.got.tgz:31642.got - 2010.04.16 16:29:54.
