data_PCOD8239094
_publ_section_title
;
Structure prediction by ZEFSAII (Michael W. Deem and Ramdas Pophale) SiO2 
 PCOD8239094
Probable space group: P M M N
;
_chemical_formula_sum "Si O2"
_cell_formula_units_Z 64
_cell_length_a 9.035543
_cell_length_b 26.677057
_cell_length_c 17.058255
_cell_angle_alpha 90.000000
_cell_angle_beta 90.000000
_cell_angle_gamma 90.000000
_cell_volume 4111.750710
_symmetry_space_group_name_H-M "P M M N"
_symmetry_group_IT_number 59
_space_group.IT_coordinate_system_code '2'
_symmetry_cell_setting 'orthorhombic'
loop_
_space_group_symop_operation_xyz
x,y,z
1/2-x,1/2-y,z
1/2+x,-y,-z
-x,1/2+y,-z
-x,-y,-z
1/2+x,1/2+y,-z
1/2-x,y,z
x,1/2-y,z
loop_
_atom_site_type_symbol
_atom_site_label
_atom_site_fract_x
_atom_site_fract_y
_atom_site_fract_z
Si Si1 0.422972 0.307807 0.582413
Si Si2 0.583110 0.453382 0.611765
Si Si3 0.422087 0.380068 0.718875
Si Si4 0.419198 0.550304 0.982195
Si Si5 0.075541 0.531010 0.814792
Si Si6 0.920870 0.563638 0.660414
Si Si7 0.576356 0.074789 0.852878
Si Si8 0.421142 0.617331 0.528779
O O1 0.250000 0.315993 0.565483
O O2 0.467685 0.250000 0.585887
O O3 0.465650 0.331926 0.666484
O O4 0.513660 0.333447 0.512719
O O5 0.750000 0.439757 0.639502
O O6 0.466449 0.430270 0.672273
O O7 0.559279 0.512715 0.610769
O O8 0.554503 0.431435 0.525584
O O9 0.250000 0.381365 0.738032
O O10 0.510484 0.379514 0.801285
O O11 0.250000 0.535569 0.987567
O O12 0.455071 0.566305 0.892415
O O13 0.500000 0.500000 0.000000
O O14 0.456312 0.588132 0.054669
O O15 0.250000 0.523731 0.799580
O O16 0.002603 0.560511 0.743377
O O17 0.001868 0.476735 0.826322
O O18 0.750000 0.576398 0.675311
O O19 0.993913 0.608169 0.610177
O O20 0.750000 0.069202 0.836205
O O21 0.250000 0.627003 0.547082
#
# Coordination Sequence:
#
# PCOD8239094 Si02
#       8
#     8   8   8   8   8   8   8   8
#     4   9  19  36  53  67  87 114 143 179 225 271
#     4   9  18  30  42  58  85 117 147 180 217 256
#     4  10  18  27  44  67  87 113 148 183 218 260
#     4   8  16  27  39  55  79 113 150 183 215 249
#     4  10  18  28  41  59  83 116 155 189 218 251
#     4  11  20  29  42  61  88 121 151 181 220 262
#     4  10  17  27  41  59  86 117 148 182 218 258
#     4  10  20  32  46  65  86 112 147 184 220 262
#
# _framework density 15.565146
#
# number of rings (size 3 to 8) (size 9 to 14) (size 15 to 20)
#    0.000    2.375    1.250    2.250    0.000    2.750 
#    0.000    0.000    0.000    0.000    0.000    0.000 
#    0.000    1.000    0.000    8.000    0.000    2.625 
#
# Total GULP energy -793115.974036 kJ/mol
# GULP energy per Si atom -12392.437094 kJ/mol
# Density = 1.552972 g / cm^3
# Si number density = 15.565146 Si / 1000 Ang^3
#
#
#
# Elastic Constant Matrix: (Units=GPa)
#
#
# Indices 1 2 3 4 5 6 
#
# 1 87.6038 36.4461 62.0130 0.0000 0.0000 0.0000
# 2 36.4461 58.8305 46.4082 0.0000 0.0000 0.0000
# 3 62.0130 46.4082 130.7517 0.0000 0.0000 0.0000
# 4 0.0000 0.0000 0.0000 12.8416 0.0000 0.0000
# 5 0.0000 0.0000 0.0000 0.0000 25.6448 0.0000
# 6 0.0000 0.0000 0.0000 0.0000 0.0000 16.3303
#
#
#
# Elastic Compliance Matrix: (Units=1/GPa)
#
#
# Indices 1 2 3 4 5 6 
#
# 1 0.018771 -0.006397 -0.006632 0.000000 0.000000 0.000000
# 2 -0.006397 0.025788 -0.006119 0.000000 0.000000 0.000000
# 3 -0.006632 -0.006119 0.012966 0.000000 0.000000 0.000000
# 4 0.000000 0.000000 0.000000 0.077872 0.000000 0.000000
# 5 0.000000 0.000000 0.000000 0.000000 0.038994 0.000000
# 6 0.000000 0.000000 0.000000 0.000000 0.000000 0.061236
#
#
# Mechanical properties :
#
#
# Convention : Reuss Voigt Hill
#
# Bulk Modulus (GPa) = 52.00767 62.99117 57.49942
# Shear Modulus (GPa) = 17.83594 19.78460 18.81027
#
# Velocity S-wave (km/s) = 3.38877 3.56909 3.48010
# Velocity P-wave (km/s) = 6.98549 7.58563 7.29174
#
# Compressibility (1/GPa) = 0.01922793
#
# Stress axis : x y z
#
# Youngs Moduli (GPa) = 53.27271 38.77768 77.12770
#
# Poissons Ratio (x) = 0.24807 0.51154
# Poissons Ratio (y) = 0.34079 0.47194
# Poissons Ratio (z) = 0.35332 0.23728
#
# Static dielectric constant tensor:
#      x y z
#    x 3.084240 0.000000 0.000000 
#    y 0.000000 2.545260 0.000000 
#    z 0.000000 0.000000 3.450840 
# 
# 
# High freq. dielectric constant tensor:
#      x y z
#    x 1.614310 0.000000 0.000000 
#    y 0.000000 1.530830 0.000000 
#    z 0.000000 0.000000 1.607060 
# 
# From -- ./inp_files/26516.got.cif
#   From: 2010.03.12/outbox.cif.g09.slc.cpg/sg59_14_cif.got.tgz:26516.got - 2010.04.16 16:29:54.
