data_PCOD8239945
_publ_section_title
;
Structure prediction by ZEFSAII (Michael W. Deem and Ramdas Pophale) SiO2 
 PCOD8239945
Probable space group: P M M N
;
_chemical_formula_sum "Si O2"
_cell_formula_units_Z 40
_cell_length_a 13.530374
_cell_length_b 17.568297
_cell_length_c 9.414568
_cell_angle_alpha 90.000000
_cell_angle_beta 90.000000
_cell_angle_gamma 90.000000
_cell_volume 2237.895808
_symmetry_space_group_name_H-M "P M M N"
_symmetry_group_IT_number 59
_space_group.IT_coordinate_system_code '2'
_symmetry_cell_setting 'orthorhombic'
loop_
_space_group_symop_operation_xyz
x,y,z
1/2-x,1/2-y,z
1/2+x,-y,-z
-x,1/2+y,-z
-x,-y,-z
1/2+x,1/2+y,-z
1/2-x,y,z
x,1/2-y,z
loop_
_atom_site_type_symbol
_atom_site_label
_atom_site_fract_x
_atom_site_fract_y
_atom_site_fract_z
Si Si1 0.968972 0.475583 0.344680
Si Si2 0.360740 0.515838 0.150820
Si Si3 0.135556 0.664700 0.757745
Si Si4 0.452753 0.835053 0.067000
Si Si5 0.638009 0.576292 0.129905
O O1 0.912720 0.394548 0.352657
O O2 0.896275 0.538973 0.277917
O O3 0.000000 0.500000 0.500000
O O4 0.067813 0.466793 0.250557
O O5 0.250000 0.504276 0.207346
O O6 0.389243 0.605061 0.158847
O O7 0.372447 0.489419 0.988400
O O8 0.250000 0.643776 0.785333
O O9 0.125923 0.750000 0.694608
O O10 0.076392 0.658254 0.903627
O O11 0.431331 0.750000 0.124039
O O12 0.569240 0.852857 0.086088
O O13 0.750000 0.606208 0.143285
#
# Coordination Sequence:
#
# PCOD8239945 Si02
#       5
#     8   8   8   8   8
#     4  11  21  35  54  79 111 145 183 221 264 321
#     4  10  19  34  54  78 107 137 178 224 266 316
#     4  10  19  33  56  84 111 138 174 222 274 325
#     4  10  18  31  54  83 109 136 174 226 277 317
#     4  10  19  35  56  77 107 142 180 223 266 320
#
# _framework density 17.873933999999998
#
# number of rings (size 3 to 8) (size 9 to 14) (size 15 to 20)
#    0.000    1.800    4.000    2.400    0.000    3.200 
#    0.000    4.000    0.000    0.600    0.000    0.000 
#    0.000    0.000    0.000    0.000    0.000    0.000 
#
# Total GULP energy -495982.530143 kJ/mol
# GULP energy per Si atom -12399.563254 kJ/mol
# Density = 1.783325 g / cm^3
# Si number density = 17.873934 Si / 1000 Ang^3
#
#
#
# Elastic Constant Matrix: (Units=GPa)
#
#
# Indices 1 2 3 4 5 6 
#
# 1 116.8094 31.6964 42.5795 0.0000 0.0000 0.0000
# 2 31.6964 99.9687 29.9627 0.0000 0.0000 0.0000
# 3 42.5795 29.9627 83.5959 0.0000 0.0000 0.0000
# 4 0.0000 0.0000 0.0000 16.7111 0.0000 0.0000
# 5 0.0000 0.0000 0.0000 0.0000 16.7099 0.0000
# 6 0.0000 0.0000 0.0000 0.0000 0.0000 27.3974
#
#
#
# Elastic Compliance Matrix: (Units=1/GPa)
#
#
# Indices 1 2 3 4 5 6 
#
# 1 0.010858 -0.002000 -0.004814 0.000000 0.000000 0.000000
# 2 -0.002000 0.011575 -0.003130 0.000000 0.000000 0.000000
# 3 -0.004814 -0.003130 0.015536 0.000000 0.000000 0.000000
# 4 0.000000 0.000000 0.000000 0.059840 0.000000 0.000000
# 5 0.000000 0.000000 0.000000 0.000000 0.059845 0.000000
# 6 0.000000 0.000000 0.000000 0.000000 0.000000 0.036500
#
#
# Mechanical properties :
#
#
# Convention : Reuss Voigt Hill
#
# Bulk Modulus (GPa) = 55.30397 56.53903 55.92150
# Shear Modulus (GPa) = 22.71999 25.23938 23.97969
#
# Velocity S-wave (km/s) = 3.56915 3.76184 3.66676
# Velocity P-wave (km/s) = 6.92773 7.11121 7.02007
#
# Compressibility (1/GPa) = 0.01808189
#
# Stress axis : x y z
#
# Youngs Moduli (GPa) = 92.09452 86.38981 64.36587
#
# Poissons Ratio (x) = 0.17278 0.30985
# Poissons Ratio (y) = 0.18419 0.20148
# Poissons Ratio (z) = 0.44333 0.27042
#
# Static dielectric constant tensor:
#      x y z
#    x 3.564840 0.000000 0.000000 
#    y 0.000000 3.404140 0.000000 
#    z 0.000000 0.000000 2.934750 
# 
# 
# High freq. dielectric constant tensor:
#      x y z
#    x 1.707800 0.000000 0.000000 
#    y 0.000000 1.685280 0.000000 
#    z 0.000000 0.000000 1.652000 
# 
# From -- ./inp_files/8790.got.cif
#   From: 2010.03.12/outbox.cif.g09.slc.cpg/sg59_5_cif.got.tgz:8790.got - 2010.04.16 16:29:54.
