data_PCOD8239332
_publ_section_title
;
Structure prediction by ZEFSAII (Michael W. Deem and Ramdas Pophale) SiO2 
 PCOD8239332
Probable space group: P M M N
;
_chemical_formula_sum "Si O2"
_cell_formula_units_Z 56
_cell_length_a 27.390526
_cell_length_b 9.734056
_cell_length_c 12.723919
_cell_angle_alpha 90.000000
_cell_angle_beta 90.000000
_cell_angle_gamma 90.000000
_cell_volume 3392.462913
_symmetry_space_group_name_H-M "P M M N"
_symmetry_group_IT_number 59
_space_group.IT_coordinate_system_code '2'
_symmetry_cell_setting 'orthorhombic'
loop_
_space_group_symop_operation_xyz
x,y,z
1/2-x,1/2-y,z
1/2+x,-y,-z
-x,1/2+y,-z
-x,-y,-z
1/2+x,1/2+y,-z
1/2-x,y,z
x,1/2-y,z
loop_
_atom_site_type_symbol
_atom_site_label
_atom_site_fract_x
_atom_site_fract_y
_atom_site_fract_z
Si Si1 0.410766 0.910411 0.626837
Si Si2 0.195398 0.586699 0.247476
Si Si3 0.482790 0.089271 0.321906
Si Si4 0.375822 0.905177 0.841069
Si Si5 0.107949 0.911278 0.394100
Si Si6 0.514489 0.401538 0.091599
Si Si7 0.194925 0.587203 0.013275
O O1 0.415711 0.750000 0.654430
O O2 0.466901 0.963341 0.622965
O O3 0.379769 0.975829 0.724567
O O4 0.382706 0.937852 0.518085
O O5 0.250000 0.533558 0.277949
O O6 0.196080 0.750000 0.247985
O O7 0.155347 0.533562 0.331231
O O8 0.181267 0.532657 0.130466
O O9 0.472612 0.250000 0.346144
O O10 0.486538 0.060392 0.198148
O O11 0.439145 0.996787 0.363064
O O12 0.356723 0.750000 0.826941
O O13 0.428073 0.909933 0.894247
O O14 0.338753 0.980999 0.922040
O O15 0.098249 0.750000 0.372473
O O16 0.499049 0.250000 0.055925
O O17 0.500000 0.500000 0.000000
O O18 0.250000 0.545551 0.986074
O O19 0.187863 0.750000 0.014866
#
# Coordination Sequence:
#
# PCOD8239332 Si02
#       7
#     8   8   8   8   8   8   8
#     4   8  15  28  41  58  85 115 145 177 214 253
#     4   8  15  26  38  59  90 113 134 176 227 259
#     4   9  18  31  43  60  90 121 144 175 219 258
#     4   8  14  25  40  56  82 115 139 167 212 255
#     4  10  18  27  46  68  84 112 152 183 210 255
#     4   9  18  29  42  61  87 116 142 173 213 254
#     4   8  13  22  37  57  82 112 143 172 207 258
#
# _framework density 16.507182
#
# number of rings (size 3 to 8) (size 9 to 14) (size 15 to 20)
#    0.000    3.429    0.000    3.000    2.000    0.571 
#    0.000    0.714    0.000    5.571    0.000    0.000 
#    0.000    0.571    0.000    0.000    0.000    0.000 
#
# Total GULP energy -693765.881475 kJ/mol
# GULP energy per Si atom -12388.676455 kJ/mol
# Density = 1.646961 g / cm^3
# Si number density = 16.507182 Si / 1000 Ang^3
#
#
#
# Elastic Constant Matrix: (Units=GPa)
#
#
# Indices 1 2 3 4 5 6 
#
# 1 92.0777 13.5891 82.8916 0.0000 0.0000 0.0000
# 2 13.5891 21.5035 26.9655 0.0000 0.0000 0.0000
# 3 82.8916 26.9655 139.4564 0.0000 0.0000 0.0000
# 4 0.0000 0.0000 0.0000 14.1736 0.0000 0.0000
# 5 0.0000 0.0000 0.0000 0.0000 33.0354 0.0000
# 6 0.0000 0.0000 0.0000 0.0000 0.0000 14.2930
#
#
#
# Elastic Compliance Matrix: (Units=1/GPa)
#
#
# Indices 1 2 3 4 5 6 
#
# 1 0.023561 0.003528 -0.014687 0.000000 0.000000 0.000000
# 2 0.003528 0.061918 -0.014069 0.000000 0.000000 0.000000
# 3 -0.014687 -0.014069 0.018621 0.000000 0.000000 0.000000
# 4 0.000000 0.000000 0.000000 0.070554 0.000000 0.000000
# 5 0.000000 0.000000 0.000000 0.000000 0.030271 0.000000
# 6 0.000000 0.000000 0.000000 0.000000 0.000000 0.069964
#
#
# Mechanical properties :
#
#
# Convention : Reuss Voigt Hill
#
# Bulk Modulus (GPa) = 18.64168 55.54777 37.09473
# Shear Modulus (GPa) = 14.56765 20.93984 17.75374
#
# Velocity S-wave (km/s) = 2.97392 3.56551 3.28306
# Velocity P-wave (km/s) = 4.80727 7.11858 6.07388
#
# Compressibility (1/GPa) = 0.05364322
#
# Stress axis : x y z
#
# Youngs Moduli (GPa) = 42.44250 16.15043 53.70322
#
# Poissons Ratio (x) = -0.05698 0.78873
# Poissons Ratio (y) = -0.14973 0.75557
# Poissons Ratio (z) = 0.62334 0.22723
#
# Static dielectric constant tensor:
#      x y z
#    x 2.974680 0.000000 0.000000 
#    y 0.000000 2.591240 0.000000 
#    z 0.000000 0.000000 3.396180 
# 
# 
# High freq. dielectric constant tensor:
#      x y z
#    x 1.628340 0.000000 0.000000 
#    y 0.000000 1.569400 0.000000 
#    z 0.000000 0.000000 1.651320 
# 
# From -- ./inp_files/16305.got.cif
#   From: 2010.03.12/outbox.cif.g09.slc.cpg/sg59_9_cif.got.tgz:16305.got - 2010.04.16 16:29:54.
