data_PCOD8239179
_publ_section_title
;
Structure prediction by ZEFSAII (Michael W. Deem and Ramdas Pophale) SiO2 
 PCOD8239179
Probable space group: P M M N
;
_chemical_formula_sum "Si O2"
_cell_formula_units_Z 48
_cell_length_a 18.518610
_cell_length_b 12.470478
_cell_length_c 12.386185
_cell_angle_alpha 90.000000
_cell_angle_beta 90.000000
_cell_angle_gamma 90.000000
_cell_volume 2860.415011
_symmetry_space_group_name_H-M "P M M N"
_symmetry_group_IT_number 59
_space_group.IT_coordinate_system_code '2'
_symmetry_cell_setting 'orthorhombic'
loop_
_space_group_symop_operation_xyz
x,y,z
1/2-x,1/2-y,z
1/2+x,-y,-z
-x,1/2+y,-z
-x,-y,-z
1/2+x,1/2+y,-z
1/2-x,y,z
x,1/2-y,z
loop_
_atom_site_type_symbol
_atom_site_label
_atom_site_fract_x
_atom_site_fract_y
_atom_site_fract_z
Si Si1 0.407231 0.042803 0.416803
Si Si2 0.669711 0.750000 0.577093
Si Si3 0.068000 0.873606 0.580078
Si Si4 0.167708 0.250000 0.166281
Si Si5 0.333586 0.624528 0.016596
Si Si6 0.590710 0.962075 0.829529
Si Si7 0.934782 0.373102 0.179240
O O1 0.365450 0.142612 0.469433
O O2 0.489652 0.075661 0.417819
O O3 0.384356 0.018533 0.293922
O O4 0.387328 0.939852 0.490511
O O5 0.750000 0.750000 0.535154
O O6 0.660918 0.750000 0.705370
O O7 0.066933 0.750000 0.544319
O O8 0.099063 0.888152 0.700995
O O9 0.250000 0.250000 0.126266
O O10 0.128507 0.144000 0.121362
O O11 0.250000 0.586303 0.014715
O O12 0.338233 0.750000 0.043080
O O13 0.380505 0.564552 0.106559
O O14 0.369998 0.598239 0.901446
O O15 0.503964 0.949846 0.840921
O O16 0.961604 0.250000 0.166425
#
# Coordination Sequence:
#
# PCOD8239179 Si02
#       7
#     8   4   8   4   8   8   8
#     4   9  17  28  47  74  99 124 156 193 246 286
#     4   9  16  28  44  65  97 130 161 187 226 293
#     4   9  16  29  50  73  99 123 155 204 239 280
#     4   9  16  26  46  73  96 122 151 193 247 287
#     4  10  21  34  48  67  95 131 163 195 241 293
#     4  10  17  30  50  73  99 121 158 204 242 287
#     4   9  17  32  52  72  94 125 165 204 234 276
#
# _framework density 16.780781999999999
#
# number of rings (size 3 to 8) (size 9 to 14) (size 15 to 20)
#    0.000    2.667    1.667    1.000    0.000    1.333 
#    0.000    0.833    0.000    1.500    0.000    1.167 
#    0.000    0.000    0.000    0.000    0.000    0.000 
#
# Total GULP energy -594978.898232 kJ/mol
# GULP energy per Si atom -12395.393713 kJ/mol
# Density = 1.674259 g / cm^3
# Si number density = 16.780782 Si / 1000 Ang^3
#
#
#
# Elastic Constant Matrix: (Units=GPa)
#
#
# Indices 1 2 3 4 5 6 
#
# 1 44.2517 16.0331 31.4285 0.0000 0.0000 0.0000
# 2 16.0331 83.5900 58.7401 0.0000 0.0000 0.0000
# 3 31.4285 58.7401 91.9251 0.0000 0.0000 0.0000
# 4 0.0000 0.0000 0.0000 27.0863 0.0000 0.0000
# 5 0.0000 0.0000 0.0000 0.0000 68.8527 0.0000
# 6 0.0000 0.0000 0.0000 0.0000 0.0000 9.7718
#
#
#
# Elastic Compliance Matrix: (Units=1/GPa)
#
#
# Indices 1 2 3 4 5 6 
#
# 1 0.030166 0.002652 -0.012008 0.000000 0.000000 0.000000
# 2 0.002652 0.021946 -0.014931 0.000000 0.000000 0.000000
# 3 -0.012008 -0.014931 0.024525 0.000000 0.000000 0.000000
# 4 0.000000 0.000000 0.000000 0.036919 0.000000 0.000000
# 5 0.000000 0.000000 0.000000 0.000000 0.014524 0.000000
# 6 0.000000 0.000000 0.000000 0.000000 0.000000 0.102335
#
#
# Mechanical properties :
#
#
# Convention : Reuss Voigt Hill
#
# Bulk Modulus (GPa) = 35.63323 48.01894 41.82608
# Shear Modulus (GPa) = 17.34054 28.71316 23.02685
#
# Velocity S-wave (km/s) = 3.21807 4.14100 3.70836
# Velocity P-wave (km/s) = 5.92357 7.17923 6.58142
#
# Compressibility (1/GPa) = 0.02806369
#
# Stress axis : x y z
#
# Youngs Moduli (GPa) = 33.15040 45.56565 40.77537
#
# Poissons Ratio (x) = -0.12086 0.48964
# Poissons Ratio (y) = -0.08793 0.60880
# Poissons Ratio (z) = 0.39808 0.68032
#
# Static dielectric constant tensor:
#      x y z
#    x 3.039360 0.000000 0.000000 
#    y 0.000000 3.172390 0.000000 
#    z 0.000000 0.000000 3.239400 
# 
# 
# High freq. dielectric constant tensor:
#      x y z
#    x 1.633510 0.000000 0.000000 
#    y 0.000000 1.645550 0.000000 
#    z 0.000000 0.000000 1.628130 
# 
# From -- ./inp_files/9079.got.cif
#   From: 2010.03.12/outbox.cif.g09.slc.cpg/sg59_5_cif.got.tgz:9079.got - 2010.04.16 16:29:54.
