data_PCOD8239149
_publ_section_title
;
Structure prediction by ZEFSAII (Michael W. Deem and Ramdas Pophale) SiO2 
 PCOD8239149
Probable space group: P M M N
;
_chemical_formula_sum "Si O2"
_cell_formula_units_Z 64
_cell_length_a 12.276421
_cell_length_b 27.037265
_cell_length_c 11.972630
_cell_angle_alpha 90.000000
_cell_angle_beta 90.000000
_cell_angle_gamma 90.000000
_cell_volume 3973.965500
_symmetry_space_group_name_H-M "P M M N"
_symmetry_group_IT_number 59
_space_group.IT_coordinate_system_code '2'
_symmetry_cell_setting 'orthorhombic'
loop_
_space_group_symop_operation_xyz
x,y,z
1/2-x,1/2-y,z
1/2+x,-y,-z
-x,1/2+y,-z
-x,-y,-z
1/2+x,1/2+y,-z
1/2-x,y,z
x,1/2-y,z
loop_
_atom_site_type_symbol
_atom_site_label
_atom_site_fract_x
_atom_site_fract_y
_atom_site_fract_z
Si Si1 0.876774 0.439798 0.464672
Si Si2 0.878927 0.693513 0.405412
Si Si3 0.458077 0.132129 0.382425
Si Si4 0.125368 0.114696 0.024480
Si Si5 0.874435 0.805770 0.804153
Si Si6 0.121636 0.118960 0.778923
Si Si7 0.479482 0.026745 0.665332
Si Si8 0.875654 0.549922 0.771904
O O1 0.750000 0.432675 0.488539
O O2 0.940922 0.446234 0.579482
O O3 0.921621 0.389917 0.405229
O O4 0.896290 0.488238 0.390268
O O5 0.750000 0.696910 0.404300
O O6 0.926572 0.750000 0.412950
O O7 0.911609 0.658667 0.508343
O O8 0.922274 0.666033 0.292793
O O9 0.460059 0.172796 0.284888
O O10 0.385231 0.085884 0.337117
O O11 0.250000 0.099518 0.007213
O O12 0.067422 0.116629 0.903170
O O13 0.113402 0.169175 0.075726
O O14 0.077254 0.075975 0.115464
O O15 0.750000 0.812763 0.758879
O O16 0.906183 0.750000 0.824023
O O17 0.250000 0.125037 0.789578
O O18 0.095571 0.067485 0.720895
O O19 0.554205 0.999403 0.756630
O O20 0.750000 0.535307 0.784946
#
# Coordination Sequence:
#
# PCOD8239149 Si02
#       8
#     8   8   8   8   8   8   8   8
#     4  10  20  32  46  68  96 123 155 191 230 280
#     4  10  19  29  44  67  93 121 152 187 226 273
#     4  10  17  29  46  68  95 122 148 187 232 275
#     4   8  16  29  43  64  95 126 152 186 229 272
#     4   9  16  27  47  73  97 122 154 192 231 273
#     4  10  19  31  45  65  96 127 154 184 229 281
#     4  10  19  31  47  69  90 125 157 190 229 272
#     4   9  17  29  47  69  93 121 155 188 224 269
#
# _framework density 16.104821000000001
#
# number of rings (size 3 to 8) (size 9 to 14) (size 15 to 20)
#    0.000    2.500    1.250    3.000    0.000    2.000 
#    0.000    2.500    0.000    1.500    0.000    3.500 
#    0.000    0.000    0.000    0.000    0.000    0.000 
#
# Total GULP energy -793053.677378 kJ/mol
# GULP energy per Si atom -12391.463709 kJ/mol
# Density = 1.606817 g / cm^3
# Si number density = 16.104821 Si / 1000 Ang^3
#
#
#
# Elastic Constant Matrix: (Units=GPa)
#
#
# Indices 1 2 3 4 5 6 
#
# 1 25.3197 7.7851 11.5456 0.0000 0.0000 0.0000
# 2 7.7851 83.3079 39.1726 0.0000 0.0000 0.0000
# 3 11.5456 39.1726 108.7537 0.0000 0.0000 0.0000
# 4 0.0000 0.0000 0.0000 15.0311 0.0000 0.0000
# 5 0.0000 0.0000 0.0000 0.0000 11.7307 0.0000
# 6 0.0000 0.0000 0.0000 0.0000 0.0000 21.5192
#
#
#
# Elastic Compliance Matrix: (Units=1/GPa)
#
#
# Indices 1 2 3 4 5 6 
#
# 1 0.041834 -0.002192 -0.003652 0.000000 0.000000 0.000000
# 2 -0.002192 0.014566 -0.005014 0.000000 0.000000 0.000000
# 3 -0.003652 -0.005014 0.011389 0.000000 0.000000 0.000000
# 4 0.000000 0.000000 0.000000 0.066529 0.000000 0.000000
# 5 0.000000 0.000000 0.000000 0.000000 0.085246 0.000000
# 6 0.000000 0.000000 0.000000 0.000000 0.000000 0.046470
#
#
# Mechanical properties :
#
#
# Convention : Reuss Voigt Hill
#
# Bulk Modulus (GPa) = 21.70453 37.15420 29.42936
# Shear Modulus (GPa) = 16.49579 20.24807 18.37193
#
# Velocity S-wave (km/s) = 3.20390 3.54964 3.38120
# Velocity P-wave (km/s) = 5.21469 6.31825 5.79281
#
# Compressibility (1/GPa) = 0.04607332
#
# Stress axis : x y z
#
# Youngs Moduli (GPa) = 23.90396 68.65223 87.80607
#
# Poissons Ratio (x) = 0.15051 0.32063
# Poissons Ratio (y) = 0.05241 0.44025
# Poissons Ratio (z) = 0.08729 0.34422
#
# Static dielectric constant tensor:
#      x y z
#    x 2.665140 0.000000 0.000000 
#    y 0.000000 3.210950 0.000000 
#    z 0.000000 0.000000 3.303240 
# 
# 
# High freq. dielectric constant tensor:
#      x y z
#    x 1.567400 0.000000 0.000000 
#    y 0.000000 1.623990 0.000000 
#    z 0.000000 0.000000 1.625890 
# 
# From -- ./inp_files/16230.got.cif
#   From: 2010.03.12/outbox.cif.g09.slc.cpg/sg59_9_cif.got.tgz:16230.got - 2010.04.16 16:29:54.
