data_PCOD8239564
_publ_section_title
;
Structure prediction by ZEFSAII (Michael W. Deem and Ramdas Pophale) SiO2 
 PCOD8239564
Probable space group: P M M N
;
_chemical_formula_sum "Si O2"
_cell_formula_units_Z 56
_cell_length_a 8.940374
_cell_length_b 19.167587
_cell_length_c 17.564459
_cell_angle_alpha 90.000000
_cell_angle_beta 90.000000
_cell_angle_gamma 90.000000
_cell_volume 3009.940480
_symmetry_space_group_name_H-M "P M M N"
_symmetry_group_IT_number 59
_space_group.IT_coordinate_system_code '2'
_symmetry_cell_setting 'orthorhombic'
loop_
_space_group_symop_operation_xyz
x,y,z
1/2-x,1/2-y,z
1/2+x,-y,-z
-x,1/2+y,-z
-x,-y,-z
1/2+x,1/2+y,-z
1/2-x,y,z
x,1/2-y,z
loop_
_atom_site_type_symbol
_atom_site_label
_atom_site_fract_x
_atom_site_fract_y
_atom_site_fract_z
Si Si1 0.077822 0.429761 0.478209
Si Si2 0.573123 0.671686 0.965203
Si Si3 0.424984 0.470968 0.320468
Si Si4 0.925624 0.614707 0.365696
Si Si5 0.074695 0.057439 0.150762
Si Si6 0.072986 0.082229 0.892475
Si Si7 0.920572 0.328088 0.768247
O O1 0.250000 0.445650 0.489322
O O2 0.044195 0.413463 0.388601
O O3 0.033916 0.373372 0.543793
O O4 0.000000 0.500000 0.500000
O O5 0.750000 0.677778 0.972703
O O6 0.503388 0.750000 0.963682
O O7 0.528132 0.630714 0.888082
O O8 0.510617 0.627685 0.036887
O O9 0.250000 0.492189 0.319460
O O10 0.524249 0.538587 0.336250
O O11 0.472279 0.438032 0.239536
O O12 0.750000 0.624313 0.350362
O O13 0.018327 0.671718 0.318282
O O14 0.250000 0.043873 0.141224
O O15 0.993351 0.995327 0.105612
O O16 0.250000 0.076512 0.894641
O O17 0.022610 0.119616 0.815479
O O18 0.750000 0.354443 0.770766
O O19 0.933753 0.250000 0.800813
#
# Coordination Sequence:
#
# PCOD8239564 Si02
#       7
#     8   8   8   8   8   8   8
#     4   8  15  26  42  67  97 129 162 197 242 291
#     4   9  19  35  53  75 103 136 173 210 253 307
#     4   9  16  28  47  72 103 133 164 205 250 295
#     4  10  18  29  47  70  99 132 169 210 251 300
#     4  10  19  32  54  79 105 136 170 211 256 304
#     4  11  21  34  54  77 103 133 169 216 262 309
#     4  11  23  36  50  70 100 137 175 215 263 320
#
# _framework density 18.605018999999999
#
# number of rings (size 3 to 8) (size 9 to 14) (size 15 to 20)
#    0.000    2.286    1.429    2.143    0.000    2.286 
#    0.000    0.714    0.000    3.000    0.000    4.000 
#    0.000    0.000    0.000    0.000    0.000    0.000 
#
# Total GULP energy -693818.757913 kJ/mol
# GULP energy per Si atom -12389.620677 kJ/mol
# Density = 1.856267 g / cm^3
# Si number density = 18.605019 Si / 1000 Ang^3
#
#
#
# Elastic Constant Matrix: (Units=GPa)
#
#
# Indices 1 2 3 4 5 6 
#
# 1 39.2355 18.6567 22.1653 0.0000 0.0000 0.0000
# 2 18.6567 85.1809 53.9114 0.0000 0.0000 0.0000
# 3 22.1653 53.9114 136.0309 0.0000 0.0000 0.0000
# 4 0.0000 0.0000 0.0000 20.9199 0.0000 0.0000
# 5 0.0000 0.0000 0.0000 0.0000 19.1090 0.0000
# 6 0.0000 0.0000 0.0000 0.0000 0.0000 18.0039
#
#
#
# Elastic Compliance Matrix: (Units=1/GPa)
#
#
# Indices 1 2 3 4 5 6 
#
# 1 0.029328 -0.004537 -0.002981 0.000000 0.000000 0.000000
# 2 -0.004537 0.016372 -0.005749 0.000000 0.000000 0.000000
# 3 -0.002981 -0.005749 0.010116 0.000000 0.000000 0.000000
# 4 0.000000 0.000000 0.000000 0.047801 0.000000 0.000000
# 5 0.000000 0.000000 0.000000 0.000000 0.052331 0.000000
# 6 0.000000 0.000000 0.000000 0.000000 0.000000 0.055544
#
#
# Mechanical properties :
#
#
# Convention : Reuss Voigt Hill
#
# Bulk Modulus (GPa) = 34.15082 49.99045 42.07063
# Shear Modulus (GPa) = 20.17858 22.65415 21.41636
#
# Velocity S-wave (km/s) = 3.29686 3.49325 3.39648
# Velocity P-wave (km/s) = 5.73480 6.57252 6.16790
#
# Compressibility (1/GPa) = 0.02928187
#
# Stress axis : x y z
#
# Youngs Moduli (GPa) = 34.09658 61.07914 98.85813
#
# Poissons Ratio (x) = 0.27712 0.29467
# Poissons Ratio (y) = 0.15470 0.56836
# Poissons Ratio (z) = 0.10163 0.35116
#
# Static dielectric constant tensor:
#      x y z
#    x 3.187470 0.000000 0.000000 
#    y 0.000000 3.245160 0.000000 
#    z 0.000000 0.000000 4.117600 
# 
# 
# High freq. dielectric constant tensor:
#      x y z
#    x 1.709400 0.000000 0.000000 
#    y 0.000000 1.682380 0.000000 
#    z 0.000000 0.000000 1.742310 
# 
# From -- ./inp_files/26067.got.cif
#   From: 2010.03.12/outbox.cif.g09.slc.cpg/sg59_14_cif.got.tgz:26067.got - 2010.04.16 16:29:54.
