data_PCOD8239798
_publ_section_title
;
Structure prediction by ZEFSAII (Michael W. Deem and Ramdas Pophale) SiO2 
 PCOD8239798
Probable space group: P M M N
;
_chemical_formula_sum "Si O2"
_cell_formula_units_Z 56
_cell_length_a 14.309079
_cell_length_b 8.736979
_cell_length_c 22.987887
_cell_angle_alpha 90.000000
_cell_angle_beta 90.000000
_cell_angle_gamma 90.000000
_cell_volume 2873.902478
_symmetry_space_group_name_H-M "P M M N"
_symmetry_group_IT_number 59
_space_group.IT_coordinate_system_code '2'
_symmetry_cell_setting 'orthorhombic'
loop_
_space_group_symop_operation_xyz
x,y,z
1/2-x,1/2-y,z
1/2+x,-y,-z
-x,1/2+y,-z
-x,-y,-z
1/2+x,1/2+y,-z
1/2-x,y,z
x,1/2-y,z
loop_
_atom_site_type_symbol
_atom_site_label
_atom_site_fract_x
_atom_site_fract_y
_atom_site_fract_z
Si Si1 0.031771 0.931531 0.358800
Si Si2 0.856130 0.070328 0.095195
Si Si3 0.644247 0.431974 0.752183
Si Si4 0.856817 0.926740 0.972250
Si Si5 0.964946 0.069300 0.866212
Si Si6 0.646185 0.068077 0.532717
Si Si7 0.144086 0.930461 0.597192
O O1 0.032991 0.750000 0.357521
O O2 0.089370 0.996586 0.303961
O O3 0.077502 0.998074 0.418086
O O4 0.925045 0.989705 0.356813
O O5 0.750000 0.022066 0.111036
O O6 0.871007 0.250000 0.102818
O O7 0.926248 0.980169 0.138318
O O8 0.879648 0.025162 0.029115
O O9 0.750000 0.497372 0.752852
O O10 0.647133 0.250000 0.750069
O O11 0.589294 0.488472 0.809125
O O12 0.750000 0.951157 0.952707
O O13 0.878132 0.750000 0.986228
O O14 0.922190 0.983930 0.921129
O O15 0.955426 0.250000 0.874016
O O16 0.750000 0.009040 0.547696
O O17 0.645410 0.250000 0.533759
O O18 0.618118 0.011591 0.468109
O O19 0.250000 0.978742 0.612625
O O20 0.132539 0.750000 0.601873
#
# Coordination Sequence:
#
# PCOD8239798 Si02
#       7
#     8   8   8   8   8   8   8
#     4  10  18  30  52  77  98 126 168 215 253 288
#     4  10  21  37  56  78 105 136 171 212 256 303
#     4   9  19  35  54  77 103 131 166 207 251 300
#     4  10  20  34  54  81 111 140 171 209 253 303
#     4  11  21  34  54  77 104 138 173 211 255 303
#     4   8  14  26  47  74 101 130 164 202 249 305
#     4   9  18  32  48  69 101 137 167 199 248 308
#
# _framework density 19.485700999999999
#
# number of rings (size 3 to 8) (size 9 to 14) (size 15 to 20)
#    0.000    2.429    0.000    3.857    0.000    4.286 
#    0.000    2.143    0.000    8.571    0.000    0.000 
#    0.000    0.000    0.000    0.000    0.000    0.000 
#
# Total GULP energy -694349.966591 kJ/mol
# GULP energy per Si atom -12399.106546 kJ/mol
# Density = 1.944135 g / cm^3
# Si number density = 19.485701 Si / 1000 Ang^3
#
#
#
# Elastic Constant Matrix: (Units=GPa)
#
#
# Indices 1 2 3 4 5 6 
#
# 1 149.2939 19.6890 77.9949 0.0000 0.0000 0.0000
# 2 19.6890 24.9082 12.4760 0.0000 0.0000 0.0000
# 3 77.9949 12.4760 84.9727 0.0000 0.0000 0.0000
# 4 0.0000 0.0000 0.0000 15.9818 0.0000 0.0000
# 5 0.0000 0.0000 0.0000 0.0000 36.3146 0.0000
# 6 0.0000 0.0000 0.0000 0.0000 0.0000 31.2778
#
#
#
# Elastic Compliance Matrix: (Units=1/GPa)
#
#
# Indices 1 2 3 4 5 6 
#
# 1 0.013376 -0.004775 -0.011576 0.000000 0.000000 0.000000
# 2 -0.004775 0.045039 -0.002230 0.000000 0.000000 0.000000
# 3 -0.011576 -0.002230 0.022721 0.000000 0.000000 0.000000
# 4 0.000000 0.000000 0.000000 0.062571 0.000000 0.000000
# 5 0.000000 0.000000 0.000000 0.000000 0.027537 0.000000
# 6 0.000000 0.000000 0.000000 0.000000 0.000000 0.031972
#
#
# Mechanical properties :
#
#
# Convention : Reuss Voigt Hill
#
# Bulk Modulus (GPa) = 22.74089 53.27720 38.00905
# Shear Modulus (GPa) = 19.60512 26.64915 23.12714
#
# Velocity S-wave (km/s) = 3.17539 3.70215 3.44885
# Velocity P-wave (km/s) = 5.01399 6.75838 5.95045
#
# Compressibility (1/GPa) = 0.04397366
#
# Stress axis : x y z
#
# Youngs Moduli (GPa) = 74.76322 22.20317 44.01118
#
# Poissons Ratio (x) = 0.10601 0.50948
# Poissons Ratio (y) = 0.35697 0.09815
# Poissons Ratio (z) = 0.86547 0.04952
#
# Static dielectric constant tensor:
#      x y z
#    x 3.882370 0.000000 0.000000 
#    y 0.000000 3.178960 0.000000 
#    z 0.000000 0.000000 3.549280 
# 
# 
# High freq. dielectric constant tensor:
#      x y z
#    x 1.777700 0.000000 0.000000 
#    y 0.000000 1.728280 0.000000 
#    z 0.000000 0.000000 1.739810 
# 
# From -- ./inp_files/29043.got.cif
#   From: 2010.03.12/outbox.cif.g09.slc.cpg/sg59_15_cif.got.tgz:29043.got - 2010.04.16 16:29:54.
