data_PCOD8239867
_publ_section_title
;
Structure prediction by ZEFSAII (Michael W. Deem and Ramdas Pophale) SiO2 
 PCOD8239867
Probable space group: P M M N
;
_chemical_formula_sum "Si O2"
_cell_formula_units_Z 64
_cell_length_a 19.838126
_cell_length_b 8.715547
_cell_length_c 20.204098
_cell_angle_alpha 90.000000
_cell_angle_beta 90.000000
_cell_angle_gamma 90.000000
_cell_volume 3493.290959
_symmetry_space_group_name_H-M "P M M N"
_symmetry_group_IT_number 59
_space_group.IT_coordinate_system_code '2'
_symmetry_cell_setting 'orthorhombic'
loop_
_space_group_symop_operation_xyz
x,y,z
1/2-x,1/2-y,z
1/2+x,-y,-z
-x,1/2+y,-z
-x,-y,-z
1/2+x,1/2+y,-z
1/2-x,y,z
x,1/2-y,z
loop_
_atom_site_type_symbol
_atom_site_label
_atom_site_fract_x
_atom_site_fract_y
_atom_site_fract_z
Si Si1 0.569851 0.930422 0.975222
Si Si2 0.418453 0.928104 0.806271
Si Si3 0.558697 0.069244 0.837979
Si Si4 0.326984 0.929525 0.410495
Si Si5 0.592885 0.931192 0.703765
Si Si6 0.172681 0.928019 0.925464
Si Si7 0.553981 0.430404 0.335630
Si Si8 0.929222 0.432338 0.479025
O O1 0.560349 0.750000 0.970258
O O2 0.590287 0.997617 0.904127
O O3 0.500000 0.000000 0.000000
O O4 0.630255 0.969097 0.024770
O O5 0.440985 0.750000 0.808044
O O6 0.352557 0.957409 0.850304
O O7 0.403308 0.978099 0.729869
O O8 0.480029 0.025626 0.834882
O O9 0.566306 0.250000 0.840934
O O10 0.601178 0.005340 0.776094
O O11 0.250000 0.967790 0.427265
O O12 0.338862 0.750000 0.399493
O O13 0.370818 0.992313 0.472253
O O14 0.346690 0.015363 0.343161
O O15 0.594397 0.750000 0.712013
O O16 0.522576 0.991180 0.672370
O O17 0.250000 0.979829 0.928893
O O18 0.163619 0.750000 0.944491
O O19 0.550918 0.250000 0.341934
O O20 0.586394 0.493165 0.403996
O O21 0.933533 0.250000 0.481560
O O22 0.000000 0.500000 0.500000
#
# Coordination Sequence:
#
# PCOD8239867 Si02
#       8
#     8   8   8   8   8   8   8   8
#     4  12  23  37  58  85 115 150 191 238 284 334
#     4   9  17  32  53  78 111 146 184 230 274 330
#     4  11  21  34  56  85 113 141 178 229 282 334
#     4  10  21  35  51  76 112 150 186 229 283 340
#     4  10  19  34  55  79 107 140 180 229 276 330
#     4  10  21  37  57  82 115 154 191 231 284 341
#     4   8  15  28  49  77 105 134 176 227 273 312
#     4  10  18  31  51  76 107 143 184 230 275 325
#
# _framework density 18.320833
#
# number of rings (size 3 to 8) (size 9 to 14) (size 15 to 20)
#    0.000    2.000    2.500    3.375    0.000    0.500 
#    0.000    1.250    0.000    7.500    0.000    0.000 
#    0.000    4.250    0.000    0.000    0.000    0.000 
#
# Total GULP energy -793488.653469 kJ/mol
# GULP energy per Si atom -12398.260210 kJ/mol
# Density = 1.827913 g / cm^3
# Si number density = 18.320833 Si / 1000 Ang^3
#
#
#
# Elastic Constant Matrix: (Units=GPa)
#
#
# Indices 1 2 3 4 5 6 
#
# 1 100.8562 36.7074 66.9686 0.0000 0.0000 0.0000
# 2 36.7074 82.7645 49.0428 0.0000 0.0000 0.0000
# 3 66.9686 49.0428 171.8075 0.0000 0.0000 0.0000
# 4 0.0000 0.0000 0.0000 24.7382 0.0000 0.0000
# 5 0.0000 0.0000 0.0000 0.0000 27.7606 0.0000
# 6 0.0000 0.0000 0.0000 0.0000 0.0000 22.1466
#
#
#
# Elastic Compliance Matrix: (Units=1/GPa)
#
#
# Indices 1 2 3 4 5 6 
#
# 1 0.014234 -0.003641 -0.004509 0.000000 0.000000 0.000000
# 2 -0.003641 0.015474 -0.002998 0.000000 0.000000 0.000000
# 3 -0.004509 -0.002998 0.008434 0.000000 0.000000 0.000000
# 4 0.000000 0.000000 0.000000 0.040423 0.000000 0.000000
# 5 0.000000 0.000000 0.000000 0.000000 0.036022 0.000000
# 6 0.000000 0.000000 0.000000 0.000000 0.000000 0.045154
#
#
# Mechanical properties :
#
#
# Convention : Reuss Voigt Hill
#
# Bulk Modulus (GPa) = 63.10789 73.42952 68.26870
# Shear Modulus (GPa) = 26.69245 28.44305 27.56775
#
# Velocity S-wave (km/s) = 3.82114 3.94445 3.88328
# Velocity P-wave (km/s) = 7.34771 7.80460 7.57960
#
# Compressibility (1/GPa) = 0.01584588
#
# Stress axis : x y z
#
# Youngs Moduli (GPa) = 70.25258 64.62557 118.57194
#
# Poissons Ratio (x) = 0.23532 0.53464
# Poissons Ratio (y) = 0.25581 0.35544
# Poissons Ratio (z) = 0.31677 0.19373
#
# Static dielectric constant tensor:
#      x y z
#    x 3.150480 0.000000 0.000000 
#    y 0.000000 3.234130 0.000000 
#    z 0.000000 0.000000 3.739910 
# 
# 
# High freq. dielectric constant tensor:
#      x y z
#    x 1.676060 0.000000 0.000000 
#    y 0.000000 1.698850 0.000000 
#    z 0.000000 0.000000 1.732600 
# 
# From -- ./inp_files/30691.got.cif
#   From: 2010.03.12/outbox.cif.g09.slc.cpg/sg59_16_cif.got.tgz:30691.got - 2010.04.16 16:29:54.
