data_PCOD8239904
_publ_section_title
;
Structure prediction by ZEFSAII (Michael W. Deem and Ramdas Pophale) SiO2 
 PCOD8239904
Probable space group: P M M N
;
_chemical_formula_sum "Si O2"
_cell_formula_units_Z 56
_cell_length_a 21.210904
_cell_length_b 14.237346
_cell_length_c 10.289951
_cell_angle_alpha 90.000000
_cell_angle_beta 90.000000
_cell_angle_gamma 90.000000
_cell_volume 3107.431219
_symmetry_space_group_name_H-M "P M M N"
_symmetry_group_IT_number 59
_space_group.IT_coordinate_system_code '2'
_symmetry_cell_setting 'orthorhombic'
loop_
_space_group_symop_operation_xyz
x,y,z
1/2-x,1/2-y,z
1/2+x,-y,-z
-x,1/2+y,-z
-x,-y,-z
1/2+x,1/2+y,-z
1/2-x,y,z
x,1/2-y,z
loop_
_atom_site_type_symbol
_atom_site_label
_atom_site_fract_x
_atom_site_fract_y
_atom_site_fract_z
Si Si1 0.862563 0.854107 0.742278
Si Si2 0.593427 0.038918 0.058581
Si Si3 0.676352 0.468081 0.309667
Si Si4 0.324879 0.855221 0.439533
Si Si5 0.464411 0.142404 0.052989
Si Si6 0.679404 0.455096 0.819824
Si Si7 0.821733 0.854137 0.464220
O O1 0.834043 0.750000 0.769689
O O2 0.932022 0.862967 0.804949
O O3 0.867484 0.870532 0.587282
O O4 0.817509 0.931896 0.806334
O O5 0.636506 0.053986 0.183353
O O6 0.535749 0.110201 0.071696
O O7 0.633536 0.074219 0.935637
O O8 0.570937 0.930185 0.044823
O O9 0.750000 0.450525 0.279460
O O10 0.651663 0.403846 0.428269
O O11 0.662603 0.575706 0.347911
O O12 0.250000 0.856499 0.438131
O O13 0.352019 0.750000 0.435333
O O14 0.349085 0.910651 0.312445
O O15 0.461171 0.250000 0.998939
O O16 0.750000 0.418196 0.848804
O O17 0.750000 0.871549 0.514018
O O18 0.830092 0.750000 0.406595
#
# Coordination Sequence:
#
# PCOD8239904 Si02
#       7
#     8   8   8   8   8   8   8
#     4   9  16  29  52  77 101 134 175 213 254 308
#     4  10  21  35  55  79 102 138 178 217 260 312
#     4  10  19  33  52  81 114 139 163 206 266 322
#     4   9  18  32  49  71 104 142 173 204 250 305
#     4   9  20  38  55  71 100 141 182 222 261 297
#     4  10  18  31  52  79 107 135 171 216 260 311
#     4   9  16  27  48  78 109 138 165 200 256 321
#
# _framework density 18.021315999999999
#
# number of rings (size 3 to 8) (size 9 to 14) (size 15 to 20)
#    0.000    2.571    1.429    0.857    0.000    2.571 
#    0.000    0.714    0.000    6.857    0.000    0.000 
#    0.000    0.000    0.000    0.000    0.000    0.000 
#
# Total GULP energy -694136.823580 kJ/mol
# GULP energy per Si atom -12395.300421 kJ/mol
# Density = 1.798030 g / cm^3
# Si number density = 18.021316 Si / 1000 Ang^3
#
#
#
# Elastic Constant Matrix: (Units=GPa)
#
#
# Indices 1 2 3 4 5 6 
#
# 1 70.8472 30.9738 52.1592 0.0000 0.0000 0.0000
# 2 30.9738 103.6723 46.5842 0.0000 0.0000 0.0000
# 3 52.1592 46.5842 127.6477 0.0000 0.0000 0.0000
# 4 0.0000 0.0000 0.0000 16.3347 0.0000 0.0000
# 5 0.0000 0.0000 0.0000 0.0000 15.1639 0.0000
# 6 0.0000 0.0000 0.0000 0.0000 0.0000 19.5244
#
#
#
# Elastic Compliance Matrix: (Units=1/GPa)
#
#
# Indices 1 2 3 4 5 6 
#
# 1 0.020881 -0.002876 -0.007483 0.000000 0.000000 0.000000
# 2 -0.002876 0.011934 -0.003180 0.000000 0.000000 0.000000
# 3 -0.007483 -0.003180 0.012052 0.000000 0.000000 0.000000
# 4 0.000000 0.000000 0.000000 0.061220 0.000000 0.000000
# 5 0.000000 0.000000 0.000000 0.000000 0.065946 0.000000
# 6 0.000000 0.000000 0.000000 0.000000 0.000000 0.051218
#
#
# Mechanical properties :
#
#
# Convention : Reuss Voigt Hill
#
# Bulk Modulus (GPa) = 56.21315 62.40017 59.30666
# Shear Modulus (GPa) = 19.51149 21.70125 20.60637
#
# Velocity S-wave (km/s) = 3.29399 3.47392 3.38515
# Velocity P-wave (km/s) = 6.76221 7.12683 6.94692
#
# Compressibility (1/GPa) = 0.01778943
#
# Stress axis : x y z
#
# Youngs Moduli (GPa) = 47.88950 83.79422 82.97259
#
# Poissons Ratio (x) = 0.24102 0.62087
# Poissons Ratio (y) = 0.13775 0.26385
# Poissons Ratio (z) = 0.35835 0.26646
#
# Static dielectric constant tensor:
#      x y z
#    x 3.074870 0.000000 0.000000 
#    y 0.000000 3.578410 0.000000 
#    z 0.000000 0.000000 3.184870 
# 
# 
# High freq. dielectric constant tensor:
#      x y z
#    x 1.665810 0.000000 0.000000 
#    y 0.000000 1.708290 0.000000 
#    z 0.000000 0.000000 1.686850 
# 
# From -- ./inp_files/11461.got.cif
#   From: 2010.03.12/outbox.cif.g09.slc.cpg/sg59_6_cif.got.tgz:11461.got - 2010.04.16 16:29:54.
