data_PCOD8239087
_publ_section_title
;
Structure prediction by ZEFSAII (Michael W. Deem and Ramdas Pophale) SiO2 
 PCOD8239087
Probable space group: P M M N
;
_chemical_formula_sum "Si O2"
_cell_formula_units_Z 64
_cell_length_a 17.427272
_cell_length_b 24.735044
_cell_length_c 9.629252
_cell_angle_alpha 90.000000
_cell_angle_beta 90.000000
_cell_angle_gamma 90.000000
_cell_volume 4150.827155
_symmetry_space_group_name_H-M "P M M N"
_symmetry_group_IT_number 59
_space_group.IT_coordinate_system_code '2'
_symmetry_cell_setting 'orthorhombic'
loop_
_space_group_symop_operation_xyz
x,y,z
1/2-x,1/2-y,z
1/2+x,-y,-z
-x,1/2+y,-z
-x,-y,-z
1/2+x,1/2+y,-z
1/2-x,y,z
x,1/2-y,z
loop_
_atom_site_type_symbol
_atom_site_label
_atom_site_fract_x
_atom_site_fract_y
_atom_site_fract_z
Si Si1 0.485882 0.057068 0.820085
Si Si2 0.664488 0.993164 0.552341
Si Si3 0.836608 0.311476 0.455987
Si Si4 0.426697 0.906266 0.417882
Si Si5 0.162561 0.811172 0.869725
Si Si6 0.975825 0.944645 0.671534
Si Si7 0.432334 0.589356 0.902676
Si Si8 0.662350 0.506973 0.221116
O O1 0.519216 0.103249 0.717330
O O2 0.503894 0.000575 0.746082
O O3 0.392585 0.056185 0.835000
O O4 0.527430 0.061548 0.966735
O O5 0.750000 0.979285 0.599532
O O6 0.642882 0.052283 0.613946
O O7 0.657024 0.994803 0.386842
O O8 0.612740 0.945966 0.623406
O O9 0.750000 0.324152 0.504807
O O10 0.858253 0.250000 0.490427
O O11 0.896045 0.348056 0.539000
O O12 0.843391 0.322862 0.293362
O O13 0.474881 0.936836 0.534546
O O14 0.250000 0.819416 0.920213
O O15 0.135967 0.750000 0.904287
O O16 0.106559 0.853703 0.945998
O O17 0.000699 0.899722 0.786197
O O18 0.365942 0.550392 0.841379
O O19 0.750000 0.517394 0.172581
#
# Coordination Sequence:
#
# PCOD8239087 Si02
#       8
#     8   8   8   8   8   8   8   8
#     4  10  20  31  41  66  93 121 154 189 221 268
#     4  10  17  26  44  68  89 116 154 188 222 266
#     4   9  17  29  47  72  94 116 156 200 227 256
#     4  11  16  30  47  63  90 122 154 183 229 270
#     4   9  17  30  48  70  92 117 157 196 221 260
#     4  10  17  30  45  63  89 118 155 187 223 268
#     4  11  19  30  46  66  92 127 155 181 226 269
#     4  10  17  28  45  65  89 119 155 183 218 272
#
# _framework density 15.418614
#
# number of rings (size 3 to 8) (size 9 to 14) (size 15 to 20)
#    0.000    2.000    5.000    3.750    0.000    2.000 
#    0.000   10.000    0.000    1.500    0.000    0.000 
#    0.000    6.000    0.000    0.000    0.000    0.000 
#
# Total GULP energy -792981.917390 kJ/mol
# GULP energy per Si atom -12390.342459 kJ/mol
# Density = 1.538352 g / cm^3
# Si number density = 15.418614 Si / 1000 Ang^3
#
#
#
# Elastic Constant Matrix: (Units=GPa)
#
#
# Indices 1 2 3 4 5 6 
#
# 1 125.6128 46.8461 39.3349 0.0000 0.0000 0.0000
# 2 46.8461 59.9743 13.2911 0.0000 0.0000 0.0000
# 3 39.3349 13.2911 58.6610 0.0000 0.0000 0.0000
# 4 0.0000 0.0000 0.0000 11.9251 0.0000 0.0000
# 5 0.0000 0.0000 0.0000 0.0000 21.6768 0.0000
# 6 0.0000 0.0000 0.0000 0.0000 0.0000 20.8742
#
#
#
# Elastic Compliance Matrix: (Units=1/GPa)
#
#
# Indices 1 2 3 4 5 6 
#
# 1 0.013518 -0.009002 -0.007025 0.000000 0.000000 0.000000
# 2 -0.009002 0.023550 0.000701 0.000000 0.000000 0.000000
# 3 -0.007025 0.000701 0.021599 0.000000 0.000000 0.000000
# 4 0.000000 0.000000 0.000000 0.083857 0.000000 0.000000
# 5 0.000000 0.000000 0.000000 0.000000 0.046132 0.000000
# 6 0.000000 0.000000 0.000000 0.000000 0.000000 0.047906
#
#
# Mechanical properties :
#
#
# Convention : Reuss Voigt Hill
#
# Bulk Modulus (GPa) = 35.69630 49.24359 42.46995
# Shear Modulus (GPa) = 18.07971 20.54695 19.31333
#
# Velocity S-wave (km/s) = 3.42802 3.65445 3.54305
# Velocity P-wave (km/s) = 6.23459 7.05789 6.65898
#
# Compressibility (1/GPa) = 0.02801411
#
# Stress axis : x y z
#
# Youngs Moduli (GPa) = 73.97524 42.46247 46.29877
#
# Poissons Ratio (x) = 0.38226 0.32524
# Poissons Ratio (y) = 0.66594 -0.03243
# Poissons Ratio (z) = 0.51966 -0.02974
#
# Static dielectric constant tensor:
#      x y z
#    x 3.336990 0.000000 0.000000 
#    y 0.000000 2.778610 0.000000 
#    z 0.000000 0.000000 2.943910 
# 
# 
# High freq. dielectric constant tensor:
#      x y z
#    x 1.589390 0.000000 0.000000 
#    y 0.000000 1.551510 0.000000 
#    z 0.000000 0.000000 1.583900 
# 
# From -- ./inp_files/10782.got.cif
#   From: 2010.03.12/outbox.cif.g09.slc.cpg/sg59_6_cif.got.tgz:10782.got - 2010.04.16 16:29:54.
