data_PCOD8239947
_publ_section_title
;
Structure prediction by ZEFSAII (Michael W. Deem and Ramdas Pophale) SiO2 
 PCOD8239947
Probable space group: P M M N
;
_chemical_formula_sum "Si O2"
_cell_formula_units_Z 56
_cell_length_a 15.344545
_cell_length_b 8.683857
_cell_length_c 21.506636
_cell_angle_alpha 90.000000
_cell_angle_beta 90.000000
_cell_angle_gamma 90.000000
_cell_volume 2865.755688
_symmetry_space_group_name_H-M "P M M N"
_symmetry_group_IT_number 59
_space_group.IT_coordinate_system_code '2'
_symmetry_cell_setting 'orthorhombic'
loop_
_space_group_symop_operation_xyz
x,y,z
1/2-x,1/2-y,z
1/2+x,-y,-z
-x,1/2+y,-z
-x,-y,-z
1/2+x,1/2+y,-z
1/2-x,y,z
x,1/2-y,z
loop_
_atom_site_type_symbol
_atom_site_label
_atom_site_fract_x
_atom_site_fract_y
_atom_site_fract_z
Si Si1 0.345045 0.933098 0.130544
Si Si2 0.001187 0.431538 0.786992
Si Si3 0.348498 0.571996 0.864887
Si Si4 0.849515 0.428900 0.437403
Si Si5 0.996505 0.931848 0.353809
Si Si6 0.905289 0.068050 0.001283
Si Si7 0.350151 0.429755 0.430587
O O1 0.250000 0.986849 0.154876
O O2 0.351995 0.750000 0.131343
O O3 0.419768 0.004386 0.174891
O O4 0.355262 0.993178 0.059758
O O5 0.992667 0.250000 0.786856
O O6 0.091310 0.475728 0.819118
O O7 0.998836 0.492958 0.716737
O O8 0.250000 0.545290 0.842676
O O9 0.375554 0.750000 0.860350
O O10 0.357018 0.513365 0.936021
O O11 0.750000 0.458839 0.415674
O O12 0.865065 0.250000 0.452236
O O13 0.914271 0.483039 0.383858
O O14 0.871452 0.525487 0.498797
O O15 0.981513 0.750000 0.358040
O O16 0.087761 0.974067 0.385642
O O17 0.911177 0.250000 0.999247
O O18 0.000000 0.000000 0.000000
O O19 0.250000 0.470930 0.414277
O O20 0.369261 0.250000 0.422079
#
# Coordination Sequence:
#
# PCOD8239947 Si02
#       7
#     8   8   8   8   8   8   8
#     4   9  17  32  55  79 104 137 179 224 270 324
#     4  10  22  38  55  79 108 145 189 229 271 320
#     4  10  21  36  55  80 109 143 182 226 280 335
#     4  10  21  38  61  87 114 146 186 232 280 330
#     4  11  23  37  56  82 115 152 190 232 277 329
#     4  10  18  31  55  81 107 138 175 224 278 330
#     4  10  21  38  61  88 117 148 183 226 277 331
#
# _framework density 19.541094000000001
#
# number of rings (size 3 to 8) (size 9 to 14) (size 15 to 20)
#    0.000    2.000    1.429    2.143    0.000    6.000 
#    0.000    4.286    0.000    2.571    0.000    0.000 
#    0.000    0.000    0.000    0.000    0.000    0.000 
#
# Total GULP energy -694429.990609 kJ/mol
# GULP energy per Si atom -12400.535547 kJ/mol
# Density = 1.949662 g / cm^3
# Si number density = 19.541094 Si / 1000 Ang^3
#
#
#
# Elastic Constant Matrix: (Units=GPa)
#
#
# Indices 1 2 3 4 5 6 
#
# 1 125.3347 11.3727 65.6614 0.0000 0.0000 0.0000
# 2 11.3727 19.8594 13.3978 0.0000 0.0000 0.0000
# 3 65.6614 13.3978 134.2851 0.0000 0.0000 0.0000
# 4 0.0000 0.0000 0.0000 18.2131 0.0000 0.0000
# 5 0.0000 0.0000 0.0000 0.0000 12.0532 0.0000
# 6 0.0000 0.0000 0.0000 0.0000 0.0000 30.5354
#
#
#
# Elastic Compliance Matrix: (Units=1/GPa)
#
#
# Indices 1 2 3 4 5 6 
#
# 1 0.010873 -0.002830 -0.005034 0.000000 0.000000 0.000000
# 2 -0.002830 0.054724 -0.004076 0.000000 0.000000 0.000000
# 3 -0.005034 -0.004076 0.010315 0.000000 0.000000 0.000000
# 4 0.000000 0.000000 0.000000 0.054905 0.000000 0.000000
# 5 0.000000 0.000000 0.000000 0.000000 0.082966 0.000000
# 6 0.000000 0.000000 0.000000 0.000000 0.000000 0.032749
#
#
# Mechanical properties :
#
#
# Convention : Reuss Voigt Hill
#
# Bulk Modulus (GPa) = 19.21910 51.14923 35.18417
# Shear Modulus (GPa) = 17.37578 24.76349 21.06963
#
# Velocity S-wave (km/s) = 2.98517 3.56371 3.28719
# Velocity P-wave (km/s) = 4.66242 6.57004 5.69665
#
# Compressibility (1/GPa) = 0.05203156
#
# Stress axis : x y z
#
# Youngs Moduli (GPa) = 91.97313 18.27336 96.94598
#
# Poissons Ratio (x) = 0.05172 0.48803
# Poissons Ratio (y) = 0.26031 0.39515
# Poissons Ratio (z) = 0.46300 0.07448
#
# Static dielectric constant tensor:
#      x y z
#    x 3.667820 0.000000 0.000000 
#    y 0.000000 3.347180 0.000000 
#    z 0.000000 0.000000 3.774110 
# 
# 
# High freq. dielectric constant tensor:
#      x y z
#    x 1.775460 0.000000 0.000000 
#    y 0.000000 1.741490 0.000000 
#    z 0.000000 0.000000 1.760720 
# 
# From -- ./inp_files/29012.got.cif
#   From: 2010.03.12/outbox.cif.g09.slc.cpg/sg59_15_cif.got.tgz:29012.got - 2010.04.16 16:29:54.
