data_PCOD8239676
_publ_section_title
;
Structure prediction by ZEFSAII (Michael W. Deem and Ramdas Pophale) SiO2 
 PCOD8239676
Probable space group: P M M N
;
_chemical_formula_sum "Si O2"
_cell_formula_units_Z 64
_cell_length_a 30.023434
_cell_length_b 8.927772
_cell_length_c 14.419731
_cell_angle_alpha 90.000000
_cell_angle_beta 90.000000
_cell_angle_gamma 90.000000
_cell_volume 3865.098921
_symmetry_space_group_name_H-M "P M M N"
_symmetry_group_IT_number 59
_space_group.IT_coordinate_system_code '2'
_symmetry_cell_setting 'orthorhombic'
loop_
_space_group_symop_operation_xyz
x,y,z
1/2-x,1/2-y,z
1/2+x,-y,-z
-x,1/2+y,-z
-x,-y,-z
1/2+x,1/2+y,-z
1/2-x,y,z
x,1/2-y,z
loop_
_atom_site_type_symbol
_atom_site_label
_atom_site_fract_x
_atom_site_fract_y
_atom_site_fract_z
Si Si1 0.472294 0.917558 0.265235
Si Si2 0.042286 0.426032 0.449997
Si Si3 0.387352 0.921762 0.572381
Si Si4 0.299471 0.577011 0.659164
Si Si5 0.040162 0.927261 0.057022
Si Si6 0.700616 0.926834 0.148707
Si Si7 0.576243 0.915962 0.259809
Si Si8 0.888463 0.576146 0.059756
O O1 0.452521 0.750000 0.276922
O O2 0.461063 0.981776 0.163577
O O3 0.524520 0.913639 0.280821
O O4 0.451732 0.024533 0.343604
O O5 0.035478 0.250000 0.455894
O O6 0.088196 0.470358 0.500417
O O7 0.000000 0.500000 0.500000
O O8 0.398488 0.750000 0.547681
O O9 0.333963 0.952922 0.574462
O O10 0.402855 0.955712 0.676882
O O11 0.250000 0.530053 0.625324
O O12 0.301031 0.750000 0.688156
O O13 0.313470 0.485988 0.750558
O O14 0.034057 0.750000 0.050949
O O15 0.088426 0.976637 0.019027
O O16 0.000000 0.000000 0.000000
O O17 0.750000 0.986160 0.119544
O O18 0.700645 0.750000 0.156939
O O19 0.663209 0.975051 0.073462
O O20 0.596259 0.750000 0.281685
O O21 0.584391 0.955984 0.153349
O O22 0.891492 0.750000 0.031265
#
# Coordination Sequence:
#
# PCOD8239676 Si02
#       8
#     8   8   8   8   8   8   8   8
#     4  10  21  37  51  68  98 132 166 208 248 285
#     4  12  24  36  52  73  98 130 167 206 246 293
#     4  11  21  32  49  73 100 134 170 202 244 293
#     4   9  18  31  47  71 102 132 165 205 246 292
#     4  11  22  35  52  73  99 131 167 205 247 293
#     4   9  17  29  47  71 100 135 170 204 246 293
#     4  10  18  30  48  69 100 135 166 204 243 282
#     4  10  19  32  48  71 102 135 170 206 245 289
#
# _framework density 16.558437999999999
#
# number of rings (size 3 to 8) (size 9 to 14) (size 15 to 20)
#    0.000    1.750    3.750    1.875    0.000    2.500 
#    0.000    0.000    0.000    0.000    0.000    0.875 
#    0.000    1.000    0.000    0.000    0.000    0.000 
#
# Total GULP energy -793423.489428 kJ/mol
# GULP energy per Si atom -12397.242022 kJ/mol
# Density = 1.652075 g / cm^3
# Si number density = 16.558438 Si / 1000 Ang^3
#
#
#
# Elastic Constant Matrix: (Units=GPa)
#
#
# Indices 1 2 3 4 5 6 
#
# 1 96.9672 32.5339 45.0615 0.0000 0.0000 0.0000
# 2 32.5339 67.5582 41.8067 0.0000 0.0000 0.0000
# 3 45.0615 41.8067 93.7156 0.0000 0.0000 0.0000
# 4 0.0000 0.0000 0.0000 27.2538 0.0000 0.0000
# 5 0.0000 0.0000 0.0000 0.0000 23.6171 0.0000
# 6 0.0000 0.0000 0.0000 0.0000 0.0000 21.1827
#
#
#
# Elastic Compliance Matrix: (Units=1/GPa)
#
#
# Indices 1 2 3 4 5 6 
#
# 1 0.013862 -0.003524 -0.005093 0.000000 0.000000 0.000000
# 2 -0.003524 0.021342 -0.007827 0.000000 0.000000 0.000000
# 3 -0.005093 -0.007827 0.016611 0.000000 0.000000 0.000000
# 4 0.000000 0.000000 0.000000 0.036692 0.000000 0.000000
# 5 0.000000 0.000000 0.000000 0.000000 0.042342 0.000000
# 6 0.000000 0.000000 0.000000 0.000000 0.000000 0.047208
#
#
# Mechanical properties :
#
#
# Convention : Reuss Voigt Hill
#
# Bulk Modulus (GPa) = 52.83125 55.22724 54.02925
# Shear Modulus (GPa) = 23.01450 23.66663 23.34057
#
# Velocity S-wave (km/s) = 3.73218 3.78468 3.75852
# Velocity P-wave (km/s) = 7.10967 7.24733 7.17883
#
# Compressibility (1/GPa) = 0.01892819
#
# Stress axis : x y z
#
# Youngs Moduli (GPa) = 72.14016 46.85564 60.20073
#
# Poissons Ratio (x) = 0.16510 0.30663
# Poissons Ratio (y) = 0.25419 0.47116
# Poissons Ratio (z) = 0.36744 0.36672
#
# Static dielectric constant tensor:
#      x y z
#    x 3.420770 0.000000 0.000000 
#    y 0.000000 3.387990 0.000000 
#    z 0.000000 0.000000 2.995840 
# 
# 
# High freq. dielectric constant tensor:
#      x y z
#    x 1.635100 0.000000 0.000000 
#    y 0.000000 1.640280 0.000000 
#    z 0.000000 0.000000 1.608290 
# 
# From -- ./inp_files/25102.got.cif
#   From: 2010.03.12/outbox.cif.g09.slc.cpg/sg59_13_cif.got.tgz:25102.got - 2010.04.16 16:29:54.
