data_PCOD8239473
_publ_section_title
;
Structure prediction by ZEFSAII (Michael W. Deem and Ramdas Pophale) SiO2 
 PCOD8239473
Probable space group: P M M N
;
_chemical_formula_sum "Si O2"
_cell_formula_units_Z 48
_cell_length_a 30.996517
_cell_length_b 9.080499
_cell_length_c 9.068889
_cell_angle_alpha 90.000000
_cell_angle_beta 90.000000
_cell_angle_gamma 90.000000
_cell_volume 2552.564337
_symmetry_space_group_name_H-M "P M M N"
_symmetry_group_IT_number 59
_space_group.IT_coordinate_system_code '2'
_symmetry_cell_setting 'orthorhombic'
loop_
_space_group_symop_operation_xyz
x,y,z
1/2-x,1/2-y,z
1/2+x,-y,-z
-x,1/2+y,-z
-x,-y,-z
1/2+x,1/2+y,-z
1/2-x,y,z
x,1/2-y,z
loop_
_atom_site_type_symbol
_atom_site_label
_atom_site_fract_x
_atom_site_fract_y
_atom_site_fract_z
Si Si1 0.835398 0.078363 0.831672
Si Si2 0.750000 0.083834 0.140796
Si Si3 0.419236 0.923945 0.345314
Si Si4 0.583454 0.923045 0.343098
Si Si5 0.750000 0.576968 0.842702
Si Si6 0.500860 0.576935 0.155964
Si Si7 0.656510 0.416628 0.175605
O O1 0.826615 0.250000 0.808575
O O2 0.876075 0.023864 0.737486
O O3 0.793449 0.991401 0.771986
O O4 0.844962 0.043512 0.002774
O O5 0.750000 0.250000 0.069008
O O6 0.793959 0.066170 0.235082
O O7 0.750000 0.961221 0.015089
O O8 0.419794 0.750000 0.369158
O O9 0.459877 0.976558 0.249574
O O10 0.422279 0.000160 0.501627
O O11 0.584334 0.750000 0.368506
O O12 0.543933 0.971997 0.240367
O O13 0.627712 0.971125 0.266381
O O14 0.750000 0.750000 0.816641
O O15 0.499257 0.750000 0.129183
O O16 0.500000 0.500000 0.000000
O O17 0.639864 0.250000 0.201743
#
# Coordination Sequence:
#
# PCOD8239473 Si02
#       7
#     8   4   8   8   4   8   8
#     4   9  18  34  56  79 103 137 184 228 260 303
#     4   8  16  32  53  76 103 138 182 226 262 304
#     4  10  21  38  58  78 104 143 185 218 255 311
#     4  11  23  36  52  80 115 143 170 214 271 321
#     4  10  18  28  49  80 111 140 170 214 274 324
#     4  10  22  39  59  83 108 137 176 219 263 313
#     4   9  17  33  57  80 104 139 182 223 262 310
#
# _framework density 18.80462
#
# number of rings (size 3 to 8) (size 9 to 14) (size 15 to 20)
#    0.000    2.333    0.000    3.750    0.000    6.667 
#    0.000    0.833    0.000    2.000    0.000    0.000 
#    0.000    0.000    0.000    0.000    0.000    0.000 
#
# Total GULP energy -595182.855700 kJ/mol
# GULP energy per Si atom -12399.642827 kJ/mol
# Density = 1.876182 g / cm^3
# Si number density = 18.804620 Si / 1000 Ang^3
#
#
#
# Elastic Constant Matrix: (Units=GPa)
#
#
# Indices 1 2 3 4 5 6 
#
# 1 172.5496 50.2427 74.8693 0.0000 0.0000 0.0000
# 2 50.2427 50.7870 40.2089 0.0000 0.0000 0.0000
# 3 74.8693 40.2089 114.4365 0.0000 0.0000 0.0000
# 4 0.0000 0.0000 0.0000 31.2439 0.0000 0.0000
# 5 0.0000 0.0000 0.0000 0.0000 5.3857 0.0000
# 6 0.0000 0.0000 0.0000 0.0000 0.0000 26.1219
#
#
#
# Elastic Compliance Matrix: (Units=1/GPa)
#
#
# Indices 1 2 3 4 5 6 
#
# 1 0.009265 -0.006049 -0.003936 0.000000 0.000000 0.000000
# 2 -0.006049 0.031228 -0.007015 0.000000 0.000000 0.000000
# 3 -0.003936 -0.007015 0.013778 0.000000 0.000000 0.000000
# 4 0.000000 0.000000 0.000000 0.032006 0.000000 0.000000
# 5 0.000000 0.000000 0.000000 0.000000 0.185677 0.000000
# 6 0.000000 0.000000 0.000000 0.000000 0.000000 0.038282
#
#
# Mechanical properties :
#
#
# Convention : Reuss Voigt Hill
#
# Bulk Modulus (GPa) = 49.33080 74.26832 61.79956
# Shear Modulus (GPa) = 14.24528 24.04709 19.14618
#
# Velocity S-wave (km/s) = 2.75533 3.57989 3.19433
# Velocity P-wave (km/s) = 6.03430 7.52781 6.82205
#
# Compressibility (1/GPa) = 0.02027131
#
# Stress axis : x y z
#
# Youngs Moduli (GPa) = 107.93782 32.02227 72.57840
#
# Poissons Ratio (x) = 0.19371 0.28565
# Poissons Ratio (y) = 0.65294 0.50912
# Poissons Ratio (z) = 0.42482 0.22463
#
# Static dielectric constant tensor:
#      x y z
#    x 3.936440 0.000000 0.000000 
#    y 0.000000 3.296500 0.000000 
#    z 0.000000 0.000000 3.236680 
# 
# 
# High freq. dielectric constant tensor:
#      x y z
#    x 1.754790 0.000000 0.000000 
#    y 0.000000 1.720840 0.000000 
#    z 0.000000 0.000000 1.707560 
# 
# From -- ./inp_files/13031.got.cif
#   From: 2010.03.12/outbox.cif.g09.slc.cpg/sg59_7_cif.got.tgz:13031.got - 2010.04.16 16:29:54.
