data_PCOD8239543
_publ_section_title
;
Structure prediction by ZEFSAII (Michael W. Deem and Ramdas Pophale) SiO2 
 PCOD8239543
Probable space group: P M M N
;
_chemical_formula_sum "Si O2"
_cell_formula_units_Z 56
_cell_length_a 19.767691
_cell_length_b 9.429832
_cell_length_c 17.613219
_cell_angle_alpha 90.000000
_cell_angle_beta 90.000000
_cell_angle_gamma 90.000000
_cell_volume 3283.209792
_symmetry_space_group_name_H-M "P M M N"
_symmetry_group_IT_number 59
_space_group.IT_coordinate_system_code '2'
_symmetry_cell_setting 'orthorhombic'
loop_
_space_group_symop_operation_xyz
x,y,z
1/2-x,1/2-y,z
1/2+x,-y,-z
-x,1/2+y,-z
-x,-y,-z
1/2+x,1/2+y,-z
1/2-x,y,z
x,1/2-y,z
loop_
_atom_site_type_symbol
_atom_site_label
_atom_site_fract_x
_atom_site_fract_y
_atom_site_fract_z
Si Si1 0.537956 0.912173 0.194852
Si Si2 0.677114 0.917175 0.917664
Si Si3 0.935793 0.915555 0.028798
Si Si4 0.909456 0.913020 0.780666
Si Si5 0.435681 0.083763 0.637737
Si Si6 0.826712 0.917438 0.481868
Si Si7 0.929039 0.916564 0.611027
O O1 0.515235 0.750000 0.200443
O O2 0.581345 0.939369 0.118439
O O3 0.576407 0.953951 0.273163
O O4 0.471085 0.001830 0.184734
O O5 0.750000 0.988823 0.930321
O O6 0.682112 0.750000 0.928038
O O7 0.654965 0.953854 0.831513
O O8 0.627050 0.977732 0.981500
O O9 0.948397 0.750000 0.011651
O O10 0.000000 0.000000 0.000000
O O11 0.929187 0.750000 0.790627
O O12 0.895757 0.948810 0.692861
O O13 0.450480 0.250000 0.624977
O O14 0.366476 0.038981 0.595101
O O15 0.499899 0.999623 0.603142
O O16 0.750000 0.982905 0.482770
O O17 0.819652 0.750000 0.488236
O O18 0.873179 0.973054 0.551439
O O19 0.944341 0.750000 0.598978
#
# Coordination Sequence:
#
# PCOD8239543 Si02
#       7
#     8   8   8   8   8   8   8
#     4   9  17  28  44  67  89 111 145 186 223 260
#     4   9  17  28  42  63  91 118 143 177 223 268
#     4  10  18  29  47  67  88 115 149 186 222 261
#     4   9  16  27  44  66  88 113 145 180 221 266
#     4   9  17  30  47  66  90 119 150 185 226 268
#     4   9  17  29  45  66  92 121 152 186 224 265
#     4   9  17  28  46  70  91 113 149 190 224 261
#
# _framework density 17.056479
#
# number of rings (size 3 to 8) (size 9 to 14) (size 15 to 20)
#    0.000    2.857    1.429    0.429    0.000    0.571 
#    0.000    3.571    0.000    7.714    0.000    4.000 
#    0.000    3.429    0.000    0.000    0.000    0.000 
#
# Total GULP energy -693918.179140 kJ/mol
# GULP energy per Si atom -12391.396056 kJ/mol
# Density = 1.701766 g / cm^3
# Si number density = 17.056479 Si / 1000 Ang^3
#
#
#
# Elastic Constant Matrix: (Units=GPa)
#
#
# Indices 1 2 3 4 5 6 
#
# 1 136.6272 25.7463 76.6864 0.0000 0.0000 0.0000
# 2 25.7463 24.5022 21.6118 0.0000 0.0000 0.0000
# 3 76.6864 21.6118 126.1237 0.0000 0.0000 0.0000
# 4 0.0000 0.0000 0.0000 16.6986 0.0000 0.0000
# 5 0.0000 0.0000 0.0000 0.0000 20.5247 0.0000
# 6 0.0000 0.0000 0.0000 0.0000 0.0000 17.4322
#
#
#
# Elastic Compliance Matrix: (Units=1/GPa)
#
#
# Indices 1 2 3 4 5 6 
#
# 1 0.012142 -0.007359 -0.006122 0.000000 0.000000 0.000000
# 2 -0.007359 0.052539 -0.004528 0.000000 0.000000 0.000000
# 3 -0.006122 -0.004528 0.012427 0.000000 0.000000 0.000000
# 4 0.000000 0.000000 0.000000 0.059885 0.000000 0.000000
# 5 0.000000 0.000000 0.000000 0.000000 0.048722 0.000000
# 6 0.000000 0.000000 0.000000 0.000000 0.000000 0.057365
#
#
# Mechanical properties :
#
#
# Convention : Reuss Voigt Hill
#
# Bulk Modulus (GPa) = 24.33673 59.48248 41.90960
# Shear Modulus (GPa) = 17.07681 21.81167 19.44424
#
# Velocity S-wave (km/s) = 3.16759 3.57990 3.38004
# Velocity P-wave (km/s) = 5.26094 7.21367 6.31326
#
# Compressibility (1/GPa) = 0.04109016
#
# Stress axis : x y z
#
# Youngs Moduli (GPa) = 82.35995 19.03334 80.47154
#
# Poissons Ratio (x) = 0.14006 0.49261
# Poissons Ratio (y) = 0.60608 0.36441
# Poissons Ratio (z) = 0.50417 0.08619
#
# Static dielectric constant tensor:
#      x y z
#    x 3.370410 0.000000 0.000000 
#    y 0.000000 2.952670 0.000000 
#    z 0.000000 0.000000 3.574390 
# 
# 
# High freq. dielectric constant tensor:
#      x y z
#    x 1.636440 0.000000 0.000000 
#    y 0.000000 1.624440 0.000000 
#    z 0.000000 0.000000 1.678950 
# 
# From -- ./inp_files/26110.got.cif
#   From: 2010.03.12/outbox.cif.g09.slc.cpg/sg59_14_cif.got.tgz:26110.got - 2010.04.16 16:29:54.
