data_PCOD8239263
_publ_section_title
;
Structure prediction by ZEFSAII (Michael W. Deem and Ramdas Pophale) SiO2 
 PCOD8239263
Probable space group: P M M N
;
_chemical_formula_sum "Si O2"
_cell_formula_units_Z 64
_cell_length_a 9.145735
_cell_length_b 18.450187
_cell_length_c 26.093382
_cell_angle_alpha 90.000000
_cell_angle_beta 90.000000
_cell_angle_gamma 90.000000
_cell_volume 4403.010873
_symmetry_space_group_name_H-M "P M M N"
_symmetry_group_IT_number 59
_space_group.IT_coordinate_system_code '2'
_symmetry_cell_setting 'orthorhombic'
loop_
_space_group_symop_operation_xyz
x,y,z
1/2-x,1/2-y,z
1/2+x,-y,-z
-x,1/2+y,-z
-x,-y,-z
1/2+x,1/2+y,-z
1/2-x,y,z
x,1/2-y,z
loop_
_atom_site_type_symbol
_atom_site_label
_atom_site_fract_x
_atom_site_fract_y
_atom_site_fract_z
Si Si1 0.423481 0.917767 0.104979
Si Si2 0.921153 0.669183 0.308456
Si Si3 0.420958 0.670410 0.006303
Si Si4 0.921595 0.166811 0.500319
Si Si5 0.581573 0.834085 0.191331
Si Si6 0.077589 0.967010 0.950951
Si Si7 0.080987 0.044224 0.456617
Si Si8 0.082854 0.909944 0.395194
O O1 0.250000 0.928392 0.104991
O O2 0.480236 0.866679 0.058483
O O3 0.474213 0.883155 0.158009
O O4 0.500559 0.997051 0.098686
O O5 0.750000 0.668253 0.318017
O O6 0.982067 0.750000 0.320289
O O7 0.956493 0.648045 0.250092
O O8 0.992350 0.610202 0.345250
O O9 0.250000 0.680049 0.014139
O O10 0.493976 0.750000 0.998556
O O11 0.450598 0.619952 0.956119
O O12 0.750000 0.155321 0.492420
O O13 0.968327 0.250000 0.496291
O O14 0.971508 0.136118 0.555593
O O15 0.005165 0.123406 0.454636
O O16 0.750000 0.852967 0.179184
O O17 0.551067 0.750000 0.179540
O O18 0.250000 0.984370 0.951172
O O19 0.000000 0.000000 0.000000
O O20 0.250000 0.053305 0.471187
O O21 0.063993 0.996693 0.404714
O O22 0.000000 0.000000 0.500000
O O23 0.250000 0.889948 0.384336
#
# Coordination Sequence:
#
# PCOD8239263 Si02
#       8
#     8   8   8   8   8   8   8   8
#     4  10  18  27  41  59  80 108 139 167 197 237
#     4   9  18  30  42  58  80 105 134 168 203 238
#     4   8  14  24  38  57  79 102 131 165 196 228
#     4   9  17  28  41  59  83 108 135 168 203 238
#     4   9  18  31  43  57  80 106 133 169 207 237
#     4   9  16  26  40  57  79 106 134 167 203 238
#     4   9  17  28  40  56  79 106 136 168 201 238
#     4   9  17  28  41  57  79 107 136 166 199 234
#
# _framework density 14.535507000000001
#
# number of rings (size 3 to 8) (size 9 to 14) (size 15 to 20)
#    0.000    3.000    0.000    4.125    0.000    4.750 
#    0.000    1.250    0.000    7.500    0.000    0.000 
#    0.000    1.000    0.000    9.000    0.000    5.250 
#
# Total GULP energy -793052.740949 kJ/mol
# GULP energy per Si atom -12391.449077 kJ/mol
# Density = 1.450242 g / cm^3
# Si number density = 14.535507 Si / 1000 Ang^3
#
#
#
# Elastic Constant Matrix: (Units=GPa)
#
#
# Indices 1 2 3 4 5 6 
#
# 1 62.5401 42.5810 36.9634 0.0000 0.0000 0.0000
# 2 42.5810 105.1194 48.0166 0.0000 0.0000 0.0000
# 3 36.9634 48.0166 66.7273 0.0000 0.0000 0.0000
# 4 0.0000 0.0000 0.0000 22.3996 0.0000 0.0000
# 5 0.0000 0.0000 0.0000 0.0000 23.9869 0.0000
# 6 0.0000 0.0000 0.0000 0.0000 0.0000 22.5514
#
#
#
# Elastic Compliance Matrix: (Units=1/GPa)
#
#
# Indices 1 2 3 4 5 6 
#
# 1 0.026012 -0.005891 -0.010170 0.000000 0.000000 0.000000
# 2 -0.005891 0.015505 -0.007894 0.000000 0.000000 0.000000
# 3 -0.010170 -0.007894 0.026300 0.000000 0.000000 0.000000
# 4 0.000000 0.000000 0.000000 0.044644 0.000000 0.000000
# 5 0.000000 0.000000 0.000000 0.000000 0.041689 0.000000
# 6 0.000000 0.000000 0.000000 0.000000 0.000000 0.044343
#
#
# Mechanical properties :
#
#
# Convention : Reuss Voigt Hill
#
# Bulk Modulus (GPa) = 50.23326 54.38987 52.31156
# Shear Modulus (GPa) = 19.75981 20.90931 20.33456
#
# Velocity S-wave (km/s) = 3.69103 3.79687 3.74432
# Velocity P-wave (km/s) = 7.26629 7.53137 7.40001
#
# Compressibility (1/GPa) = 0.01990713
#
# Stress axis : x y z
#
# Youngs Moduli (GPa) = 38.44453 64.49442 38.02225
#
# Poissons Ratio (x) = 0.37995 0.38668
# Poissons Ratio (y) = 0.22648 0.30015
# Poissons Ratio (z) = 0.39097 0.50912
#
# Static dielectric constant tensor:
#      x y z
#    x 2.832700 0.000000 0.000000 
#    y 0.000000 3.417790 0.000000 
#    z 0.000000 0.000000 2.701450 
# 
# 
# High freq. dielectric constant tensor:
#      x y z
#    x 1.556930 0.000000 0.000000 
#    y 0.000000 1.550090 0.000000 
#    z 0.000000 0.000000 1.517680 
# 
# From -- ./inp_files/31789.got.cif
#   From: 2010.03.12/outbox.cif.g09.slc.cpg/sg59_16_cif.got.tgz:31789.got - 2010.04.16 16:29:54.
