data_PCOD8239442
_publ_section_title
;
Structure prediction by ZEFSAII (Michael W. Deem and Ramdas Pophale) SiO2 
 PCOD8239442
Probable space group: P M M N
;
_chemical_formula_sum "Si O2"
_cell_formula_units_Z 64
_cell_length_a 9.182163
_cell_length_b 17.935342
_cell_length_c 22.993149
_cell_angle_alpha 90.000000
_cell_angle_beta 90.000000
_cell_angle_gamma 90.000000
_cell_volume 3786.632117
_symmetry_space_group_name_H-M "P M M N"
_symmetry_group_IT_number 59
_space_group.IT_coordinate_system_code '2'
_symmetry_cell_setting 'orthorhombic'
loop_
_space_group_symop_operation_xyz
x,y,z
1/2-x,1/2-y,z
1/2+x,-y,-z
-x,1/2+y,-z
-x,-y,-z
1/2+x,1/2+y,-z
1/2-x,y,z
x,1/2-y,z
loop_
_atom_site_type_symbol
_atom_site_label
_atom_site_fract_x
_atom_site_fract_y
_atom_site_fract_z
Si Si1 0.084182 0.562192 0.532726
Si Si2 0.414767 0.832508 0.173810
Si Si3 0.578469 0.832152 0.953425
Si Si4 0.579673 0.533385 0.364225
Si Si5 0.421738 0.664876 0.434529
Si Si6 0.577314 0.902707 0.072835
Si Si7 0.917145 0.472842 0.752930
Si Si8 0.079986 0.461233 0.126558
O O1 0.250000 0.545477 0.519325
O O2 0.051833 0.545188 0.600708
O O3 0.045099 0.642162 0.502859
O O4 0.000000 0.500000 0.500000
O O5 0.250000 0.845716 0.150892
O O6 0.435710 0.750000 0.199447
O O7 0.524993 0.843324 0.120669
O O8 0.447169 0.888701 0.226181
O O9 0.750000 0.823782 0.959997
O O10 0.506903 0.750000 0.948243
O O11 0.539314 0.878316 0.895044
O O12 0.519769 0.874775 0.010343
O O13 0.750000 0.552721 0.361102
O O14 0.500740 0.606382 0.391436
O O15 0.520909 0.512635 0.301050
O O16 0.250000 0.660867 0.421186
O O17 0.478059 0.750000 0.425386
O O18 0.750000 0.909788 0.075236
O O19 0.507850 0.982513 0.085820
O O20 0.750000 0.484416 0.733982
O O21 0.960032 0.529318 0.805412
O O22 0.250000 0.479096 0.117482
#
# Coordination Sequence:
#
# PCOD8239442 Si02
#       8
#     8   8   8   8   8   8   8   8
#     4   8  15  28  45  66  90 116 146 176 209 251
#     4   9  18  32  47  63  88 122 156 189 225 269
#     4   9  17  29  47  71  94 115 144 187 238 285
#     4  10  19  30  46  68  93 120 150 186 224 260
#     4   9  17  30  49  71  95 122 149 178 214 260
#     4  10  18  28  46  71  96 119 145 182 230 283
#     4   9  18  31  46  64  86 118 160 194 219 256
#     4   9  18  33  50  66  88 121 158 192 226 269
#
# _framework density 16.901564
#
# number of rings (size 3 to 8) (size 9 to 14) (size 15 to 20)
#    0.000    2.875    0.000    2.250    0.000    4.000 
#    0.000    1.875    0.000    2.625    0.000    0.000 
#    0.000    0.000    0.000    0.000    0.000    0.375 
#
# Total GULP energy -792862.309500 kJ/mol
# GULP energy per Si atom -12388.473586 kJ/mol
# Density = 1.686309 g / cm^3
# Si number density = 16.901564 Si / 1000 Ang^3
#
#
#
# Elastic Constant Matrix: (Units=GPa)
#
#
# Indices 1 2 3 4 5 6 
#
# 1 47.2823 28.8650 40.9367 0.0000 0.0000 0.0000
# 2 28.8650 78.4816 58.2900 0.0000 0.0000 0.0000
# 3 40.9367 58.2900 120.3237 0.0000 0.0000 0.0000
# 4 0.0000 0.0000 0.0000 16.3650 0.0000 0.0000
# 5 0.0000 0.0000 0.0000 0.0000 24.0433 0.0000
# 6 0.0000 0.0000 0.0000 0.0000 0.0000 17.5298
#
#
#
# Elastic Compliance Matrix: (Units=1/GPa)
#
#
# Indices 1 2 3 4 5 6 
#
# 1 0.031515 -0.005666 -0.007977 0.000000 0.000000 0.000000
# 2 -0.005666 0.020922 -0.008208 0.000000 0.000000 0.000000
# 3 -0.007977 -0.008208 0.015001 0.000000 0.000000 0.000000
# 4 0.000000 0.000000 0.000000 0.061106 0.000000 0.000000
# 5 0.000000 0.000000 0.000000 0.000000 0.041592 0.000000
# 6 0.000000 0.000000 0.000000 0.000000 0.000000 0.057046
#
#
# Mechanical properties :
#
#
# Convention : Reuss Voigt Hill
#
# Bulk Modulus (GPa) = 42.13011 55.80788 48.96900
# Shear Modulus (GPa) = 17.93429 19.45404 18.69416
#
# Velocity S-wave (km/s) = 3.26099 3.39635 3.32936
# Velocity P-wave (km/s) = 6.25776 6.96213 6.61932
#
# Compressibility (1/GPa) = 0.02373599
#
# Stress axis : x y z
#
# Youngs Moduli (GPa) = 31.73056 47.79692 66.66182
#
# Poissons Ratio (x) = 0.27083 0.53178
# Poissons Ratio (y) = 0.17979 0.54714
# Poissons Ratio (z) = 0.25312 0.39230
#
# Static dielectric constant tensor:
#      x y z
#    x 3.061570 0.000000 0.000000 
#    y 0.000000 2.600770 0.000000 
#    z 0.000000 0.000000 4.439830 
# 
# 
# High freq. dielectric constant tensor:
#      x y z
#    x 1.642090 0.000000 0.000000 
#    y 0.000000 1.638620 0.000000 
#    z 0.000000 0.000000 1.643910 
# 
# From -- ./inp_files/31740.got.cif
#   From: 2010.03.12/outbox.cif.g09.slc.cpg/sg59_16_cif.got.tgz:31740.got - 2010.04.16 16:29:54.
