data_PCOD8239733
_publ_section_title
;
Structure prediction by ZEFSAII (Michael W. Deem and Ramdas Pophale) SiO2 
 PCOD8239733
Probable space group: P M M N
;
_chemical_formula_sum "Si O2"
_cell_formula_units_Z 64
_cell_length_a 22.997502
_cell_length_b 8.923444
_cell_length_c 19.086180
_cell_angle_alpha 90.000000
_cell_angle_beta 90.000000
_cell_angle_gamma 90.000000
_cell_volume 3916.807098
_symmetry_space_group_name_H-M "P M M N"
_symmetry_group_IT_number 59
_space_group.IT_coordinate_system_code '2'
_symmetry_cell_setting 'orthorhombic'
loop_
_space_group_symop_operation_xyz
x,y,z
1/2-x,1/2-y,z
1/2+x,-y,-z
-x,1/2+y,-z
-x,-y,-z
1/2+x,1/2+y,-z
1/2-x,y,z
x,1/2-y,z
loop_
_atom_site_type_symbol
_atom_site_label
_atom_site_fract_x
_atom_site_fract_y
_atom_site_fract_z
Si Si1 0.686123 0.572766 0.226947
Si Si2 0.415779 0.419247 0.677033
Si Si3 0.633895 0.926259 0.082226
Si Si4 0.915965 0.075782 0.840279
Si Si5 0.042545 0.583165 0.305837
Si Si6 0.316388 0.922795 0.054444
Si Si7 0.008980 0.925530 0.574227
Si Si8 0.486087 0.573371 0.926683
O O1 0.750000 0.512656 0.249103
O O2 0.682669 0.750000 0.234237
O O3 0.636506 0.505095 0.278223
O O4 0.676551 0.530056 0.145814
O O5 0.399366 0.250000 0.654015
O O6 0.475434 0.417365 0.723327
O O7 0.429506 0.516764 0.607105
O O8 0.621674 0.750000 0.077930
O O9 0.574821 0.011314 0.100284
O O10 0.661820 0.976730 0.009354
O O11 0.933790 0.250000 0.850297
O O12 0.914255 0.035303 0.757255
O O13 0.853682 0.042831 0.875666
O O14 0.963459 0.967600 0.873227
O O15 0.059022 0.750000 0.332037
O O16 0.044484 0.472753 0.373367
O O17 0.250000 0.963172 0.072509
O O18 0.323375 0.750000 0.032062
O O19 0.010305 0.750000 0.564673
O O20 0.000000 0.000000 0.500000
O O21 0.482203 0.750000 0.935930
O O22 0.500000 0.500000 0.000000
#
# Coordination Sequence:
#
# PCOD8239733 Si02
#       8
#     8   8   8   8   8   8   8   8
#     4   9  17  30  49  71  96 132 176 212 244 289
#     4   8  15  29  47  70  98 129 160 199 242 287
#     4  11  21  34  51  71  95 130 172 215 260 304
#     4  10  19  34  52  69  96 130 161 198 247 301
#     4   8  16  30  48  71  97 129 159 191 238 290
#     4  10  21  35  50  69  94 128 170 215 258 300
#     4  10  18  30  49  75 104 131 156 189 237 289
#     4  12  23  34  49  71  95 124 162 209 261 310
#
# _framework density 16.339839999999999
#
# number of rings (size 3 to 8) (size 9 to 14) (size 15 to 20)
#    0.750    1.500    1.250    3.375    0.000    3.250 
#    0.000    0.625    0.000    1.875    0.000    0.875 
#    0.000    3.000    0.000    0.000    0.000    0.000 
#
# Total GULP energy -793039.075659 kJ/mol
# GULP energy per Si atom -12391.235557 kJ/mol
# Density = 1.630265 g / cm^3
# Si number density = 16.339840 Si / 1000 Ang^3
#
#
#
# Elastic Constant Matrix: (Units=GPa)
#
#
# Indices 1 2 3 4 5 6 
#
# 1 88.7605 32.3152 45.3967 0.0000 0.0000 0.0000
# 2 32.3152 91.5340 47.8758 0.0000 0.0000 0.0000
# 3 45.3967 47.8758 121.0183 0.0000 0.0000 0.0000
# 4 0.0000 0.0000 0.0000 24.0523 0.0000 0.0000
# 5 0.0000 0.0000 0.0000 0.0000 16.8084 0.0000
# 6 0.0000 0.0000 0.0000 0.0000 0.0000 17.2634
#
#
#
# Elastic Compliance Matrix: (Units=1/GPa)
#
#
# Indices 1 2 3 4 5 6 
#
# 1 0.014515 -0.002871 -0.004309 0.000000 0.000000 0.000000
# 2 -0.002871 0.014343 -0.004597 0.000000 0.000000 0.000000
# 3 -0.004309 -0.004597 0.011699 0.000000 0.000000 0.000000
# 4 0.000000 0.000000 0.000000 0.041576 0.000000 0.000000
# 5 0.000000 0.000000 0.000000 0.000000 0.059494 0.000000
# 6 0.000000 0.000000 0.000000 0.000000 0.000000 0.057926
#
#
# Mechanical properties :
#
#
# Convention : Reuss Voigt Hill
#
# Bulk Modulus (GPa) = 58.81599 61.38757 60.10178
# Shear Modulus (GPa) = 21.85554 23.33984 22.59769
#
# Velocity S-wave (km/s) = 3.66124 3.78352 3.72288
# Velocity P-wave (km/s) = 7.34483 7.53243 7.43922
#
# Compressibility (1/GPa) = 0.01700218
#
# Stress axis : x y z
#
# Youngs Moduli (GPa) = 68.89226 69.72089 85.48071
#
# Poissons Ratio (x) = 0.20013 0.36838
# Poissons Ratio (y) = 0.19776 0.39299
# Poissons Ratio (z) = 0.29689 0.32053
#
# Static dielectric constant tensor:
#      x y z
#    x 3.347670 0.000000 0.000000 
#    y 0.000000 3.021250 0.000000 
#    z 0.000000 0.000000 3.124250 
# 
# 
# High freq. dielectric constant tensor:
#      x y z
#    x 1.607830 0.000000 0.000000 
#    y 0.000000 1.621090 0.000000 
#    z 0.000000 0.000000 1.614050 
# 
# From -- ./inp_files/30914.got.cif
#   From: 2010.03.12/outbox.cif.g09.slc.cpg/sg59_16_cif.got.tgz:30914.got - 2010.04.16 16:29:54.
