data_PCOD8239695
_publ_section_title
;
Structure prediction by ZEFSAII (Michael W. Deem and Ramdas Pophale) SiO2 
 PCOD8239695
Probable space group: P M M N
;
_chemical_formula_sum "Si O2"
_cell_formula_units_Z 64
_cell_length_a 19.668104
_cell_length_b 20.749224
_cell_length_c 8.758119
_cell_angle_alpha 90.000000
_cell_angle_beta 90.000000
_cell_angle_gamma 90.000000
_cell_volume 3574.169933
_symmetry_space_group_name_H-M "P M M N"
_symmetry_group_IT_number 59
_space_group.IT_coordinate_system_code '2'
_symmetry_cell_setting 'orthorhombic'
loop_
_space_group_symop_operation_xyz
x,y,z
1/2-x,1/2-y,z
1/2+x,-y,-z
-x,1/2+y,-z
-x,-y,-z
1/2+x,1/2+y,-z
1/2-x,y,z
x,1/2-y,z
loop_
_atom_site_type_symbol
_atom_site_label
_atom_site_fract_x
_atom_site_fract_y
_atom_site_fract_z
Si Si1 0.456695 0.677616 0.881639
Si Si2 0.828295 0.519389 0.871489
Si Si3 0.913306 0.177948 0.461737
Si Si4 0.825521 0.390447 0.030829
Si Si5 0.175204 0.930695 0.631276
Si Si6 0.541438 0.566448 0.026009
Si Si7 0.994649 0.911992 0.360805
Si Si8 0.904835 0.978997 0.572494
O O1 0.478558 0.750000 0.932398
O O2 0.451844 0.675098 0.699369
O O3 0.384465 0.663145 0.967107
O O4 0.511295 0.623202 0.921422
O O5 0.750000 0.540172 0.903245
O O6 0.847341 0.537203 0.696851
O O7 0.836925 0.442067 0.895019
O O8 0.879458 0.557263 0.983120
O O9 0.893700 0.250000 0.509049
O O10 0.843760 0.138214 0.442629
O O11 0.958633 0.149134 0.598967
O O12 0.750000 0.358361 0.016661
O O13 0.829799 0.431250 0.186667
O O14 0.250000 0.947678 0.573356
O O15 0.124107 0.984492 0.574411
O O16 0.539885 0.594943 0.196580
O O17 0.500000 0.500000 0.000000
O O18 0.939180 0.915868 0.498073
O O19 0.037587 0.977902 0.347564
#
# Coordination Sequence:
#
# PCOD8239695 Si02
#       8
#     8   8   8   8   8   8   8   8
#     4  10  20  34  53  78 109 146 187 227 271 325
#     4  11  21  33  52  79 112 143 178 224 278 328
#     4   9  19  33  49  72 106 143 180 221 263 316
#     4   9  17  30  48  74 109 148 183 220 262 317
#     4   9  17  28  45  69 102 141 180 215 254 306
#     4  12  21  35  57  81 106 143 181 232 273 322
#     4  10  20  31  52  76  99 137 175 224 268 315
#     4  10  18  30  48  73 102 134 173 220 270 313
#
# _framework density 17.906255000000002
#
# number of rings (size 3 to 8) (size 9 to 14) (size 15 to 20)
#    0.000    2.000    2.500    1.875    3.500    1.000 
#    0.000    3.125    0.000    0.375    0.000    3.500 
#    0.000    3.500    0.000    0.000    0.000    0.000 
#
# Total GULP energy -793325.746158 kJ/mol
# GULP energy per Si atom -12395.714784 kJ/mol
# Density = 1.786550 g / cm^3
# Si number density = 17.906255 Si / 1000 Ang^3
#
#
#
# Elastic Constant Matrix: (Units=GPa)
#
#
# Indices 1 2 3 4 5 6 
#
# 1 89.0467 14.4940 13.5508 0.0000 0.0000 0.0000
# 2 14.4940 38.7504 -6.3126 0.0000 0.0000 0.0000
# 3 13.5508 -6.3126 54.7012 0.0000 0.0000 0.0000
# 4 0.0000 0.0000 0.0000 17.7699 0.0000 0.0000
# 5 0.0000 0.0000 0.0000 0.0000 26.5428 0.0000
# 6 0.0000 0.0000 0.0000 0.0000 0.0000 19.2254
#
#
#
# Elastic Compliance Matrix: (Units=1/GPa)
#
#
# Indices 1 2 3 4 5 6 
#
# 1 0.012673 -0.005352 -0.003757 0.000000 0.000000 0.000000
# 2 -0.005352 0.028561 0.004622 0.000000 0.000000 0.000000
# 3 -0.003757 0.004622 0.019745 0.000000 0.000000 0.000000
# 4 0.000000 0.000000 0.000000 0.056275 0.000000 0.000000
# 5 0.000000 0.000000 0.000000 0.000000 0.037675 0.000000
# 6 0.000000 0.000000 0.000000 0.000000 0.000000 0.052015
#
#
# Mechanical properties :
#
#
# Convention : Reuss Voigt Hill
#
# Bulk Modulus (GPa) = 19.22914 25.10697 22.16806
# Shear Modulus (GPa) = 21.43594 23.42537 22.43066
#
# Velocity S-wave (km/s) = 3.46370 3.62086 3.54315
# Velocity P-wave (km/s) = 5.17285 5.61539 5.39866
#
# Compressibility (1/GPa) = 0.05200439
#
# Stress axis : x y z
#
# Youngs Moduli (GPa) = 78.90815 35.01280 50.64524
#
# Poissons Ratio (x) = 0.18739 0.19028
# Poissons Ratio (y) = 0.42233 -0.23407
# Poissons Ratio (z) = 0.29646 -0.16182
#
# Static dielectric constant tensor:
#      x y z
#    x 3.365930 0.000000 0.000000 
#    y 0.000000 3.081710 0.000000 
#    z 0.000000 0.000000 3.304440 
# 
# 
# High freq. dielectric constant tensor:
#      x y z
#    x 1.685790 0.000000 0.000000 
#    y 0.000000 1.651180 0.000000 
#    z 0.000000 0.000000 1.700610 
# 
# From -- ./inp_files/10694.got.cif
#   From: 2010.03.12/outbox.cif.g09.slc.cpg/sg59_6_cif.got.tgz:10694.got - 2010.04.16 16:29:54.
