data_PCOD8239935
_publ_section_title
;
Structure prediction by ZEFSAII (Michael W. Deem and Ramdas Pophale) SiO2 
 PCOD8239935
Probable space group: P M M N
;
_chemical_formula_sum "Si O2"
_cell_formula_units_Z 56
_cell_length_a 23.196792
_cell_length_b 13.798172
_cell_length_c 9.225347
_cell_angle_alpha 90.000000
_cell_angle_beta 90.000000
_cell_angle_gamma 90.000000
_cell_volume 2952.787497
_symmetry_space_group_name_H-M "P M M N"
_symmetry_group_IT_number 59
_space_group.IT_coordinate_system_code '2'
_symmetry_cell_setting 'orthorhombic'
loop_
_space_group_symop_operation_xyz
x,y,z
1/2-x,1/2-y,z
1/2+x,-y,-z
-x,1/2+y,-z
-x,-y,-z
1/2+x,1/2+y,-z
1/2-x,y,z
x,1/2-y,z
loop_
_atom_site_type_symbol
_atom_site_label
_atom_site_fract_x
_atom_site_fract_y
_atom_site_fract_z
Si Si1 0.012452 0.357830 0.253589
Si Si2 0.397748 0.509673 0.302165
Si Si3 0.387969 0.859753 0.811501
Si Si4 0.682136 0.464270 0.955862
Si Si5 0.494891 0.860781 0.409462
Si Si6 0.316171 0.141782 0.844662
Si Si7 0.111540 0.039241 0.619962
O O1 0.038215 0.250000 0.234227
O O2 0.062215 0.433793 0.213469
O O3 0.990195 0.373112 0.418089
O O4 0.956200 0.371519 0.151287
O O5 0.342816 0.537827 0.206377
O O6 0.434620 0.605260 0.340506
O O7 0.374765 0.459164 0.449047
O O8 0.375218 0.750000 0.758517
O O9 0.371629 0.934274 0.683990
O O10 0.349975 0.880859 0.953262
O O11 0.750000 0.442179 0.950319
O O12 0.667702 0.568332 0.026495
O O13 0.506915 0.750000 0.363950
O O14 0.544969 0.931613 0.350501
O O15 0.250000 0.130579 0.802431
O O16 0.330883 0.250000 0.899175
O O17 0.350262 0.120575 0.697132
#
# Coordination Sequence:
#
# PCOD8239935 Si02
#       7
#     8   8   8   8   8   8   8
#     4   9  17  32  55  84 113 142 178 222 275 332
#     4  11  20  34  56  83 117 144 174 225 282 338
#     4  10  19  36  59  78 107 147 189 228 267 321
#     4  10  24  40  55  76 110 152 188 227 276 325
#     4  10  18  31  53  84 118 146 171 217 284 337
#     4   9  19  38  59  78 106 147 190 227 266 320
#     4  10  18  34  58  87 111 140 181 229 275 325
#
# _framework density 18.965131
#
# number of rings (size 3 to 8) (size 9 to 14) (size 15 to 20)
#    0.000    2.143    2.857    1.286    0.000    3.143 
#    0.000    0.000    0.000    1.714    0.000    0.000 
#    0.000    0.000    0.000    0.000    0.000    0.000 
#
# Total GULP energy -694366.015732 kJ/mol
# GULP energy per Si atom -12399.393138 kJ/mol
# Density = 1.892197 g / cm^3
# Si number density = 18.965131 Si / 1000 Ang^3
#
#
#
# Elastic Constant Matrix: (Units=GPa)
#
#
# Indices 1 2 3 4 5 6 
#
# 1 73.9374 26.1903 45.3741 0.0000 0.0000 0.0000
# 2 26.1903 93.8057 16.8825 0.0000 0.0000 0.0000
# 3 45.3741 16.8825 69.8457 0.0000 0.0000 0.0000
# 4 0.0000 0.0000 0.0000 17.5845 0.0000 0.0000
# 5 0.0000 0.0000 0.0000 0.0000 34.3235 0.0000
# 6 0.0000 0.0000 0.0000 0.0000 0.0000 27.0692
#
#
#
# Elastic Compliance Matrix: (Units=1/GPa)
#
#
# Indices 1 2 3 4 5 6 
#
# 1 0.023879 -0.004051 -0.014533 0.000000 0.000000 0.000000
# 2 -0.004051 0.011833 -0.000228 0.000000 0.000000 0.000000
# 3 -0.014533 -0.000228 0.023814 0.000000 0.000000 0.000000
# 4 0.000000 0.000000 0.000000 0.056868 0.000000 0.000000
# 5 0.000000 0.000000 0.000000 0.000000 0.029135 0.000000
# 6 0.000000 0.000000 0.000000 0.000000 0.000000 0.036942
#
#
# Mechanical properties :
#
#
# Convention : Reuss Voigt Hill
#
# Bulk Modulus (GPa) = 45.66296 46.05360 45.85828
# Shear Modulus (GPa) = 21.98812 25.73824 23.86318
#
# Velocity S-wave (km/s) = 3.40869 3.68793 3.55105
# Velocity P-wave (km/s) = 6.29458 6.51693 6.40672
#
# Compressibility (1/GPa) = 0.02189959
#
# Stress axis : x y z
#
# Youngs Moduli (GPa) = 41.87814 84.51285 41.99262
#
# Poissons Ratio (x) = 0.34239 0.61029
# Poissons Ratio (y) = 0.16966 0.00958
# Poissons Ratio (z) = 0.60862 0.01928
#
# Static dielectric constant tensor:
#      x y z
#    x 3.386360 0.000000 0.000000 
#    y 0.000000 3.631840 0.000000 
#    z 0.000000 0.000000 3.168920 
# 
# 
# High freq. dielectric constant tensor:
#      x y z
#    x 1.723490 0.000000 0.000000 
#    y 0.000000 1.749140 0.000000 
#    z 0.000000 0.000000 1.707680 
# 
# From -- ./inp_files/9363.got.cif
#   From: 2010.03.12/outbox.cif.g09.slc.cpg/sg59_5_cif.got.tgz:9363.got - 2010.04.16 16:29:54.
