data_PCOD8239331
_publ_section_title
;
Structure prediction by ZEFSAII (Michael W. Deem and Ramdas Pophale) SiO2 
 PCOD8239331
Probable space group: P M M N
;
_chemical_formula_sum "Si O2"
_cell_formula_units_Z 64
_cell_length_a 17.570987
_cell_length_b 17.379546
_cell_length_c 11.550745
_cell_angle_alpha 90.000000
_cell_angle_beta 90.000000
_cell_angle_gamma 90.000000
_cell_volume 3527.317727
_symmetry_space_group_name_H-M "P M M N"
_symmetry_group_IT_number 59
_space_group.IT_coordinate_system_code '2'
_symmetry_cell_setting 'orthorhombic'
loop_
_space_group_symop_operation_xyz
x,y,z
1/2-x,1/2-y,z
1/2+x,-y,-z
-x,1/2+y,-z
-x,-y,-z
1/2+x,1/2+y,-z
1/2-x,y,z
x,1/2-y,z
loop_
_atom_site_type_symbol
_atom_site_label
_atom_site_fract_x
_atom_site_fract_y
_atom_site_fract_z
Si Si1 0.662546 0.332797 0.186788
Si Si2 0.969335 0.160600 0.494849
Si Si3 0.420828 0.411061 0.921088
Si Si4 0.160853 0.567902 0.590155
Si Si5 0.934971 0.414796 0.039506
Si Si6 0.661450 0.839830 0.872757
Si Si7 0.030953 0.409979 0.266748
Si Si8 0.554492 0.557202 0.331601
O O1 0.750000 0.317076 0.182245
O O2 0.623149 0.250000 0.215449
O O3 0.644797 0.396301 0.283871
O O4 0.640402 0.363776 0.057477
O O5 0.958265 0.250000 0.517281
O O6 0.885471 0.120889 0.500613
O O7 0.010853 0.145845 0.372797
O O8 0.022400 0.127973 0.596364
O O9 0.413252 0.496275 0.976115
O O10 0.404782 0.409721 0.784483
O O11 0.509998 0.386642 0.936474
O O12 0.364261 0.357364 0.994282
O O13 0.250000 0.563017 0.556698
O O14 0.121430 0.483963 0.594002
O O15 0.976853 0.392789 0.159467
O O16 0.750000 0.860311 0.860591
O O17 0.646080 0.750000 0.848196
O O18 0.616756 0.892154 0.778081
O O19 0.015859 0.498740 0.304894
#
# Coordination Sequence:
#
# PCOD8239331 Si02
#       8
#     8   8   8   8   8   8   8   8
#     4  10  18  27  45  78 109 128 160 215 277 327
#     4  11  21  34  56  81 110 145 182 228 273 320
#     4   9  18  32  51  71 101 138 177 213 252 313
#     4  10  19  33  55  81 108 139 175 226 281 325
#     4   9  16  30  50  73  98 132 168 212 262 314
#     4  10  21  34  52  80 108 136 174 224 277 318
#     4   9  17  34  55  74 101 134 176 228 267 311
#     4  10  20  37  55  79 108 143 191 216 257 327
#
# _framework density 18.144096999999999
#
# number of rings (size 3 to 8) (size 9 to 14) (size 15 to 20)
#    0.000    2.250    3.750    3.000    0.000    4.250 
#    0.000    2.500    0.000    1.875    0.000    0.000 
#    0.000    0.000    0.000    0.000    0.000    0.000 
#
# Total GULP energy -792952.393420 kJ/mol
# GULP energy per Si atom -12389.881147 kJ/mol
# Density = 1.810280 g / cm^3
# Si number density = 18.144097 Si / 1000 Ang^3
#
#
#
# Elastic Constant Matrix: (Units=GPa)
#
#
# Indices 1 2 3 4 5 6 
#
# 1 73.7657 19.7045 26.5933 0.0000 0.0000 0.0000
# 2 19.7045 46.2090 24.8110 0.0000 0.0000 0.0000
# 3 26.5933 24.8110 46.6325 0.0000 0.0000 0.0000
# 4 0.0000 0.0000 0.0000 35.2607 0.0000 0.0000
# 5 0.0000 0.0000 0.0000 0.0000 24.4461 0.0000
# 6 0.0000 0.0000 0.0000 0.0000 0.0000 20.6004
#
#
#
# Elastic Compliance Matrix: (Units=1/GPa)
#
#
# Indices 1 2 3 4 5 6 
#
# 1 0.017341 -0.002919 -0.008337 0.000000 0.000000 0.000000
# 2 -0.002919 0.030787 -0.014716 0.000000 0.000000 0.000000
# 3 -0.008337 -0.014716 0.034028 0.000000 0.000000 0.000000
# 4 0.000000 0.000000 0.000000 0.028360 0.000000 0.000000
# 5 0.000000 0.000000 0.000000 0.000000 0.040906 0.000000
# 6 0.000000 0.000000 0.000000 0.000000 0.000000 0.048543
#
#
# Mechanical properties :
#
#
# Convention : Reuss Voigt Hill
#
# Bulk Modulus (GPa) = 33.09692 34.31387 33.70539
# Shear Modulus (GPa) = 19.08552 22.42799 20.75675
#
# Velocity S-wave (km/s) = 3.24680 3.51964 3.38597
# Velocity P-wave (km/s) = 5.68650 5.95568 5.82265
#
# Compressibility (1/GPa) = 0.03021430
#
# Stress axis : x y z
#
# Youngs Moduli (GPa) = 57.66518 32.48156 29.38760
#
# Poissons Ratio (x) = 0.09480 0.24499
# Poissons Ratio (y) = 0.16831 0.43246
# Poissons Ratio (z) = 0.48073 0.47799
#
# Static dielectric constant tensor:
#      x y z
#    x 3.436950 0.000000 0.000000 
#    y 0.000000 3.225790 0.000000 
#    z 0.000000 0.000000 3.262980 
# 
# 
# High freq. dielectric constant tensor:
#      x y z
#    x 1.694200 0.000000 0.000000 
#    y 0.000000 1.694080 0.000000 
#    z 0.000000 0.000000 1.677720 
# 
# From -- ./inp_files/17940.got.cif
#   From: 2010.03.12/outbox.cif.g09.slc.cpg/sg59_9_cif.got.tgz:17940.got - 2010.04.16 16:29:54.
