data_PCOD8239147
_publ_section_title
;
Structure prediction by ZEFSAII (Michael W. Deem and Ramdas Pophale) SiO2 
 PCOD8239147
Probable space group: P M M N
;
_chemical_formula_sum "Si O2"
_cell_formula_units_Z 64
_cell_length_a 8.904454
_cell_length_b 30.082839
_cell_length_c 15.010227
_cell_angle_alpha 90.000000
_cell_angle_beta 90.000000
_cell_angle_gamma 90.000000
_cell_volume 4020.808360
_symmetry_space_group_name_H-M "P M M N"
_symmetry_group_IT_number 59
_space_group.IT_coordinate_system_code '2'
_symmetry_cell_setting 'orthorhombic'
loop_
_space_group_symop_operation_xyz
x,y,z
1/2-x,1/2-y,z
1/2+x,-y,-z
-x,1/2+y,-z
-x,-y,-z
1/2+x,1/2+y,-z
1/2-x,y,z
x,1/2-y,z
loop_
_atom_site_type_symbol
_atom_site_label
_atom_site_fract_x
_atom_site_fract_y
_atom_site_fract_z
Si Si1 0.071377 0.614009 0.707708
Si Si2 0.427454 0.893254 0.041692
Si Si3 0.572612 0.463608 0.815438
Si Si4 0.928800 0.053542 0.130902
Si Si5 0.576721 0.533206 0.373384
Si Si6 0.923833 0.062070 0.458276
Si Si7 0.071574 0.701934 0.790934
Si Si8 0.571431 0.298512 0.007105
O O1 0.250000 0.613518 0.711781
O O2 0.013188 0.579296 0.781409
O O3 0.019118 0.600583 0.608532
O O4 0.005155 0.662899 0.728911
O O5 0.250000 0.890966 0.031255
O O6 0.474397 0.918986 0.131185
O O7 0.489965 0.842067 0.045991
O O8 0.488682 0.919809 0.955363
O O9 0.750000 0.470320 0.814339
O O10 0.500149 0.504800 0.867422
O O11 0.514833 0.457625 0.715649
O O12 0.750000 0.048254 0.130184
O O13 0.750000 0.542536 0.353761
O O14 0.547285 0.483342 0.405262
O O15 0.519605 0.565879 0.451526
O O16 0.750000 0.066964 0.484169
O O17 0.250000 0.699115 0.790624
O O18 0.018013 0.750000 0.753954
O O19 0.015007 0.695572 0.891662
O O20 0.750000 0.297759 0.004132
O O21 0.513071 0.250000 0.970259
#
# Coordination Sequence:
#
# PCOD8239147 Si02
#       8
#     8   8   8   8   8   8   8   8
#     4   9  14  23  40  61  87 117 143 169 210 256
#     4   9  17  27  40  60  88 121 151 180 218 257
#     4  11  21  30  41  61  90 121 151 185 218 252
#     4  10  17  29  44  60  87 123 155 178 205 251
#     4  10  19  32  47  63  82 110 144 182 220 257
#     4   9  17  29  45  64  84 110 140 174 216 257
#     4   8  12  18  33  59  88 115 141 170 206 254
#     4   8  12  20  36  58  85 115 145 177 214 256
#
# _framework density 15.917198000000001
#
# number of rings (size 3 to 8) (size 9 to 14) (size 15 to 20)
#    0.000    2.750    2.500    1.875    0.000    0.500 
#    0.000    0.625    0.000    0.000    0.000    0.875 
#    0.000   14.500    0.000    0.000    0.000    0.000 
#
# Total GULP energy -793061.573749 kJ/mol
# GULP energy per Si atom -12391.587090 kJ/mol
# Density = 1.588097 g / cm^3
# Si number density = 15.917198 Si / 1000 Ang^3
#
#
#
# Elastic Constant Matrix: (Units=GPa)
#
#
# Indices 1 2 3 4 5 6 
#
# 1 25.1337 24.3787 22.2025 0.0000 0.0000 0.0000
# 2 24.3787 136.5332 55.6597 0.0000 0.0000 0.0000
# 3 22.2025 55.6597 84.9335 0.0000 0.0000 0.0000
# 4 0.0000 0.0000 0.0000 23.4705 0.0000 0.0000
# 5 0.0000 0.0000 0.0000 0.0000 16.9198 0.0000
# 6 0.0000 0.0000 0.0000 0.0000 0.0000 11.7977
#
#
#
# Elastic Compliance Matrix: (Units=1/GPa)
#
#
# Indices 1 2 3 4 5 6 
#
# 1 0.054454 -0.005349 -0.010729 0.000000 0.000000 0.000000
# 2 -0.005349 0.010520 -0.005496 0.000000 0.000000 0.000000
# 3 -0.010729 -0.005496 0.018180 0.000000 0.000000 0.000000
# 4 0.000000 0.000000 0.000000 0.042607 0.000000 0.000000
# 5 0.000000 0.000000 0.000000 0.000000 0.059102 0.000000
# 6 0.000000 0.000000 0.000000 0.000000 0.000000 0.084762
#
#
# Mechanical properties :
#
#
# Convention : Reuss Voigt Hill
#
# Bulk Modulus (GPa) = 24.99654 50.12024 37.55839
# Shear Modulus (GPa) = 15.33235 20.06157 17.69696
#
# Velocity S-wave (km/s) = 3.10701 3.55402 3.33800
# Velocity P-wave (km/s) = 5.34879 6.95686 6.20513
#
# Compressibility (1/GPa) = 0.04000554
#
# Stress axis : x y z
#
# Youngs Moduli (GPa) = 18.36422 95.05993 55.00507
#
# Poissons Ratio (x) = 0.50848 0.59017
# Poissons Ratio (y) = 0.09823 0.30229
# Poissons Ratio (z) = 0.19704 0.52241
#
# Static dielectric constant tensor:
#      x y z
#    x 2.635340 0.000000 0.000000 
#    y 0.000000 3.416250 0.000000 
#    z 0.000000 0.000000 3.031860 
# 
# 
# High freq. dielectric constant tensor:
#      x y z
#    x 1.569120 0.000000 0.000000 
#    y 0.000000 1.607300 0.000000 
#    z 0.000000 0.000000 1.595670 
# 
# From -- ./inp_files/21901.got.cif
#   From: 2010.03.12/outbox.cif.g09.slc.cpg/sg59_11_cif.got.tgz:21901.got - 2010.04.16 16:29:54.
