data_PCOD8239256
_publ_section_title
;
Structure prediction by ZEFSAII (Michael W. Deem and Ramdas Pophale) SiO2 
 PCOD8239256
Probable space group: P M M N
;
_chemical_formula_sum "Si O2"
_cell_formula_units_Z 64
_cell_length_a 9.064675
_cell_length_b 27.054157
_cell_length_c 16.918609
_cell_angle_alpha 90.000000
_cell_angle_beta 90.000000
_cell_angle_gamma 90.000000
_cell_volume 4149.071294
_symmetry_space_group_name_H-M "P M M N"
_symmetry_group_IT_number 59
_space_group.IT_coordinate_system_code '2'
_symmetry_cell_setting 'orthorhombic'
loop_
_space_group_symop_operation_xyz
x,y,z
1/2-x,1/2-y,z
1/2+x,-y,-z
-x,1/2+y,-z
-x,-y,-z
1/2+x,1/2+y,-z
1/2-x,y,z
x,1/2-y,z
loop_
_atom_site_type_symbol
_atom_site_label
_atom_site_fract_x
_atom_site_fract_y
_atom_site_fract_z
Si Si1 0.920200 0.948580 0.509499
Si Si2 0.424823 0.561679 0.836035
Si Si3 0.074878 0.195000 0.912279
Si Si4 0.576497 0.420693 0.635932
Si Si5 0.075990 0.376238 0.776202
Si Si6 0.581826 0.967462 0.682068
Si Si7 0.425040 0.112269 0.031789
Si Si8 0.924087 0.958134 0.102939
O O1 0.750000 0.953623 0.484645
O O2 0.933915 0.934454 0.602178
O O3 0.001244 0.910648 0.449867
O O4 0.000000 0.000000 0.500000
O O5 0.250000 0.566501 0.836095
O O6 0.478921 0.559217 0.746064
O O7 0.495325 0.608129 0.883045
O O8 0.484321 0.512985 0.882098
O O9 0.250000 0.196471 0.914509
O O10 0.006900 0.250000 0.919298
O O11 0.027403 0.171324 0.828166
O O12 0.021674 0.162043 0.986812
O O13 0.750000 0.414354 0.626693
O O14 0.513162 0.378557 0.694249
O O15 0.533395 0.475691 0.666560
O O16 0.250000 0.375652 0.758588
O O17 0.024989 0.424499 0.824218
O O18 0.750000 0.966764 0.712433
O O19 0.250000 0.112434 0.044044
O O20 0.480314 0.065448 0.979133
O O21 0.750000 0.957852 0.100697
#
# Coordination Sequence:
#
# PCOD8239256 Si02
#       8
#     8   8   8   8   8   8   8   8
#     4   9  17  28  41  57  80 111 147 180 210 244
#     4  11  19  26  39  58  83 111 144 177 208 250
#     4   8  15  29  49  68  84 107 141 180 220 261
#     4  10  18  27  40  60  85 112 146 179 209 250
#     4   9  15  26  44  63  84 110 143 179 215 253
#     4   9  18  29  39  55  80 113 147 177 209 241
#     4   9  17  29  43  58  81 108 139 176 214 255
#     4   8  15  26  38  55  78 109 141 171 208 245
#
# _framework density 15.425138
#
# number of rings (size 3 to 8) (size 9 to 14) (size 15 to 20)
#    0.000    2.875    1.250    3.750    0.000    2.500 
#    0.000    3.125    0.000    1.500    0.000    0.000 
#    0.000    1.000    0.000   11.500    0.000    3.250 
#
# Total GULP energy -793059.434286 kJ/mol
# GULP energy per Si atom -12391.553661 kJ/mol
# Density = 1.539003 g / cm^3
# Si number density = 15.425138 Si / 1000 Ang^3
#
#
#
# Elastic Constant Matrix: (Units=GPa)
#
#
# Indices 1 2 3 4 5 6 
#
# 1 65.0867 25.0760 48.4264 0.0000 0.0000 0.0000
# 2 25.0760 63.1069 45.8774 0.0000 0.0000 0.0000
# 3 48.4264 45.8774 108.4088 0.0000 0.0000 0.0000
# 4 0.0000 0.0000 0.0000 13.9894 0.0000 0.0000
# 5 0.0000 0.0000 0.0000 0.0000 26.4719 0.0000
# 6 0.0000 0.0000 0.0000 0.0000 0.0000 10.0175
#
#
#
# Elastic Compliance Matrix: (Units=1/GPa)
#
#
# Indices 1 2 3 4 5 6 
#
# 1 0.023270 -0.002441 -0.009362 0.000000 0.000000 0.000000
# 2 -0.002441 0.023143 -0.008704 0.000000 0.000000 0.000000
# 3 -0.009362 -0.008704 0.017090 0.000000 0.000000 0.000000
# 4 0.000000 0.000000 0.000000 0.071482 0.000000 0.000000
# 5 0.000000 0.000000 0.000000 0.000000 0.037776 0.000000
# 6 0.000000 0.000000 0.000000 0.000000 0.000000 0.099825
#
#
# Mechanical properties :
#
#
# Convention : Reuss Voigt Hill
#
# Bulk Modulus (GPa) = 44.46332 52.81799 48.64065
# Shear Modulus (GPa) = 15.57167 17.91061 16.74114
#
# Velocity S-wave (km/s) = 3.18071 3.41123 3.29799
# Velocity P-wave (km/s) = 6.50976 7.05912 6.79000
#
# Compressibility (1/GPa) = 0.02249045
#
# Stress axis : x y z
#
# Youngs Moduli (GPa) = 42.97391 43.20883 58.51487
#
# Poissons Ratio (x) = 0.10545 0.54781
# Poissons Ratio (y) = 0.10488 0.50930
# Poissons Ratio (z) = 0.40232 0.37608
#
# Static dielectric constant tensor:
#      x y z
#    x 2.768450 0.000000 0.000000 
#    y 0.000000 2.893040 0.000000 
#    z 0.000000 0.000000 3.155170 
# 
# 
# High freq. dielectric constant tensor:
#      x y z
#    x 1.580500 0.000000 0.000000 
#    y 0.000000 1.533070 0.000000 
#    z 0.000000 0.000000 1.597670 
# 
# From -- ./inp_files/26667.got.cif
#   From: 2010.03.12/outbox.cif.g09.slc.cpg/sg59_14_cif.got.tgz:26667.got - 2010.04.16 16:29:54.
