data_PCOD8239613
_publ_section_title
;
Structure prediction by ZEFSAII (Michael W. Deem and Ramdas Pophale) SiO2 
 PCOD8239613
Probable space group: P M M N
;
_chemical_formula_sum "Si O2"
_cell_formula_units_Z 64
_cell_length_a 23.218851
_cell_length_b 9.182897
_cell_length_c 16.153189
_cell_angle_alpha 90.000000
_cell_angle_beta 90.000000
_cell_angle_gamma 90.000000
_cell_volume 3444.123469
_symmetry_space_group_name_H-M "P M M N"
_symmetry_group_IT_number 59
_space_group.IT_coordinate_system_code '2'
_symmetry_cell_setting 'orthorhombic'
loop_
_space_group_symop_operation_xyz
x,y,z
1/2-x,1/2-y,z
1/2+x,-y,-z
-x,1/2+y,-z
-x,-y,-z
1/2+x,1/2+y,-z
1/2-x,y,z
x,1/2-y,z
loop_
_atom_site_type_symbol
_atom_site_label
_atom_site_fract_x
_atom_site_fract_y
_atom_site_fract_z
Si Si1 0.426272 0.913083 0.443575
Si Si2 0.892005 0.413303 0.971076
Si Si3 0.977816 0.922991 0.861648
Si Si4 0.313479 0.591139 0.186296
Si Si5 0.183521 0.082579 0.895941
Si Si6 0.440153 0.086302 0.599594
Si Si7 0.080509 0.418031 0.785059
Si Si8 0.606264 0.581636 0.713642
O O1 0.402310 0.750000 0.445966
O O2 0.493072 0.915568 0.421778
O O3 0.409878 0.984159 0.531848
O O4 0.395015 0.000923 0.372667
O O5 0.910667 0.250000 0.000602
O O6 0.948476 0.505753 0.943480
O O7 0.852559 0.400790 0.892585
O O8 0.852770 0.490382 0.039043
O O9 0.979841 0.750000 0.874909
O O10 0.944097 0.965085 0.777298
O O11 0.042050 0.987692 0.849824
O O12 0.250000 0.551268 0.156003
O O13 0.315707 0.750000 0.230846
O O14 0.332993 0.463148 0.247171
O O15 0.250000 0.027347 0.885271
O O16 0.184053 0.250000 0.925457
O O17 0.148032 0.067264 0.809633
O O18 0.415342 0.250000 0.593026
O O19 0.427871 0.023272 0.691431
O O20 0.059803 0.250000 0.790408
O O21 0.603704 0.750000 0.694447
#
# Coordination Sequence:
#
# PCOD8239613 Si02
#       8
#     8   8   8   8   8   8   8   8
#     4  10  18  29  49  75 104 137 172 209 256 312
#     4  10  20  35  56  79 106 139 176 217 263 316
#     4  10  20  33  52  80 111 140 172 212 265 317
#     4   9  18  32  50  72  99 134 174 213 255 305
#     4  10  22  39  58  79 103 135 178 225 268 309
#     4   9  18  31  49  74 103 135 172 212 258 312
#     4  10  20  36  56  77 106 141 175 216 266 322
#     4  10  19  30  47  73 106 138 169 210 256 307
#
# _framework density 18.582377000000001
#
# number of rings (size 3 to 8) (size 9 to 14) (size 15 to 20)
#    0.000    2.250    1.250    1.875    0.000    4.500 
#    0.000    0.000    0.000    0.750    0.000    1.750 
#    0.000    0.000    0.000    0.000    0.000    0.000 
#
# Total GULP energy -793256.639835 kJ/mol
# GULP energy per Si atom -12394.634997 kJ/mol
# Density = 1.854008 g / cm^3
# Si number density = 18.582377 Si / 1000 Ang^3
#
#
#
# Elastic Constant Matrix: (Units=GPa)
#
#
# Indices 1 2 3 4 5 6 
#
# 1 86.3648 33.1449 35.5713 0.0000 0.0000 0.0000
# 2 33.1449 85.3424 46.0532 0.0000 0.0000 0.0000
# 3 35.5713 46.0532 62.2490 0.0000 0.0000 0.0000
# 4 0.0000 0.0000 0.0000 28.5065 0.0000 0.0000
# 5 0.0000 0.0000 0.0000 0.0000 6.0372 0.0000
# 6 0.0000 0.0000 0.0000 0.0000 0.0000 21.1058
#
#
#
# Elastic Compliance Matrix: (Units=1/GPa)
#
#
# Indices 1 2 3 4 5 6 
#
# 1 0.015354 -0.002045 -0.007261 0.000000 0.000000 0.000000
# 2 -0.002045 0.019776 -0.013463 0.000000 0.000000 0.000000
# 3 -0.007261 -0.013463 0.030174 0.000000 0.000000 0.000000
# 4 0.000000 0.000000 0.000000 0.035080 0.000000 0.000000
# 5 0.000000 0.000000 0.000000 0.000000 0.165639 0.000000
# 6 0.000000 0.000000 0.000000 0.000000 0.000000 0.047380
#
#
# Mechanical properties :
#
#
# Convention : Reuss Voigt Hill
#
# Bulk Modulus (GPa) = 50.58865 51.49943 51.04404
# Shear Modulus (GPa) = 13.67878 19.07568 16.37723
#
# Velocity S-wave (km/s) = 2.71609 3.20745 2.97194
# Velocity P-wave (km/s) = 6.09256 6.44137 6.26939
#
# Compressibility (1/GPa) = 0.01976728
#
# Stress axis : x y z
#
# Youngs Moduli (GPa) = 65.12864 50.56516 33.14152
#
# Poissons Ratio (x) = 0.10340 0.24064
# Poissons Ratio (y) = 0.13318 0.44617
# Poissons Ratio (z) = 0.47290 0.68073
#
# Static dielectric constant tensor:
#      x y z
#    x 3.336060 0.000000 0.000000 
#    y 0.000000 3.722030 0.000000 
#    z 0.000000 0.000000 3.513130 
# 
# 
# High freq. dielectric constant tensor:
#      x y z
#    x 1.696050 0.000000 0.000000 
#    y 0.000000 1.727460 0.000000 
#    z 0.000000 0.000000 1.716630 
# 
# From -- ./inp_files/24662.got.cif
#   From: 2010.03.12/outbox.cif.g09.slc.cpg/sg59_13_cif.got.tgz:24662.got - 2010.04.16 16:29:54.
