data_PCOD8239206
_publ_section_title
;
Structure prediction by ZEFSAII (Michael W. Deem and Ramdas Pophale) SiO2 
 PCOD8239206
Probable space group: P M M N
;
_chemical_formula_sum "Si O2"
_cell_formula_units_Z 56
_cell_length_a 15.071750
_cell_length_b 18.829119
_cell_length_c 10.109639
_cell_angle_alpha 90.000000
_cell_angle_beta 90.000000
_cell_angle_gamma 90.000000
_cell_volume 2868.991951
_symmetry_space_group_name_H-M "P M M N"
_symmetry_group_IT_number 59
_space_group.IT_coordinate_system_code '2'
_symmetry_cell_setting 'orthorhombic'
loop_
_space_group_symop_operation_xyz
x,y,z
1/2-x,1/2-y,z
1/2+x,-y,-z
-x,1/2+y,-z
-x,-y,-z
1/2+x,1/2+y,-z
1/2-x,y,z
x,1/2-y,z
loop_
_atom_site_type_symbol
_atom_site_label
_atom_site_fract_x
_atom_site_fract_y
_atom_site_fract_z
Si Si1 0.653784 0.170020 0.682988
Si Si2 0.031937 0.168642 0.572008
Si Si3 0.488089 0.167125 0.279284
Si Si4 0.591200 0.572768 0.196161
Si Si5 0.851128 0.079723 0.190418
Si Si6 0.893570 0.057992 0.893281
Si Si7 0.347874 0.398385 0.083852
O O1 0.750000 0.163173 0.610563
O O2 0.641762 0.250000 0.739767
O O3 0.573594 0.152753 0.583740
O O4 0.654760 0.115393 0.803328
O O5 0.053861 0.250000 0.604931
O O6 0.088477 0.122548 0.675135
O O7 0.057420 0.149626 0.421282
O O8 0.508534 0.250000 0.266381
O O9 0.582535 0.127714 0.275513
O O10 0.420924 0.144559 0.164861
O O11 0.644353 0.502245 0.237235
O O12 0.495328 0.548493 0.145728
O O13 0.637185 0.613039 0.073379
O O14 0.750000 0.106513 0.207768
O O15 0.883709 0.086937 0.040432
O O16 0.848809 0.981396 0.878799
O O17 0.250000 0.368807 0.118787
#
# Coordination Sequence:
#
# PCOD8239206 Si02
#       7
#     8   8   8   8   8   8   8
#     4   9  17  30  51  82 116 150 194 238 277 340
#     4   9  21  38  59  81 114 158 192 235 294 342
#     4  11  24  42  58  83 121 158 195 240 293 350
#     4  10  18  37  64  87 115 151 195 241 290 338
#     4  11  21  36  59  89 122 155 191 239 294 350
#     4  10  17  34  58  86 120 153 186 238 296 336
#     4  11  21  38  63  88 115 150 191 241 294 346
#
# _framework density 19.519051999999999
#
# number of rings (size 3 to 8) (size 9 to 14) (size 15 to 20)
#    0.000    1.857    2.857    3.429    0.000    2.857 
#    0.000    2.857    0.000    3.000    0.000    0.000 
#    0.000    0.000    0.000    0.000    0.000    0.000 
#
# Total GULP energy -694277.587286 kJ/mol
# GULP energy per Si atom -12397.814059 kJ/mol
# Density = 1.947463 g / cm^3
# Si number density = 19.519052 Si / 1000 Ang^3
#
#
#
# Elastic Constant Matrix: (Units=GPa)
#
#
# Indices 1 2 3 4 5 6 
#
# 1 89.3322 20.1410 24.9591 0.0000 0.0000 0.0000
# 2 20.1410 75.2385 61.9255 0.0000 0.0000 0.0000
# 3 24.9591 61.9255 97.4627 0.0000 0.0000 0.0000
# 4 0.0000 0.0000 0.0000 31.6084 0.0000 0.0000
# 5 0.0000 0.0000 0.0000 0.0000 12.9110 0.0000
# 6 0.0000 0.0000 0.0000 0.0000 0.0000 16.8975
#
#
#
# Elastic Compliance Matrix: (Units=1/GPa)
#
#
# Indices 1 2 3 4 5 6 
#
# 1 0.012132 -0.001447 -0.002187 0.000000 0.000000 0.000000
# 2 -0.001447 0.028034 -0.017441 0.000000 0.000000 0.000000
# 3 -0.002187 -0.017441 0.021902 0.000000 0.000000 0.000000
# 4 0.000000 0.000000 0.000000 0.031637 0.000000 0.000000
# 5 0.000000 0.000000 0.000000 0.000000 0.077454 0.000000
# 6 0.000000 0.000000 0.000000 0.000000 0.000000 0.059181
#
#
# Mechanical properties :
#
#
# Convention : Reuss Voigt Hill
#
# Bulk Modulus (GPa) = 50.21133 52.89830 51.55482
# Shear Modulus (GPa) = 17.91287 22.61722 20.26504
#
# Velocity S-wave (km/s) = 3.03266 3.40770 3.22564
# Velocity P-wave (km/s) = 6.16789 6.53015 6.35160
#
# Compressibility (1/GPa) = 0.01991582
#
# Stress axis : x y z
#
# Youngs Moduli (GPa) = 82.42945 35.67135 45.65748
#
# Poissons Ratio (x) = 0.05163 0.09986
# Poissons Ratio (y) = 0.11932 0.79633
# Poissons Ratio (z) = 0.18028 0.62215
#
# Static dielectric constant tensor:
#      x y z
#    x 3.621360 0.000000 0.000000 
#    y 0.000000 3.515140 0.000000 
#    z 0.000000 0.000000 3.462880 
# 
# 
# High freq. dielectric constant tensor:
#      x y z
#    x 1.763010 0.000000 0.000000 
#    y 0.000000 1.754200 0.000000 
#    z 0.000000 0.000000 1.746050 
# 
# From -- ./inp_files/9360.got.cif
#   From: 2010.03.12/outbox.cif.g09.slc.cpg/sg59_5_cif.got.tgz:9360.got - 2010.04.16 16:29:54.
