data_PCOD8239387
_publ_section_title
;
Structure prediction by ZEFSAII (Michael W. Deem and Ramdas Pophale) SiO2 
 PCOD8239387
Probable space group: P M M N
;
_chemical_formula_sum "Si O2"
_cell_formula_units_Z 64
_cell_length_a 9.653417
_cell_length_b 18.846193
_cell_length_c 21.793602
_cell_angle_alpha 90.000000
_cell_angle_beta 90.000000
_cell_angle_gamma 90.000000
_cell_volume 3964.913496
_symmetry_space_group_name_H-M "P M M N"
_symmetry_group_IT_number 59
_space_group.IT_coordinate_system_code '2'
_symmetry_cell_setting 'orthorhombic'
loop_
_space_group_symop_operation_xyz
x,y,z
1/2-x,1/2-y,z
1/2+x,-y,-z
-x,1/2+y,-z
-x,-y,-z
1/2+x,1/2+y,-z
1/2-x,y,z
x,1/2-y,z
loop_
_atom_site_type_symbol
_atom_site_label
_atom_site_fract_x
_atom_site_fract_y
_atom_site_fract_z
Si Si1 0.085287 0.530553 0.302421
Si Si2 0.596883 0.953624 0.579347
Si Si3 0.584811 0.171390 0.637063
Si Si4 0.589135 0.332200 0.135059
Si Si5 0.086367 0.044624 0.179316
Si Si6 0.597063 0.396990 0.513881
Si Si7 0.412059 0.825919 0.002122
Si Si8 0.411128 0.968952 0.054416
O O1 0.250000 0.533136 0.306346
O O2 0.032522 0.475559 0.354539
O O3 0.028677 0.610803 0.315722
O O4 0.035230 0.502722 0.236547
O O5 0.750000 0.920149 0.587279
O O6 0.500932 0.894963 0.546105
O O7 0.608037 0.023413 0.538289
O O8 0.750000 0.170220 0.637827
O O9 0.529203 0.250000 0.655589
O O10 0.535483 0.153047 0.567766
O O11 0.750000 0.353561 0.142423
O O12 0.566788 0.250000 0.153020
O O13 0.496095 0.381143 0.179535
O O14 0.532628 0.346486 0.065793
O O15 0.250000 0.060295 0.182287
O O16 0.044249 0.999376 0.119636
O O17 0.750000 0.370551 0.494149
O O18 0.250000 0.816288 0.992775
O O19 0.476046 0.750000 0.023373
O O20 0.444570 0.884588 0.053585
O O21 0.250000 0.983860 0.040699
O O22 0.500000 0.000000 0.000000
#
# Coordination Sequence:
#
# PCOD8239387 Si02
#       8
#     8   8   8   8   8   8   8   8
#     4   8  15  27  40  59  89 120 150 181 216 262
#     4   8  13  23  39  56  79 110 135 163 208 257
#     4   8  13  23  41  63  88 119 150 179 216 259
#     4   9  17  30  48  66  84 110 142 176 219 273
#     4  10  19  29  44  68  93 116 146 187 225 259
#     4   8  13  21  37  62  83  99 131 177 212 240
#     4   8  14  26  43  61  83 111 139 169 213 267
#     4  10  18  28  44  65  88 113 143 182 227 267
#
# _framework density 16.141587999999999
#
# number of rings (size 3 to 8) (size 9 to 14) (size 15 to 20)
#    0.000    3.375    1.250    2.250    0.000    0.250 
#    0.000    1.250    0.000    6.000    0.000    3.500 
#    0.000    1.000    0.000    0.000    0.000    0.000 
#
# Total GULP energy -792904.468108 kJ/mol
# GULP energy per Si atom -12389.132314 kJ/mol
# Density = 1.610485 g / cm^3
# Si number density = 16.141588 Si / 1000 Ang^3
#
#
#
# Elastic Constant Matrix: (Units=GPa)
#
#
# Indices 1 2 3 4 5 6 
#
# 1 36.4468 30.6492 33.4934 0.0000 0.0000 0.0000
# 2 30.6492 101.3824 58.9699 0.0000 0.0000 0.0000
# 3 33.4934 58.9699 107.3563 0.0000 0.0000 0.0000
# 4 0.0000 0.0000 0.0000 20.3243 0.0000 0.0000
# 5 0.0000 0.0000 0.0000 0.0000 18.2183 0.0000
# 6 0.0000 0.0000 0.0000 0.0000 0.0000 17.0576
#
#
#
# Elastic Compliance Matrix: (Units=1/GPa)
#
#
# Indices 1 2 3 4 5 6 
#
# 1 0.041979 -0.007455 -0.009002 0.000000 0.000000 0.000000
# 2 -0.007455 0.015818 -0.006363 0.000000 0.000000 0.000000
# 3 -0.009002 -0.006363 0.015618 0.000000 0.000000 0.000000
# 4 0.000000 0.000000 0.000000 0.049202 0.000000 0.000000
# 5 0.000000 0.000000 0.000000 0.000000 0.054890 0.000000
# 6 0.000000 0.000000 0.000000 0.000000 0.000000 0.058625
#
#
# Mechanical properties :
#
#
# Convention : Reuss Voigt Hill
#
# Bulk Modulus (GPa) = 36.00223 54.60116 45.30170
# Shear Modulus (GPa) = 17.18034 19.25826 18.21930
#
# Velocity S-wave (km/s) = 3.26598 3.45785 3.36328
# Velocity P-wave (km/s) = 6.04770 7.05990 6.57331
#
# Compressibility (1/GPa) = 0.02777605
#
# Stress axis : x y z
#
# Youngs Moduli (GPa) = 23.82169 63.21713 64.02670
#
# Poissons Ratio (x) = 0.47126 0.57636
# Poissons Ratio (y) = 0.17758 0.40742
# Poissons Ratio (z) = 0.21444 0.40227
#
# Static dielectric constant tensor:
#      x y z
#    x 2.884490 0.000000 0.000000 
#    y 0.000000 4.152340 0.000000 
#    z 0.000000 0.000000 3.078460 
# 
# 
# High freq. dielectric constant tensor:
#      x y z
#    x 1.582380 0.000000 0.000000 
#    y 0.000000 1.612200 0.000000 
#    z 0.000000 0.000000 1.601610 
# 
# From -- ./inp_files/30177.got.cif
#   From: 2010.03.12/outbox.cif.g09.slc.cpg/sg59_16_cif.got.tgz:30177.got - 2010.04.16 16:29:54.
