data_PCOD8239135
_publ_section_title
;
Structure prediction by ZEFSAII (Michael W. Deem and Ramdas Pophale) SiO2 
 PCOD8239135
Probable space group: P M M N
;
_chemical_formula_sum "Si O2"
_cell_formula_units_Z 64
_cell_length_a 30.676362
_cell_length_b 8.921404
_cell_length_c 14.569343
_cell_angle_alpha 90.000000
_cell_angle_beta 90.000000
_cell_angle_gamma 90.000000
_cell_volume 3987.282700
_symmetry_space_group_name_H-M "P M M N"
_symmetry_group_IT_number 59
_space_group.IT_coordinate_system_code '2'
_symmetry_cell_setting 'orthorhombic'
loop_
_space_group_symop_operation_xyz
x,y,z
1/2-x,1/2-y,z
1/2+x,-y,-z
-x,1/2+y,-z
-x,-y,-z
1/2+x,1/2+y,-z
1/2-x,y,z
x,1/2-y,z
loop_
_atom_site_type_symbol
_atom_site_label
_atom_site_fract_x
_atom_site_fract_y
_atom_site_fract_z
Si Si1 0.115963 0.581777 0.437762
Si Si2 0.615190 0.574574 0.924062
Si Si3 0.298690 0.925121 0.350800
Si Si4 0.574223 0.082376 0.758096
Si Si5 0.040786 0.429898 0.946439
Si Si6 0.701784 0.572165 0.842917
Si Si7 0.542252 0.572512 0.453068
Si Si8 0.475560 0.075073 0.745331
O O1 0.110367 0.750000 0.477686
O O2 0.167091 0.532582 0.432501
O O3 0.102217 0.576803 0.332690
O O4 0.087437 0.469118 0.497830
O O5 0.616665 0.750000 0.935629
O O6 0.591595 0.536921 0.829607
O O7 0.665391 0.514473 0.916932
O O8 0.586282 0.511468 0.008457
O O9 0.250000 0.966972 0.385176
O O10 0.302823 0.750000 0.328152
O O11 0.309978 0.010136 0.257057
O O12 0.575040 0.250000 0.801269
O O13 0.525768 0.033579 0.732460
O O14 0.035919 0.250000 0.950931
O O15 0.042110 0.492125 0.841609
O O16 0.000000 0.500000 0.000000
O O17 0.750000 0.517451 0.874546
O O18 0.700231 0.750000 0.835272
O O19 0.500000 0.500000 0.500000
O O20 0.535119 0.750000 0.456697
O O21 0.547447 0.514598 0.347530
O O22 0.467613 0.250000 0.751038
#
# Coordination Sequence:
#
# PCOD8239135 Si02
#       8
#     8   8   8   8   8   8   8   8
#     4  10  19  31  45  66  93 121 152 185 223 267
#     4  10  19  28  42  67  90 114 152 185 214 255
#     4   9  17  29  46  67  91 120 153 185 219 267
#     4  10  17  28  45  63  90 124 149 176 219 264
#     4  10  19  31  46  64  87 115 148 183 217 261
#     4   9  17  28  41  61  92 121 144 178 222 263
#     4  11  21  33  48  66  88 119 156 189 227 270
#     4   9  18  32  45  59  86 120 150 178 218 262
#
# _framework density 16.051030999999998
#
# number of rings (size 3 to 8) (size 9 to 14) (size 15 to 20)
#    0.000    2.250    3.750    0.375    0.000    1.000 
#    0.000    1.250    0.000    0.000    0.000    0.875 
#    0.000    3.000    0.000    0.000    0.000    0.000 
#
# Total GULP energy -792931.776087 kJ/mol
# GULP energy per Si atom -12389.559001 kJ/mol
# Density = 1.601450 g / cm^3
# Si number density = 16.051031 Si / 1000 Ang^3
#
#
#
# Elastic Constant Matrix: (Units=GPa)
#
#
# Indices 1 2 3 4 5 6 
#
# 1 99.1107 21.8987 60.0028 0.0000 0.0000 0.0000
# 2 21.8987 20.4338 20.1390 0.0000 0.0000 0.0000
# 3 60.0028 20.1390 96.4605 0.0000 0.0000 0.0000
# 4 0.0000 0.0000 0.0000 14.9534 0.0000 0.0000
# 5 0.0000 0.0000 0.0000 0.0000 21.8349 0.0000
# 6 0.0000 0.0000 0.0000 0.0000 0.0000 19.5915
#
#
#
# Elastic Compliance Matrix: (Units=1/GPa)
#
#
# Indices 1 2 3 4 5 6 
#
# 1 0.017738 -0.010243 -0.008896 0.000000 0.000000 0.000000
# 2 -0.010243 0.067532 -0.007728 0.000000 0.000000 0.000000
# 3 -0.008896 -0.007728 0.017514 0.000000 0.000000 0.000000
# 4 0.000000 0.000000 0.000000 0.066875 0.000000 0.000000
# 5 0.000000 0.000000 0.000000 0.000000 0.045798 0.000000
# 6 0.000000 0.000000 0.000000 0.000000 0.000000 0.051042
#
#
# Mechanical properties :
#
#
# Convention : Reuss Voigt Hill
#
# Bulk Modulus (GPa) = 20.38666 46.67625 33.53145
# Shear Modulus (GPa) = 14.85519 18.87358 16.86438
#
# Velocity S-wave (km/s) = 3.04550 3.43278 3.24492
# Velocity P-wave (km/s) = 5.00954 6.69739 5.91399
#
# Compressibility (1/GPa) = 0.04905169
#
# Stress axis : x y z
#
# Youngs Moduli (GPa) = 56.37486 14.80780 57.09771
#
# Poissons Ratio (x) = 0.15167 0.50792
# Poissons Ratio (y) = 0.57744 0.44124
# Poissons Ratio (z) = 0.50149 0.11443
#
# Static dielectric constant tensor:
#      x y z
#    x 3.518910 0.000000 0.000000 
#    y 0.000000 2.944550 0.000000 
#    z 0.000000 0.000000 3.121760 
# 
# 
# High freq. dielectric constant tensor:
#      x y z
#    x 1.620770 0.000000 0.000000 
#    y 0.000000 1.602440 0.000000 
#    z 0.000000 0.000000 1.589260 
# 
# From -- ./inp_files/25006.got.cif
#   From: 2010.03.12/outbox.cif.g09.slc.cpg/sg59_13_cif.got.tgz:25006.got - 2010.04.16 16:29:54.
