data_PCOD8239077
_publ_section_title
;
Structure prediction by ZEFSAII (Michael W. Deem and Ramdas Pophale) SiO2 
 PCOD8239077
Probable space group: P M M N
;
_chemical_formula_sum "Si O2"
_cell_formula_units_Z 56
_cell_length_a 9.282326
_cell_length_b 21.888869
_cell_length_c 17.441199
_cell_angle_alpha 90.000000
_cell_angle_beta 90.000000
_cell_angle_gamma 90.000000
_cell_volume 3543.696147
_symmetry_space_group_name_H-M "P M M N"
_symmetry_group_IT_number 59
_space_group.IT_coordinate_system_code '2'
_symmetry_cell_setting 'orthorhombic'
loop_
_space_group_symop_operation_xyz
x,y,z
1/2-x,1/2-y,z
1/2+x,-y,-z
-x,1/2+y,-z
-x,-y,-z
1/2+x,1/2+y,-z
1/2-x,y,z
x,1/2-y,z
loop_
_atom_site_type_symbol
_atom_site_label
_atom_site_fract_x
_atom_site_fract_y
_atom_site_fract_z
Si Si1 0.916943 0.903577 0.214010
Si Si2 0.909717 0.582403 0.047791
Si Si3 0.588331 0.440638 0.090756
Si Si4 0.581527 0.090479 0.538272
Si Si5 0.583058 0.679743 0.354098
Si Si6 0.585887 0.957769 0.596838
Si Si7 0.916825 0.526644 0.768462
O O1 0.750000 0.925079 0.218762
O O2 0.951663 0.882184 0.126411
O O3 0.949676 0.847418 0.270017
O O4 0.017051 0.959443 0.238203
O O5 0.750000 0.600780 0.020059
O O6 0.914596 0.511204 0.068679
O O7 0.018712 0.598262 0.978933
O O8 0.750000 0.416601 0.103882
O O9 0.497407 0.431569 0.168672
O O10 0.750000 0.102897 0.531867
O O11 0.510120 0.147049 0.581224
O O12 0.517012 0.085860 0.452579
O O13 0.544367 0.028711 0.584316
O O14 0.750000 0.671337 0.375373
O O15 0.536979 0.750000 0.351877
O O16 0.750000 0.947050 0.570170
O O17 0.565648 0.940976 0.686025
O O18 0.750000 0.520289 0.791930
#
# Coordination Sequence:
#
# PCOD8239077 Si02
#       7
#     8   8   8   8   8   8   8
#     4   9  17  28  42  59  81 111 148 182 214 256
#     4   8  14  24  36  52  76 108 142 174 206 243
#     4   9  16  24  35  55  81 110 141 170 205 248
#     4  10  19  31  46  65  86 113 148 185 225 267
#     4  10  20  33  48  65  88 118 150 186 227 267
#     4   9  18  30  44  64  88 115 146 181 223 272
#     4  10  17  26  41  61  86 113 143 177 215 260
#
# _framework density 15.802709
#
# number of rings (size 3 to 8) (size 9 to 14) (size 15 to 20)
#    0.000    2.714    1.429    2.143    0.000    5.429 
#    0.000    0.000    0.000    0.000    0.000    0.000 
#    0.000    1.143    0.000    8.857    0.000    2.571 
#
# Total GULP energy -694259.065519 kJ/mol
# GULP energy per Si atom -12397.483313 kJ/mol
# Density = 1.576674 g / cm^3
# Si number density = 15.802709 Si / 1000 Ang^3
#
#
#
# Elastic Constant Matrix: (Units=GPa)
#
#
# Indices 1 2 3 4 5 6 
#
# 1 106.1543 35.7449 72.8743 0.0000 0.0000 0.0000
# 2 35.7449 49.2405 42.7848 0.0000 0.0000 0.0000
# 3 72.8743 42.7848 128.8186 0.0000 0.0000 0.0000
# 4 0.0000 0.0000 0.0000 14.2214 0.0000 0.0000
# 5 0.0000 0.0000 0.0000 0.0000 29.4276 0.0000
# 6 0.0000 0.0000 0.0000 0.0000 0.0000 14.7515
#
#
#
# Elastic Compliance Matrix: (Units=1/GPa)
#
#
# Indices 1 2 3 4 5 6 
#
# 1 0.016360 -0.005390 -0.007465 0.000000 0.000000 0.000000
# 2 -0.005390 0.030322 -0.007022 0.000000 0.000000 0.000000
# 3 -0.007465 -0.007022 0.014318 0.000000 0.000000 0.000000
# 4 0.000000 0.000000 0.000000 0.070316 0.000000 0.000000
# 5 0.000000 0.000000 0.000000 0.000000 0.033982 0.000000
# 6 0.000000 0.000000 0.000000 0.000000 0.000000 0.067790
#
#
# Mechanical properties :
#
#
# Convention : Reuss Voigt Hill
#
# Bulk Modulus (GPa) = 47.06542 65.22461 56.14502
# Shear Modulus (GPa) = 17.86205 20.53407 19.19806
#
# Velocity S-wave (km/s) = 3.36566 3.60863 3.48926
# Velocity P-wave (km/s) = 6.70458 7.66335 7.19994
#
# Compressibility (1/GPa) = 0.02124702
#
# Stress axis : x y z
#
# Youngs Moduli (GPa) = 61.12609 32.97888 69.84238
#
# Poissons Ratio (x) = 0.17775 0.52135
# Poissons Ratio (y) = 0.32946 0.49043
# Poissons Ratio (z) = 0.45629 0.23158
#
# Static dielectric constant tensor:
#      x y z
#    x 3.135190 0.000000 0.000000 
#    y 0.000000 2.460730 0.000000 
#    z 0.000000 0.000000 3.256060 
# 
# 
# High freq. dielectric constant tensor:
#      x y z
#    x 1.618190 0.000000 0.000000 
#    y 0.000000 1.530320 0.000000 
#    z 0.000000 0.000000 1.621160 
# 
# From -- ./inp_files/26381.got.cif
#   From: 2010.03.12/outbox.cif.g09.slc.cpg/sg59_14_cif.got.tgz:26381.got - 2010.04.16 16:29:54.
