data_PCOD8239496
_publ_section_title
;
Structure prediction by ZEFSAII (Michael W. Deem and Ramdas Pophale) SiO2 
 PCOD8239496
Probable space group: P M M N
;
_chemical_formula_sum "Si O2"
_cell_formula_units_Z 56
_cell_length_a 21.825863
_cell_length_b 9.214579
_cell_length_c 16.997590
_cell_angle_alpha 90.000000
_cell_angle_beta 90.000000
_cell_angle_gamma 90.000000
_cell_volume 3418.489671
_symmetry_space_group_name_H-M "P M M N"
_symmetry_group_IT_number 59
_space_group.IT_coordinate_system_code '2'
_symmetry_cell_setting 'orthorhombic'
loop_
_space_group_symop_operation_xyz
x,y,z
1/2-x,1/2-y,z
1/2+x,-y,-z
-x,1/2+y,-z
-x,-y,-z
1/2+x,1/2+y,-z
1/2-x,y,z
x,1/2-y,z
loop_
_atom_site_type_symbol
_atom_site_label
_atom_site_fract_x
_atom_site_fract_y
_atom_site_fract_z
Si Si1 0.522260 0.082318 0.119251
Si Si2 0.162359 0.088008 0.251648
Si Si3 0.045376 0.579704 0.440413
Si Si4 0.317758 0.583025 0.407278
Si Si5 0.317786 0.908944 0.099536
Si Si6 0.590031 0.917774 0.993931
Si Si7 0.976055 0.588391 0.715287
O O1 0.540475 0.250000 0.109094
O O2 0.459021 0.050425 0.074293
O O3 0.519518 0.040978 0.212015
O O4 0.572860 0.981790 0.079041
O O5 0.189968 0.250000 0.244623
O O6 0.089902 0.096639 0.245452
O O7 0.185151 0.020151 0.332782
O O8 0.186412 0.988712 0.182563
O O9 0.033527 0.750000 0.447833
O O10 0.118778 0.544095 0.455555
O O11 0.000000 0.500000 0.500000
O O12 0.023479 0.528405 0.354237
O O13 0.250000 0.563376 0.450879
O O14 0.324578 0.750000 0.380341
O O15 0.250000 0.886304 0.067658
O O16 0.349601 0.750000 0.109508
O O17 0.349009 0.003896 0.032923
O O18 0.603326 0.750000 0.005206
O O19 0.994192 0.750000 0.683612
#
# Coordination Sequence:
#
# PCOD8239496 Si02
#       7
#     8   8   8   8   8   8   8
#     4   9  17  31  48  68  93 121 151 191 238 280
#     4  10  18  29  44  66  94 124 160 196 231 275
#     4  10  20  33  50  73 100 131 162 199 246 292
#     4   9  18  32  48  68  95 128 164 196 232 285
#     4  11  22  32  42  59  88 127 165 199 237 282
#     4  10  19  31  46  67  91 119 157 198 238 276
#     4   9  17  31  49  69  96 126 158 194 233 282
#
# _framework density 16.381502999999999
#
# number of rings (size 3 to 8) (size 9 to 14) (size 15 to 20)
#    0.000    2.286    1.429    2.143    0.000    5.429 
#    0.000    0.000    0.000    0.000    0.000    1.000 
#    0.000    3.429    0.000    0.000    0.000    0.000 
#
# Total GULP energy -693816.707856 kJ/mol
# GULP energy per Si atom -12389.584069 kJ/mol
# Density = 1.634422 g / cm^3
# Si number density = 16.381503 Si / 1000 Ang^3
#
#
#
# Elastic Constant Matrix: (Units=GPa)
#
#
# Indices 1 2 3 4 5 6 
#
# 1 88.1890 48.9845 48.2963 0.0000 0.0000 0.0000
# 2 48.9845 85.8609 41.2236 0.0000 0.0000 0.0000
# 3 48.2963 41.2236 70.6428 0.0000 0.0000 0.0000
# 4 0.0000 0.0000 0.0000 29.1780 0.0000 0.0000
# 5 0.0000 0.0000 0.0000 0.0000 14.5111 0.0000
# 6 0.0000 0.0000 0.0000 0.0000 0.0000 18.2714
#
#
#
# Elastic Compliance Matrix: (Units=1/GPa)
#
#
# Indices 1 2 3 4 5 6 
#
# 1 0.020760 -0.006987 -0.010116 0.000000 0.000000 0.000000
# 2 -0.006987 0.018532 -0.006037 0.000000 0.000000 0.000000
# 3 -0.010116 -0.006037 0.024595 0.000000 0.000000 0.000000
# 4 0.000000 0.000000 0.000000 0.034272 0.000000 0.000000
# 5 0.000000 0.000000 0.000000 0.000000 0.068913 0.000000
# 6 0.000000 0.000000 0.000000 0.000000 0.000000 0.054730
#
#
# Mechanical properties :
#
#
# Convention : Reuss Voigt Hill
#
# Bulk Modulus (GPa) = 56.79840 57.96682 57.38261
# Shear Modulus (GPa) = 18.25149 19.47133 18.86141
#
# Velocity S-wave (km/s) = 3.34151 3.45137 3.39689
# Velocity P-wave (km/s) = 7.04522 7.16554 7.10564
#
# Compressibility (1/GPa) = 0.01760613
#
# Stress axis : x y z
#
# Youngs Moduli (GPa) = 48.16946 53.96206 40.65947
#
# Poissons Ratio (x) = 0.37704 0.41130
# Poissons Ratio (y) = 0.33656 0.24547
# Poissons Ratio (z) = 0.48727 0.32578
#
# Static dielectric constant tensor:
#      x y z
#    x 3.178770 0.000000 0.000000 
#    y 0.000000 3.293870 0.000000 
#    z 0.000000 0.000000 2.842160 
# 
# 
# High freq. dielectric constant tensor:
#      x y z
#    x 1.615750 0.000000 0.000000 
#    y 0.000000 1.647010 0.000000 
#    z 0.000000 0.000000 1.593980 
# 
# From -- ./inp_files/28022.got.cif
#   From: 2010.03.12/outbox.cif.g09.slc.cpg/sg59_15_cif.got.tgz:28022.got - 2010.04.16 16:29:54.
