data_PCOD8239339
_publ_section_title
;
Structure prediction by ZEFSAII (Michael W. Deem and Ramdas Pophale) SiO2 
 PCOD8239339
Probable space group: P M M N
;
_chemical_formula_sum "Si O2"
_cell_formula_units_Z 64
_cell_length_a 9.214881
_cell_length_b 25.157957
_cell_length_c 18.404408
_cell_angle_alpha 90.000000
_cell_angle_beta 90.000000
_cell_angle_gamma 90.000000
_cell_volume 4266.649367
_symmetry_space_group_name_H-M "P M M N"
_symmetry_group_IT_number 59
_space_group.IT_coordinate_system_code '2'
_symmetry_cell_setting 'orthorhombic'
loop_
_space_group_symop_operation_xyz
x,y,z
1/2-x,1/2-y,z
1/2+x,-y,-z
-x,1/2+y,-z
-x,-y,-z
1/2+x,1/2+y,-z
1/2-x,y,z
x,1/2-y,z
loop_
_atom_site_type_symbol
_atom_site_label
_atom_site_fract_x
_atom_site_fract_y
_atom_site_fract_z
Si Si1 0.418026 0.012749 0.106205
Si Si2 0.920972 0.417674 0.997201
Si Si3 0.087694 0.811111 0.230404
Si Si4 0.087016 0.959875 0.599272
Si Si5 0.920884 0.004386 0.727162
Si Si6 0.422507 0.691570 0.066354
Si Si7 0.910900 0.924871 0.473086
Si Si8 0.079459 0.108939 0.679091
O O1 0.250000 0.023858 0.092018
O O2 0.455372 0.012912 0.190945
O O3 0.462401 0.956207 0.070305
O O4 0.505838 0.061130 0.070454
O O5 0.750000 0.416556 0.009605
O O6 0.980414 0.357758 0.981898
O O7 0.250000 0.836109 0.237988
O O8 0.094796 0.750000 0.251826
O O9 0.027654 0.818607 0.148893
O O10 0.972862 0.837108 0.284530
O O11 0.250000 0.941537 0.618085
O O12 0.992682 0.961207 0.672999
O O13 0.019121 0.918533 0.541143
O O14 0.084836 0.017049 0.562303
O O15 0.750000 0.007376 0.711466
O O16 0.990287 0.061702 0.715760
O O17 0.250000 0.692622 0.065263
O O18 0.480070 0.750000 0.039341
O O19 0.750000 0.912601 0.502533
O O20 0.954245 0.885545 0.407265
O O21 0.250000 0.098665 0.691682
#
# Coordination Sequence:
#
# PCOD8239339 Si02
#       8
#     8   8   8   8   8   8   8   8
#     4   9  18  29  40  57  81 110 140 168 203 247
#     4   9  16  27  43  60  79 105 137 172 206 241
#     4   9  17  29  44  60  80 108 139 169 202 242
#     4   9  16  25  38  57  79 101 129 165 197 226
#     4  10  18  28  42  57  78 109 140 167 199 245
#     4   8  14  26  44  63  81 104 137 173 206 244
#     4   8  15  26  37  52  76 106 134 157 190 232
#     4  10  19  28  40  59  82 107 137 173 205 236
#
# _framework density 15.000062
#
# number of rings (size 3 to 8) (size 9 to 14) (size 15 to 20)
#    0.000    3.000    0.000    3.375    0.000    6.750 
#    0.000    3.125    0.000    1.125    0.000    0.000 
#    0.000    1.000    0.000    7.500    0.000    4.250 
#
# Total GULP energy -793235.680641 kJ/mol
# GULP energy per Si atom -12394.307510 kJ/mol
# Density = 1.496592 g / cm^3
# Si number density = 15.000062 Si / 1000 Ang^3
#
#
#
# Elastic Constant Matrix: (Units=GPa)
#
#
# Indices 1 2 3 4 5 6 
#
# 1 75.1244 31.8999 54.8098 0.0000 0.0000 0.0000
# 2 31.8999 73.6171 46.6982 0.0000 0.0000 0.0000
# 3 54.8098 46.6982 100.5169 0.0000 0.0000 0.0000
# 4 0.0000 0.0000 0.0000 20.6494 0.0000 0.0000
# 5 0.0000 0.0000 0.0000 0.0000 26.0806 0.0000
# 6 0.0000 0.0000 0.0000 0.0000 0.0000 17.8305
#
#
#
# Elastic Compliance Matrix: (Units=1/GPa)
#
#
# Indices 1 2 3 4 5 6 
#
# 1 0.022502 -0.002789 -0.010974 0.000000 0.000000 0.000000
# 2 -0.002789 0.019605 -0.007587 0.000000 0.000000 0.000000
# 3 -0.010974 -0.007587 0.019457 0.000000 0.000000 0.000000
# 4 0.000000 0.000000 0.000000 0.048428 0.000000 0.000000
# 5 0.000000 0.000000 0.000000 0.000000 0.038343 0.000000
# 6 0.000000 0.000000 0.000000 0.000000 0.000000 0.056084
#
#
# Mechanical properties :
#
#
# Convention : Reuss Voigt Hill
#
# Bulk Modulus (GPa) = 53.01244 57.34159 55.17702
# Shear Modulus (GPa) = 19.73096 20.63545 20.18321
#
# Velocity S-wave (km/s) = 3.63077 3.71305 3.67214
# Velocity P-wave (km/s) = 7.27976 7.52947 7.40567
#
# Compressibility (1/GPa) = 0.01886350
#
# Stress axis : x y z
#
# Youngs Moduli (GPa) = 44.43983 51.00627 51.39415
#
# Poissons Ratio (x) = 0.14228 0.56401
# Poissons Ratio (y) = 0.12396 0.38994
# Poissons Ratio (z) = 0.48769 0.38700
#
# Static dielectric constant tensor:
#      x y z
#    x 2.914850 0.000000 0.000000 
#    y 0.000000 2.771210 0.000000 
#    z 0.000000 0.000000 2.948420 
# 
# 
# High freq. dielectric constant tensor:
#      x y z
#    x 1.572650 0.000000 0.000000 
#    y 0.000000 1.534650 0.000000 
#    z 0.000000 0.000000 1.566600 
# 
# From -- ./inp_files/26652.got.cif
#   From: 2010.03.12/outbox.cif.g09.slc.cpg/sg59_14_cif.got.tgz:26652.got - 2010.04.16 16:29:54.
