data_PCOD8239891
_publ_section_title
;
Structure prediction by ZEFSAII (Michael W. Deem and Ramdas Pophale) SiO2 
 PCOD8239891
Probable space group: P M M N
;
_chemical_formula_sum "Si O2"
_cell_formula_units_Z 56
_cell_length_a 9.301728
_cell_length_b 14.221435
_cell_length_c 22.603623
_cell_angle_alpha 90.000000
_cell_angle_beta 90.000000
_cell_angle_gamma 90.000000
_cell_volume 2990.095860
_symmetry_space_group_name_H-M "P M M N"
_symmetry_group_IT_number 59
_space_group.IT_coordinate_system_code '2'
_symmetry_cell_setting 'orthorhombic'
loop_
_space_group_symop_operation_xyz
x,y,z
1/2-x,1/2-y,z
1/2+x,-y,-z
-x,1/2+y,-z
-x,-y,-z
1/2+x,1/2+y,-z
1/2-x,y,z
x,1/2-y,z
loop_
_atom_site_type_symbol
_atom_site_label
_atom_site_fract_x
_atom_site_fract_y
_atom_site_fract_z
Si Si1 0.916226 0.451587 0.419832
Si Si2 0.913323 0.914458 0.025180
Si Si3 0.082148 0.356637 0.846021
Si Si4 0.081872 0.143578 0.523639
Si Si5 0.079243 0.477001 0.198146
Si Si6 0.416667 0.860271 0.704845
Si Si7 0.584709 0.847425 0.901119
O O1 0.750000 0.435442 0.435014
O O2 0.956290 0.563126 0.427298
O O3 0.952486 0.418267 0.354160
O O4 0.004254 0.384445 0.463216
O O5 0.750000 0.946885 0.034454
O O6 0.972500 0.871217 0.086255
O O7 0.929481 0.841100 0.971844
O O8 0.000000 0.000000 0.000000
O O9 0.250000 0.380018 0.840374
O O10 0.050265 0.250000 0.827712
O O11 0.994080 0.420534 0.799530
O O12 0.250000 0.142991 0.510291
O O13 0.034674 0.250000 0.543749
O O14 0.250000 0.488301 0.205110
O O15 0.022634 0.437042 0.134013
O O16 0.020274 0.405383 0.246615
O O17 0.250000 0.873332 0.722808
O O18 0.453194 0.750000 0.696586
O O19 0.750000 0.847818 0.882198
O O20 0.513363 0.750000 0.877566
#
# Coordination Sequence:
#
# PCOD8239891 Si02
#       7
#     8   8   8   8   8   8   8
#     4   9  18  33  53  78 110 148 186 221 262 313
#     4  10  18  31  52  76 103 132 166 209 260 318
#     4  10  21  37  57  78 102 137 178 219 267 325
#     4   9  17  30  51  81 114 144 177 221 269 315
#     4  11  22  36  55  78 105 137 175 222 271 318
#     4  10  21  37  56  78 107 143 181 222 266 316
#     4   9  17  30  49  73 100 130 163 201 253 313
#
# _framework density 18.728496
#
# number of rings (size 3 to 8) (size 9 to 14) (size 15 to 20)
#    0.000    2.286    1.429    1.714    0.000    4.286 
#    0.000    0.714    0.000    4.714    0.000    0.000 
#    0.000    0.000    0.000    0.000    0.000    0.000 
#
# Total GULP energy -693781.205155 kJ/mol
# GULP energy per Si atom -12388.950092 kJ/mol
# Density = 1.868587 g / cm^3
# Si number density = 18.728496 Si / 1000 Ang^3
#
#
#
# Elastic Constant Matrix: (Units=GPa)
#
#
# Indices 1 2 3 4 5 6 
#
# 1 52.3815 50.7042 31.9394 0.0000 0.0000 0.0000
# 2 50.7042 153.4891 47.0899 0.0000 0.0000 0.0000
# 3 31.9394 47.0899 69.3705 0.0000 0.0000 0.0000
# 4 0.0000 0.0000 0.0000 23.0999 0.0000 0.0000
# 5 0.0000 0.0000 0.0000 0.0000 27.1580 0.0000
# 6 0.0000 0.0000 0.0000 0.0000 0.0000 27.1859
#
#
#
# Elastic Compliance Matrix: (Units=1/GPa)
#
#
# Indices 1 2 3 4 5 6 
#
# 1 0.032526 -0.007768 -0.009702 0.000000 0.000000 0.000000
# 2 -0.007768 0.010084 -0.003269 0.000000 0.000000 0.000000
# 3 -0.009702 -0.003269 0.021101 0.000000 0.000000 0.000000
# 4 0.000000 0.000000 0.000000 0.043290 0.000000 0.000000
# 5 0.000000 0.000000 0.000000 0.000000 0.036822 0.000000
# 6 0.000000 0.000000 0.000000 0.000000 0.000000 0.036784
#
#
# Mechanical properties :
#
#
# Convention : Reuss Voigt Hill
#
# Bulk Modulus (GPa) = 44.97805 59.41200 52.19502
# Shear Modulus (GPa) = 21.78680 25.18927 23.48803
#
# Velocity S-wave (km/s) = 3.41441 3.67136 3.54522
# Velocity P-wave (km/s) = 6.29383 7.05433 6.68490
#
# Compressibility (1/GPa) = 0.02223307
#
# Stress axis : x y z
#
# Youngs Moduli (GPa) = 30.74448 99.16609 47.39036
#
# Poissons Ratio (x) = 0.77034 0.45980
# Poissons Ratio (y) = 0.23883 0.15490
# Poissons Ratio (z) = 0.29830 0.32414
#
# Static dielectric constant tensor:
#      x y z
#    x 3.363100 0.000000 0.000000 
#    y 0.000000 4.596620 0.000000 
#    z 0.000000 0.000000 3.307700 
# 
# 
# High freq. dielectric constant tensor:
#      x y z
#    x 1.709120 0.000000 0.000000 
#    y 0.000000 1.743910 0.000000 
#    z 0.000000 0.000000 1.708020 
# 
# From -- ./inp_files/29143.got.cif
#   From: 2010.03.12/outbox.cif.g09.slc.cpg/sg59_15_cif.got.tgz:29143.got - 2010.04.16 16:29:54.
