data_PCOD8239035
_publ_section_title
;
Structure prediction by ZEFSAII (Michael W. Deem and Ramdas Pophale) SiO2 
 PCOD8239035
Probable space group: P M M N
;
_chemical_formula_sum "Si O2"
_cell_formula_units_Z 36
_cell_length_a 19.066900
_cell_length_b 13.929526
_cell_length_c 8.315822
_cell_angle_alpha 90.000000
_cell_angle_beta 90.000000
_cell_angle_gamma 90.000000
_cell_volume 2208.623109
_symmetry_space_group_name_H-M "P M M N"
_symmetry_group_IT_number 59
_space_group.IT_coordinate_system_code '2'
_symmetry_cell_setting 'orthorhombic'
loop_
_space_group_symop_operation_xyz
x,y,z
1/2-x,1/2-y,z
1/2+x,-y,-z
-x,1/2+y,-z
-x,-y,-z
1/2+x,1/2+y,-z
1/2-x,y,z
x,1/2-y,z
loop_
_atom_site_type_symbol
_atom_site_label
_atom_site_fract_x
_atom_site_fract_y
_atom_site_fract_z
Si Si1 0.250000 0.413509 0.994771
Si Si2 0.987423 0.360032 0.929755
Si Si3 0.605951 0.504389 0.080920
Si Si4 0.250000 0.250000 0.744339
Si Si5 0.750000 0.750000 0.749557
Si Si6 0.541330 0.926963 0.386838
Si Si7 0.127067 0.250000 0.500537
O O1 0.250000 0.348505 0.152445
O O2 0.183566 0.482815 0.985597
O O3 0.250000 0.346586 0.841951
O O4 0.994691 0.250000 0.975280
O O5 0.055759 0.414823 0.001951
O O6 0.985862 0.376049 0.735632
O O7 0.918198 0.400166 0.017573
O O8 0.598228 0.514511 0.276073
O O9 0.176808 0.250000 0.653914
O O10 0.677488 0.750000 0.652577
O O11 0.579349 0.845861 0.494991
O O12 0.500000 0.000000 0.500000
#
# Coordination Sequence:
#
# PCOD8239035 Si02
#       7
#     4   8   8   2   2   8   4
#     4  11  20  36  53  80 110 146 180 225 276 325
#     4   9  18  36  54  79 104 143 185 227 265 318
#     4   9  20  34  56  80 103 143 185 225 272 327
#     4  10  16  34  60  68 110 144 174 202 296 342
#     4  10  28  26  52  88 110 144 168 234 272 334
#     4  10  19  34  52  76 111 140 175 221 271 328
#     4  11  20  36  50  84 112 141 174 219 281 340
#
# _framework density 16.299747
#
# number of rings (size 3 to 8) (size 9 to 14) (size 15 to 20)
#    1.333    0.889    3.333    0.000    6.222    0.000 
#    2.000    0.556    0.000    0.000    0.000    0.000 
#    0.000    0.000    0.000    0.000    0.000    0.000 
#
# Total GULP energy -446042.583829 kJ/mol
# GULP energy per Si atom -12390.071773 kJ/mol
# Density = 1.626265 g / cm^3
# Si number density = 16.299747 Si / 1000 Ang^3
#
#
#
# Elastic Constant Matrix: (Units=GPa)
#
#
# Indices 1 2 3 4 5 6 
#
# 1 108.2087 46.7443 35.9179 0.0000 0.0000 0.0000
# 2 46.7443 90.1260 24.6924 0.0000 0.0000 0.0000
# 3 35.9179 24.6924 67.3082 0.0000 0.0000 0.0000
# 4 0.0000 0.0000 0.0000 35.2114 0.0000 0.0000
# 5 0.0000 0.0000 0.0000 0.0000 40.1697 0.0000
# 6 0.0000 0.0000 0.0000 0.0000 0.0000 24.6692
#
#
#
# Elastic Compliance Matrix: (Units=1/GPa)
#
#
# Indices 1 2 3 4 5 6 
#
# 1 0.013308 -0.005510 -0.005080 0.000000 0.000000 0.000000
# 2 -0.005510 0.014617 -0.002422 0.000000 0.000000 0.000000
# 3 -0.005080 -0.002422 0.018456 0.000000 0.000000 0.000000
# 4 0.000000 0.000000 0.000000 0.028400 0.000000 0.000000
# 5 0.000000 0.000000 0.000000 0.000000 0.024894 0.000000
# 6 0.000000 0.000000 0.000000 0.000000 0.000000 0.040536
#
#
# Mechanical properties :
#
#
# Convention : Reuss Voigt Hill
#
# Bulk Modulus (GPa) = 49.12348 53.37245 51.24797
# Shear Modulus (GPa) = 28.89797 30.56262 29.73029
#
# Velocity S-wave (km/s) = 4.21516 4.33487 4.27543
# Velocity P-wave (km/s) = 7.34119 7.60725 7.47540
#
# Compressibility (1/GPa) = 0.02035686
#
# Stress axis : x y z
#
# Youngs Moduli (GPa) = 75.14243 68.41289 54.18180
#
# Poissons Ratio (x) = 0.37699 0.27525
# Poissons Ratio (y) = 0.41407 0.13122
# Poissons Ratio (z) = 0.38173 0.16568
#
# Static dielectric constant tensor:
#      x y z
#    x 2.991170 0.000000 0.000000 
#    y 0.000000 2.872940 0.000000 
#    z 0.000000 0.000000 2.986390 
# 
# 
# High freq. dielectric constant tensor:
#      x y z
#    x 1.611770 0.000000 0.000000 
#    y 0.000000 1.615260 0.000000 
#    z 0.000000 0.000000 1.618450 
# 
# From -- ./inp_files/11107.got.cif
#   From: 2010.03.12/outbox.cif.g09.slc.cpg/sg59_6_cif.got.tgz:11107.got - 2010.04.16 16:29:54.
