data_PCOD8239855
_publ_section_title
;
Structure prediction by ZEFSAII (Michael W. Deem and Ramdas Pophale) SiO2 
 PCOD8239855
Probable space group: P M M N
;
_chemical_formula_sum "Si O2"
_cell_formula_units_Z 56
_cell_length_a 21.908875
_cell_length_b 18.234277
_cell_length_c 8.651605
_cell_angle_alpha 90.000000
_cell_angle_beta 90.000000
_cell_angle_gamma 90.000000
_cell_volume 3456.251272
_symmetry_space_group_name_H-M "P M M N"
_symmetry_group_IT_number 59
_space_group.IT_coordinate_system_code '2'
_symmetry_cell_setting 'orthorhombic'
loop_
_space_group_symop_operation_xyz
x,y,z
1/2-x,1/2-y,z
1/2+x,-y,-z
-x,1/2+y,-z
-x,-y,-z
1/2+x,1/2+y,-z
1/2-x,y,z
x,1/2-y,z
loop_
_atom_site_type_symbol
_atom_site_label
_atom_site_fract_x
_atom_site_fract_y
_atom_site_fract_z
Si Si1 0.525123 0.666327 0.530428
Si Si2 0.599776 0.333235 0.650930
Si Si3 0.681668 0.013489 0.145509
Si Si4 0.000886 0.054373 0.213937
Si Si5 0.318433 0.939610 0.526689
Si Si6 0.403975 0.048927 0.636586
Si Si7 0.083540 0.937714 0.069616
O O1 0.545637 0.750000 0.556260
O O2 0.458512 0.661363 0.458096
O O3 0.524824 0.624742 0.693572
O O4 0.574655 0.628902 0.416402
O O5 0.618004 0.250000 0.685276
O O6 0.657091 0.369348 0.563870
O O7 0.585572 0.370174 0.814366
O O8 0.750000 0.986154 0.106660
O O9 0.682403 0.073643 0.286145
O O10 0.639074 0.945817 0.209102
O O11 0.652087 0.047818 0.992290
O O12 0.059597 0.010996 0.152172
O O13 0.962947 0.001066 0.326931
O O14 0.960285 0.083846 0.072396
O O15 0.250000 0.957783 0.467745
O O16 0.364446 0.009042 0.499295
#
# Coordination Sequence:
#
# PCOD8239855 Si02
#       7
#     8   8   8   8   8   8   8
#     4  11  20  31  50  76 109 137 159 202 263 314
#     4  11  21  31  46  74 109 139 167 207 255 301
#     4   8  17  33  54  74  93 124 172 214 249 295
#     4  10  18  31  51  73 101 136 168 205 251 302
#     4   9  18  34  54  71  91 131 178 216 246 289
#     4   9  15  31  54  74  94 123 171 217 242 290
#     4  10  19  30  50  74 101 137 168 209 251 297
#
# _framework density 16.202525999999999
#
# number of rings (size 3 to 8) (size 9 to 14) (size 15 to 20)
#    0.857    1.429    2.857    1.286    0.000    1.429 
#    0.000    0.714    0.000    2.571    0.000    0.000 
#    0.000    0.000    0.000    0.000    0.000    0.000 
#
# Total GULP energy -693918.533288 kJ/mol
# GULP energy per Si atom -12391.402380 kJ/mol
# Density = 1.616565 g / cm^3
# Si number density = 16.202526 Si / 1000 Ang^3
#
#
#
# Elastic Constant Matrix: (Units=GPa)
#
#
# Indices 1 2 3 4 5 6 
#
# 1 57.0471 25.7061 19.8060 0.0000 0.0000 0.0000
# 2 25.7061 93.9979 38.9969 0.0000 0.0000 0.0000
# 3 19.8060 38.9969 68.3770 0.0000 0.0000 0.0000
# 4 0.0000 0.0000 0.0000 16.6498 0.0000 0.0000
# 5 0.0000 0.0000 0.0000 0.0000 21.7828 0.0000
# 6 0.0000 0.0000 0.0000 0.0000 0.0000 10.1834
#
#
#
# Elastic Compliance Matrix: (Units=1/GPa)
#
#
# Indices 1 2 3 4 5 6 
#
# 1 0.020654 -0.004148 -0.003617 0.000000 0.000000 0.000000
# 2 -0.004148 0.014769 -0.007222 0.000000 0.000000 0.000000
# 3 -0.003617 -0.007222 0.019791 0.000000 0.000000 0.000000
# 4 0.000000 0.000000 0.000000 0.060061 0.000000 0.000000
# 5 0.000000 0.000000 0.000000 0.000000 0.045908 0.000000
# 6 0.000000 0.000000 0.000000 0.000000 0.000000 0.098199
#
#
# Mechanical properties :
#
#
# Convention : Reuss Voigt Hill
#
# Bulk Modulus (GPa) = 39.61757 43.16000 41.38878
# Shear Modulus (GPa) = 16.79158 18.71739 17.75449
#
# Velocity S-wave (km/s) = 3.22274 3.40253 3.31386
# Velocity P-wave (km/s) = 6.19295 6.49091 6.34368
#
# Compressibility (1/GPa) = 0.02524133
#
# Stress axis : x y z
#
# Youngs Moduli (GPa) = 48.41619 67.70997 50.52766
#
# Poissons Ratio (x) = 0.28085 0.18276
# Poissons Ratio (y) = 0.20082 0.36489
# Poissons Ratio (z) = 0.17513 0.48897
#
# Static dielectric constant tensor:
#      x y z
#    x 3.137310 0.000000 0.000000 
#    y 0.000000 2.825830 0.000000 
#    z 0.000000 0.000000 3.053140 
# 
# 
# High freq. dielectric constant tensor:
#      x y z
#    x 1.625040 0.000000 0.000000 
#    y 0.000000 1.582400 0.000000 
#    z 0.000000 0.000000 1.622740 
# 
# From -- ./inp_files/11557.got.cif
#   From: 2010.03.12/outbox.cif.g09.slc.cpg/sg59_6_cif.got.tgz:11557.got - 2010.04.16 16:29:54.
