data_PCOD8239994
_publ_section_title
;
Structure prediction by ZEFSAII (Michael W. Deem and Ramdas Pophale) SiO2 
 PCOD8239994
Probable space group: P M M N
;
_chemical_formula_sum "Si O2"
_cell_formula_units_Z 64
_cell_length_a 9.194571
_cell_length_b 24.493839
_cell_length_c 14.772953
_cell_angle_alpha 90.000000
_cell_angle_beta 90.000000
_cell_angle_gamma 90.000000
_cell_volume 3327.021794
_symmetry_space_group_name_H-M "P M M N"
_symmetry_group_IT_number 59
_space_group.IT_coordinate_system_code '2'
_symmetry_cell_setting 'orthorhombic'
loop_
_space_group_symop_operation_xyz
x,y,z
1/2-x,1/2-y,z
1/2+x,-y,-z
-x,1/2+y,-z
-x,-y,-z
1/2+x,1/2+y,-z
1/2-x,y,z
x,1/2-y,z
loop_
_atom_site_type_symbol
_atom_site_label
_atom_site_fract_x
_atom_site_fract_y
_atom_site_fract_z
Si Si1 0.077838 0.109407 0.271813
Si Si2 0.923203 0.878914 0.217952
Si Si3 0.915342 0.186695 0.929430
Si Si4 0.905117 0.541519 0.449605
Si Si5 0.084148 0.813101 0.861650
Si Si6 0.409778 0.497597 0.751116
Si Si7 0.919958 0.849272 0.530720
Si Si8 0.917139 0.311146 0.626951
O O1 0.250000 0.104068 0.269902
O O2 0.025727 0.134361 0.368444
O O3 0.026251 0.150918 0.195720
O O4 0.016047 0.049291 0.249105
O O5 0.750000 0.874367 0.231884
O O6 0.968340 0.942900 0.198469
O O7 0.970894 0.847819 0.127784
O O8 0.999297 0.852383 0.305601
O O9 0.750000 0.173518 0.899122
O O10 0.949140 0.250000 0.914425
O O11 0.937022 0.171158 0.034050
O O12 0.750000 0.540037 0.500138
O O13 0.889216 0.526346 0.347421
O O14 0.963973 0.601794 0.463023
O O15 0.000000 0.500000 0.500000
O O16 0.250000 0.824733 0.831542
O O17 0.045326 0.750000 0.844882
O O18 0.250000 0.516042 0.787944
O O19 0.750000 0.832733 0.532495
O O20 0.013875 0.804839 0.475694
O O21 0.750000 0.330472 0.619149
O O22 0.925623 0.250000 0.668649
#
# Coordination Sequence:
#
# PCOD8239994 Si02
#       8
#     8   8   8   8   8   8   8   8
#     4  11  23  37  58  88 118 148 189 239 288 336
#     4  11  22  37  58  86 117 150 187 231 285 341
#     4   9  19  38  63  89 114 144 187 235 283 339
#     4  10  18  32  52  75 105 142 187 232 272 320
#     4   9  20  41  66  87 112 148 187 231 284 340
#     4  10  21  36  54  79 114 153 192 229 273 337
#     4  10  21  37  53  76 110 146 186 233 283 330
#     4  11  24  38  53  78 112 151 195 238 280 336
#
# _framework density 19.236424
#
# number of rings (size 3 to 8) (size 9 to 14) (size 15 to 20)
#    0.000    1.875    2.500    2.250    0.000    6.500 
#    0.000    4.375    0.000    0.000    0.000    0.000 
#    0.000    0.000    0.000    0.000    0.000    0.000 
#
# Total GULP energy -792940.775410 kJ/mol
# GULP energy per Si atom -12389.699616 kJ/mol
# Density = 1.919264 g / cm^3
# Si number density = 19.236424 Si / 1000 Ang^3
#
#
#
# Elastic Constant Matrix: (Units=GPa)
#
#
# Indices 1 2 3 4 5 6 
#
# 1 87.2245 46.5452 45.3311 0.0000 0.0000 0.0000
# 2 46.5452 91.9893 49.0378 0.0000 0.0000 0.0000
# 3 45.3311 49.0378 85.0674 0.0000 0.0000 0.0000
# 4 0.0000 0.0000 0.0000 31.3027 0.0000 0.0000
# 5 0.0000 0.0000 0.0000 0.0000 33.1586 0.0000
# 6 0.0000 0.0000 0.0000 0.0000 0.0000 33.8213
#
#
#
# Elastic Compliance Matrix: (Units=1/GPa)
#
#
# Indices 1 2 3 4 5 6 
#
# 1 0.017690 -0.005667 -0.006160 0.000000 0.000000 0.000000
# 2 -0.005667 0.017509 -0.007073 0.000000 0.000000 0.000000
# 3 -0.006160 -0.007073 0.019115 0.000000 0.000000 0.000000
# 4 0.000000 0.000000 0.000000 0.031946 0.000000 0.000000
# 5 0.000000 0.000000 0.000000 0.000000 0.030158 0.000000
# 6 0.000000 0.000000 0.000000 0.000000 0.000000 0.029567
#
#
# Mechanical properties :
#
#
# Convention : Reuss Voigt Hill
#
# Bulk Modulus (GPa) = 60.55552 60.67883 60.61717
# Shear Modulus (GPa) = 26.41434 27.88099 27.14766
#
# Velocity S-wave (km/s) = 3.70961 3.81121 3.76075
# Velocity P-wave (km/s) = 7.06373 7.13998 7.10196
#
# Compressibility (1/GPa) = 0.01651377
#
# Stress axis : x y z
#
# Youngs Moduli (GPa) = 56.52857 57.11364 52.31404
#
# Poissons Ratio (x) = 0.32368 0.32225
# Poissons Ratio (y) = 0.32036 0.37003
# Poissons Ratio (z) = 0.34821 0.40398
#
# Static dielectric constant tensor:
#      x y z
#    x 3.560590 0.000000 0.000000 
#    y 0.000000 3.698640 0.000000 
#    z 0.000000 0.000000 3.351240 
# 
# 
# High freq. dielectric constant tensor:
#      x y z
#    x 1.747460 0.000000 0.000000 
#    y 0.000000 1.754370 0.000000 
#    z 0.000000 0.000000 1.738410 
# 
# From -- ./inp_files/21596.got.cif
#   From: 2010.03.12/outbox.cif.g09.slc.cpg/sg59_11_cif.got.tgz:21596.got - 2010.04.16 16:29:54.
