data_PCOD8239232
_publ_section_title
;
Structure prediction by ZEFSAII (Michael W. Deem and Ramdas Pophale) SiO2 
 PCOD8239232
Probable space group: P M M N
;
_chemical_formula_sum "Si O2"
_cell_formula_units_Z 64
_cell_length_a 14.131414
_cell_length_b 19.160091
_cell_length_c 15.478420
_cell_angle_alpha 90.000000
_cell_angle_beta 90.000000
_cell_angle_gamma 90.000000
_cell_volume 4190.924279
_symmetry_space_group_name_H-M "P M M N"
_symmetry_group_IT_number 59
_space_group.IT_coordinate_system_code '2'
_symmetry_cell_setting 'orthorhombic'
loop_
_space_group_symop_operation_xyz
x,y,z
1/2-x,1/2-y,z
1/2+x,-y,-z
-x,1/2+y,-z
-x,-y,-z
1/2+x,1/2+y,-z
1/2-x,y,z
x,1/2-y,z
loop_
_atom_site_type_symbol
_atom_site_label
_atom_site_fract_x
_atom_site_fract_y
_atom_site_fract_z
Si Si1 0.507911 0.831922 0.701416
Si Si2 0.862985 0.828350 0.040158
Si Si3 0.357943 0.972068 0.522910
Si Si4 0.137369 0.083940 0.800840
Si Si5 0.642924 0.670049 0.360751
Si Si6 0.354151 0.332663 0.149405
Si Si7 0.460336 0.110184 0.482227
Si Si8 0.356589 0.553937 0.718808
O O1 0.485871 0.750000 0.709770
O O2 0.580866 0.859626 0.773188
O O3 0.550007 0.848697 0.607571
O O4 0.412659 0.874104 0.720282
O O5 0.750000 0.827199 0.041201
O O6 0.900401 0.750000 0.060815
O O7 0.903945 0.882946 0.110751
O O8 0.896696 0.853353 0.944791
O O9 0.250000 0.954293 0.493771
O O10 0.429520 0.909094 0.498733
O O11 0.362795 0.984299 0.625874
O O12 0.394467 0.041682 0.475971
O O13 0.250000 0.089140 0.801657
O O14 0.099396 0.128030 0.719651
O O15 0.105673 0.003071 0.788710
O O16 0.750000 0.645007 0.383572
O O17 0.643414 0.750000 0.332832
O O18 0.575763 0.660745 0.443116
O O19 0.250000 0.365959 0.162013
O O20 0.345691 0.250000 0.153178
O O21 0.250000 0.575483 0.740718
#
# Coordination Sequence:
#
# PCOD8239232 Si02
#       8
#     8   8   8   8   8   8   8   8
#     4  10  20  31  43  61  85 113 147 180 208 244
#     4   8  13  23  41  63  85 111 140 167 204 256
#     4   9  17  30  45  61  82 113 148 176 207 251
#     4   9  15  25  42  63  86 110 137 171 213 263
#     4  10  18  26  40  65  94 115 132 167 219 265
#     4   8  15  28  43  59  84 115 141 168 205 252
#     4  10  18  28  44  62  86 114 141 176 212 252
#     4   9  17  30  46  62  83 112 143 176 215 251
#
# _framework density 15.271093
#
# number of rings (size 3 to 8) (size 9 to 14) (size 15 to 20)
#    0.000    2.875    1.250    1.875    0.000    2.750 
#    0.000    1.875    0.000    1.125    0.000    0.000 
#    0.000    0.000    0.000    3.625    0.000    0.375 
#
# Total GULP energy -793219.551615 kJ/mol
# GULP energy per Si atom -12394.055494 kJ/mol
# Density = 1.523634 g / cm^3
# Si number density = 15.271093 Si / 1000 Ang^3
#
#
#
# Elastic Constant Matrix: (Units=GPa)
#
#
# Indices 1 2 3 4 5 6 
#
# 1 66.5128 28.4631 36.2222 0.0000 0.0000 0.0000
# 2 28.4631 71.5513 43.7203 0.0000 0.0000 0.0000
# 3 36.2222 43.7203 97.5719 0.0000 0.0000 0.0000
# 4 0.0000 0.0000 0.0000 18.0647 0.0000 0.0000
# 5 0.0000 0.0000 0.0000 0.0000 12.0266 0.0000
# 6 0.0000 0.0000 0.0000 0.0000 0.0000 16.4163
#
#
#
# Elastic Compliance Matrix: (Units=1/GPa)
#
#
# Indices 1 2 3 4 5 6 
#
# 1 0.019926 -0.004691 -0.005295 0.000000 0.000000 0.000000
# 2 -0.004691 0.020350 -0.007377 0.000000 0.000000 0.000000
# 3 -0.005295 -0.007377 0.015520 0.000000 0.000000 0.000000
# 4 0.000000 0.000000 0.000000 0.055357 0.000000 0.000000
# 5 0.000000 0.000000 0.000000 0.000000 0.083149 0.000000
# 6 0.000000 0.000000 0.000000 0.000000 0.000000 0.060915
#
#
# Mechanical properties :
#
#
# Convention : Reuss Voigt Hill
#
# Bulk Modulus (GPa) = 47.46214 50.27190 48.86702
# Shear Modulus (GPa) = 16.83699 17.78356 17.31028
#
# Velocity S-wave (km/s) = 3.32405 3.41621 3.37045
# Velocity P-wave (km/s) = 6.77345 6.96791 6.87137
#
# Compressibility (1/GPa) = 0.02106942
#
# Stress axis : x y z
#
# Youngs Moduli (GPa) = 50.18601 49.14123 64.43262
#
# Poissons Ratio (x) = 0.23052 0.34119
# Poissons Ratio (y) = 0.23542 0.47531
# Poissons Ratio (z) = 0.26575 0.36251
#
# Static dielectric constant tensor:
#      x y z
#    x 2.824120 0.000000 0.000000 
#    y 0.000000 2.814830 0.000000 
#    z 0.000000 0.000000 3.111090 
# 
# 
# High freq. dielectric constant tensor:
#      x y z
#    x 1.550800 0.000000 0.000000 
#    y 0.000000 1.574970 0.000000 
#    z 0.000000 0.000000 1.582390 
# 
# From -- ./inp_files/23490.got.cif
#   From: 2010.03.12/outbox.cif.g09.slc.cpg/sg59_12_cif.got.tgz:23490.got - 2010.04.16 16:29:54.
