data_PCOD8239104
_publ_section_title
;
Structure prediction by ZEFSAII (Michael W. Deem and Ramdas Pophale) SiO2 
 PCOD8239104
Probable space group: P M M N
;
_chemical_formula_sum "Si O2"
_cell_formula_units_Z 64
_cell_length_a 26.401801
_cell_length_b 8.846608
_cell_length_c 17.188748
_cell_angle_alpha 90.000000
_cell_angle_beta 90.000000
_cell_angle_gamma 90.000000
_cell_volume 4014.713715
_symmetry_space_group_name_H-M "P M M N"
_symmetry_group_IT_number 59
_space_group.IT_coordinate_system_code '2'
_symmetry_cell_setting 'orthorhombic'
loop_
_space_group_symop_operation_xyz
x,y,z
1/2-x,1/2-y,z
1/2+x,-y,-z
-x,1/2+y,-z
-x,-y,-z
1/2+x,1/2+y,-z
1/2-x,y,z
x,1/2-y,z
loop_
_atom_site_type_symbol
_atom_site_label
_atom_site_fract_x
_atom_site_fract_y
_atom_site_fract_z
Si Si1 0.037791 0.076580 0.903239
Si Si2 0.307561 0.926514 0.905544
Si Si3 0.371784 0.079042 0.782394
Si Si4 0.892903 0.071263 0.976088
Si Si5 0.052350 0.923648 0.486005
Si Si6 0.460930 0.928387 0.319083
Si Si7 0.062359 0.070902 0.162975
Si Si8 0.570229 0.427288 0.347452
O O1 0.024011 0.250000 0.923441
O O2 0.080220 0.068017 0.837872
O O3 0.990258 0.988952 0.870176
O O4 0.057246 0.991694 0.980252
O O5 0.250000 0.968710 0.926267
O O6 0.314907 0.750000 0.890214
O O7 0.323317 0.010331 0.826383
O O8 0.342126 0.978511 0.978333
O O9 0.359145 0.250000 0.759014
O O10 0.383196 0.985667 0.704193
O O11 0.897105 0.250000 0.968215
O O12 0.892240 0.995403 0.890610
O O13 0.039155 0.750000 0.483953
O O14 0.071031 0.967756 0.398733
O O15 0.086997 0.959895 0.561822
O O16 0.000000 0.000000 0.500000
O O17 0.463027 0.750000 0.301378
O O18 0.430536 0.011459 0.250660
O O19 0.518611 0.986678 0.325041
O O20 0.063915 0.250000 0.162006
O O21 0.561424 0.250000 0.332491
#
# Coordination Sequence:
#
# PCOD8239104 Si02
#       8
#     8   8   8   8   8   8   8   8
#     4  10  19  31  44  60  87 118 151 186 222 260
#     4   9  19  36  55  71  88 112 144 184 229 275
#     4  10  19  29  45  68  92 120 152 185 222 267
#     4  10  20  33  48  65  86 112 145 182 225 272
#     4   8  16  27  40  58  82 115 152 187 220 255
#     4  10  18  29  42  59  86 120 156 191 226 259
#     4  12  22  30  42  61  88 120 155 188 223 263
#     4  10  17  27  43  63  88 118 153 188 221 261
#
# _framework density 15.941361000000001
#
# number of rings (size 3 to 8) (size 9 to 14) (size 15 to 20)
#    0.000    2.125    1.250    3.375    0.000    2.750 
#    0.000    0.000    0.000    0.000    0.000    0.000 
#    0.000    1.000    0.000    8.000    0.000    3.625 
#
# Total GULP energy -793188.224811 kJ/mol
# GULP energy per Si atom -12393.566013 kJ/mol
# Density = 1.590508 g / cm^3
# Si number density = 15.941361 Si / 1000 Ang^3
#
#
#
# Elastic Constant Matrix: (Units=GPa)
#
#
# Indices 1 2 3 4 5 6 
#
# 1 44.1654 20.4466 31.8335 0.0000 0.0000 0.0000
# 2 20.4466 90.5496 54.8762 0.0000 0.0000 0.0000
# 3 31.8335 54.8762 138.0606 0.0000 0.0000 0.0000
# 4 0.0000 0.0000 0.0000 25.5235 0.0000 0.0000
# 5 0.0000 0.0000 0.0000 0.0000 13.1337 0.0000
# 6 0.0000 0.0000 0.0000 0.0000 0.0000 15.1808
#
#
#
# Elastic Compliance Matrix: (Units=1/GPa)
#
#
# Indices 1 2 3 4 5 6 
#
# 1 0.027823 -0.003155 -0.005161 0.000000 0.000000 0.000000
# 2 -0.003155 0.014906 -0.005197 0.000000 0.000000 0.000000
# 3 -0.005161 -0.005197 0.010499 0.000000 0.000000 0.000000
# 4 0.000000 0.000000 0.000000 0.039180 0.000000 0.000000
# 5 0.000000 0.000000 0.000000 0.000000 0.076140 0.000000
# 6 0.000000 0.000000 0.000000 0.000000 0.000000 0.065873
#
#
# Mechanical properties :
#
#
# Convention : Reuss Voigt Hill
#
# Bulk Modulus (GPa) = 38.16640 54.12090 46.14365
# Shear Modulus (GPa) = 18.50617 21.80889 20.15753
#
# Velocity S-wave (km/s) = 3.41088 3.70275 3.55981
# Velocity P-wave (km/s) = 6.28537 7.23217 6.77533
#
# Compressibility (1/GPa) = 0.02620106
#
# Stress axis : x y z
#
# Youngs Moduli (GPa) = 35.94178 67.08812 95.24591
#
# Poissons Ratio (x) = 0.21163 0.49160
# Poissons Ratio (y) = 0.11338 0.49503
# Poissons Ratio (z) = 0.18551 0.34868
#
# Static dielectric constant tensor:
#      x y z
#    x 2.645240 0.000000 0.000000 
#    y 0.000000 3.132980 0.000000 
#    z 0.000000 0.000000 3.783580 
# 
# 
# High freq. dielectric constant tensor:
#      x y z
#    x 1.545880 0.000000 0.000000 
#    y 0.000000 1.629860 0.000000 
#    z 0.000000 0.000000 1.627100 
# 
# From -- ./inp_files/25029.got.cif
#   From: 2010.03.12/outbox.cif.g09.slc.cpg/sg59_13_cif.got.tgz:25029.got - 2010.04.16 16:29:54.
