data_PCOD8239666
_publ_section_title
;
Structure prediction by ZEFSAII (Michael W. Deem and Ramdas Pophale) SiO2 
 PCOD8239666
Probable space group: P M M N
;
_chemical_formula_sum "Si O2"
_cell_formula_units_Z 48
_cell_length_a 23.744026
_cell_length_b 8.634084
_cell_length_c 12.913990
_cell_angle_alpha 90.000000
_cell_angle_beta 90.000000
_cell_angle_gamma 90.000000
_cell_volume 2647.470164
_symmetry_space_group_name_H-M "P M M N"
_symmetry_group_IT_number 59
_space_group.IT_coordinate_system_code '2'
_symmetry_cell_setting 'orthorhombic'
loop_
_space_group_symop_operation_xyz
x,y,z
1/2-x,1/2-y,z
1/2+x,-y,-z
-x,1/2+y,-z
-x,-y,-z
1/2+x,1/2+y,-z
1/2-x,y,z
x,1/2-y,z
loop_
_atom_site_type_symbol
_atom_site_label
_atom_site_fract_x
_atom_site_fract_y
_atom_site_fract_z
Si Si1 0.999748 0.433154 0.115039
Si Si2 0.687042 0.565643 0.000701
Si Si3 0.113364 0.434214 0.807123
Si Si4 0.618849 0.934245 0.804803
Si Si5 0.813091 0.565875 0.381825
Si Si6 0.686711 0.565764 0.611648
O O1 0.998879 0.250000 0.104874
O O2 0.947828 0.491309 0.183139
O O3 0.055199 0.490931 0.176375
O O4 0.000000 0.500000 0.000000
O O5 0.750000 0.497785 0.007740
O O6 0.688652 0.750000 0.000163
O O7 0.651702 0.506367 0.098569
O O8 0.657919 0.501378 0.897086
O O9 0.107203 0.250000 0.808130
O O10 0.142087 0.496797 0.701598
O O11 0.621420 0.750000 0.804102
O O12 0.642898 0.001446 0.696268
O O13 0.750000 0.505375 0.355544
O O14 0.812251 0.750000 0.377483
O O15 0.831050 0.508454 0.496701
O O16 0.750000 0.507892 0.637631
O O17 0.686001 0.750000 0.614632
#
# Coordination Sequence:
#
# PCOD8239666 Si02
#       6
#     8   8   8   8   8   8
#     4  11  21  34  49  67  93 128 164 196 235 282
#     4   9  15  23  40  66  91 115 148 191 233 274
#     4  10  18  30  47  70  97 124 156 190 230 278
#     4   9  16  26  41  64  92 121 155 193 234 278
#     4   8  14  25  44  70  97 124 153 190 236 280
#     4   8  13  23  41  67  97 122 147 189 242 282
#
# _framework density 18.130516
#
# number of rings (size 3 to 8) (size 9 to 14) (size 15 to 20)
#    0.000    2.833    1.667    2.500    0.000    4.000 
#    0.000    0.833    0.000    2.000    0.000    1.167 
#    0.000    2.667    0.000    0.000    0.000    0.000 
#
# Total GULP energy -594956.278741 kJ/mol
# GULP energy per Si atom -12394.922474 kJ/mol
# Density = 1.808925 g / cm^3
# Si number density = 18.130516 Si / 1000 Ang^3
#
#
#
# Elastic Constant Matrix: (Units=GPa)
#
#
# Indices 1 2 3 4 5 6 
#
# 1 174.3375 15.6184 104.2766 0.0000 0.0000 0.0000
# 2 15.6184 15.6338 13.0551 0.0000 0.0000 0.0000
# 3 104.2766 13.0551 173.9044 0.0000 0.0000 0.0000
# 4 0.0000 0.0000 0.0000 7.5223 0.0000 0.0000
# 5 0.0000 0.0000 0.0000 0.0000 34.5889 0.0000
# 6 0.0000 0.0000 0.0000 0.0000 0.0000 21.8269
#
#
#
# Elastic Compliance Matrix: (Units=1/GPa)
#
#
# Indices 1 2 3 4 5 6 
#
# 1 0.009288 -0.004938 -0.005198 0.000000 0.000000 0.000000
# 2 -0.004938 0.070867 -0.002359 0.000000 0.000000 0.000000
# 3 -0.005198 -0.002359 0.009044 0.000000 0.000000 0.000000
# 4 0.000000 0.000000 0.000000 0.132938 0.000000 0.000000
# 5 0.000000 0.000000 0.000000 0.000000 0.028911 0.000000
# 6 0.000000 0.000000 0.000000 0.000000 0.000000 0.045815
#
#
# Mechanical properties :
#
#
# Convention : Reuss Voigt Hill
#
# Bulk Modulus (GPa) = 15.57430 69.97511 42.77470
# Shear Modulus (GPa) = 14.56637 28.18267 21.37452
#
# Velocity S-wave (km/s) = 2.83754 3.94691 3.43727
# Velocity P-wave (km/s) = 4.39821 7.71037 6.27670
#
# Compressibility (1/GPa) = 0.06420834
#
# Stress axis : x y z
#
# Youngs Moduli (GPa) = 107.66966 14.11097 110.56468
#
# Poissons Ratio (x) = 0.06967 0.57476
# Poissons Ratio (y) = 0.53162 0.26087
# Poissons Ratio (z) = 0.55971 0.03329
#
# Static dielectric constant tensor:
#      x y z
#    x 3.602170 0.000000 0.000000 
#    y 0.000000 2.699570 0.000000 
#    z 0.000000 0.000000 3.703700 
# 
# 
# High freq. dielectric constant tensor:
#      x y z
#    x 1.707720 0.000000 0.000000 
#    y 0.000000 1.634760 0.000000 
#    z 0.000000 0.000000 1.710230 
# 
# From -- ./inp_files/16116.got.cif
#   From: 2010.03.12/outbox.cif.g09.slc.cpg/sg59_9_cif.got.tgz:16116.got - 2010.04.16 16:29:54.
