data_PCOD8239291
_publ_section_title
;
Structure prediction by ZEFSAII (Michael W. Deem and Ramdas Pophale) SiO2 
 PCOD8239291
Probable space group: P M M N
;
_chemical_formula_sum "Si O2"
_cell_formula_units_Z 64
_cell_length_a 28.408168
_cell_length_b 9.583667
_cell_length_c 15.757516
_cell_angle_alpha 90.000000
_cell_angle_beta 90.000000
_cell_angle_gamma 90.000000
_cell_volume 4290.053414
_symmetry_space_group_name_H-M "P M M N"
_symmetry_group_IT_number 59
_space_group.IT_coordinate_system_code '2'
_symmetry_cell_setting 'orthorhombic'
loop_
_space_group_symop_operation_xyz
x,y,z
1/2-x,1/2-y,z
1/2+x,-y,-z
-x,1/2+y,-z
-x,-y,-z
1/2+x,1/2+y,-z
1/2-x,y,z
x,1/2-y,z
loop_
_atom_site_type_symbol
_atom_site_label
_atom_site_fract_x
_atom_site_fract_y
_atom_site_fract_z
Si Si1 0.194864 0.589574 0.512322
Si Si2 0.803512 0.915746 0.172510
Si Si3 0.648230 0.586665 0.340620
Si Si4 0.302408 0.084642 0.009541
Si Si5 0.805607 0.912413 0.806931
Si Si6 0.448242 0.909981 0.416981
Si Si7 0.646458 0.410876 0.662668
Si Si8 0.052787 0.089906 0.580534
O O1 0.250000 0.566658 0.500969
O O2 0.182485 0.750000 0.533385
O O3 0.176732 0.493226 0.587538
O O4 0.170423 0.542455 0.425119
O O5 0.750000 0.971327 0.183848
O O6 0.802906 0.750000 0.175103
O O7 0.835828 0.972779 0.248909
O O8 0.825676 0.964297 0.080474
O O9 0.660192 0.750000 0.350125
O O10 0.592153 0.559103 0.348265
O O11 0.250000 0.023500 0.007011
O O12 0.299958 0.250000 0.012211
O O13 0.325174 0.037724 0.099545
O O14 0.750000 0.942514 0.799481
O O15 0.815956 0.750000 0.791551
O O16 0.834082 0.998352 0.738580
O O17 0.445101 0.750000 0.446690
O O18 0.409829 0.938199 0.343782
O O19 0.500759 0.946586 0.382851
O O20 0.435165 0.999773 0.498628
O O21 0.657965 0.250000 0.682066
O O22 0.054943 0.250000 0.551308
#
# Coordination Sequence:
#
# PCOD8239291 Si02
#       8
#     8   8   8   8   8   8   8   8
#     4  10  20  31  40  53  80 117 148 167 190 235
#     4   8  13  22  38  60  85 110 133 159 197 246
#     4  10  18  27  42  65  87 106 134 172 209 243
#     4   7  11  22  39  58  80 105 132 163 201 243
#     4   9  17  28  43  63  84 105 133 172 211 241
#     4   9  17  30  45  58  77 108 141 171 206 245
#     4  10  19  30  43  58  79 111 146 171 197 243
#     4   9  17  28  43  63  83 102 132 177 215 239
#
# _framework density 14.918229999999999
#
# number of rings (size 3 to 8) (size 9 to 14) (size 15 to 20)
#    0.000    3.000    1.250    2.250    0.000    2.500 
#    0.000    0.000    0.000    0.750    0.000    2.625 
#    0.000    0.000    0.000    0.000    0.000    0.000 
#
# Total GULP energy -792860.292521 kJ/mol
# GULP energy per Si atom -12388.442071 kJ/mol
# Density = 1.488428 g / cm^3
# Si number density = 14.918230 Si / 1000 Ang^3
#
#
#
# Elastic Constant Matrix: (Units=GPa)
#
#
# Indices 1 2 3 4 5 6 
#
# 1 80.7777 28.7794 60.6049 0.0000 0.0000 0.0000
# 2 28.7794 34.4374 43.9899 0.0000 0.0000 0.0000
# 3 60.6049 43.9899 144.8420 0.0000 0.0000 0.0000
# 4 0.0000 0.0000 0.0000 7.8976 0.0000 0.0000
# 5 0.0000 0.0000 0.0000 0.0000 9.1925 0.0000
# 6 0.0000 0.0000 0.0000 0.0000 0.0000 17.6999
#
#
#
# Elastic Compliance Matrix: (Units=1/GPa)
#
#
# Indices 1 2 3 4 5 6 
#
# 1 0.019875 -0.009781 -0.005345 0.000000 0.000000 0.000000
# 2 -0.009781 0.052258 -0.011779 0.000000 0.000000 0.000000
# 3 -0.005345 -0.011779 0.012718 0.000000 0.000000 0.000000
# 4 0.000000 0.000000 0.000000 0.126620 0.000000 0.000000
# 5 0.000000 0.000000 0.000000 0.000000 0.108785 0.000000
# 6 0.000000 0.000000 0.000000 0.000000 0.000000 0.056497
#
#
# Mechanical properties :
#
#
# Convention : Reuss Voigt Hill
#
# Bulk Modulus (GPa) = 32.21597 58.53395 45.37496
# Shear Modulus (GPa) = 11.34014 15.40353 13.37184
#
# Velocity S-wave (km/s) = 2.76008 3.21679 2.99715
# Velocity P-wave (km/s) = 5.63909 7.28826 6.51606
#
# Compressibility (1/GPa) = 0.03104050
#
# Stress axis : x y z
#
# Youngs Moduli (GPa) = 50.31425 19.13568 78.62871
#
# Poissons Ratio (x) = 0.18717 0.42031
# Poissons Ratio (y) = 0.49214 0.92614
# Poissons Ratio (z) = 0.26895 0.22539
#
# Static dielectric constant tensor:
#      x y z
#    x 2.999160 0.000000 0.000000 
#    y 0.000000 2.705410 0.000000 
#    z 0.000000 0.000000 3.123150 
# 
# 
# High freq. dielectric constant tensor:
#      x y z
#    x 1.556930 0.000000 0.000000 
#    y 0.000000 1.550140 0.000000 
#    z 0.000000 0.000000 1.563990 
# 
# From -- ./inp_files/25033.got.cif
#   From: 2010.03.12/outbox.cif.g09.slc.cpg/sg59_13_cif.got.tgz:25033.got - 2010.04.16 16:29:54.
