data_PCOD8239702
_publ_section_title
;
Structure prediction by ZEFSAII (Michael W. Deem and Ramdas Pophale) SiO2 
 PCOD8239702
Probable space group: P M M N
;
_chemical_formula_sum "Si O2"
_cell_formula_units_Z 40
_cell_length_a 8.695508
_cell_length_b 14.631987
_cell_length_c 16.250198
_cell_angle_alpha 90.000000
_cell_angle_beta 90.000000
_cell_angle_gamma 90.000000
_cell_volume 2067.554292
_symmetry_space_group_name_H-M "P M M N"
_symmetry_group_IT_number 59
_space_group.IT_coordinate_system_code '2'
_symmetry_cell_setting 'orthorhombic'
loop_
_space_group_symop_operation_xyz
x,y,z
1/2-x,1/2-y,z
1/2+x,-y,-z
-x,1/2+y,-z
-x,-y,-z
1/2+x,1/2+y,-z
1/2-x,y,z
x,1/2-y,z
loop_
_atom_site_type_symbol
_atom_site_label
_atom_site_fract_x
_atom_site_fract_y
_atom_site_fract_z
Si Si1 0.430744 0.980631 0.307347
Si Si2 0.423803 0.849409 0.611958
Si Si3 0.068069 0.522803 0.120915
Si Si4 0.431976 0.353754 0.013561
Si Si5 0.432147 0.408460 0.539248
O O1 0.250000 0.966690 0.314661
O O2 0.471980 0.083334 0.334566
O O3 0.489188 0.967647 0.214464
O O4 0.513504 0.905033 0.365508
O O5 0.250000 0.888965 0.606915
O O6 0.424790 0.750000 0.654920
O O7 0.491968 0.832708 0.519606
O O8 0.250000 0.530142 0.114216
O O9 0.995768 0.607796 0.072386
O O10 0.013224 0.423886 0.085342
O O11 0.250000 0.351700 0.008016
O O12 0.493968 0.250000 0.029555
O O13 0.500000 0.500000 0.500000
O O14 0.250000 0.401963 0.534706
#
# Coordination Sequence:
#
# PCOD8239702 Si02
#       5
#     8   8   8   8   8
#     4  10  19  32  51  73  99 131 166 204 248 299
#     4  10  20  33  49  71 100 131 165 207 252 297
#     4   9  19  34  53  78 105 135 171 210 255 308
#     4   9  18  34  55  77 103 135 170 210 256 306
#     4  10  18  30  49  69  93 126 162 198 238 287
#
# _framework density 19.346527999999999
#
# number of rings (size 3 to 8) (size 9 to 14) (size 15 to 20)
#    0.000    2.400    0.000    5.400    0.000    4.400 
#    0.000    3.000    0.000    1.200    0.000    0.000 
#    0.000    0.000    0.000    0.000    0.000    0.000 
#
# Total GULP energy -495672.745323 kJ/mol
# GULP energy per Si atom -12391.818633 kJ/mol
# Density = 1.930249 g / cm^3
# Si number density = 19.346528 Si / 1000 Ang^3
#
#
#
# Elastic Constant Matrix: (Units=GPa)
#
#
# Indices 1 2 3 4 5 6 
#
# 1 60.2713 2.8680 23.2153 0.0000 0.0000 0.0000
# 2 2.8680 60.9380 2.9694 0.0000 0.0000 0.0000
# 3 23.2153 2.9694 112.8932 0.0000 0.0000 0.0000
# 4 0.0000 0.0000 0.0000 15.4534 0.0000 0.0000
# 5 0.0000 0.0000 0.0000 0.0000 29.1449 0.0000
# 6 0.0000 0.0000 0.0000 0.0000 0.0000 23.3702
#
#
#
# Elastic Compliance Matrix: (Units=1/GPa)
#
#
# Indices 1 2 3 4 5 6 
#
# 1 0.018046 -0.000669 -0.003693 0.000000 0.000000 0.000000
# 2 -0.000669 0.016456 -0.000295 0.000000 0.000000 0.000000
# 3 -0.003693 -0.000295 0.009625 0.000000 0.000000 0.000000
# 4 0.000000 0.000000 0.000000 0.064711 0.000000 0.000000
# 5 0.000000 0.000000 0.000000 0.000000 0.034311 0.000000
# 6 0.000000 0.000000 0.000000 0.000000 0.000000 0.042790
#
#
# Mechanical properties :
#
#
# Convention : Reuss Voigt Hill
#
# Bulk Modulus (GPa) = 28.72617 32.46754 30.59685
# Shear Modulus (GPa) = 24.17110 27.26369 25.71740
#
# Velocity S-wave (km/s) = 3.53849 3.75804 3.64992
# Velocity P-wave (km/s) = 5.61916 5.97068 5.79759
#
# Compressibility (1/GPa) = 0.03481146
#
# Stress axis : x y z
#
# Youngs Moduli (GPa) = 55.41361 60.76809 103.89391
#
# Poissons Ratio (x) = 0.04067 0.38372
# Poissons Ratio (y) = 0.03709 0.03067
# Poissons Ratio (z) = 0.20466 0.01794
#
# Static dielectric constant tensor:
#      x y z
#    x 3.481500 0.000000 0.000000 
#    y 0.000000 3.705110 0.000000 
#    z 0.000000 0.000000 3.627690 
# 
# 
# High freq. dielectric constant tensor:
#      x y z
#    x 1.754900 0.000000 0.000000 
#    y 0.000000 1.739370 0.000000 
#    z 0.000000 0.000000 1.747770 
# 
# From -- ./inp_files/25318.got.cif
#   From: 2010.03.12/outbox.cif.g09.slc.cpg/sg59_13_cif.got.tgz:25318.got - 2010.04.16 16:29:54.
