data_PCOD8239529
_publ_section_title
;
Structure prediction by ZEFSAII (Michael W. Deem and Ramdas Pophale) SiO2 
 PCOD8239529
Probable space group: P M M N
;
_chemical_formula_sum "Si O2"
_cell_formula_units_Z 48
_cell_length_a 9.185056
_cell_length_b 19.984001
_cell_length_c 15.153800
_cell_angle_alpha 90.000000
_cell_angle_beta 90.000000
_cell_angle_gamma 90.000000
_cell_volume 2781.543155
_symmetry_space_group_name_H-M "P M M N"
_symmetry_group_IT_number 59
_space_group.IT_coordinate_system_code '2'
_symmetry_cell_setting 'orthorhombic'
loop_
_space_group_symop_operation_xyz
x,y,z
1/2-x,1/2-y,z
1/2+x,-y,-z
-x,1/2+y,-z
-x,-y,-z
1/2+x,1/2+y,-z
1/2-x,y,z
x,1/2-y,z
loop_
_atom_site_type_symbol
_atom_site_label
_atom_site_fract_x
_atom_site_fract_y
_atom_site_fract_z
Si Si1 0.417958 0.453333 0.732419
Si Si2 0.080472 0.064222 0.535972
Si Si3 0.420060 0.607584 0.759826
Si Si4 0.414169 0.930731 0.099204
Si Si5 0.417304 0.326569 0.396337
Si Si6 0.085213 0.088424 0.068235
O O1 0.250000 0.441386 0.756831
O O2 0.460764 0.422218 0.637945
O O3 0.452372 0.532213 0.728777
O O4 0.513514 0.415937 0.806079
O O5 0.250000 0.048081 0.528325
O O6 0.035024 0.129276 0.480336
O O7 0.000000 0.000000 0.500000
O O8 0.250000 0.621085 0.772740
O O9 0.482127 0.657455 0.686825
O O10 0.499643 0.623595 0.851955
O O11 0.250000 0.902901 0.099332
O O12 0.416281 0.009300 0.081316
O O13 0.504929 0.892984 0.023138
O O14 0.250000 0.341338 0.370396
O O15 0.440306 0.250000 0.424138
O O16 0.250000 0.115781 0.064996
#
# Coordination Sequence:
#
# PCOD8239529 Si02
#       6
#     8   8   8   8   8   8
#     4   9  17  28  43  66  94 124 158 199 247 294
#     4  10  19  32  50  71  96 127 166 208 251 298
#     4  10  18  29  46  68  94 125 161 200 243 293
#     4   9  16  25  39  63  93 124 156 193 237 285
#     4  10  21  35  50  70  98 131 166 205 249 299
#     4   9  16  26  41  62  92 127 157 190 236 286
#
# _framework density 17.256608
#
# number of rings (size 3 to 8) (size 9 to 14) (size 15 to 20)
#    0.000    2.500    1.667    1.500    0.000    5.667 
#    0.000    0.000    0.000    0.000    0.000    1.167 
#    0.000    6.667    0.000    0.000    0.000    0.000 
#
# Total GULP energy -595235.310326 kJ/mol
# GULP energy per Si atom -12400.735632 kJ/mol
# Density = 1.721733 g / cm^3
# Si number density = 17.256608 Si / 1000 Ang^3
#
#
#
# Elastic Constant Matrix: (Units=GPa)
#
#
# Indices 1 2 3 4 5 6 
#
# 1 111.3977 34.3436 79.2855 0.0000 0.0000 0.0000
# 2 34.3436 51.8739 47.7642 0.0000 0.0000 0.0000
# 3 79.2855 47.7642 164.0920 0.0000 0.0000 0.0000
# 4 0.0000 0.0000 0.0000 15.5961 0.0000 0.0000
# 5 0.0000 0.0000 0.0000 0.0000 33.0786 0.0000
# 6 0.0000 0.0000 0.0000 0.0000 0.0000 14.3157
#
#
#
# Elastic Compliance Matrix: (Units=1/GPa)
#
#
# Indices 1 2 3 4 5 6 
#
# 1 0.014338 -0.004254 -0.005689 0.000000 0.000000 0.000000
# 2 -0.004254 0.027598 -0.005978 0.000000 0.000000 0.000000
# 3 -0.005689 -0.005978 0.010583 0.000000 0.000000 0.000000
# 4 0.000000 0.000000 0.000000 0.064119 0.000000 0.000000
# 5 0.000000 0.000000 0.000000 0.000000 0.030231 0.000000
# 6 0.000000 0.000000 0.000000 0.000000 0.000000 0.069854
#
#
# Mechanical properties :
#
#
# Convention : Reuss Voigt Hill
#
# Bulk Modulus (GPa) = 48.36360 72.23892 60.30126
# Shear Modulus (GPa) = 19.57280 23.66277 21.61778
#
# Velocity S-wave (km/s) = 3.37147 3.70703 3.54323
# Velocity P-wave (km/s) = 6.57592 7.76371 7.19437
#
# Compressibility (1/GPa) = 0.02067671
#
# Stress axis : x y z
#
# Youngs Moduli (GPa) = 69.74669 36.23435 94.48888
#
# Poissons Ratio (x) = 0.15413 0.53759
# Poissons Ratio (y) = 0.29668 0.56486
# Poissons Ratio (z) = 0.39682 0.21661
#
# Static dielectric constant tensor:
#      x y z
#    x 3.335640 0.000000 0.000000 
#    y 0.000000 2.709580 0.000000 
#    z 0.000000 0.000000 3.440570 
# 
# 
# High freq. dielectric constant tensor:
#      x y z
#    x 1.675830 0.000000 0.000000 
#    y 0.000000 1.600290 0.000000 
#    z 0.000000 0.000000 1.681070 
# 
# From -- ./inp_files/20734.got.cif
#   From: 2010.03.12/outbox.cif.g09.slc.cpg/sg59_11_cif.got.tgz:20734.got - 2010.04.16 16:29:54.
