data_PCOD8239454
_publ_section_title
;
Structure prediction by ZEFSAII (Michael W. Deem and Ramdas Pophale) SiO2 
 PCOD8239454
Probable space group: P M M N
;
_chemical_formula_sum "Si O2"
_cell_formula_units_Z 48
_cell_length_a 9.501099
_cell_length_b 13.785983
_cell_length_c 20.840793
_cell_angle_alpha 90.000000
_cell_angle_beta 90.000000
_cell_angle_gamma 90.000000
_cell_volume 2729.768526
_symmetry_space_group_name_H-M "P M M N"
_symmetry_group_IT_number 59
_space_group.IT_coordinate_system_code '2'
_symmetry_cell_setting 'orthorhombic'
loop_
_space_group_symop_operation_xyz
x,y,z
1/2-x,1/2-y,z
1/2+x,-y,-z
-x,1/2+y,-z
-x,-y,-z
1/2+x,1/2+y,-z
1/2-x,y,z
x,1/2-y,z
loop_
_atom_site_type_symbol
_atom_site_label
_atom_site_fract_x
_atom_site_fract_y
_atom_site_fract_z
Si Si1 0.086572 0.638176 0.463950
Si Si2 0.086014 0.527577 0.593706
Si Si3 0.916695 0.023967 0.157474
Si Si4 0.417128 0.640981 0.718289
Si Si5 0.588124 0.136779 0.893258
Si Si6 0.417064 0.643164 0.963701
O O1 0.250000 0.626803 0.446432
O O2 0.038498 0.750000 0.458567
O O3 0.056644 0.601762 0.535868
O O4 0.997336 0.573254 0.414569
O O5 0.250000 0.501399 0.599208
O O6 0.028406 0.580268 0.657333
O O7 0.750000 0.008843 0.158822
O O8 0.992730 0.919701 0.158561
O O9 0.968373 0.087490 0.217445
O O10 0.972727 0.074144 0.092379
O O11 0.250000 0.647315 0.716423
O O12 0.480119 0.750000 0.716847
O O13 0.750000 0.107392 0.883343
O O14 0.566295 0.250000 0.880837
O O15 0.536568 0.108538 0.965369
O O16 0.250000 0.648861 0.961346
O O17 0.479412 0.750000 0.950497
#
# Coordination Sequence:
#
# PCOD8239454 Si02
#       6
#     8   8   8   8   8   8
#     4   9  17  30  49  72  97 124 154 189 228 268
#     4   9  17  30  49  72  96 123 155 189 225 267
#     4  10  18  28  47  72  92 113 147 191 230 264
#     4   9  17  30  49  72  96 121 149 182 225 277
#     4   9  18  32  47  62  86 122 156 185 225 275
#     4   8  14  26  45  68  91 115 146 184 227 275
#
# _framework density 17.583907
#
# number of rings (size 3 to 8) (size 9 to 14) (size 15 to 20)
#    0.000    3.000    0.000    2.500    0.000    4.667 
#    0.000    1.667    0.000   10.500    0.000    0.000 
#    0.000    0.000    0.000    0.000    0.000    0.000 
#
# Total GULP energy -595049.713108 kJ/mol
# GULP energy per Si atom -12396.869023 kJ/mol
# Density = 1.754389 g / cm^3
# Si number density = 17.583907 Si / 1000 Ang^3
#
#
#
# Elastic Constant Matrix: (Units=GPa)
#
#
# Indices 1 2 3 4 5 6 
#
# 1 37.2521 50.1193 34.8694 0.0000 0.0000 0.0000
# 2 50.1193 143.1615 79.3143 0.0000 0.0000 0.0000
# 3 34.8694 79.3143 98.4394 0.0000 0.0000 0.0000
# 4 0.0000 0.0000 0.0000 28.9620 0.0000 0.0000
# 5 0.0000 0.0000 0.0000 0.0000 19.1876 0.0000
# 6 0.0000 0.0000 0.0000 0.0000 0.0000 29.3703
#
#
#
# Elastic Compliance Matrix: (Units=1/GPa)
#
#
# Indices 1 2 3 4 5 6 
#
# 1 0.053247 -0.014797 -0.006939 0.000000 0.000000 0.000000
# 2 -0.014797 0.016729 -0.008238 0.000000 0.000000 0.000000
# 3 -0.006939 -0.008238 0.019254 0.000000 0.000000 0.000000
# 4 0.000000 0.000000 0.000000 0.034528 0.000000 0.000000
# 5 0.000000 0.000000 0.000000 0.000000 0.052117 0.000000
# 6 0.000000 0.000000 0.000000 0.000000 0.000000 0.034048
#
#
# Mechanical properties :
#
#
# Convention : Reuss Voigt Hill
#
# Bulk Modulus (GPa) = 34.14972 67.49541 50.82257
# Shear Modulus (GPa) = 17.88066 23.14064 20.51065
#
# Velocity S-wave (km/s) = 3.19231 3.63162 3.41903
# Velocity P-wave (km/s) = 5.74900 7.48686 6.67473
#
# Compressibility (1/GPa) = 0.02928282
#
# Stress axis : x y z
#
# Youngs Moduli (GPa) = 18.78026 59.77613 51.93796
#
# Poissons Ratio (x) = 0.88450 0.36042
# Poissons Ratio (y) = 0.27789 0.42784
# Poissons Ratio (z) = 0.13032 0.49241
#
# Static dielectric constant tensor:
#      x y z
#    x 2.868120 0.000000 0.000000 
#    y 0.000000 3.374160 0.000000 
#    z 0.000000 0.000000 3.290920 
# 
# 
# High freq. dielectric constant tensor:
#      x y z
#    x 1.640170 0.000000 0.000000 
#    y 0.000000 1.688990 0.000000 
#    z 0.000000 0.000000 1.670690 
# 
# From -- ./inp_files/26915.got.cif
#   From: 2010.03.12/outbox.cif.g09.slc.cpg/sg59_14_cif.got.tgz:26915.got - 2010.04.16 16:29:54.
