data_PCOD8239894
_publ_section_title
;
Structure prediction by ZEFSAII (Michael W. Deem and Ramdas Pophale) SiO2 
 PCOD8239894
Probable space group: P M M N
;
_chemical_formula_sum "Si O2"
_cell_formula_units_Z 56
_cell_length_a 9.087247
_cell_length_b 16.135906
_cell_length_c 19.602086
_cell_angle_alpha 90.000000
_cell_angle_beta 90.000000
_cell_angle_gamma 90.000000
_cell_volume 2874.272755
_symmetry_space_group_name_H-M "P M M N"
_symmetry_group_IT_number 59
_space_group.IT_coordinate_system_code '2'
_symmetry_cell_setting 'orthorhombic'
loop_
_space_group_symop_operation_xyz
x,y,z
1/2-x,1/2-y,z
1/2+x,-y,-z
-x,1/2+y,-z
-x,-y,-z
1/2+x,1/2+y,-z
1/2-x,y,z
x,1/2-y,z
loop_
_atom_site_type_symbol
_atom_site_label
_atom_site_fract_x
_atom_site_fract_y
_atom_site_fract_z
Si Si1 0.075542 0.087926 0.715691
Si Si2 0.424584 0.157246 0.574951
Si Si3 0.920676 0.840425 0.846490
Si Si4 0.075312 0.342979 0.426751
Si Si5 0.419958 0.842574 0.161552
Si Si6 0.920709 0.923217 0.709600
Si Si7 0.574767 0.000497 0.927324
O O1 0.250000 0.090328 0.719103
O O2 0.015412 0.104935 0.638803
O O3 0.012414 0.154830 0.768461
O O4 0.014097 0.999446 0.737871
O O5 0.250000 0.160586 0.578083
O O6 0.487707 0.250000 0.581263
O O7 0.472871 0.119587 0.500868
O O8 0.750000 0.837737 0.864451
O O9 0.990595 0.750000 0.866500
O O10 0.942607 0.851020 0.765122
O O11 0.987112 0.919023 0.887447
O O12 0.250000 0.340424 0.420134
O O13 0.012986 0.250000 0.420851
O O14 0.012761 0.396175 0.363782
O O15 0.250000 0.858058 0.179740
O O16 0.442844 0.750000 0.129859
O O17 0.474854 0.914327 0.110060
O O18 0.750000 0.949199 0.704474
O O19 0.750000 0.998049 0.934707
O O20 0.500000 0.000000 0.000000
#
# Coordination Sequence:
#
# PCOD8239894 Si02
#       7
#     8   8   8   8   8   8   8
#     4  11  21  32  50  76 109 146 184 224 270 321
#     4   8  15  28  44  67 101 136 174 224 276 320
#     4   9  17  32  56  82 107 137 176 221 265 308
#     4   8  14  26  47  73  98 131 179 229 273 322
#     4  10  21  39  61  83 110 145 183 224 269 315
#     4  10  18  31  52  77 104 135 178 228 274 320
#     4  10  21  38  58  84 115 143 173 213 263 319
#
# _framework density 19.483188999999999
#
# number of rings (size 3 to 8) (size 9 to 14) (size 15 to 20)
#    0.000    2.571    1.429    2.143    0.000    4.286 
#    0.000    0.000    0.000    3.429    0.000    4.000 
#    0.000    0.000    0.000    0.000    0.000    0.000 
#
# Total GULP energy -693920.568900 kJ/mol
# GULP energy per Si atom -12391.438730 kJ/mol
# Density = 1.943884 g / cm^3
# Si number density = 19.483189 Si / 1000 Ang^3
#
#
#
# Elastic Constant Matrix: (Units=GPa)
#
#
# Indices 1 2 3 4 5 6 
#
# 1 28.2918 21.5379 28.0599 0.0000 0.0000 0.0000
# 2 21.5379 138.3160 63.9828 0.0000 0.0000 0.0000
# 3 28.0599 63.9828 140.7605 0.0000 0.0000 0.0000
# 4 0.0000 0.0000 0.0000 28.9590 0.0000 0.0000
# 5 0.0000 0.0000 0.0000 0.0000 24.8597 0.0000
# 6 0.0000 0.0000 0.0000 0.0000 0.0000 10.5581
#
#
#
# Elastic Compliance Matrix: (Units=1/GPa)
#
#
# Indices 1 2 3 4 5 6 
#
# 1 0.045471 -0.003656 -0.007402 0.000000 0.000000 0.000000
# 2 -0.003656 0.009449 -0.003566 0.000000 0.000000 0.000000
# 3 -0.007402 -0.003566 0.010201 0.000000 0.000000 0.000000
# 4 0.000000 0.000000 0.000000 0.034532 0.000000 0.000000
# 5 0.000000 0.000000 0.000000 0.000000 0.040226 0.000000
# 6 0.000000 0.000000 0.000000 0.000000 0.000000 0.094714
#
#
# Mechanical properties :
#
#
# Convention : Reuss Voigt Hill
#
# Bulk Modulus (GPa) = 27.87755 59.39216 43.63486
# Shear Modulus (GPa) = 18.12912 25.79452 21.96182
#
# Velocity S-wave (km/s) = 3.05372 3.64254 3.36105
# Velocity P-wave (km/s) = 5.17428 6.94556 6.12430
#
# Compressibility (1/GPa) = 0.03587116
#
# Stress axis : x y z
#
# Youngs Moduli (GPa) = 21.99192 105.83371 98.03077
#
# Poissons Ratio (x) = 0.38696 0.72567
# Poissons Ratio (y) = 0.08041 0.34959
# Poissons Ratio (z) = 0.16279 0.37741
#
# Static dielectric constant tensor:
#      x y z
#    x 2.999160 0.000000 0.000000 
#    y 0.000000 3.743830 0.000000 
#    z 0.000000 0.000000 3.771430 
# 
# 
# High freq. dielectric constant tensor:
#      x y z
#    x 1.701100 0.000000 0.000000 
#    y 0.000000 1.762750 0.000000 
#    z 0.000000 0.000000 1.766530 
# 
# From -- ./inp_files/29063.got.cif
#   From: 2010.03.12/outbox.cif.g09.slc.cpg/sg59_15_cif.got.tgz:29063.got - 2010.04.16 16:29:54.
