data_PCOD8239634
_publ_section_title
;
Structure prediction by ZEFSAII (Michael W. Deem and Ramdas Pophale) SiO2 
 PCOD8239634
Probable space group: P M M N
;
_chemical_formula_sum "Si O2"
_cell_formula_units_Z 48
_cell_length_a 19.214599
_cell_length_b 13.817369
_cell_length_c 9.605440
_cell_angle_alpha 90.000000
_cell_angle_beta 90.000000
_cell_angle_gamma 90.000000
_cell_volume 2550.198258
_symmetry_space_group_name_H-M "P M M N"
_symmetry_group_IT_number 59
_space_group.IT_coordinate_system_code '2'
_symmetry_cell_setting 'orthorhombic'
loop_
_space_group_symop_operation_xyz
x,y,z
1/2-x,1/2-y,z
1/2+x,-y,-z
-x,1/2+y,-z
-x,-y,-z
1/2+x,1/2+y,-z
1/2-x,y,z
x,1/2-y,z
loop_
_atom_site_type_symbol
_atom_site_label
_atom_site_fract_x
_atom_site_fract_y
_atom_site_fract_z
Si Si1 0.400988 0.938024 0.139073
Si Si2 0.070461 0.982960 0.583286
Si Si3 0.449514 0.359933 0.778497
Si Si4 0.407128 0.146639 0.074073
Si Si5 0.066073 0.855990 0.855631
Si Si6 0.330928 0.640151 0.394362
O O1 0.479871 0.920649 0.191160
O O2 0.347753 0.876202 0.231459
O O3 0.380136 0.052276 0.155879
O O4 0.390897 0.911360 0.976444
O O5 0.064138 0.908240 0.709019
O O6 0.128876 0.941538 0.481237
O O7 0.089661 0.087812 0.649145
O O8 0.000000 0.000000 0.500000
O O9 0.469046 0.250000 0.737434
O O10 0.396100 0.364036 0.907727
O O11 0.373473 0.250000 0.125835
O O12 0.489293 0.155276 0.086970
O O13 0.099811 0.750000 0.834275
O O14 0.250000 0.624966 0.421865
O O15 0.353108 0.750000 0.434664
#
# Coordination Sequence:
#
# PCOD8239634 Si02
#       6
#     8   8   8   8   8   8
#     4  11  17  35  56  80 112 151 190 235 291 347
#     4  12  21  34  56  86 118 154 198 242 291 349
#     4  10  18  30  53  86 117 144 185 238 291 341
#     4   9  16  28  51  85 118 141 175 237 296 336
#     4  10  18  29  51  82 113 145 190 242 287 336
#     4  11  25  42  58  81 119 161 194 237 305 367
#
# _framework density 18.822067000000001
#
# number of rings (size 3 to 8) (size 9 to 14) (size 15 to 20)
#    0.000    1.500    5.000    4.000    0.000    0.667 
#    0.000    1.667    0.000    5.000    0.000    2.333 
#    0.000    0.000    0.000    0.000    0.000    0.000 
#
# Total GULP energy -594717.789659 kJ/mol
# GULP energy per Si atom -12389.953951 kJ/mol
# Density = 1.877923 g / cm^3
# Si number density = 18.822067 Si / 1000 Ang^3
#
#
#
# Elastic Constant Matrix: (Units=GPa)
#
#
# Indices 1 2 3 4 5 6 
#
# 1 46.1758 26.7619 24.7420 0.0000 0.0000 0.0000
# 2 26.7619 162.8264 46.3718 0.0000 0.0000 0.0000
# 3 24.7420 46.3718 102.2991 0.0000 0.0000 0.0000
# 4 0.0000 0.0000 0.0000 28.8711 0.0000 0.0000
# 5 0.0000 0.0000 0.0000 0.0000 12.4805 0.0000
# 6 0.0000 0.0000 0.0000 0.0000 0.0000 16.7274
#
#
#
# Elastic Compliance Matrix: (Units=1/GPa)
#
#
# Indices 1 2 3 4 5 6 
#
# 1 0.025983 -0.002849 -0.004993 0.000000 0.000000 0.000000
# 2 -0.002849 0.007364 -0.002649 0.000000 0.000000 0.000000
# 3 -0.004993 -0.002649 0.012184 0.000000 0.000000 0.000000
# 4 0.000000 0.000000 0.000000 0.034637 0.000000 0.000000
# 5 0.000000 0.000000 0.000000 0.000000 0.080125 0.000000
# 6 0.000000 0.000000 0.000000 0.000000 0.000000 0.059782
#
#
# Mechanical properties :
#
#
# Convention : Reuss Voigt Hill
#
# Bulk Modulus (GPa) = 40.73455 56.33919 48.53687
# Shear Modulus (GPa) = 20.06113 25.84419 22.95266
#
# Velocity S-wave (km/s) = 3.26825 3.70953 3.49586
# Velocity P-wave (km/s) = 5.99423 6.95305 6.49137
#
# Compressibility (1/GPa) = 0.02454919
#
# Stress axis : x y z
#
# Youngs Moduli (GPa) = 38.48738 135.79268 82.07676
#
# Poissons Ratio (x) = 0.38681 0.40980
# Poissons Ratio (y) = 0.10963 0.21744
# Poissons Ratio (z) = 0.19216 0.35974
#
# Static dielectric constant tensor:
#      x y z
#    x 2.874330 0.000000 0.000000 
#    y 0.000000 4.030560 0.000000 
#    z 0.000000 0.000000 3.719220 
# 
# 
# High freq. dielectric constant tensor:
#      x y z
#    x 1.648180 0.000000 0.000000 
#    y 0.000000 1.759230 0.000000 
#    z 0.000000 0.000000 1.736640 
# 
# From -- ./inp_files/9055.got.cif
#   From: 2010.03.12/outbox.cif.g09.slc.cpg/sg59_5_cif.got.tgz:9055.got - 2010.04.16 16:29:54.
