data_PCOD8239398
_publ_section_title
;
Structure prediction by ZEFSAII (Michael W. Deem and Ramdas Pophale) SiO2 
 PCOD8239398
Probable space group: P M M N
;
_chemical_formula_sum "Si O2"
_cell_formula_units_Z 40
_cell_length_a 24.541051
_cell_length_b 8.793096
_cell_length_c 10.418195
_cell_angle_alpha 90.000000
_cell_angle_beta 90.000000
_cell_angle_gamma 90.000000
_cell_volume 2248.161233
_symmetry_space_group_name_H-M "P M M N"
_symmetry_group_IT_number 59
_space_group.IT_coordinate_system_code '2'
_symmetry_cell_setting 'orthorhombic'
loop_
_space_group_symop_operation_xyz
x,y,z
1/2-x,1/2-y,z
1/2+x,-y,-z
-x,1/2+y,-z
-x,-y,-z
1/2+x,1/2+y,-z
1/2-x,y,z
x,1/2-y,z
loop_
_atom_site_type_symbol
_atom_site_label
_atom_site_fract_x
_atom_site_fract_y
_atom_site_fract_z
Si Si1 0.143234 0.573246 0.994168
Si Si2 0.140500 0.070945 0.271067
Si Si3 0.024376 0.427980 0.373821
Si Si4 0.029599 0.574724 0.882015
Si Si5 0.250000 0.430454 0.993731
Si Si6 0.250000 0.930652 0.276729
O O1 0.155773 0.750000 0.018823
O O2 0.129076 0.497223 0.130401
O O3 0.195060 0.491151 0.925938
O O4 0.094217 0.549731 0.894458
O O5 0.149960 0.250000 0.255361
O O6 0.088547 0.033802 0.360153
O O7 0.194103 0.996491 0.338758
O O8 0.014558 0.250000 0.382990
O O9 0.000000 0.500000 0.500000
O O10 0.991531 0.496133 0.251692
O O11 0.013203 0.750000 0.886134
O O12 0.000000 0.500000 0.000000
O O13 0.250000 0.250000 0.003395
O O14 0.250000 0.509671 0.132052
O O15 0.250000 0.750000 0.286343
#
# Coordination Sequence:
#
# PCOD8239398 Si02
#       6
#     8   8   8   8   4   4
#     4  10  18  29  49  75 103 133 169 213 259 307
#     4  10  18  31  50  73 104 135 169 213 258 306
#     4  10  22  37  53  76 107 141 177 216 260 313
#     4  10  20  34  53  78 105 135 172 214 257 308
#     4  10  18  28  44  69 104 137 166 208 258 308
#     4  10  18  28  46  73 102 131 170 212 256 308
#
# _framework density 17.792318000000002
#
# number of rings (size 3 to 8) (size 9 to 14) (size 15 to 20)
#    0.000    2.000    2.000    5.400    0.000    3.200 
#    0.000    0.000    0.000    1.200    0.000    1.400 
#    0.000    0.000    0.000    0.000    0.000    0.000 
#
# Total GULP energy -495837.288910 kJ/mol
# GULP energy per Si atom -12395.932223 kJ/mol
# Density = 1.775182 g / cm^3
# Si number density = 17.792318 Si / 1000 Ang^3
#
#
#
# Elastic Constant Matrix: (Units=GPa)
#
#
# Indices 1 2 3 4 5 6 
#
# 1 158.5997 71.4881 66.5636 0.0000 0.0000 0.0000
# 2 71.4881 102.4072 35.9292 0.0000 0.0000 0.0000
# 3 66.5636 35.9292 95.3641 0.0000 0.0000 0.0000
# 4 0.0000 0.0000 0.0000 21.0385 0.0000 0.0000
# 5 0.0000 0.0000 0.0000 0.0000 20.3560 0.0000
# 6 0.0000 0.0000 0.0000 0.0000 0.0000 31.6790
#
#
#
# Elastic Compliance Matrix: (Units=1/GPa)
#
#
# Indices 1 2 3 4 5 6 
#
# 1 0.011376 -0.005941 -0.005702 0.000000 0.000000 0.000000
# 2 -0.005941 0.014355 -0.001262 0.000000 0.000000 0.000000
# 3 -0.005702 -0.001262 0.014942 0.000000 0.000000 0.000000
# 4 0.000000 0.000000 0.000000 0.047532 0.000000 0.000000
# 5 0.000000 0.000000 0.000000 0.000000 0.049126 0.000000
# 6 0.000000 0.000000 0.000000 0.000000 0.000000 0.031567
#
#
# Mechanical properties :
#
#
# Convention : Reuss Voigt Hill
#
# Bulk Modulus (GPa) = 67.28059 78.25922 72.76990
# Shear Modulus (GPa) = 25.04250 26.77402 25.90826
#
# Velocity S-wave (km/s) = 3.75572 3.88339 3.82009
# Velocity P-wave (km/s) = 7.53019 8.01174 7.77469
#
# Compressibility (1/GPa) = 0.01486313
#
# Stress axis : x y z
#
# Youngs Moduli (GPa) = 87.90269 69.66339 66.92727
#
# Poissons Ratio (x) = 0.41386 0.38164
# Poissons Ratio (y) = 0.52222 0.08443
# Poissons Ratio (z) = 0.50124 0.08789
#
# Static dielectric constant tensor:
#      x y z
#    x 4.937210 0.000000 0.000000 
#    y 0.000000 3.346990 0.000000 
#    z 0.000000 0.000000 3.051830 
# 
# 
# High freq. dielectric constant tensor:
#      x y z
#    x 1.716980 0.000000 0.000000 
#    y 0.000000 1.698270 0.000000 
#    z 0.000000 0.000000 1.628280 
# 
# From -- ./inp_files/12439.got.cif
#   From: 2010.03.12/outbox.cif.g09.slc.cpg/sg59_7_cif.got.tgz:12439.got - 2010.04.16 16:29:54.
