data_PCOD8239278
_publ_section_title
;
Structure prediction by ZEFSAII (Michael W. Deem and Ramdas Pophale) SiO2 
 PCOD8239278
Probable space group: P M M N
;
_chemical_formula_sum "Si O2"
_cell_formula_units_Z 56
_cell_length_a 21.423950
_cell_length_b 9.016185
_cell_length_c 17.722775
_cell_angle_alpha 90.000000
_cell_angle_beta 90.000000
_cell_angle_gamma 90.000000
_cell_volume 3423.371922
_symmetry_space_group_name_H-M "P M M N"
_symmetry_group_IT_number 59
_space_group.IT_coordinate_system_code '2'
_symmetry_cell_setting 'orthorhombic'
loop_
_space_group_symop_operation_xyz
x,y,z
1/2-x,1/2-y,z
1/2+x,-y,-z
-x,1/2+y,-z
-x,-y,-z
1/2+x,1/2+y,-z
1/2-x,y,z
x,1/2-y,z
loop_
_atom_site_type_symbol
_atom_site_label
_atom_site_fract_x
_atom_site_fract_y
_atom_site_fract_z
Si Si1 0.678118 0.923401 0.154300
Si Si2 0.603489 0.083189 0.279423
Si Si3 0.556653 0.419133 0.598764
Si Si4 0.964508 0.077336 0.891227
Si Si5 0.456465 0.419765 0.256575
Si Si6 0.413363 0.922675 0.949286
Si Si7 0.067272 0.919713 0.563066
O O1 0.750000 0.968176 0.161273
O O2 0.668849 0.750000 0.141709
O O3 0.643782 0.969143 0.231334
O O4 0.650503 0.007744 0.081498
O O5 0.621391 0.250000 0.254449
O O6 0.530154 0.055226 0.266447
O O7 0.617490 0.058406 0.369070
O O8 0.558987 0.250000 0.626346
O O9 0.579462 0.519436 0.668927
O O10 0.486518 0.459918 0.574955
O O11 0.597166 0.441962 0.521068
O O12 0.978162 0.250000 0.880077
O O13 0.932754 0.009876 0.816607
O O14 0.917930 0.048426 0.961229
O O15 0.029935 0.997168 0.904919
O O16 0.437947 0.250000 0.245422
O O17 0.415671 0.750000 0.929692
O O18 0.040425 0.750000 0.569613
#
# Coordination Sequence:
#
# PCOD8239278 Si02
#       7
#     8   8   8   8   8   8   8
#     4  11  23  35  47  65  89 118 155 195 230 268
#     4   9  17  29  44  61  83 114 152 188 223 264
#     4   9  15  23  37  57  83 115 146 176 213 253
#     4  10  19  30  47  68  90 116 149 186 225 275
#     4  10  18  27  41  63  91 119 149 182 218 265
#     4  10  20  33  48  67  88 115 149 186 231 277
#     4   8  15  26  38  55  81 112 146 181 213 254
#
# _framework density 16.358139999999999
#
# number of rings (size 3 to 8) (size 9 to 14) (size 15 to 20)
#    0.000    2.429    1.429    3.000    0.000    5.714 
#    0.000    0.000    0.000    0.000    0.000    0.000 
#    0.000    1.143    0.000   10.857    0.000    6.571 
#
# Total GULP energy -694042.299135 kJ/mol
# GULP energy per Si atom -12393.612485 kJ/mol
# Density = 1.632091 g / cm^3
# Si number density = 16.358140 Si / 1000 Ang^3
#
#
#
# Elastic Constant Matrix: (Units=GPa)
#
#
# Indices 1 2 3 4 5 6 
#
# 1 32.7608 22.5912 24.7045 0.0000 0.0000 0.0000
# 2 22.5912 88.2084 53.0200 0.0000 0.0000 0.0000
# 3 24.7045 53.0200 146.4164 0.0000 0.0000 0.0000
# 4 0.0000 0.0000 0.0000 30.4293 0.0000 0.0000
# 5 0.0000 0.0000 0.0000 0.0000 11.2029 0.0000
# 6 0.0000 0.0000 0.0000 0.0000 0.0000 15.6126
#
#
#
# Elastic Compliance Matrix: (Units=1/GPa)
#
#
# Indices 1 2 3 4 5 6 
#
# 1 0.038618 -0.007636 -0.003751 0.000000 0.000000 0.000000
# 2 -0.007636 0.016001 -0.004506 0.000000 0.000000 0.000000
# 3 -0.003751 -0.004506 0.009094 0.000000 0.000000 0.000000
# 4 0.000000 0.000000 0.000000 0.032863 0.000000 0.000000
# 5 0.000000 0.000000 0.000000 0.000000 0.089263 0.000000
# 6 0.000000 0.000000 0.000000 0.000000 0.000000 0.064051
#
#
# Mechanical properties :
#
#
# Convention : Reuss Voigt Hill
#
# Bulk Modulus (GPa) = 31.32031 52.00189 41.66110
# Shear Modulus (GPa) = 17.10464 22.58694 19.84579
#
# Velocity S-wave (km/s) = 3.23714 3.71991 3.48689
# Velocity P-wave (km/s) = 5.75849 7.09288 6.46023
#
# Compressibility (1/GPa) = 0.03192817
#
# Stress axis : x y z
#
# Youngs Moduli (GPa) = 25.89438 62.49687 109.95876
#
# Poissons Ratio (x) = 0.47723 0.41244
# Poissons Ratio (y) = 0.19773 0.49545
# Poissons Ratio (z) = 0.09713 0.28160
#
# Static dielectric constant tensor:
#      x y z
#    x 2.487300 0.000000 0.000000 
#    y 0.000000 3.196870 0.000000 
#    z 0.000000 0.000000 3.645320 
# 
# 
# High freq. dielectric constant tensor:
#      x y z
#    x 1.539220 0.000000 0.000000 
#    y 0.000000 1.646280 0.000000 
#    z 0.000000 0.000000 1.657230 
# 
# From -- ./inp_files/26416.got.cif
#   From: 2010.03.12/outbox.cif.g09.slc.cpg/sg59_14_cif.got.tgz:26416.got - 2010.04.16 16:29:54.
