data_PCOD8239962
_publ_section_title
;
Structure prediction by ZEFSAII (Michael W. Deem and Ramdas Pophale) SiO2 
 PCOD8239962
Probable space group: P M M N
;
_chemical_formula_sum "Si O2"
_cell_formula_units_Z 56
_cell_length_a 14.993779
_cell_length_b 19.832427
_cell_length_c 10.032579
_cell_angle_alpha 90.000000
_cell_angle_beta 90.000000
_cell_angle_gamma 90.000000
_cell_volume 2983.318065
_symmetry_space_group_name_H-M "P M M N"
_symmetry_group_IT_number 59
_space_group.IT_coordinate_system_code '2'
_symmetry_cell_setting 'orthorhombic'
loop_
_space_group_symop_operation_xyz
x,y,z
1/2-x,1/2-y,z
1/2+x,-y,-z
-x,1/2+y,-z
-x,-y,-z
1/2+x,1/2+y,-z
1/2-x,y,z
x,1/2-y,z
loop_
_atom_site_type_symbol
_atom_site_label
_atom_site_fract_x
_atom_site_fract_y
_atom_site_fract_z
Si Si1 0.537918 0.133244 0.097635
Si Si2 0.148493 0.676537 0.665767
Si Si3 0.148637 0.540067 0.539068
Si Si4 0.152569 0.079165 0.072271
Si Si5 0.150651 0.824686 0.145788
Si Si6 0.092488 0.487534 0.817098
Si Si7 0.098527 0.959109 0.256120
O O1 0.576706 0.178734 0.215640
O O2 0.429322 0.130450 0.102252
O O3 0.577644 0.058743 0.111547
O O4 0.573399 0.165450 0.962388
O O5 0.250000 0.662525 0.718549
O O6 0.144286 0.750000 0.595258
O O7 0.120749 0.617658 0.564875
O O8 0.250000 0.534313 0.493797
O O9 0.135433 0.495014 0.670932
O O10 0.092738 0.515340 0.410245
O O11 0.250000 0.113902 0.095004
O O12 0.149641 0.014350 0.168634
O O13 0.151842 0.056277 0.917184
O O14 0.250000 0.827800 0.081333
O O15 0.136742 0.750000 0.211110
O O16 0.144823 0.885336 0.253232
O O17 0.999542 0.449226 0.802506
#
# Coordination Sequence:
#
# PCOD8239962 Si02
#       7
#     8   8   8   8   8   8   8
#     4  10  18  32  49  75 101 131 174 210 253 296
#     4   9  18  32  51  74 104 142 176 207 248 305
#     4  10  20  31  49  76 107 138 171 209 255 307
#     4  11  20  33  55  76 104 137 171 214 265 307
#     4  11  21  31  49  75 103 135 166 201 252 310
#     4  10  19  34  52  73 101 141 174 208 254 311
#     4  11  20  35  50  77 108 137 165 214 260 306
#
# _framework density 18.771045000000001
#
# number of rings (size 3 to 8) (size 9 to 14) (size 15 to 20)
#    0.000    1.714    2.857    3.857    0.000    2.857 
#    0.000    1.429    0.000    1.714    0.000    0.000 
#    0.000    0.000    0.000    0.000    0.000    0.000 
#
# Total GULP energy -693961.074999 kJ/mol
# GULP energy per Si atom -12392.162054 kJ/mol
# Density = 1.872832 g / cm^3
# Si number density = 18.771045 Si / 1000 Ang^3
#
#
#
# Elastic Constant Matrix: (Units=GPa)
#
#
# Indices 1 2 3 4 5 6 
#
# 1 92.4840 14.1408 19.0941 0.0000 0.0000 0.0000
# 2 14.1408 56.8231 13.9411 0.0000 0.0000 0.0000
# 3 19.0941 13.9411 98.2514 0.0000 0.0000 0.0000
# 4 0.0000 0.0000 0.0000 9.6632 0.0000 0.0000
# 5 0.0000 0.0000 0.0000 0.0000 3.2366 0.0000
# 6 0.0000 0.0000 0.0000 0.0000 0.0000 13.5974
#
#
#
# Elastic Compliance Matrix: (Units=1/GPa)
#
#
# Indices 1 2 3 4 5 6 
#
# 1 0.011575 -0.002413 -0.001907 0.000000 0.000000 0.000000
# 2 -0.002413 0.018736 -0.002190 0.000000 0.000000 0.000000
# 3 -0.001907 -0.002190 0.010859 0.000000 0.000000 0.000000
# 4 0.000000 0.000000 0.000000 0.103486 0.000000 0.000000
# 5 0.000000 0.000000 0.000000 0.000000 0.308969 0.000000
# 6 0.000000 0.000000 0.000000 0.000000 0.000000 0.073543
#
#
# Mechanical properties :
#
#
# Convention : Reuss Voigt Hill
#
# Bulk Modulus (GPa) = 35.52180 37.99005 36.75592
# Shear Modulus (GPa) = 9.09799 18.65827 13.87813
#
# Velocity S-wave (km/s) = 2.20394 3.15618 2.72203
# Velocity P-wave (km/s) = 5.04393 5.79349 5.43166
#
# Compressibility (1/GPa) = 0.02815173
#
# Stress axis : x y z
#
# Youngs Moduli (GPa) = 86.39062 53.37291 92.08693
#
# Poissons Ratio (x) = 0.12877 0.17563
# Poissons Ratio (y) = 0.20843 0.20164
# Poissons Ratio (z) = 0.16476 0.11687
#
# Static dielectric constant tensor:
#      x y z
#    x 3.509860 0.000000 0.000000 
#    y 0.000000 3.285480 0.000000 
#    z 0.000000 0.000000 3.361920 
# 
# 
# High freq. dielectric constant tensor:
#      x y z
#    x 1.726890 0.000000 0.000000 
#    y 0.000000 1.696430 0.000000 
#    z 0.000000 0.000000 1.723040 
# 
# From -- ./inp_files/9362.got.cif
#   From: 2010.03.12/outbox.cif.g09.slc.cpg/sg59_5_cif.got.tgz:9362.got - 2010.04.16 16:29:54.
