data_PCOD8239854
_publ_section_title
;
Structure prediction by ZEFSAII (Michael W. Deem and Ramdas Pophale) SiO2 
 PCOD8239854
Probable space group: P M M N
;
_chemical_formula_sum "Si O2"
_cell_formula_units_Z 40
_cell_length_a 14.393943
_cell_length_b 8.688983
_cell_length_c 15.957814
_cell_angle_alpha 90.000000
_cell_angle_beta 90.000000
_cell_angle_gamma 90.000000
_cell_volume 1995.823467
_symmetry_space_group_name_H-M "P M M N"
_symmetry_group_IT_number 59
_space_group.IT_coordinate_system_code '2'
_symmetry_cell_setting 'orthorhombic'
loop_
_space_group_symop_operation_xyz
x,y,z
1/2-x,1/2-y,z
1/2+x,-y,-z
-x,1/2+y,-z
-x,-y,-z
1/2+x,1/2+y,-z
1/2-x,y,z
x,1/2-y,z
loop_
_atom_site_type_symbol
_atom_site_label
_atom_site_fract_x
_atom_site_fract_y
_atom_site_fract_z
Si Si1 0.142973 0.071085 0.016417
Si Si2 0.405541 0.932176 0.536585
Si Si3 0.472431 0.429626 0.695095
Si Si4 0.149376 0.424194 0.380145
Si Si5 0.028833 0.928299 0.871752
O O1 0.250000 0.028389 0.038633
O O2 0.133921 0.250000 0.992096
O O3 0.075205 0.033481 0.094682
O O4 0.108170 0.970308 0.938542
O O5 0.399031 0.750000 0.532310
O O6 0.500000 0.000000 0.500000
O O7 0.398263 0.986967 0.633148
O O8 0.331320 0.006185 0.473310
O O9 0.461051 0.250000 0.681927
O O10 0.578060 0.477539 0.674596
O O11 0.449627 0.473035 0.789831
O O12 0.250000 0.426011 0.334868
O O13 0.110456 0.250000 0.386776
O O14 0.036982 0.750000 0.848699
#
# Coordination Sequence:
#
# PCOD8239854 Si02
#       5
#     8   8   8   8   8
#     4   9  19  37  59  81 108 143 179 218 270 330
#     4  10  18  31  51  72  98 132 170 209 252 304
#     4  11  21  34  53  76 105 139 177 219 262 312
#     4  10  20  34  52  75 105 139 175 217 266 317
#     4  10  20  35  56  83 112 142 180 224 272 325
#
# _framework density 20.041851999999999
#
# number of rings (size 3 to 8) (size 9 to 14) (size 15 to 20)
#    0.000    2.000    0.000    7.200    0.000    3.600 
#    0.000    3.000    0.000    6.000    0.000    0.000 
#    0.000    0.000    0.000    0.000    0.000    0.000 
#
# Total GULP energy -495776.565643 kJ/mol
# GULP energy per Si atom -12394.414141 kJ/mol
# Density = 1.999624 g / cm^3
# Si number density = 20.041852 Si / 1000 Ang^3
#
#
#
# Elastic Constant Matrix: (Units=GPa)
#
#
# Indices 1 2 3 4 5 6 
#
# 1 51.4011 -0.0394 -9.3570 0.0000 0.0000 0.0000
# 2 -0.0394 115.4663 22.9403 0.0000 0.0000 0.0000
# 3 -9.3570 22.9403 79.0023 0.0000 0.0000 0.0000
# 4 0.0000 0.0000 0.0000 36.6550 0.0000 0.0000
# 5 0.0000 0.0000 0.0000 0.0000 14.7179 0.0000
# 6 0.0000 0.0000 0.0000 0.0000 0.0000 21.6820
#
#
#
# Elastic Compliance Matrix: (Units=1/GPa)
#
#
# Indices 1 2 3 4 5 6 
#
# 1 0.019910 -0.000490 0.002500 0.000000 0.000000 0.000000
# 2 -0.000490 0.009203 -0.002730 0.000000 0.000000 0.000000
# 3 0.002500 -0.002730 0.013747 0.000000 0.000000 0.000000
# 4 0.000000 0.000000 0.000000 0.027281 0.000000 0.000000
# 5 0.000000 0.000000 0.000000 0.000000 0.067944 0.000000
# 6 0.000000 0.000000 0.000000 0.000000 0.000000 0.046121
#
#
# Mechanical properties :
#
#
# Convention : Reuss Voigt Hill
#
# Bulk Modulus (GPa) = 24.14327 30.32862 27.23594
# Shear Modulus (GPa) = 25.06862 30.09937 27.58399
#
# Velocity S-wave (km/s) = 3.54052 3.87954 3.71390
# Velocity P-wave (km/s) = 5.36529 5.93577 5.65772
#
# Compressibility (1/GPa) = 0.04141942
#
# Stress axis : x y z
#
# Youngs Moduli (GPa) = 50.22699 108.66246 72.74411
#
# Poissons Ratio (x) = 0.05324 -0.18189
# Poissons Ratio (y) = 0.02461 0.19861
# Poissons Ratio (z) = -0.12559 0.29668
#
# Static dielectric constant tensor:
#      x y z
#    x 3.823690 0.000000 0.000000 
#    y 0.000000 3.704620 0.000000 
#    z 0.000000 0.000000 3.752630 
# 
# 
# High freq. dielectric constant tensor:
#      x y z
#    x 1.767200 0.000000 0.000000 
#    y 0.000000 1.793220 0.000000 
#    z 0.000000 0.000000 1.774800 
# 
# From -- ./inp_files/22961.got.cif
#   From: 2010.03.12/outbox.cif.g09.slc.cpg/sg59_12_cif.got.tgz:22961.got - 2010.04.16 16:29:54.
