data_PCOD8239493
_publ_section_title
;
Structure prediction by ZEFSAII (Michael W. Deem and Ramdas Pophale) SiO2 
 PCOD8239493
Probable space group: P M M N
;
_chemical_formula_sum "Si O2"
_cell_formula_units_Z 56
_cell_length_a 28.280465
_cell_length_b 8.999513
_cell_length_c 13.439105
_cell_angle_alpha 90.000000
_cell_angle_beta 90.000000
_cell_angle_gamma 90.000000
_cell_volume 3420.392156
_symmetry_space_group_name_H-M "P M M N"
_symmetry_group_IT_number 59
_space_group.IT_coordinate_system_code '2'
_symmetry_cell_setting 'orthorhombic'
loop_
_space_group_symop_operation_xyz
x,y,z
1/2-x,1/2-y,z
1/2+x,-y,-z
-x,1/2+y,-z
-x,-y,-z
1/2+x,1/2+y,-z
1/2-x,y,z
x,1/2-y,z
loop_
_atom_site_type_symbol
_atom_site_label
_atom_site_fract_x
_atom_site_fract_y
_atom_site_fract_z
Si Si1 0.603145 0.575863 0.083053
Si Si2 0.979876 0.923885 0.596906
Si Si3 0.603153 0.418017 0.692465
Si Si4 0.947628 0.079655 0.901886
Si Si5 0.530701 0.074855 0.201331
Si Si6 0.302430 0.078297 0.012821
Si Si7 0.302452 0.574852 0.219490
O O1 0.593141 0.750000 0.095066
O O2 0.583340 0.489173 0.180455
O O3 0.659289 0.541835 0.073021
O O4 0.578198 0.515575 0.984690
O O5 0.978247 0.750000 0.579054
O O6 0.014274 0.968257 0.687899
O O7 0.926456 0.978237 0.618124
O O8 0.000000 0.000000 0.500000
O O9 0.599854 0.250000 0.651488
O O10 0.583284 0.428087 0.803088
O O11 0.657955 0.473370 0.699060
O O12 0.954756 0.250000 0.936949
O O13 0.998222 0.004467 0.881310
O O14 0.528815 0.250000 0.185245
O O15 0.250000 0.035951 0.972913
O O16 0.305302 0.250000 0.042429
O O17 0.314873 0.990704 0.112440
O O18 0.250000 0.523992 0.255448
O O19 0.305117 0.750000 0.205673
#
# Coordination Sequence:
#
# PCOD8239493 Si02
#       7
#     8   8   8   8   8   8   8
#     4  11  20  29  44  65  92 126 160 193 228 267
#     4  10  21  36  54  72  91 117 149 192 240 289
#     4   9  17  29  46  69  96 127 158 190 229 275
#     4  10  18  29  44  64  93 127 159 190 225 263
#     4  10  21  34  47  66  91 119 152 187 227 277
#     4   9  18  30  43  62  91 127 164 198 231 268
#     4   9  16  27  44  67  95 127 162 195 228 267
#
# _framework density 16.372392000000001
#
# number of rings (size 3 to 8) (size 9 to 14) (size 15 to 20)
#    0.000    2.286    1.429    2.143    0.000    3.429 
#    0.000    0.000    0.000    0.000    0.000    1.000 
#    0.000    1.143    0.000    0.000    0.000    0.000 
#
# Total GULP energy -694206.605987 kJ/mol
# GULP energy per Si atom -12396.546535 kJ/mol
# Density = 1.633513 g / cm^3
# Si number density = 16.372392 Si / 1000 Ang^3
#
#
#
# Elastic Constant Matrix: (Units=GPa)
#
#
# Indices 1 2 3 4 5 6 
#
# 1 127.9364 43.3508 48.5657 0.0000 0.0000 0.0000
# 2 43.3508 58.7560 29.9732 0.0000 0.0000 0.0000
# 3 48.5657 29.9732 58.1199 0.0000 0.0000 0.0000
# 4 0.0000 0.0000 0.0000 23.1962 0.0000 0.0000
# 5 0.0000 0.0000 0.0000 0.0000 18.4957 0.0000
# 6 0.0000 0.0000 0.0000 0.0000 0.0000 23.4742
#
#
#
# Elastic Compliance Matrix: (Units=1/GPa)
#
#
# Indices 1 2 3 4 5 6 
#
# 1 0.012560 -0.005310 -0.007757 0.000000 0.000000 0.000000
# 2 -0.005310 0.025340 -0.008631 0.000000 0.000000 0.000000
# 3 -0.007757 -0.008631 0.028139 0.000000 0.000000 0.000000
# 4 0.000000 0.000000 0.000000 0.043111 0.000000 0.000000
# 5 0.000000 0.000000 0.000000 0.000000 0.054067 0.000000
# 6 0.000000 0.000000 0.000000 0.000000 0.000000 0.042600
#
#
# Mechanical properties :
#
#
# Convention : Reuss Voigt Hill
#
# Bulk Modulus (GPa) = 44.16384 54.28795 49.22590
# Shear Modulus (GPa) = 19.47334 21.22805 20.35070
#
# Velocity S-wave (km/s) = 3.45251 3.60471 3.52943
# Velocity P-wave (km/s) = 6.55181 7.11023 6.83673
#
# Compressibility (1/GPa) = 0.02264296
#
# Stress axis : x y z
#
# Youngs Moduli (GPa) = 79.61569 39.46268 35.53779
#
# Poissons Ratio (x) = 0.20955 0.27567
# Poissons Ratio (y) = 0.42276 0.30674
# Poissons Ratio (z) = 0.61759 0.34061
#
# Static dielectric constant tensor:
#      x y z
#    x 3.602040 0.000000 0.000000 
#    y 0.000000 3.202650 0.000000 
#    z 0.000000 0.000000 2.767000 
# 
# 
# High freq. dielectric constant tensor:
#      x y z
#    x 1.637970 0.000000 0.000000 
#    y 0.000000 1.640640 0.000000 
#    z 0.000000 0.000000 1.581760 
# 
# From -- ./inp_files/24984.got.cif
#   From: 2010.03.12/outbox.cif.g09.slc.cpg/sg59_13_cif.got.tgz:24984.got - 2010.04.16 16:29:54.
