data_PCOD8239521
_publ_section_title
;
Structure prediction by ZEFSAII (Michael W. Deem and Ramdas Pophale) SiO2 
 PCOD8239521
Probable space group: P M M N
;
_chemical_formula_sum "Si O2"
_cell_formula_units_Z 64
_cell_length_a 9.385688
_cell_length_b 28.242037
_cell_length_c 15.510302
_cell_angle_alpha 90.000000
_cell_angle_beta 90.000000
_cell_angle_gamma 90.000000
_cell_volume 4111.330451
_symmetry_space_group_name_H-M "P M M N"
_symmetry_group_IT_number 59
_space_group.IT_coordinate_system_code '2'
_symmetry_cell_setting 'orthorhombic'
loop_
_space_group_symop_operation_xyz
x,y,z
1/2-x,1/2-y,z
1/2+x,-y,-z
-x,1/2+y,-z
-x,-y,-z
1/2+x,1/2+y,-z
1/2-x,y,z
x,1/2-y,z
loop_
_atom_site_type_symbol
_atom_site_label
_atom_site_fract_x
_atom_site_fract_y
_atom_site_fract_z
Si Si1 0.083460 0.304303 0.171589
Si Si2 0.919099 0.802841 0.499049
Si Si3 0.907357 0.193817 0.010752
Si Si4 0.581302 0.636966 0.661925
Si Si5 0.418634 0.696027 0.180668
Si Si6 0.414496 0.145370 0.672959
Si Si7 0.084503 0.555067 0.590483
Si Si8 0.411966 0.448061 0.580883
O O1 0.250000 0.308110 0.156036
O O2 0.038378 0.250000 0.189635
O O3 0.034539 0.335477 0.252381
O O4 0.010271 0.325282 0.085689
O O5 0.750000 0.801100 0.501851
O O6 0.983228 0.750000 0.504213
O O7 0.973624 0.832577 0.580628
O O8 0.971690 0.826956 0.411069
O O9 0.750000 0.172632 0.026917
O O10 0.900053 0.250000 0.013517
O O11 0.962982 0.179349 0.915721
O O12 0.750000 0.628091 0.659131
O O13 0.499019 0.586949 0.660050
O O14 0.250000 0.692304 0.192173
O O15 0.468957 0.750000 0.198250
O O16 0.494542 0.660386 0.245263
O O17 0.250000 0.157784 0.690595
O O18 0.436809 0.089265 0.657808
O O19 0.250000 0.569160 0.588301
O O20 0.062650 0.500471 0.618499
O O21 0.019333 0.563551 0.496090
O O22 0.250000 0.442795 0.544868
#
# Coordination Sequence:
#
# PCOD8239521 Si02
#       8
#     8   8   8   8   8   8   8   8
#     4   9  17  28  45  69  92 117 152 190 222 256
#     4   9  16  26  41  60  85 120 155 178 204 252
#     4   8  15  29  46  62  86 121 151 179 222 268
#     4  10  18  30  45  63  92 123 149 181 223 264
#     4   9  18  31  45  64  93 124 150 180 222 267
#     4  10  18  29  46  66  87 116 154 187 218 259
#     4  10  19  30  47  67  87 113 150 190 226 266
#     4   9  18  33  48  64  87 115 147 189 234 267
#
# _framework density 15.566737
#
# number of rings (size 3 to 8) (size 9 to 14) (size 15 to 20)
#    0.000    2.750    1.250    1.875    0.000    4.250 
#    0.000    1.250    0.000    1.125    0.000    0.875 
#    0.000    0.000    0.000    0.000    0.000    0.000 
#
# Total GULP energy -793459.467255 kJ/mol
# GULP energy per Si atom -12397.804176 kJ/mol
# Density = 1.553131 g / cm^3
# Si number density = 15.566737 Si / 1000 Ang^3
#
#
#
# Elastic Constant Matrix: (Units=GPa)
#
#
# Indices 1 2 3 4 5 6 
#
# 1 51.7063 39.1937 49.3117 0.0000 0.0000 0.0000
# 2 39.1937 92.9285 55.8566 0.0000 0.0000 0.0000
# 3 49.3117 55.8566 127.6848 0.0000 0.0000 0.0000
# 4 0.0000 0.0000 0.0000 13.5592 0.0000 0.0000
# 5 0.0000 0.0000 0.0000 0.0000 25.8809 0.0000
# 6 0.0000 0.0000 0.0000 0.0000 0.0000 22.7842
#
#
#
# Elastic Compliance Matrix: (Units=1/GPa)
#
#
# Indices 1 2 3 4 5 6 
#
# 1 0.035551 -0.009147 -0.009729 0.000000 0.000000 0.000000
# 2 -0.009147 0.016953 -0.003884 0.000000 0.000000 0.000000
# 3 -0.009729 -0.003884 0.013288 0.000000 0.000000 0.000000
# 4 0.000000 0.000000 0.000000 0.073751 0.000000 0.000000
# 5 0.000000 0.000000 0.000000 0.000000 0.038639 0.000000
# 6 0.000000 0.000000 0.000000 0.000000 0.000000 0.043890
#
#
# Mechanical properties :
#
#
# Convention : Reuss Voigt Hill
#
# Bulk Modulus (GPa) = 49.32369 62.33817 55.83093
# Shear Modulus (GPa) = 18.22504 20.97536 19.60020
#
# Velocity S-wave (km/s) = 3.42536 3.67474 3.55224
# Velocity P-wave (km/s) = 6.88464 7.62481 7.26415
#
# Compressibility (1/GPa) = 0.02027423
#
# Stress axis : x y z
#
# Youngs Moduli (GPa) = 28.12847 58.98619 75.25598
#
# Poissons Ratio (x) = 0.53952 0.73213
# Poissons Ratio (y) = 0.25728 0.29228
# Poissons Ratio (z) = 0.27365 0.22909
#
# Static dielectric constant tensor:
#      x y z
#    x 2.897400 0.000000 0.000000 
#    y 0.000000 2.992880 0.000000 
#    z 0.000000 0.000000 2.977770 
# 
# 
# High freq. dielectric constant tensor:
#      x y z
#    x 1.587060 0.000000 0.000000 
#    y 0.000000 1.581730 0.000000 
#    z 0.000000 0.000000 1.584050 
# 
# From -- ./inp_files/21935.got.cif
#   From: 2010.03.12/outbox.cif.g09.slc.cpg/sg59_11_cif.got.tgz:21935.got - 2010.04.16 16:29:54.
