data_PCOD8239041
_publ_section_title
;
Structure prediction by ZEFSAII (Michael W. Deem and Ramdas Pophale) SiO2 
 PCOD8239041
Probable space group: P M M N
;
_chemical_formula_sum "Si O2"
_cell_formula_units_Z 64
_cell_length_a 22.958895
_cell_length_b 9.148285
_cell_length_c 19.924876
_cell_angle_alpha 90.000000
_cell_angle_beta 90.000000
_cell_angle_gamma 90.000000
_cell_volume 4184.911662
_symmetry_space_group_name_H-M "P M M N"
_symmetry_group_IT_number 59
_space_group.IT_coordinate_system_code '2'
_symmetry_cell_setting 'orthorhombic'
loop_
_space_group_symop_operation_xyz
x,y,z
1/2-x,1/2-y,z
1/2+x,-y,-z
-x,1/2+y,-z
-x,-y,-z
1/2+x,1/2+y,-z
1/2-x,y,z
x,1/2-y,z
loop_
_atom_site_type_symbol
_atom_site_label
_atom_site_fract_x
_atom_site_fract_y
_atom_site_fract_z
Si Si1 0.524940 0.080172 0.710037
Si Si2 0.181867 0.418763 0.795415
Si Si3 0.553623 0.915331 0.582463
Si Si4 0.521673 0.916253 0.841878
Si Si5 0.893744 0.581436 0.329978
Si Si6 0.440877 0.419129 0.016168
Si Si7 0.419092 0.914891 0.543001
Si Si8 0.895123 0.078374 0.100530
O O1 0.539907 0.250000 0.705380
O O2 0.456714 0.048038 0.701207
O O3 0.562036 0.998360 0.652868
O O4 0.543696 0.020445 0.782622
O O5 0.250000 0.446946 0.790243
O O6 0.166817 0.250000 0.811098
O O7 0.154064 0.465275 0.724497
O O8 0.157102 0.519269 0.854245
O O9 0.576323 0.750000 0.589763
O O10 0.486637 0.918783 0.561497
O O11 0.591711 0.996243 0.525627
O O12 0.520558 0.750000 0.815477
O O13 0.567795 0.932817 0.903336
O O14 0.456701 0.961076 0.865136
O O15 0.888395 0.750000 0.350692
O O16 0.882441 0.487576 0.396854
O O17 0.445358 0.250000 0.994894
O O18 0.500000 0.500000 0.000000
O O19 0.390739 0.498305 0.972345
O O20 0.397062 0.750000 0.532583
O O21 0.887750 0.250000 0.089214
#
# Coordination Sequence:
#
# PCOD8239041 Si02
#       8
#     8   8   8   8   8   8   8   8
#     4  10  17  24  38  57  79 107 137 169 201 240
#     4  10  20  33  47  62  81 108 143 182 221 258
#     4   9  16  25  36  52  76 103 130 164 198 235
#     4   9  17  27  39  58  81 107 136 168 205 248
#     4   9  17  28  40  56  75 102 136 171 211 249
#     4   9  17  28  42  60  81 105 136 171 208 251
#     4   9  16  25  38  54  72  98 132 167 200 238
#     4  10  19  30  44  60  80 106 138 176 216 256
#
# _framework density 15.293035
#
# number of rings (size 3 to 8) (size 9 to 14) (size 15 to 20)
#    0.000    2.625    1.250    2.625    0.000    6.750 
#    0.000    0.000    0.000    0.000    0.000    0.000 
#    0.000    0.000    0.000    1.125    0.000   20.000 
#
# Total GULP energy -793464.322159 kJ/mol
# GULP energy per Si atom -12397.880034 kJ/mol
# Density = 1.525823 g / cm^3
# Si number density = 15.293035 Si / 1000 Ang^3
#
#
#
# Elastic Constant Matrix: (Units=GPa)
#
#
# Indices 1 2 3 4 5 6 
#
# 1 31.8763 24.2578 32.8643 0.0000 0.0000 0.0000
# 2 24.2578 115.2788 77.4151 0.0000 0.0000 0.0000
# 3 32.8643 77.4151 130.4163 0.0000 0.0000 0.0000
# 4 0.0000 0.0000 0.0000 33.7966 0.0000 0.0000
# 5 0.0000 0.0000 0.0000 0.0000 12.9761 0.0000
# 6 0.0000 0.0000 0.0000 0.0000 0.0000 12.3515
#
#
#
# Elastic Compliance Matrix: (Units=1/GPa)
#
#
# Indices 1 2 3 4 5 6 
#
# 1 0.042975 -0.002944 -0.009082 0.000000 0.000000 0.000000
# 2 -0.002944 0.014626 -0.007940 0.000000 0.000000 0.000000
# 3 -0.009082 -0.007940 0.014670 0.000000 0.000000 0.000000
# 4 0.000000 0.000000 0.000000 0.029589 0.000000 0.000000
# 5 0.000000 0.000000 0.000000 0.000000 0.077065 0.000000
# 6 0.000000 0.000000 0.000000 0.000000 0.000000 0.080962
#
#
# Mechanical properties :
#
#
# Convention : Reuss Voigt Hill
#
# Bulk Modulus (GPa) = 30.92291 60.73845 45.83068
# Shear Modulus (GPa) = 16.09791 21.36045 18.72918
#
# Velocity S-wave (km/s) = 3.24795 3.74136 3.50335
# Velocity P-wave (km/s) = 5.85915 7.64633 6.81161
#
# Compressibility (1/GPa) = 0.03233849
#
# Stress axis : x y z
#
# Youngs Moduli (GPa) = 23.26924 68.36915 68.16769
#
# Poissons Ratio (x) = 0.20130 0.61909
# Poissons Ratio (y) = 0.06851 0.54127
# Poissons Ratio (z) = 0.21133 0.54287
#
# Static dielectric constant tensor:
#      x y z
#    x 2.418790 0.000000 0.000000 
#    y 0.000000 3.094500 0.000000 
#    z 0.000000 0.000000 3.506610 
# 
# 
# High freq. dielectric constant tensor:
#      x y z
#    x 1.503610 0.000000 0.000000 
#    y 0.000000 1.602690 0.000000 
#    z 0.000000 0.000000 1.597950 
# 
# From -- ./inp_files/26541.got.cif
#   From: 2010.03.12/outbox.cif.g09.slc.cpg/sg59_14_cif.got.tgz:26541.got - 2010.04.16 16:29:54.
