data_PCOD8239774
_publ_section_title
;
Structure prediction by ZEFSAII (Michael W. Deem and Ramdas Pophale) SiO2 
 PCOD8239774
Probable space group: P M M N
;
_chemical_formula_sum "Si O2"
_cell_formula_units_Z 56
_cell_length_a 18.386667
_cell_length_b 14.190311
_cell_length_c 12.823590
_cell_angle_alpha 90.000000
_cell_angle_beta 90.000000
_cell_angle_gamma 90.000000
_cell_volume 3345.835221
_symmetry_space_group_name_H-M "P M M N"
_symmetry_group_IT_number 59
_space_group.IT_coordinate_system_code '2'
_symmetry_cell_setting 'orthorhombic'
loop_
_space_group_symop_operation_xyz
x,y,z
1/2-x,1/2-y,z
1/2+x,-y,-z
-x,1/2+y,-z
-x,-y,-z
1/2+x,1/2+y,-z
1/2-x,y,z
x,1/2-y,z
loop_
_atom_site_type_symbol
_atom_site_label
_atom_site_fract_x
_atom_site_fract_y
_atom_site_fract_z
Si Si1 0.665669 0.041857 0.433133
Si Si2 0.585522 0.857320 0.753424
Si Si3 0.163664 0.644663 0.357655
Si Si4 0.166207 0.641698 0.959417
Si Si5 0.835950 0.474227 0.838719
Si Si6 0.415692 0.858798 0.750325
Si Si7 0.667086 0.855425 0.541533
O O1 0.750000 0.064628 0.411284
O O2 0.637659 0.095654 0.536057
O O3 0.618994 0.074513 0.335927
O O4 0.652315 0.929963 0.449321
O O5 0.601544 0.750000 0.787030
O O6 0.500615 0.879164 0.753987
O O7 0.615280 0.877740 0.638118
O O8 0.625469 0.924099 0.836709
O O9 0.250000 0.647973 0.352834
O O10 0.131067 0.750000 0.353683
O O11 0.134352 0.586677 0.258699
O O12 0.250000 0.623576 0.930264
O O13 0.153845 0.750000 0.991829
O O14 0.141022 0.577865 0.055676
O O15 0.117781 0.612990 0.861167
O O16 0.750000 0.488554 0.832261
O O17 0.398303 0.750000 0.723213
O O18 0.750000 0.867333 0.581910
O O19 0.653420 0.750000 0.497588
#
# Coordination Sequence:
#
# PCOD8239774 Si02
#       7
#     8   8   8   8   8   8   8
#     4  10  18  30  51  74  96 127 163 202 245 288
#     4  10  20  33  49  71  99 132 165 202 244 287
#     4   9  16  26  43  71 100 121 148 195 252 295
#     4   9  18  33  53  74  97 127 161 197 239 294
#     4  10  18  31  51  73  95 123 162 206 247 286
#     4  10  21  34  48  71 102 135 166 195 237 293
#     4   9  17  31  50  71  96 127 166 206 243 287
#
# _framework density 16.737224999999999
#
# number of rings (size 3 to 8) (size 9 to 14) (size 15 to 20)
#    0.000    2.429    1.429    1.714    0.000    5.143 
#    0.000    0.000    0.000    1.714    0.000    2.000 
#    0.000    0.000    0.000    0.000    0.000    0.000 
#
# Total GULP energy -694458.304912 kJ/mol
# GULP energy per Si atom -12401.041159 kJ/mol
# Density = 1.669913 g / cm^3
# Si number density = 16.737225 Si / 1000 Ang^3
#
#
#
# Elastic Constant Matrix: (Units=GPa)
#
#
# Indices 1 2 3 4 5 6 
#
# 1 62.2275 51.2975 54.4564 0.0000 0.0000 0.0000
# 2 51.2975 123.3185 74.4466 0.0000 0.0000 0.0000
# 3 54.4564 74.4466 119.5797 0.0000 0.0000 0.0000
# 4 0.0000 0.0000 0.0000 25.5360 0.0000 0.0000
# 5 0.0000 0.0000 0.0000 0.0000 16.0981 0.0000
# 6 0.0000 0.0000 0.0000 0.0000 0.0000 3.4778
#
#
#
# Elastic Compliance Matrix: (Units=1/GPa)
#
#
# Indices 1 2 3 4 5 6 
#
# 1 0.029853 -0.006747 -0.009395 0.000000 0.000000 0.000000
# 2 -0.006747 0.014517 -0.005965 0.000000 0.000000 0.000000
# 3 -0.009395 -0.005965 0.016355 0.000000 0.000000 0.000000
# 4 0.000000 0.000000 0.000000 0.039160 0.000000 0.000000
# 5 0.000000 0.000000 0.000000 0.000000 0.062119 0.000000
# 6 0.000000 0.000000 0.000000 0.000000 0.000000 0.287539
#
#
# Mechanical properties :
#
#
# Convention : Reuss Voigt Hill
#
# Bulk Modulus (GPa) = 60.56464 73.94743 67.25603
# Shear Modulus (GPa) = 10.01482 17.35073 13.68277
#
# Velocity S-wave (km/s) = 2.44879 3.22321 2.86231
# Velocity P-wave (km/s) = 6.65278 7.62426 7.15503
#
# Compressibility (1/GPa) = 0.01651129
#
# Stress axis : x y z
#
# Youngs Moduli (GPa) = 33.49715 68.88626 61.14397
#
# Poissons Ratio (x) = 0.46475 0.57444
# Poissons Ratio (y) = 0.22599 0.36474
# Poissons Ratio (z) = 0.31470 0.41092
#
# Static dielectric constant tensor:
#      x y z
#    x 2.977460 0.000000 0.000000 
#    y 0.000000 3.350930 0.000000 
#    z 0.000000 0.000000 2.994700 
# 
# 
# High freq. dielectric constant tensor:
#      x y z
#    x 1.625010 0.000000 0.000000 
#    y 0.000000 1.653310 0.000000 
#    z 0.000000 0.000000 1.629130 
# 
# From -- ./inp_files/16937.got.cif
#   From: 2010.03.12/outbox.cif.g09.slc.cpg/sg59_9_cif.got.tgz:16937.got - 2010.04.16 16:29:54.
