data_PCOD8239054
_publ_section_title
;
Structure prediction by ZEFSAII (Michael W. Deem and Ramdas Pophale) SiO2 
 PCOD8239054
Probable space group: P M M N
;
_chemical_formula_sum "Si O2"
_cell_formula_units_Z 56
_cell_length_a 22.549837
_cell_length_b 8.981537
_cell_length_c 17.678103
_cell_angle_alpha 90.000000
_cell_angle_beta 90.000000
_cell_angle_gamma 90.000000
_cell_volume 3580.385010
_symmetry_space_group_name_H-M "P M M N"
_symmetry_group_IT_number 59
_space_group.IT_coordinate_system_code '2'
_symmetry_cell_setting 'orthorhombic'
loop_
_space_group_symop_operation_xyz
x,y,z
1/2-x,1/2-y,z
1/2+x,-y,-z
-x,1/2+y,-z
-x,-y,-z
1/2+x,1/2+y,-z
1/2-x,y,z
x,1/2-y,z
loop_
_atom_site_type_symbol
_atom_site_label
_atom_site_fract_x
_atom_site_fract_y
_atom_site_fract_z
Si Si1 0.103469 0.425460 0.378905
Si Si2 0.318021 0.926306 0.255969
Si Si3 0.561487 0.077448 0.484015
Si Si4 0.595506 0.423920 0.870908
Si Si5 0.465460 0.425736 0.827931
Si Si6 0.559624 0.074924 0.028588
Si Si7 0.527422 0.420363 0.322603
O O1 0.111225 0.250000 0.385625
O O2 0.155644 0.493189 0.328940
O O3 0.110247 0.496413 0.463275
O O4 0.039545 0.469808 0.344136
O O5 0.250000 0.972940 0.247199
O O6 0.325389 0.750000 0.266019
O O7 0.351592 0.988024 0.180814
O O8 0.557799 0.250000 0.506584
O O9 0.572367 0.059548 0.393808
O O10 0.500000 0.000000 0.500000
O O11 0.592027 0.250000 0.856794
O O12 0.532020 0.487550 0.843273
O O13 0.606995 0.456689 0.960517
O O14 0.459408 0.250000 0.834673
O O15 0.422132 0.499510 0.891591
O O16 0.446700 0.478078 0.744479
O O17 0.550134 0.250000 0.040134
O O18 0.500000 0.000000 0.000000
O O19 0.526637 0.250000 0.295436
#
# Coordination Sequence:
#
# PCOD8239054 Si02
#       7
#     8   8   8   8   8   8   8
#     4  10  19  30  43  60  84 114 146 180 219 256
#     4  10  19  31  47  64  83 112 150 186 219 254
#     4   9  17  28  42  61  84 111 144 176 212 258
#     4   8  15  27  40  57  79 108 141 176 214 248
#     4  10  17  25  40  60  84 112 141 171 207 254
#     4   9  16  26  39  56  80 107 140 174 209 254
#     4   9  17  27  40  61  85 112 142 172 208 252
#
# _framework density 15.640777
#
# number of rings (size 3 to 8) (size 9 to 14) (size 15 to 20)
#    0.000    2.714    1.429    3.429    0.000    3.143 
#    0.000    0.714    0.000    0.000    0.000    0.000 
#    0.000    1.143    0.000    8.857    0.000    2.143 
#
# Total GULP energy -693882.733359 kJ/mol
# GULP energy per Si atom -12390.763096 kJ/mol
# Density = 1.560518 g / cm^3
# Si number density = 15.640777 Si / 1000 Ang^3
#
#
#
# Elastic Constant Matrix: (Units=GPa)
#
#
# Indices 1 2 3 4 5 6 
#
# 1 45.5237 22.7609 42.4882 0.0000 0.0000 0.0000
# 2 22.7609 75.7828 57.9224 0.0000 0.0000 0.0000
# 3 42.4882 57.9224 142.8098 0.0000 0.0000 0.0000
# 4 0.0000 0.0000 0.0000 29.4338 0.0000 0.0000
# 5 0.0000 0.0000 0.0000 0.0000 16.3325 0.0000
# 6 0.0000 0.0000 0.0000 0.0000 0.0000 12.7145
#
#
#
# Elastic Compliance Matrix: (Units=1/GPa)
#
#
# Indices 1 2 3 4 5 6 
#
# 1 0.030961 -0.003273 -0.007884 0.000000 0.000000 0.000000
# 2 -0.003273 0.019470 -0.006923 0.000000 0.000000 0.000000
# 3 -0.007884 -0.006923 0.012156 0.000000 0.000000 0.000000
# 4 0.000000 0.000000 0.000000 0.033975 0.000000 0.000000
# 5 0.000000 0.000000 0.000000 0.000000 0.061228 0.000000
# 6 0.000000 0.000000 0.000000 0.000000 0.000000 0.078650
#
#
# Mechanical properties :
#
#
# Convention : Reuss Voigt Hill
#
# Bulk Modulus (GPa) = 37.84021 56.71769 47.27895
# Shear Modulus (GPa) = 17.76772 21.09249 19.43011
#
# Velocity S-wave (km/s) = 3.37410 3.67626 3.52841
# Velocity P-wave (km/s) = 6.27895 7.37301 6.84786
#
# Compressibility (1/GPa) = 0.02642691
#
# Stress axis : x y z
#
# Youngs Moduli (GPa) = 32.29837 51.36067 82.26497
#
# Poissons Ratio (x) = 0.16811 0.64857
# Poissons Ratio (y) = 0.10572 0.56953
# Poissons Ratio (z) = 0.25464 0.35557
#
# Static dielectric constant tensor:
#      x y z
#    x 2.602800 0.000000 0.000000 
#    y 0.000000 3.022950 0.000000 
#    z 0.000000 0.000000 3.839260 
# 
# 
# High freq. dielectric constant tensor:
#      x y z
#    x 1.522500 0.000000 0.000000 
#    y 0.000000 1.603880 0.000000 
#    z 0.000000 0.000000 1.619970 
# 
# From -- ./inp_files/26393.got.cif
#   From: 2010.03.12/outbox.cif.g09.slc.cpg/sg59_14_cif.got.tgz:26393.got - 2010.04.16 16:29:54.
