data_PCOD8239831
_publ_section_title
;
Structure prediction by ZEFSAII (Michael W. Deem and Ramdas Pophale) SiO2 
 PCOD8239831
Probable space group: P M M N
;
_chemical_formula_sum "Si O2"
_cell_formula_units_Z 48
_cell_length_a 13.456977
_cell_length_b 24.252522
_cell_length_c 8.116092
_cell_angle_alpha 90.000000
_cell_angle_beta 90.000000
_cell_angle_gamma 90.000000
_cell_volume 2648.813485
_symmetry_space_group_name_H-M "P M M N"
_symmetry_group_IT_number 59
_space_group.IT_coordinate_system_code '2'
_symmetry_cell_setting 'orthorhombic'
loop_
_space_group_symop_operation_xyz
x,y,z
1/2-x,1/2-y,z
1/2+x,-y,-z
-x,1/2+y,-z
-x,-y,-z
1/2+x,1/2+y,-z
1/2-x,y,z
x,1/2-y,z
loop_
_atom_site_type_symbol
_atom_site_label
_atom_site_fract_x
_atom_site_fract_y
_atom_site_fract_z
Si Si1 0.364932 0.313851 0.129166
Si Si2 0.446246 0.369519 0.448284
Si Si3 0.454916 0.007508 0.827189
Si Si4 0.634005 0.874652 0.201929
Si Si5 0.858436 0.987087 0.625355
Si Si6 0.358555 0.577839 0.637564
O O1 0.250000 0.328627 0.156024
O O2 0.381739 0.250000 0.091096
O O3 0.421063 0.327610 0.300229
O O4 0.406178 0.346492 0.967589
O O5 0.418651 0.348845 0.633452
O O6 0.384030 0.424446 0.414405
O O7 0.565507 0.378831 0.443254
O O8 0.383515 0.059978 0.810759
O O9 0.551547 0.017235 0.714928
O O10 0.400639 0.947940 0.806123
O O11 0.500000 0.000000 0.000000
O O12 0.750000 0.862322 0.220983
O O13 0.750000 0.988860 0.717778
O O14 0.848758 0.020282 0.458217
O O15 0.250000 0.606314 0.656207
#
# Coordination Sequence:
#
# PCOD8239831 Si02
#       6
#     8   8   8   8   8   8
#     4  10  23  39  54  79 108 134 176 229 274 319
#     4  11  19  35  58  79 105 146 182 213 269 322
#     4  11  20  30  46  74 111 145 177 211 252 315
#     4  11  20  33  54  77 105 141 179 218 261 316
#     4  10  18  31  49  75 109 141 172 209 250 309
#     4  10  19  33  52  77 111 140 173 216 254 310
#
# _framework density 18.121320000000001
#
# number of rings (size 3 to 8) (size 9 to 14) (size 15 to 20)
#    0.000    1.500    3.333    5.000    0.000    3.333 
#    0.000    1.667    0.000    0.500    0.000    0.000 
#    0.000    0.000    0.000    0.000    0.000    0.000 
#
# Total GULP energy -594681.754649 kJ/mol
# GULP energy per Si atom -12389.203222 kJ/mol
# Density = 1.808008 g / cm^3
# Si number density = 18.121320 Si / 1000 Ang^3
#
#
#
# Elastic Constant Matrix: (Units=GPa)
#
#
# Indices 1 2 3 4 5 6 
#
# 1 115.4514 14.7630 23.5123 0.0000 0.0000 0.0000
# 2 14.7630 39.0696 16.7751 0.0000 0.0000 0.0000
# 3 23.5123 16.7751 112.8137 0.0000 0.0000 0.0000
# 4 0.0000 0.0000 0.0000 24.7948 0.0000 0.0000
# 5 0.0000 0.0000 0.0000 0.0000 18.5786 0.0000
# 6 0.0000 0.0000 0.0000 0.0000 0.0000 17.6434
#
#
#
# Elastic Compliance Matrix: (Units=1/GPa)
#
#
# Indices 1 2 3 4 5 6 
#
# 1 0.009339 -0.002877 -0.001519 0.000000 0.000000 0.000000
# 2 -0.002877 0.028227 -0.003598 0.000000 0.000000 0.000000
# 3 -0.001519 -0.003598 0.009716 0.000000 0.000000 0.000000
# 4 0.000000 0.000000 0.000000 0.040331 0.000000 0.000000
# 5 0.000000 0.000000 0.000000 0.000000 0.053825 0.000000
# 6 0.000000 0.000000 0.000000 0.000000 0.000000 0.056678
#
#
# Mechanical properties :
#
#
# Convention : Reuss Voigt Hill
#
# Bulk Modulus (GPa) = 31.95359 41.93727 36.94543
# Shear Modulus (GPa) = 22.26831 26.35565 24.31198
#
# Velocity S-wave (km/s) = 3.50929 3.81780 3.66679
# Velocity P-wave (km/s) = 5.83880 6.52892 6.19348
#
# Compressibility (1/GPa) = 0.03129538
#
# Stress axis : x y z
#
# Youngs Moduli (GPa) = 107.08031 35.42689 102.92680
#
# Poissons Ratio (x) = 0.10192 0.15630
# Poissons Ratio (y) = 0.30805 0.37030
# Poissons Ratio (z) = 0.16261 0.12746
#
# Static dielectric constant tensor:
#      x y z
#    x 4.080390 0.000000 0.000000 
#    y 0.000000 3.066670 0.000000 
#    z 0.000000 0.000000 3.687350 
# 
# 
# High freq. dielectric constant tensor:
#      x y z
#    x 1.702400 0.000000 0.000000 
#    y 0.000000 1.658460 0.000000 
#    z 0.000000 0.000000 1.710720 
# 
# From -- ./inp_files/9204.got.cif
#   From: 2010.03.12/outbox.cif.g09.slc.cpg/sg59_5_cif.got.tgz:9204.got - 2010.04.16 16:29:54.
