data_PCOD8239485
_publ_section_title
;
Structure prediction by ZEFSAII (Michael W. Deem and Ramdas Pophale) SiO2 
 PCOD8239485
Probable space group: P M M N
;
_chemical_formula_sum "Si O2"
_cell_formula_units_Z 56
_cell_length_a 28.080425
_cell_length_b 8.711785
_cell_length_c 13.890600
_cell_angle_alpha 90.000000
_cell_angle_beta 90.000000
_cell_angle_gamma 90.000000
_cell_volume 3398.066164
_symmetry_space_group_name_H-M "P M M N"
_symmetry_group_IT_number 59
_space_group.IT_coordinate_system_code '2'
_symmetry_cell_setting 'orthorhombic'
loop_
_space_group_symop_operation_xyz
x,y,z
1/2-x,1/2-y,z
1/2+x,-y,-z
-x,1/2+y,-z
-x,-y,-z
1/2+x,1/2+y,-z
1/2-x,y,z
x,1/2-y,z
loop_
_atom_site_type_symbol
_atom_site_label
_atom_site_fract_x
_atom_site_fract_y
_atom_site_fract_z
Si Si1 0.482399 0.431364 0.598830
Si Si2 0.937970 0.926025 0.118412
Si Si3 0.106460 0.932092 0.066867
Si Si4 0.466126 0.575701 0.215398
Si Si5 0.696681 0.428041 0.215808
Si Si6 0.602270 0.426400 0.303113
Si Si7 0.196114 0.070201 0.987778
O O1 0.500000 0.500000 0.500000
O O2 0.485731 0.250000 0.594119
O O3 0.515292 0.503204 0.685310
O O4 0.427067 0.474371 0.619050
O O5 0.921573 0.750000 0.135571
O O6 0.994763 0.939842 0.130937
O O7 0.913655 0.037491 0.195068
O O8 0.923440 0.979974 0.013561
O O9 0.101103 0.750000 0.053661
O O10 0.083543 0.986076 0.169786
O O11 0.161630 0.981744 0.062113
O O12 0.458274 0.750000 0.245433
O O13 0.750000 0.468755 0.252184
O O14 0.692890 0.250000 0.185334
O O15 0.659323 0.463371 0.302568
O O16 0.683291 0.527017 0.121828
O O17 0.592523 0.250000 0.327981
O O18 0.250000 0.020040 0.012111
O O19 0.188602 0.250000 0.001061
#
# Coordination Sequence:
#
# PCOD8239485 Si02
#       7
#     8   8   8   8   8   8   8
#     4  10  20  36  54  72  95 121 153 196 243 294
#     4  10  18  29  43  63  95 129 159 192 228 269
#     4  11  19  29  45  65  91 125 161 194 230 273
#     4   8  18  32  46  66  92 121 153 190 231 277
#     4   9  17  29  45  66  94 127 162 197 230 271
#     4  10  18  29  47  71  96 127 162 195 234 283
#     4  10  20  31  43  62  91 127 164 199 236 275
#
# _framework density 16.479962
#
# number of rings (size 3 to 8) (size 9 to 14) (size 15 to 20)
#    0.000    2.286    1.429    3.429    0.000    1.429 
#    0.000    7.857    0.000    0.000    0.000    1.000 
#    0.000    3.429    0.000    0.000    0.000    0.000 
#
# Total GULP energy -693946.548017 kJ/mol
# GULP energy per Si atom -12391.902643 kJ/mol
# Density = 1.644245 g / cm^3
# Si number density = 16.479962 Si / 1000 Ang^3
#
#
#
# Elastic Constant Matrix: (Units=GPa)
#
#
# Indices 1 2 3 4 5 6 
#
# 1 117.1886 30.2952 58.3312 0.0000 0.0000 0.0000
# 2 30.2952 49.4889 23.2012 0.0000 0.0000 0.0000
# 3 58.3312 23.2012 79.3371 0.0000 0.0000 0.0000
# 4 0.0000 0.0000 0.0000 17.2924 0.0000 0.0000
# 5 0.0000 0.0000 0.0000 0.0000 20.5914 0.0000
# 6 0.0000 0.0000 0.0000 0.0000 0.0000 24.6418
#
#
#
# Elastic Compliance Matrix: (Units=1/GPa)
#
#
# Indices 1 2 3 4 5 6 
#
# 1 0.014245 -0.004416 -0.009182 0.000000 0.000000 0.000000
# 2 -0.004416 0.024786 -0.004002 0.000000 0.000000 0.000000
# 3 -0.009182 -0.004002 0.020526 0.000000 0.000000 0.000000
# 4 0.000000 0.000000 0.000000 0.057829 0.000000 0.000000
# 5 0.000000 0.000000 0.000000 0.000000 0.048564 0.000000
# 6 0.000000 0.000000 0.000000 0.000000 0.000000 0.040581
#
#
# Mechanical properties :
#
#
# Convention : Reuss Voigt Hill
#
# Bulk Modulus (GPa) = 41.05517 52.18552 46.62035
# Shear Modulus (GPa) = 20.01203 21.45092 20.73147
#
# Velocity S-wave (km/s) = 3.48850 3.61173 3.55065
# Velocity P-wave (km/s) = 6.41813 7.00911 6.72012
#
# Compressibility (1/GPa) = 0.02435747
#
# Stress axis : x y z
#
# Youngs Moduli (GPa) = 70.19853 40.34580 48.71906
#
# Poissons Ratio (x) = 0.17815 0.44735
# Poissons Ratio (y) = 0.30997 0.19496
# Poissons Ratio (z) = 0.64459 0.16145
#
# Static dielectric constant tensor:
#      x y z
#    x 3.495560 0.000000 0.000000 
#    y 0.000000 3.091030 0.000000 
#    z 0.000000 0.000000 2.923790 
# 
# 
# High freq. dielectric constant tensor:
#      x y z
#    x 1.640960 0.000000 0.000000 
#    y 0.000000 1.636280 0.000000 
#    z 0.000000 0.000000 1.584850 
# 
# From -- ./inp_files/24959.got.cif
#   From: 2010.03.12/outbox.cif.g09.slc.cpg/sg59_13_cif.got.tgz:24959.got - 2010.04.16 16:29:54.
