data_PCOD8239260
_publ_section_title
;
Structure prediction by ZEFSAII (Michael W. Deem and Ramdas Pophale) SiO2 
 PCOD8239260
Probable space group: P M M N
;
_chemical_formula_sum "Si O2"
_cell_formula_units_Z 56
_cell_length_a 26.752655
_cell_length_b 9.129167
_cell_length_c 14.313566
_cell_angle_alpha 90.000000
_cell_angle_beta 90.000000
_cell_angle_gamma 90.000000
_cell_volume 3495.794426
_symmetry_space_group_name_H-M "P M M N"
_symmetry_group_IT_number 59
_space_group.IT_coordinate_system_code '2'
_symmetry_cell_setting 'orthorhombic'
loop_
_space_group_symop_operation_xyz
x,y,z
1/2-x,1/2-y,z
1/2+x,-y,-z
-x,1/2+y,-z
-x,-y,-z
1/2+x,1/2+y,-z
1/2-x,y,z
x,1/2-y,z
loop_
_atom_site_type_symbol
_atom_site_label
_atom_site_fract_x
_atom_site_fract_y
_atom_site_fract_z
Si Si1 0.467981 0.082061 0.377365
Si Si2 0.055481 0.419161 0.170859
Si Si3 0.615486 0.423065 0.272135
Si Si4 0.376353 0.415126 0.011442
Si Si5 0.432250 0.419541 0.574856
Si Si6 0.193751 0.576946 0.879756
Si Si7 0.458008 0.418277 0.858426
O O1 0.487329 0.250000 0.381426
O O2 0.438198 0.050165 0.281433
O O3 0.429984 0.052373 0.463389
O O4 0.515100 0.975853 0.384714
O O5 0.040740 0.250000 0.151913
O O6 0.108137 0.453937 0.118309
O O7 0.013696 0.523238 0.125475
O O8 0.613617 0.250000 0.281358
O O9 0.614070 0.494984 0.375615
O O10 0.664062 0.474884 0.213260
O O11 0.565780 0.480468 0.221584
O O12 0.356156 0.250000 0.002933
O O13 0.332273 0.518054 0.973785
O O14 0.427151 0.436265 0.953185
O O15 0.427134 0.250000 0.599869
O O16 0.250000 0.515650 0.872669
O O17 0.193245 0.750000 0.887076
O O18 0.458867 0.250000 0.824919
#
# Coordination Sequence:
#
# PCOD8239260 Si02
#       7
#     8   8   8   8   8   8   8
#     4   9  18  29  42  60  88 125 157 184 216 252
#     4  10  18  29  43  61  89 124 155 181 214 260
#     4  10  18  29  46  65  88 118 149 184 229 276
#     4   9  19  31  44  65  91 117 147 183 223 267
#     4  10  18  28  42  63  89 118 154 190 219 256
#     4   9  19  35  52  69  88 112 145 185 230 280
#     4  10  18  27  40  62  90 119 152 186 216 253
#
# _framework density 16.01925
#
# number of rings (size 3 to 8) (size 9 to 14) (size 15 to 20)
#    0.000    2.429    1.429    1.714    0.000    2.571 
#    0.000    0.000    0.000    0.000    0.000    1.000 
#    0.000    5.714    0.000    0.000    0.000    0.000 
#
# Total GULP energy -694190.750396 kJ/mol
# GULP energy per Si atom -12396.263400 kJ/mol
# Density = 1.598279 g / cm^3
# Si number density = 16.019250 Si / 1000 Ang^3
#
#
#
# Elastic Constant Matrix: (Units=GPa)
#
#
# Indices 1 2 3 4 5 6 
#
# 1 81.3424 32.4884 47.0334 0.0000 0.0000 0.0000
# 2 32.4884 58.8513 36.2545 0.0000 0.0000 0.0000
# 3 47.0334 36.2545 105.9321 0.0000 0.0000 0.0000
# 4 0.0000 0.0000 0.0000 22.7874 0.0000 0.0000
# 5 0.0000 0.0000 0.0000 0.0000 15.4599 0.0000
# 6 0.0000 0.0000 0.0000 0.0000 0.0000 18.6050
#
#
#
# Elastic Compliance Matrix: (Units=1/GPa)
#
#
# Indices 1 2 3 4 5 6 
#
# 1 0.018290 -0.006455 -0.005911 0.000000 0.000000 0.000000
# 2 -0.006455 0.023810 -0.005283 0.000000 0.000000 0.000000
# 3 -0.005911 -0.005283 0.013873 0.000000 0.000000 0.000000
# 4 0.000000 0.000000 0.000000 0.043884 0.000000 0.000000
# 5 0.000000 0.000000 0.000000 0.000000 0.064683 0.000000
# 6 0.000000 0.000000 0.000000 0.000000 0.000000 0.053749
#
#
# Mechanical properties :
#
#
# Convention : Reuss Voigt Hill
#
# Bulk Modulus (GPa) = 48.37028 53.07538 50.72283
# Shear Modulus (GPa) = 19.19544 20.06043 19.62794
#
# Velocity S-wave (km/s) = 3.46536 3.54258 3.50419
# Velocity P-wave (km/s) = 6.80238 7.06664 6.93577
#
# Compressibility (1/GPa) = 0.02067385
#
# Stress axis : x y z
#
# Youngs Moduli (GPa) = 54.67468 41.99948 72.08446
#
# Poissons Ratio (x) = 0.27111 0.42612
# Poissons Ratio (y) = 0.35294 0.38080
# Poissons Ratio (z) = 0.32321 0.22187
#
# Static dielectric constant tensor:
#      x y z
#    x 2.782280 0.000000 0.000000 
#    y 0.000000 3.082850 0.000000 
#    z 0.000000 0.000000 3.354530 
# 
# 
# High freq. dielectric constant tensor:
#      x y z
#    x 1.563720 0.000000 0.000000 
#    y 0.000000 1.623280 0.000000 
#    z 0.000000 0.000000 1.620650 
# 
# From -- ./inp_files/21720.got.cif
#   From: 2010.03.12/outbox.cif.g09.slc.cpg/sg59_11_cif.got.tgz:21720.got - 2010.04.16 16:29:54.
