data_PCOD8239899
_publ_section_title
;
Structure prediction by ZEFSAII (Michael W. Deem and Ramdas Pophale) SiO2 
 PCOD8239899
Probable space group: P M M N
;
_chemical_formula_sum "Si O2"
_cell_formula_units_Z 64
_cell_length_a 9.142743
_cell_length_b 14.646152
_cell_length_c 24.810200
_cell_angle_alpha 90.000000
_cell_angle_beta 90.000000
_cell_angle_gamma 90.000000
_cell_volume 3322.234732
_symmetry_space_group_name_H-M "P M M N"
_symmetry_group_IT_number 59
_space_group.IT_coordinate_system_code '2'
_symmetry_cell_setting 'orthorhombic'
loop_
_space_group_symop_operation_xyz
x,y,z
1/2-x,1/2-y,z
1/2+x,-y,-z
-x,1/2+y,-z
-x,-y,-z
1/2+x,1/2+y,-z
1/2-x,y,z
x,1/2-y,z
loop_
_atom_site_type_symbol
_atom_site_label
_atom_site_fract_x
_atom_site_fract_y
_atom_site_fract_z
Si Si1 0.580717 0.654417 0.908689
Si Si2 0.922616 0.853652 0.138281
Si Si3 0.417453 0.145635 0.469405
Si Si4 0.576603 0.849146 0.408964
Si Si5 0.082430 0.413366 0.978607
Si Si6 0.922320 0.142596 0.268920
Si Si7 0.575800 0.978258 0.820538
Si Si8 0.922287 0.042333 0.377060
O O1 0.750000 0.654038 0.893435
O O2 0.510624 0.750000 0.887289
O O3 0.517556 0.566972 0.876990
O O4 0.560024 0.657774 0.972976
O O5 0.750000 0.869358 0.143170
O O6 0.963759 0.750000 0.153848
O O7 0.978654 0.871809 0.077064
O O8 0.004650 0.920888 0.180050
O O9 0.250000 0.113746 0.465482
O O10 0.434001 0.250000 0.450477
O O11 0.478521 0.134125 0.530049
O O12 0.512025 0.082314 0.431209
O O13 0.750000 0.842434 0.410750
O O14 0.516051 0.750000 0.387605
O O15 0.527789 0.935185 0.371778
O O16 0.250000 0.440691 0.970479
O O17 0.000000 0.500000 0.000000
O O18 0.750000 0.127087 0.258990
O O19 0.961819 0.250000 0.267028
O O20 0.973882 0.100788 0.325859
O O21 0.015482 0.086977 0.225720
O O22 0.750000 0.987902 0.815352
O O23 0.750000 0.048419 0.383072
#
# Coordination Sequence:
#
# PCOD8239899 Si02
#       8
#     8   8   8   8   8   8   8   8
#     4   9  17  30  50  76 104 134 169 208 254 308
#     4  10  21  37  58  82 110 146 183 219 266 324
#     4   9  17  29  47  74 109 144 175 213 264 321
#     4   8  15  29  49  75 107 141 176 214 260 315
#     4  10  18  31  52  78 110 143 175 213 258 311
#     4  10  22  39  56  77 108 140 172 220 277 327
#     4  11  22  37  58  81 105 137 179 227 274 320
#     4  10  19  32  53  78 104 139 182 225 265 309
#
# _framework density 19.264143000000001
#
# number of rings (size 3 to 8) (size 9 to 14) (size 15 to 20)
#    0.000    2.375    1.250    2.625    0.000    3.750 
#    0.000    0.625    0.000    5.250    0.000    0.000 
#    0.000    0.000    0.000    0.000    0.000    0.000 
#
# Total GULP energy -792993.920634 kJ/mol
# GULP energy per Si atom -12390.530010 kJ/mol
# Density = 1.922030 g / cm^3
# Si number density = 19.264143 Si / 1000 Ang^3
#
#
#
# Elastic Constant Matrix: (Units=GPa)
#
#
# Indices 1 2 3 4 5 6 
#
# 1 36.1576 45.1131 27.5702 0.0000 0.0000 0.0000
# 2 45.1131 170.3628 59.1279 0.0000 0.0000 0.0000
# 3 27.5702 59.1279 68.4250 0.0000 0.0000 0.0000
# 4 0.0000 0.0000 0.0000 27.1599 0.0000 0.0000
# 5 0.0000 0.0000 0.0000 0.0000 23.3513 0.0000
# 6 0.0000 0.0000 0.0000 0.0000 0.0000 25.0256
#
#
#
# Elastic Compliance Matrix: (Units=1/GPa)
#
#
# Indices 1 2 3 4 5 6 
#
# 1 0.047061 -0.008400 -0.011703 0.000000 0.000000 0.000000
# 2 -0.008400 0.009884 -0.005156 0.000000 0.000000 0.000000
# 3 -0.011703 -0.005156 0.023786 0.000000 0.000000 0.000000
# 4 0.000000 0.000000 0.000000 0.036819 0.000000 0.000000
# 5 0.000000 0.000000 0.000000 0.000000 0.042824 0.000000
# 6 0.000000 0.000000 0.000000 0.000000 0.000000 0.039959
#
#
# Mechanical properties :
#
#
# Convention : Reuss Voigt Hill
#
# Bulk Modulus (GPa) = 33.10019 59.84085 46.47052
# Shear Modulus (GPa) = 19.16272 24.64964 21.90618
#
# Velocity S-wave (km/s) = 3.15736 3.58098 3.37582
# Velocity P-wave (km/s) = 5.52372 6.94468 6.27456
#
# Compressibility (1/GPa) = 0.03021131
#
# Stress axis : x y z
#
# Youngs Moduli (GPa) = 21.24886 101.17550 42.04198
#
# Poissons Ratio (x) = 0.84990 0.49203
# Poissons Ratio (y) = 0.17850 0.21678
# Poissons Ratio (z) = 0.24868 0.52168
#
# Static dielectric constant tensor:
#      x y z
#    x 3.193970 0.000000 0.000000 
#    y 0.000000 3.949550 0.000000 
#    z 0.000000 0.000000 3.483610 
# 
# 
# High freq. dielectric constant tensor:
#      x y z
#    x 1.714290 0.000000 0.000000 
#    y 0.000000 1.769950 0.000000 
#    z 0.000000 0.000000 1.732710 
# 
# From -- ./inp_files/31397.got.cif
#   From: 2010.03.12/outbox.cif.g09.slc.cpg/sg59_16_cif.got.tgz:31397.got - 2010.04.16 16:29:54.
