data_PCOD8239277
_publ_section_title
;
Structure prediction by ZEFSAII (Michael W. Deem and Ramdas Pophale) SiO2 
 PCOD8239277
Probable space group: P M M N
;
_chemical_formula_sum "Si O2"
_cell_formula_units_Z 48
_cell_length_a 9.715502
_cell_length_b 25.624149
_cell_length_c 11.630482
_cell_angle_alpha 90.000000
_cell_angle_beta 90.000000
_cell_angle_gamma 90.000000
_cell_volume 2895.425601
_symmetry_space_group_name_H-M "P M M N"
_symmetry_group_IT_number 59
_space_group.IT_coordinate_system_code '2'
_symmetry_cell_setting 'orthorhombic'
loop_
_space_group_symop_operation_xyz
x,y,z
1/2-x,1/2-y,z
1/2+x,-y,-z
-x,1/2+y,-z
-x,-y,-z
1/2+x,1/2+y,-z
1/2-x,y,z
x,1/2-y,z
loop_
_atom_site_type_symbol
_atom_site_label
_atom_site_fract_x
_atom_site_fract_y
_atom_site_fract_z
Si Si1 0.090811 0.309417 0.508554
Si Si2 0.904690 0.563671 0.915953
Si Si3 0.401369 0.622266 0.343580
Si Si4 0.410138 0.945379 0.127146
Si Si5 0.904997 0.891255 0.683085
Si Si6 0.598969 0.457068 0.452931
O O1 0.250000 0.313845 0.542909
O O2 0.044182 0.250000 0.490465
O O3 0.063275 0.337660 0.385274
O O4 0.007142 0.332752 0.617171
O O5 0.750000 0.561273 0.966256
O O6 0.940245 0.507245 0.857815
O O7 0.914703 0.610733 0.821972
O O8 0.008097 0.577212 0.018129
O O9 0.250000 0.645963 0.312374
O O10 0.460355 0.587435 0.238378
O O11 0.380603 0.585762 0.451392
O O12 0.250000 0.935166 0.105785
O O13 0.750000 0.910433 0.648965
O O14 0.021431 0.933229 0.655436
O O15 0.500000 0.500000 0.500000
O O16 0.750000 0.478844 0.416309
#
# Coordination Sequence:
#
# PCOD8239277 Si02
#       6
#     8   8   8   8   8   8
#     4   9  18  32  50  71  91 112 144 189 237 280
#     4   9  17  29  45  65  91 124 157 186 218 259
#     4   9  18  31  46  65  90 121 153 185 223 269
#     4   9  17  29  44  64  92 123 155 187 216 255
#     4   9  17  30  46  64  89 119 149 183 226 274
#     4  10  18  27  41  63  91 119 148 182 222 269
#
# _framework density 16.577874000000001
#
# number of rings (size 3 to 8) (size 9 to 14) (size 15 to 20)
#    0.000    2.833    0.000    1.500    0.000    5.000 
#    0.000    3.333    0.000    1.000    0.000    2.333 
#    0.000    0.000    0.000    0.000    0.000    0.000 
#
# Total GULP energy -594661.023791 kJ/mol
# GULP energy per Si atom -12388.771329 kJ/mol
# Density = 1.654014 g / cm^3
# Si number density = 16.577874 Si / 1000 Ang^3
#
#
#
# Elastic Constant Matrix: (Units=GPa)
#
#
# Indices 1 2 3 4 5 6 
#
# 1 77.0221 28.9072 29.0351 0.0000 0.0000 0.0000
# 2 28.9072 53.0803 23.1874 0.0000 0.0000 0.0000
# 3 29.0351 23.1874 87.8644 0.0000 0.0000 0.0000
# 4 0.0000 0.0000 0.0000 21.3337 0.0000 0.0000
# 5 0.0000 0.0000 0.0000 0.0000 24.6205 0.0000
# 6 0.0000 0.0000 0.0000 0.0000 0.0000 21.4382
#
#
#
# Elastic Compliance Matrix: (Units=1/GPa)
#
#
# Indices 1 2 3 4 5 6 
#
# 1 0.017296 -0.007825 -0.003651 0.000000 0.000000 0.000000
# 2 -0.007825 0.024834 -0.003968 0.000000 0.000000 0.000000
# 3 -0.003651 -0.003968 0.013635 0.000000 0.000000 0.000000
# 4 0.000000 0.000000 0.000000 0.046874 0.000000 0.000000
# 5 0.000000 0.000000 0.000000 0.000000 0.040617 0.000000
# 6 0.000000 0.000000 0.000000 0.000000 0.000000 0.046646
#
#
# Mechanical properties :
#
#
# Convention : Reuss Voigt Hill
#
# Bulk Modulus (GPa) = 40.19574 42.24734 41.22154
# Shear Modulus (GPa) = 21.82638 22.60096 22.21367
#
# Velocity S-wave (km/s) = 3.63243 3.69632 3.66452
# Velocity P-wave (km/s) = 6.47240 6.61487 6.54403
#
# Compressibility (1/GPa) = 0.02487826
#
# Stress axis : x y z
#
# Youngs Moduli (GPa) = 57.81636 40.26737 73.34231
#
# Poissons Ratio (x) = 0.31508 0.26775
# Poissons Ratio (y) = 0.45239 0.29102
# Poissons Ratio (z) = 0.21107 0.15978
#
# Static dielectric constant tensor:
#      x y z
#    x 3.596530 0.000000 0.000000 
#    y 0.000000 3.011200 0.000000 
#    z 0.000000 0.000000 3.050610 
# 
# 
# High freq. dielectric constant tensor:
#      x y z
#    x 1.650610 0.000000 0.000000 
#    y 0.000000 1.600030 0.000000 
#    z 0.000000 0.000000 1.627300 
# 
# From -- ./inp_files/14380.got.cif
#   From: 2010.03.12/outbox.cif.g09.slc.cpg/sg59_8_cif.got.tgz:14380.got - 2010.04.16 16:29:54.
