data_PCOD8239000
_publ_section_title
;
Structure prediction by ZEFSAII (Michael W. Deem and Ramdas Pophale) SiO2 
 PCOD8239000
Probable space group: P N N M
;
_chemical_formula_sum "Si O2"
_cell_formula_units_Z 64
_cell_length_a 30.000000
_cell_length_b 12.000000
_cell_length_c 9.000000
_cell_angle_alpha 90.000000
_cell_angle_beta 90.000000
_cell_angle_gamma 90.000000
_cell_volume 3240.000000
_symmetry_space_group_name_H-M "P N N M"
_symmetry_group_IT_number 58
_symmetry_cell_setting 'orthorhombic'
loop_
_space_group_symop_operation_xyz
x,y,z
-x,-y,z
1/2+x,1/2-y,1/2-z
1/2-x,1/2+y,1/2-z
-x,-y,-z
x,y,-z
1/2-x,1/2+y,1/2+z
1/2+x,1/2-y,1/2+z
loop_
_atom_site_type_symbol
_atom_site_label
_atom_site_fract_x
_atom_site_fract_y
_atom_site_fract_z
Si Si1 0.937304 0.539190 0.168638
Si Si2 0.613077 0.352263 0.322707
Si Si3 0.721535 0.950645 0.322930
Si Si4 0.156655 0.369525 0.833209
Si Si5 0.968467 0.757116 0.672267
Si Si6 0.937431 0.314157 0.672498
Si Si7 0.679657 0.508828 0.827485
Si Si8 0.837039 0.262834 0.672153
O O1 0.883853 0.543218 0.172220
O O2 0.957599 0.633553 0.272574
O O3 0.951825 0.420077 0.230254
O O4 0.954817 0.554732 0.000000
O O5 0.609590 0.349114 0.500000
O O6 0.641523 0.246660 0.257121
O O7 0.562298 0.346584 0.260314
O O8 0.638551 0.461548 0.267866
O O9 0.716521 0.947925 0.500000
O O10 0.773477 0.953491 0.275878
O O11 0.696190 0.843899 0.259295
O O12 0.698339 0.064805 0.259632
O O13 0.170037 0.337598 0.000000
O O14 0.956113 0.767984 0.500000
O O15 0.022143 0.775921 0.696604
O O16 0.935485 0.349209 0.500000
O O17 0.889050 0.268021 0.723965
O O18 0.681436 0.639935 0.796721
O O19 0.670443 0.483910 0.000000
O O20 0.833711 0.294710 0.500000
#
# Coordination Sequence:
#
# PCOD8239000 Si02
#       8
#     8   8   8   8   8   8   8   8
#     4  10  18  30  50  79 116 154 188 230 286 343
#     4  10  21  38  60  84 114 150 194 238 284 341
#     4  10  20  37  59  84 113 147 186 229 287 345
#     4   8  16  31  52  79 110 144 178 222 276 329
#     4  10  20  34  54  80 114 151 192 240 293 347
#     4  10  20  34  53  80 113 152 195 243 293 345
#     4  10  23  40  60  83 113 151 190 236 287 339
#     4  10  22  40  60  85 116 151 195 240 288 343
#
# _framework density 19.753086
#
# number of rings (size 3 to 8) (size 9 to 14) (size 15 to 20)
#    0.000    2.250    1.250    2.250    1.750    3.500 
#    0.000    1.250    0.000    3.750    0.000    0.000 
#    0.000    0.000    0.000    0.000    0.000    0.000 
#
# Total GULP energy -793218.082740 kJ/mol
# GULP energy per Si atom -12394.032543 kJ/mol
# Density = 1.970813 g / cm^3
# Si number density = 19.753086 Si / 1000 Ang^3
#
#
#
# Elastic Constant Matrix: (Units=GPa)
#
#
# Indices 1 2 3 4 5 6 
#
# 1 128.2054 32.5729 34.7012 0.0000 0.0000 0.0000
# 2 32.5729 54.3326 22.0308 0.0000 0.0000 0.0000
# 3 34.7012 22.0308 66.1978 0.0000 0.0000 0.0000
# 4 0.0000 0.0000 0.0000 24.7065 0.0000 0.0000
# 5 0.0000 0.0000 0.0000 0.0000 28.1195 0.0000
# 6 0.0000 0.0000 0.0000 0.0000 0.0000 24.2114
#
#
#
# Elastic Compliance Matrix: (Units=1/GPa)
#
#
# Indices 1 2 3 4 5 6 
#
# 1 0.009939 -0.004446 -0.003731 0.000000 0.000000 0.000000
# 2 -0.004446 0.023265 -0.005412 0.000000 0.000000 0.000000
# 3 -0.003731 -0.005412 0.018863 0.000000 0.000000 0.000000
# 4 0.000000 0.000000 0.000000 0.040475 0.000000 0.000000
# 5 0.000000 0.000000 0.000000 0.000000 0.035563 0.000000
# 6 0.000000 0.000000 0.000000 0.000000 0.000000 0.041303
#
#
# Mechanical properties :
#
#
# Convention : Reuss Voigt Hill
#
# Bulk Modulus (GPa) = 40.17669 47.48282 43.82976
# Shear Modulus (GPa) = 24.40430 26.03621 25.22025
#
# Velocity S-wave (km/s) = 3.51874 3.63448 3.57708
# Velocity P-wave (km/s) = 6.07390 6.45778 6.26878
#
# Compressibility (1/GPa) = 0.02489005
#
# Stress axis : x y z
#
# Youngs Moduli (GPa) = 100.61034 42.98287 53.01386
#
# Poissons Ratio (x) = 0.19110 0.19777
# Poissons Ratio (y) = 0.44732 0.28691
# Poissons Ratio (z) = 0.37534 0.23263
#
# Static dielectric constant tensor:
#      x y z
#    x 3.963900 0.000000 0.000000 
#    y 0.000000 3.361350 0.000000 
#    z 0.000000 0.000000 3.453950 
# 
# 
# High freq. dielectric constant tensor:
#      x y z
#    x 1.791840 0.000000 0.000000 
#    y 0.000000 1.746640 0.000000 
#    z 0.000000 0.000000 1.755990 
# 
# From -- ./inp_files/10962.got.cif
#   From: 2010.06.25/outbox.ucp.g09.slc.cvg/sg58_6_cif.got.tgz:10962.got - 2010.06.28 15:54:47.
