data_PCOD8239993
_publ_section_title
;
Structure prediction by ZEFSAII (Michael W. Deem and Ramdas Pophale) SiO2 
 PCOD8239993
Probable space group: P M M N
;
_chemical_formula_sum "Si O2"
_cell_formula_units_Z 56
_cell_length_a 20.574560
_cell_length_b 9.284221
_cell_length_c 15.988659
_cell_angle_alpha 90.000000
_cell_angle_beta 90.000000
_cell_angle_gamma 90.000000
_cell_volume 3054.133849
_symmetry_space_group_name_H-M "P M M N"
_symmetry_group_IT_number 59
_space_group.IT_coordinate_system_code '2'
_symmetry_cell_setting 'orthorhombic'
loop_
_space_group_symop_operation_xyz
x,y,z
1/2-x,1/2-y,z
1/2+x,-y,-z
-x,1/2+y,-z
-x,-y,-z
1/2+x,1/2+y,-z
1/2-x,y,z
x,1/2-y,z
loop_
_atom_site_type_symbol
_atom_site_label
_atom_site_fract_x
_atom_site_fract_y
_atom_site_fract_z
Si Si1 0.457146 0.417570 0.880925
Si Si2 0.174328 0.588561 0.169345
Si Si3 0.002091 0.419830 0.587046
Si Si4 0.419341 0.082938 0.067172
Si Si5 0.361851 0.919014 0.349176
Si Si6 0.388136 0.079681 0.714346
Si Si7 0.250000 0.421362 0.647002
Si Si8 0.250000 0.921663 0.471307
O O1 0.474358 0.250000 0.868205
O O2 0.523721 0.505587 0.881034
O O3 0.411662 0.475387 0.805449
O O4 0.420994 0.445404 0.968151
O O5 0.250000 0.595638 0.155871
O O6 0.144542 0.750000 0.161545
O O7 0.147724 0.485016 0.097329
O O8 0.157648 0.517450 0.259152
O O9 0.006705 0.250000 0.570494
O O10 0.936057 0.461247 0.634534
O O11 0.000000 0.500000 0.500000
O O12 0.062761 0.476865 0.642254
O O13 0.423045 0.250000 0.088533
O O14 0.350404 0.750000 0.344966
O O15 0.313907 0.976664 0.421541
O O16 0.390554 0.250000 0.713668
O O17 0.314399 0.027208 0.697366
O O18 0.250000 0.250000 0.633504
O O19 0.250000 0.498282 0.558672
O O20 0.250000 0.750000 0.485952
#
# Coordination Sequence:
#
# PCOD8239993 Si02
#       8
#     8   8   8   8   8   8   4   4
#     4   9  18  36  58  77  99 137 182 214 252 315
#     4  10  19  34  55  77 104 143 185 214 248 310
#     4  10  19  31  49  73 101 129 165 215 261 301
#     4  10  20  33  53  83 111 133 165 219 276 312
#     4   9  17  31  52  74  96 131 178 216 245 298
#     4   9  18  34  54  75  98 133 179 216 247 301
#     4  10  20  34  52  73 100 132 170 215 262 308
#     4  10  18  32  52  73  98 130 174 217 256 308
#
# _framework density 18.335804
#
# number of rings (size 3 to 8) (size 9 to 14) (size 15 to 20)
#    0.000    2.429    0.714    2.143    0.000    3.143 
#    1.286    4.286    0.000    0.000    0.000    0.000 
#    0.000    0.000    0.000    0.000    0.000    0.000 
#
# Total GULP energy -694337.923570 kJ/mol
# GULP energy per Si atom -12398.891492 kJ/mol
# Density = 1.829407 g / cm^3
# Si number density = 18.335804 Si / 1000 Ang^3
#
#
#
# Elastic Constant Matrix: (Units=GPa)
#
#
# Indices 1 2 3 4 5 6 
#
# 1 137.0874 33.8420 72.4908 0.0000 0.0000 0.0000
# 2 33.8420 43.2448 41.6762 0.0000 0.0000 0.0000
# 3 72.4908 41.6762 130.6682 0.0000 0.0000 0.0000
# 4 0.0000 0.0000 0.0000 28.8363 0.0000 0.0000
# 5 0.0000 0.0000 0.0000 0.0000 34.9666 0.0000
# 6 0.0000 0.0000 0.0000 0.0000 0.0000 19.7948
#
#
#
# Elastic Compliance Matrix: (Units=1/GPa)
#
#
# Indices 1 2 3 4 5 6 
#
# 1 0.010749 -0.003847 -0.004736 0.000000 0.000000 0.000000
# 2 -0.003847 0.034764 -0.008953 0.000000 0.000000 0.000000
# 3 -0.004736 -0.008953 0.013136 0.000000 0.000000 0.000000
# 4 0.000000 0.000000 0.000000 0.034678 0.000000 0.000000
# 5 0.000000 0.000000 0.000000 0.000000 0.028599 0.000000
# 6 0.000000 0.000000 0.000000 0.000000 0.000000 0.050518
#
#
# Mechanical properties :
#
#
# Convention : Reuss Voigt Hill
#
# Bulk Modulus (GPa) = 42.41798 67.44650 54.93224
# Shear Modulus (GPa) = 23.21526 27.58563 25.40044
#
# Velocity S-wave (km/s) = 3.56211 3.88295 3.72599
# Velocity P-wave (km/s) = 6.33264 7.54765 6.96668
#
# Compressibility (1/GPa) = 0.02357491
#
# Stress axis : x y z
#
# Youngs Moduli (GPa) = 93.03397 28.76573 76.12693
#
# Poissons Ratio (x) = 0.11068 0.36053
# Poissons Ratio (y) = 0.35795 0.68158
# Poissons Ratio (z) = 0.44060 0.25755
#
# Static dielectric constant tensor:
#      x y z
#    x 3.233090 0.000000 0.000000 
#    y 0.000000 3.124780 0.000000 
#    z 0.000000 0.000000 3.933760 
# 
# 
# High freq. dielectric constant tensor:
#      x y z
#    x 1.718730 0.000000 0.000000 
#    y 0.000000 1.675410 0.000000 
#    z 0.000000 0.000000 1.718740 
# 
# From -- ./inp_files/24329.got.cif
#   From: 2010.03.12/outbox.cif.g09.slc.cpg/sg59_13_cif.got.tgz:24329.got - 2010.04.16 16:29:54.
