data_PCOD8239916
_publ_section_title
;
Structure prediction by ZEFSAII (Michael W. Deem and Ramdas Pophale) SiO2 
 PCOD8239916
Probable space group: P M M N
;
_chemical_formula_sum "Si O2"
_cell_formula_units_Z 56
_cell_length_a 9.605507
_cell_length_b 15.582712
_cell_length_c 21.242741
_cell_angle_alpha 90.000000
_cell_angle_beta 90.000000
_cell_angle_gamma 90.000000
_cell_volume 3179.610269
_symmetry_space_group_name_H-M "P M M N"
_symmetry_group_IT_number 59
_space_group.IT_coordinate_system_code '2'
_symmetry_cell_setting 'orthorhombic'
loop_
_space_group_symop_operation_xyz
x,y,z
1/2-x,1/2-y,z
1/2+x,-y,-z
-x,1/2+y,-z
-x,-y,-z
1/2+x,1/2+y,-z
1/2-x,y,z
x,1/2-y,z
loop_
_atom_site_type_symbol
_atom_site_label
_atom_site_fract_x
_atom_site_fract_y
_atom_site_fract_z
Si Si1 0.589740 0.415332 0.496074
Si Si2 0.589558 0.655139 0.906928
Si Si3 0.093339 0.428429 0.971159
Si Si4 0.584898 0.986394 0.294146
Si Si5 0.085549 0.844099 0.636345
Si Si6 0.411521 0.504908 0.847432
Si Si7 0.409470 0.652256 0.368307
O O1 0.500000 0.500000 0.500000
O O2 0.750000 0.443439 0.488754
O O3 0.540541 0.361441 0.435532
O O4 0.566234 0.357039 0.557170
O O5 0.750000 0.634990 0.890421
O O6 0.547283 0.750000 0.884376
O O7 0.494495 0.588325 0.870142
O O8 0.569350 0.654097 0.984035
O O9 0.250000 0.461447 0.978301
O O10 0.061347 0.423929 0.895721
O O11 0.000000 0.500000 0.000000
O O12 0.750000 0.976660 0.304014
O O13 0.539331 0.976767 0.221524
O O14 0.511458 0.910363 0.331351
O O15 0.530316 0.079078 0.318990
O O16 0.250000 0.840695 0.642076
O O17 0.024805 0.750000 0.656327
O O18 0.250000 0.531372 0.845026
O O19 0.250000 0.629522 0.351101
O O20 0.444338 0.750000 0.349395
#
# Coordination Sequence:
#
# PCOD8239916 Si02
#       7
#     8   8   8   8   8   8   8
#     4  10  18  31  53  76  98 127 165 210 258 302
#     4   9  17  29  47  71  96 124 160 200 245 297
#     4   8  14  27  45  65  90 120 154 192 232 277
#     4  10  20  34  52  76 103 134 172 210 249 297
#     4   9  17  30  49  72  99 131 165 201 245 300
#     4   9  18  31  48  70  97 129 164 201 244 293
#     4  10  21  36  54  75 100 133 172 212 256 304
#
# _framework density 17.612221999999999
#
# number of rings (size 3 to 8) (size 9 to 14) (size 15 to 20)
#    0.000    2.714    1.429    0.429    0.000    3.429 
#    0.000    2.143    0.000    5.143    0.000    0.000 
#    0.000    0.000    0.000    0.000    0.000    0.000 
#
# Total GULP energy -693735.253240 kJ/mol
# GULP energy per Si atom -12388.129522 kJ/mol
# Density = 1.757214 g / cm^3
# Si number density = 17.612222 Si / 1000 Ang^3
#
#
#
# Elastic Constant Matrix: (Units=GPa)
#
#
# Indices 1 2 3 4 5 6 
#
# 1 37.3434 27.0370 27.9014 0.0000 0.0000 0.0000
# 2 27.0370 86.2175 28.8939 0.0000 0.0000 0.0000
# 3 27.9014 28.8939 111.7403 0.0000 0.0000 0.0000
# 4 0.0000 0.0000 0.0000 16.0707 0.0000 0.0000
# 5 0.0000 0.0000 0.0000 0.0000 20.7659 0.0000
# 6 0.0000 0.0000 0.0000 0.0000 0.0000 25.0417
#
#
#
# Elastic Compliance Matrix: (Units=1/GPa)
#
#
# Indices 1 2 3 4 5 6 
#
# 1 0.039391 -0.009916 -0.007272 0.000000 0.000000 0.000000
# 2 -0.009916 0.015195 -0.001453 0.000000 0.000000 0.000000
# 3 -0.007272 -0.001453 0.011141 0.000000 0.000000 0.000000
# 4 0.000000 0.000000 0.000000 0.062225 0.000000 0.000000
# 5 0.000000 0.000000 0.000000 0.000000 0.048156 0.000000
# 6 0.000000 0.000000 0.000000 0.000000 0.000000 0.039933
#
#
# Mechanical properties :
#
#
# Convention : Reuss Voigt Hill
#
# Bulk Modulus (GPa) = 35.15520 44.77396 39.96458
# Shear Modulus (GPa) = 19.02561 22.47360 20.74960
#
# Velocity S-wave (km/s) = 3.29028 3.57602 3.43612
# Velocity P-wave (km/s) = 5.86844 6.52134 6.20349
#
# Compressibility (1/GPa) = 0.02844530
#
# Stress axis : x y z
#
# Youngs Moduli (GPa) = 25.38680 65.81104 89.75967
#
# Poissons Ratio (x) = 0.65255 0.65271
# Poissons Ratio (y) = 0.25172 0.13044
# Poissons Ratio (z) = 0.18461 0.09564
#
# Static dielectric constant tensor:
#      x y z
#    x 3.113330 0.000000 0.000000 
#    y 0.000000 3.293250 0.000000 
#    z 0.000000 0.000000 3.478210 
# 
# 
# High freq. dielectric constant tensor:
#      x y z
#    x 1.663920 0.000000 0.000000 
#    y 0.000000 1.667090 0.000000 
#    z 0.000000 0.000000 1.687050 
# 
# From -- ./inp_files/29176.got.cif
#   From: 2010.03.12/outbox.cif.g09.slc.cpg/sg59_15_cif.got.tgz:29176.got - 2010.04.16 16:29:54.
