data_PCOD8239665
_publ_section_title
;
Structure prediction by ZEFSAII (Michael W. Deem and Ramdas Pophale) SiO2 
 PCOD8239665
Probable space group: P M M N
;
_chemical_formula_sum "Si O2"
_cell_formula_units_Z 40
_cell_length_a 8.706380
_cell_length_b 20.229398
_cell_length_c 12.834628
_cell_angle_alpha 90.000000
_cell_angle_beta 90.000000
_cell_angle_gamma 90.000000
_cell_volume 2260.496625
_symmetry_space_group_name_H-M "P M M N"
_symmetry_group_IT_number 59
_space_group.IT_coordinate_system_code '2'
_symmetry_cell_setting 'orthorhombic'
loop_
_space_group_symop_operation_xyz
x,y,z
1/2-x,1/2-y,z
1/2+x,-y,-z
-x,1/2+y,-z
-x,-y,-z
1/2+x,1/2+y,-z
1/2-x,y,z
x,1/2-y,z
loop_
_atom_site_type_symbol
_atom_site_label
_atom_site_fract_x
_atom_site_fract_y
_atom_site_fract_z
Si Si1 0.930373 0.405090 0.192911
Si Si2 0.432793 0.823480 0.616568
Si Si3 0.431701 0.052802 0.763778
Si Si4 0.569315 0.069891 0.970333
Si Si5 0.568115 0.432918 0.545582
O O1 0.750000 0.410167 0.209652
O O2 0.998157 0.351182 0.272946
O O3 0.994178 0.477927 0.221779
O O4 0.966616 0.384517 0.072474
O O5 0.250000 0.820564 0.619753
O O6 0.500645 0.750000 0.598838
O O7 0.488405 0.871560 0.524599
O O8 0.250000 0.057478 0.754065
O O9 0.487867 0.095612 0.864562
O O10 0.507917 0.082716 0.660871
O O11 0.750000 0.064026 0.950841
O O12 0.500000 0.000000 0.000000
O O13 0.500000 0.500000 0.500000
O O14 0.750000 0.439371 0.544725
#
# Coordination Sequence:
#
# PCOD8239665 Si02
#       5
#     8   8   8   8   8
#     4   8  14  26  44  68  97 124 156 197 242 292
#     4   9  17  30  49  73 100 130 164 205 253 302
#     4  10  18  30  47  70 100 130 165 208 250 295
#     4   9  16  26  43  69 100 129 159 199 245 298
#     4  11  20  31  50  75 101 131 168 210 255 305
#
# _framework density 17.695226999999999
#
# number of rings (size 3 to 8) (size 9 to 14) (size 15 to 20)
#    0.000    2.600    2.000    3.000    0.000    0.000 
#    0.000    0.000    0.000    3.600    0.000    5.600 
#    0.000    0.000    0.000    0.000    0.000    0.000 
#
# Total GULP energy -495633.897614 kJ/mol
# GULP energy per Si atom -12390.847440 kJ/mol
# Density = 1.765495 g / cm^3
# Si number density = 17.695227 Si / 1000 Ang^3
#
#
#
# Elastic Constant Matrix: (Units=GPa)
#
#
# Indices 1 2 3 4 5 6 
#
# 1 51.0592 21.1294 38.3157 0.0000 0.0000 0.0000
# 2 21.1294 92.7768 68.2985 0.0000 0.0000 0.0000
# 3 38.3157 68.2985 196.5848 0.0000 0.0000 0.0000
# 4 0.0000 0.0000 0.0000 20.3226 0.0000 0.0000
# 5 0.0000 0.0000 0.0000 0.0000 30.1833 0.0000
# 6 0.0000 0.0000 0.0000 0.0000 0.0000 11.7894
#
#
#
# Elastic Compliance Matrix: (Units=1/GPa)
#
#
# Indices 1 2 3 4 5 6 
#
# 1 0.023416 -0.002651 -0.003643 0.000000 0.000000 0.000000
# 2 -0.002651 0.014783 -0.004619 0.000000 0.000000 0.000000
# 3 -0.003643 -0.004619 0.007402 0.000000 0.000000 0.000000
# 4 0.000000 0.000000 0.000000 0.049206 0.000000 0.000000
# 5 0.000000 0.000000 0.000000 0.000000 0.033131 0.000000
# 6 0.000000 0.000000 0.000000 0.000000 0.000000 0.084822
#
#
# Mechanical properties :
#
#
# Convention : Reuss Voigt Hill
#
# Bulk Modulus (GPa) = 42.06270 66.21201 54.13735
# Shear Modulus (GPa) = 20.61769 26.63755 23.62762
#
# Velocity S-wave (km/s) = 3.41714 3.88410 3.65808
# Velocity P-wave (km/s) = 6.27626 7.59040 6.96439
#
# Compressibility (1/GPa) = 0.02377403
#
# Stress axis : x y z
#
# Youngs Moduli (GPa) = 42.70613 67.64616 135.10402
#
# Poissons Ratio (x) = 0.17934 0.49216
# Poissons Ratio (y) = 0.11322 0.62407
# Poissons Ratio (z) = 0.15557 0.31247
#
# Static dielectric constant tensor:
#      x y z
#    x 3.095130 0.000000 0.000000 
#    y 0.000000 3.138250 0.000000 
#    z 0.000000 0.000000 4.008840 
# 
# 
# High freq. dielectric constant tensor:
#      x y z
#    x 1.661560 0.000000 0.000000 
#    y 0.000000 1.628010 0.000000 
#    z 0.000000 0.000000 1.712400 
# 
# From -- ./inp_files/14026.got.cif
#   From: 2010.03.12/outbox.cif.g09.slc.cpg/sg59_8_cif.got.tgz:14026.got - 2010.04.16 16:29:54.
