data_PCOD8239185
_publ_section_title
;
Structure prediction by ZEFSAII (Michael W. Deem and Ramdas Pophale) SiO2 
 PCOD8239185
Probable space group: P M M N
;
_chemical_formula_sum "Si O2"
_cell_formula_units_Z 64
_cell_length_a 9.178129
_cell_length_b 14.489053
_cell_length_c 24.102216
_cell_angle_alpha 90.000000
_cell_angle_beta 90.000000
_cell_angle_gamma 90.000000
_cell_volume 3205.170469
_symmetry_space_group_name_H-M "P M M N"
_symmetry_group_IT_number 59
_space_group.IT_coordinate_system_code '2'
_symmetry_cell_setting 'orthorhombic'
loop_
_space_group_symop_operation_xyz
x,y,z
1/2-x,1/2-y,z
1/2+x,-y,-z
-x,1/2+y,-z
-x,-y,-z
1/2+x,1/2+y,-z
1/2-x,y,z
x,1/2-y,z
loop_
_atom_site_type_symbol
_atom_site_label
_atom_site_fract_x
_atom_site_fract_y
_atom_site_fract_z
Si Si1 0.574861 0.016386 0.441633
Si Si2 0.989999 0.352194 0.750000
Si Si3 0.425139 0.516386 0.941633
Si Si4 0.585795 0.848712 0.129508
Si Si5 0.914205 0.848713 0.370492
Si Si6 0.590950 0.552250 0.750000
Si Si7 0.579925 0.642009 0.860823
Si Si8 0.579925 0.857991 0.639177
O O1 0.750000 0.021285 0.446568
O O2 0.513493 0.109742 0.414059
O O3 0.500000 0.000000 0.500000
O O4 0.513029 0.933153 0.402921
O O5 0.911281 0.250000 0.750001
O O6 0.885142 0.441092 0.750001
O O7 0.088728 0.362786 0.804354
O O8 0.088725 0.362786 0.695646
O O9 0.250000 0.521285 0.946568
O O10 0.486971 0.433154 0.902921
O O11 0.486507 0.609741 0.914059
O O12 0.500000 0.500000 0.000000
O O13 0.750000 0.843854 0.108397
O O14 0.508399 0.750000 0.115016
O O15 0.750000 0.843856 0.391603
O O16 0.991601 0.750000 0.384983
O O17 0.750000 0.598815 0.750000
O O18 0.514872 0.589645 0.806188
O O19 0.514872 0.589645 0.693812
O O20 0.750000 0.618248 0.870794
O O21 0.554714 0.750000 0.852904
O O22 0.750000 0.881752 0.629206
O O23 0.554713 0.750000 0.647097
#
# Coordination Sequence:
#
# PCOD8239185 Si02
#       8
#     8   8   8   8   8   8   8   8
#     4  11  23  39  60  85 116 152 197 247 295 346
#     4  10  17  30  55  86 116 143 179 230 291 354
#     4  11  23  39  60  85 116 152 197 247 295 346
#     4   9  18  33  55  82 111 145 183 225 281 350
#     4   9  18  33  55  82 111 145 183 225 281 350
#     4  10  19  34  57  85 119 154 193 236 291 362
#     4  10  21  39  62  86 116 158 202 243 292 353
#     4  10  21  39  62  86 116 158 202 243 292 353
#
# _framework density 19.967735999999999
#
# number of rings (size 3 to 8) (size 9 to 14) (size 15 to 20)
#    0.000    2.000    2.500    1.500    0.000    4.750 
#    0.000    3.125    0.000    3.750    0.000    0.000 
#    0.000    0.000    0.000    0.000    0.000    0.000 
#
# Total GULP energy -792895.615616 kJ/mol
# GULP energy per Si atom -12388.993994 kJ/mol
# Density = 1.992229 g / cm^3
# Si number density = 19.967736 Si / 1000 Ang^3
#
#
#
# Elastic Constant Matrix: (Units=GPa)
#
#
# Indices 1 2 3 4 5 6 
#
# 1 66.0262 34.1352 37.3020 0.0000 0.0000 0.0000
# 2 34.1352 146.8037 67.4500 0.0000 0.0000 0.0000
# 3 37.3020 67.4500 144.9887 0.0000 0.0000 0.0000
# 4 0.0000 0.0000 0.0000 27.3933 0.0000 0.0000
# 5 0.0000 0.0000 0.0000 0.0000 24.9348 0.0000
# 6 0.0000 0.0000 0.0000 0.0000 0.0000 24.7265
#
#
#
# Elastic Compliance Matrix: (Units=1/GPa)
#
#
# Indices 1 2 3 4 5 6 
#
# 1 0.018522 -0.002693 -0.003513 0.000000 0.000000 0.000000
# 2 -0.002693 0.009055 -0.003520 0.000000 0.000000 0.000000
# 3 -0.003513 -0.003520 0.009438 0.000000 0.000000 0.000000
# 4 0.000000 0.000000 0.000000 0.036505 0.000000 0.000000
# 5 0.000000 0.000000 0.000000 0.000000 0.040105 0.000000
# 6 0.000000 0.000000 0.000000 0.000000 0.000000 0.040442
#
#
# Mechanical properties :
#
#
# Convention : Reuss Voigt Hill
#
# Bulk Modulus (GPa) = 56.93097 70.62144 63.77620
# Shear Modulus (GPa) = 27.87485 30.00635 28.94060
#
# Velocity S-wave (km/s) = 3.74035 3.88073 3.81119
# Velocity P-wave (km/s) = 6.87219 7.45148 7.16769
#
# Compressibility (1/GPa) = 0.01756513
#
# Stress axis : x y z
#
# Youngs Moduli (GPa) = 53.98931 110.43448 105.95281
#
# Poissons Ratio (x) = 0.29740 0.37216
# Poissons Ratio (y) = 0.14539 0.37292
# Poissons Ratio (z) = 0.18964 0.38870
#
# Static dielectric constant tensor:
#      x y z
#    x 3.191530 0.000000 0.000000 
#    y 0.000000 3.970040 0.000000 
#    z 0.000000 0.000000 3.644800 
# 
# 
# High freq. dielectric constant tensor:
#      x y z
#    x 1.735920 0.000000 0.000000 
#    y 0.000000 1.796520 0.000000 
#    z 0.000000 0.000000 1.781440 
# 
# From -- ./inp_files/31569.got.cif
#   From: 2010.03.12/outbox.cif.g09.slc.cpg/sg59_16_cif.got.tgz:31569.got - 2010.04.16 16:29:54.
