data_PCOD8239741
_publ_section_title
;
Structure prediction by ZEFSAII (Michael W. Deem and Ramdas Pophale) SiO2 
 PCOD8239741
Probable space group: P M M N
;
_chemical_formula_sum "Si O2"
_cell_formula_units_Z 64
_cell_length_a 18.187433
_cell_length_b 9.163355
_cell_length_c 21.604756
_cell_angle_alpha 90.000000
_cell_angle_beta 90.000000
_cell_angle_gamma 90.000000
_cell_volume 3600.603376
_symmetry_space_group_name_H-M "P M M N"
_symmetry_group_IT_number 59
_space_group.IT_coordinate_system_code '2'
_symmetry_cell_setting 'orthorhombic'
loop_
_space_group_symop_operation_xyz
x,y,z
1/2-x,1/2-y,z
1/2+x,-y,-z
-x,1/2+y,-z
-x,-y,-z
1/2+x,1/2+y,-z
1/2-x,y,z
x,1/2-y,z
loop_
_atom_site_type_symbol
_atom_site_label
_atom_site_fract_x
_atom_site_fract_y
_atom_site_fract_z
Si Si1 0.032865 0.077046 0.059411
Si Si2 0.333800 0.920834 0.119716
Si Si3 0.920778 0.076474 0.385516
Si Si4 0.168825 0.577566 0.732935
Si Si5 0.040706 0.580261 0.815259
Si Si6 0.075457 0.580241 0.379408
Si Si7 0.911928 0.083272 0.757585
Si Si8 0.832082 0.076722 0.504876
O O1 0.039046 0.250000 0.048973
O O2 0.976160 0.035246 0.114299
O O3 0.113484 0.013891 0.074925
O O4 0.000000 0.000000 0.000000
O O5 0.250000 0.965554 0.105420
O O6 0.346807 0.750000 0.106395
O O7 0.349912 0.959278 0.191870
O O8 0.929089 0.250000 0.384194
O O9 0.873354 0.018555 0.327437
O O10 0.879678 0.020797 0.447065
O O11 0.000724 0.008044 0.383955
O O12 0.250000 0.506310 0.737514
O O13 0.176612 0.750000 0.727124
O O14 0.123399 0.535532 0.795226
O O15 0.027808 0.750000 0.806050
O O16 0.985517 0.507192 0.767417
O O17 0.057118 0.750000 0.389679
O O18 0.115019 0.554806 0.312648
O O19 0.130908 0.521555 0.431580
O O20 0.934421 0.250000 0.767235
O O21 0.750000 0.010588 0.500718
O O22 0.827653 0.250000 0.503891
#
# Coordination Sequence:
#
# PCOD8239741 Si02
#       8
#     8   8   8   8   8   8   8   8
#     4  10  20  34  54  78 105 138 174 208 249 300
#     4   9  18  33  53  77 104 134 172 214 253 296
#     4  10  18  30  50  70  91 124 165 206 246 293
#     4   9  16  27  47  73  95 118 156 205 249 286
#     4   9  17  31  50  72  97 126 162 203 243 287
#     4  10  19  30  47  71  98 128 161 202 251 301
#     4   9  17  29  47  71  98 129 161 198 248 300
#     4   9  18  31  46  67  94 125 165 209 248 290
#
# _framework density 17.774799000000002
#
# number of rings (size 3 to 8) (size 9 to 14) (size 15 to 20)
#    0.000    2.625    1.250    1.125    0.000    2.750 
#    0.000    3.125    0.000    6.000    0.000    1.750 
#    0.000    0.000    0.000    0.000    0.000    0.000 
#
# Total GULP energy -793358.727490 kJ/mol
# GULP energy per Si atom -12396.230117 kJ/mol
# Density = 1.773434 g / cm^3
# Si number density = 17.774799 Si / 1000 Ang^3
#
#
#
# Elastic Constant Matrix: (Units=GPa)
#
#
# Indices 1 2 3 4 5 6 
#
# 1 122.9016 32.3582 68.9127 0.0000 0.0000 0.0000
# 2 32.3582 33.2339 34.7938 0.0000 0.0000 0.0000
# 3 68.9127 34.7938 134.8444 0.0000 0.0000 0.0000
# 4 0.0000 0.0000 0.0000 19.1302 0.0000 0.0000
# 5 0.0000 0.0000 0.0000 0.0000 24.9132 0.0000
# 6 0.0000 0.0000 0.0000 0.0000 0.0000 23.8847
#
#
#
# Elastic Compliance Matrix: (Units=1/GPa)
#
#
# Indices 1 2 3 4 5 6 
#
# 1 0.012670 -0.007614 -0.004511 0.000000 0.000000 0.000000
# 2 -0.007614 0.045803 -0.007927 0.000000 0.000000 0.000000
# 3 -0.004511 -0.007927 0.011767 0.000000 0.000000 0.000000
# 4 0.000000 0.000000 0.000000 0.052273 0.000000 0.000000
# 5 0.000000 0.000000 0.000000 0.000000 0.040139 0.000000
# 6 0.000000 0.000000 0.000000 0.000000 0.000000 0.041868
#
#
# Mechanical properties :
#
#
# Convention : Reuss Voigt Hill
#
# Bulk Modulus (GPa) = 33.18332 62.56768 47.87550
# Shear Modulus (GPa) = 19.63332 23.91331 21.77332
#
# Velocity S-wave (km/s) = 3.32710 3.67188 3.50373
# Velocity P-wave (km/s) = 5.78521 7.29750 6.58492
#
# Compressibility (1/GPa) = 0.03013562
#
# Stress axis : x y z
#
# Youngs Moduli (GPa) = 78.92365 21.83284 84.98697
#
# Poissons Ratio (x) = 0.16624 0.38334
# Poissons Ratio (y) = 0.60095 0.67370
# Poissons Ratio (z) = 0.35599 0.17307
#
# Static dielectric constant tensor:
#      x y z
#    x 3.495550 0.000000 0.000000 
#    y 0.000000 3.045040 0.000000 
#    z 0.000000 0.000000 3.495580 
# 
# 
# High freq. dielectric constant tensor:
#      x y z
#    x 1.684270 0.000000 0.000000 
#    y 0.000000 1.657910 0.000000 
#    z 0.000000 0.000000 1.694030 
# 
# From -- ./inp_files/30671.got.cif
#   From: 2010.03.12/outbox.cif.g09.slc.cpg/sg59_16_cif.got.tgz:30671.got - 2010.04.16 16:29:54.
