data_PCOD8239034
_publ_section_title
;
Structure prediction by ZEFSAII (Michael W. Deem and Ramdas Pophale) SiO2 
 PCOD8239034
Probable space group: P M M N
;
_chemical_formula_sum "Si O2"
_cell_formula_units_Z 40
_cell_length_a 8.828211
_cell_length_b 16.225410
_cell_length_c 12.752465
_cell_angle_alpha 90.000000
_cell_angle_beta 90.000000
_cell_angle_gamma 90.000000
_cell_volume 1826.680214
_symmetry_space_group_name_H-M "P M M N"
_symmetry_group_IT_number 59
_space_group.IT_coordinate_system_code '2'
_symmetry_cell_setting 'orthorhombic'
loop_
_space_group_symop_operation_xyz
x,y,z
1/2-x,1/2-y,z
1/2+x,-y,-z
-x,1/2+y,-z
-x,-y,-z
1/2+x,1/2+y,-z
1/2-x,y,z
x,1/2-y,z
loop_
_atom_site_type_symbol
_atom_site_label
_atom_site_fract_x
_atom_site_fract_y
_atom_site_fract_z
Si Si1 0.076191 0.605114 0.050376
Si Si2 0.070345 0.840816 0.829033
Si Si3 0.926943 0.505281 0.772442
Si Si4 0.580324 0.250000 0.788848
Si Si5 0.072510 0.577532 0.441254
Si Si6 0.572377 0.750000 0.425900
O O1 0.250000 0.589263 0.023307
O O2 0.010350 0.524641 0.111928
O O3 0.057008 0.672622 0.138651
O O4 0.997825 0.634150 0.942589
O O5 0.250000 0.839411 0.831795
O O6 0.009960 0.750000 0.798020
O O7 0.011615 0.908574 0.745752
O O8 0.750000 0.523380 0.778536
O O9 0.958245 0.437541 0.682668
O O10 0.750000 0.250000 0.738057
O O11 0.456525 0.250000 0.697972
O O12 0.250000 0.580749 0.467405
O O13 0.000000 0.500000 0.500000
O O14 0.999656 0.665661 0.474360
O O15 0.750000 0.750000 0.450257
#
# Coordination Sequence:
#
# PCOD8239034 Si02
#       6
#     8   8   8   4   8   4
#     4   9  16  31  57  84 113 155 202 244 295 352
#     4  10  20  34  54  81 117 162 207 247 291 355
#     4  10  21  37  59  85 116 155 196 245 306 363
#     4  10  16  32  60  85 116 159 202 243 292 352
#     4  11  24  45  70  95 124 161 205 258 317 376
#     4  12  24  40  66  99 128 157 200 255 316 378
#
# _framework density 21.897648
#
# number of rings (size 3 to 8) (size 9 to 14) (size 15 to 20)
#    0.000    1.800    3.000    2.100    0.000    2.000 
#    1.800    1.000    0.000    0.000    0.000    0.000 
#    0.000    0.000    0.000    0.000    0.000    0.000 
#
# Total GULP energy -495600.653168 kJ/mol
# GULP energy per Si atom -12390.016329 kJ/mol
# Density = 2.184781 g / cm^3
# Si number density = 21.897648 Si / 1000 Ang^3
#
#
#
# Elastic Constant Matrix: (Units=GPa)
#
#
# Indices 1 2 3 4 5 6 
#
# 1 78.1714 54.0231 18.4521 0.0000 0.0000 0.0000
# 2 54.0231 173.4598 9.0485 0.0000 0.0000 0.0000
# 3 18.4521 9.0485 15.1090 0.0000 0.0000 0.0000
# 4 0.0000 0.0000 0.0000 52.6538 0.0000 0.0000
# 5 0.0000 0.0000 0.0000 0.0000 23.8014 0.0000
# 6 0.0000 0.0000 0.0000 0.0000 0.0000 38.8917
#
#
#
# Elastic Compliance Matrix: (Units=1/GPa)
#
#
# Indices 1 2 3 4 5 6 
#
# 1 0.022398 -0.005728 -0.023923 0.000000 0.000000 0.000000
# 2 -0.005728 0.007416 0.002554 0.000000 0.000000 0.000000
# 3 -0.023923 0.002554 0.093873 0.000000 0.000000 0.000000
# 4 0.000000 0.000000 0.000000 0.018992 0.000000 0.000000
# 5 0.000000 0.000000 0.000000 0.000000 0.042014 0.000000
# 6 0.000000 0.000000 0.000000 0.000000 0.000000 0.025712
#
#
# Mechanical properties :
#
#
# Convention : Reuss Voigt Hill
#
# Bulk Modulus (GPa) = 14.39011 47.75417 31.07214
# Shear Modulus (GPa) = 17.37537 35.41715 26.39626
#
# Velocity S-wave (km/s) = 2.81994 4.02605 3.47571
# Velocity P-wave (km/s) = 4.14590 6.59298 5.50708
#
# Compressibility (1/GPa) = 0.06949216
#
# Stress axis : x y z
#
# Youngs Moduli (GPa) = 44.64726 134.84973 10.65268
#
# Poissons Ratio (x) = 0.77238 0.25485
# Poissons Ratio (y) = 0.25573 -0.02721
# Poissons Ratio (z) = 1.06812 -0.34440
#
# Static dielectric constant tensor:
#      x y z
#    x 3.584330 0.000000 0.000000 
#    y 0.000000 4.547950 0.000000 
#    z 0.000000 0.000000 3.934810 
# 
# 
# High freq. dielectric constant tensor:
#      x y z
#    x 1.821280 0.000000 0.000000 
#    y 0.000000 1.891590 0.000000 
#    z 0.000000 0.000000 1.845480 
# 
# From -- ./inp_files/19900.got.cif
#   From: 2010.03.12/outbox.cif.g09.slc.cpg/sg59_10_cif.got.tgz:19900.got - 2010.04.16 16:29:54.
