data_PCOD8239137
_publ_section_title
;
Structure prediction by ZEFSAII (Michael W. Deem and Ramdas Pophale) SiO2 
 PCOD8239137
Probable space group: P M M N
;
_chemical_formula_sum "Si O2"
_cell_formula_units_Z 64
_cell_length_a 28.322913
_cell_length_b 9.217739
_cell_length_c 15.574582
_cell_angle_alpha 90.000000
_cell_angle_beta 90.000000
_cell_angle_gamma 90.000000
_cell_volume 4066.106269
_symmetry_space_group_name_H-M "P M M N"
_symmetry_group_IT_number 59
_space_group.IT_coordinate_system_code '2'
_symmetry_cell_setting 'orthorhombic'
loop_
_space_group_symop_operation_xyz
x,y,z
1/2-x,1/2-y,z
1/2+x,-y,-z
-x,1/2+y,-z
-x,-y,-z
1/2+x,1/2+y,-z
1/2-x,y,z
x,1/2-y,z
loop_
_atom_site_type_symbol
_atom_site_label
_atom_site_fract_x
_atom_site_fract_y
_atom_site_fract_z
Si Si1 0.806044 0.411002 0.015625
Si Si2 0.197312 0.922527 0.172398
Si Si3 0.947166 0.415139 0.421089
Si Si4 0.363849 0.577502 0.330921
Si Si5 0.946579 0.918352 0.594314
Si Si6 0.647679 0.082486 0.334606
Si Si7 0.302766 0.577841 0.491792
Si Si8 0.304663 0.079788 0.819039
O O1 0.750000 0.402415 0.013582
O O2 0.826741 0.250000 0.033540
O O3 0.823437 0.518451 0.090133
O O4 0.822255 0.469535 0.921736
O O5 0.250000 0.985872 0.189347
O O6 0.200373 0.750000 0.176171
O O7 0.161638 0.979928 0.244891
O O8 0.943583 0.250000 0.456572
O O9 0.936322 0.521465 0.499475
O O10 0.908472 0.439529 0.346905
O O11 0.998663 0.444845 0.380975
O O12 0.369998 0.750000 0.330775
O O13 0.415161 0.503254 0.335973
O O14 0.333226 0.521594 0.411706
O O15 0.933215 0.750000 0.595695
O O16 0.660442 0.250000 0.316560
O O17 0.674074 0.024947 0.419617
O O18 0.663822 0.987322 0.255235
O O19 0.250000 0.513362 0.485084
O O20 0.301348 0.750000 0.489054
O O21 0.250000 0.037571 0.803817
O O22 0.312213 0.250000 0.820051
#
# Coordination Sequence:
#
# PCOD8239137 Si02
#       8
#     8   8   8   8   8   8   8   8
#     4   8  14  27  46  66  87 114 151 190 223 256
#     4   8  14  25  45  71  93 116 152 194 224 250
#     4   9  18  33  49  65  84 112 151 193 230 264
#     4  10  17  28  45  66  93 121 151 183 218 262
#     4  10  19  30  46  66  90 116 146 186 230 269
#     4  10  18  30  47  65  85 114 155 191 219 256
#     4   9  16  25  40  62  87 117 152 183 209 245
#     4  10  20  31  43  64  94 123 148 178 222 271
#
# _framework density 15.739874
#
# number of rings (size 3 to 8) (size 9 to 14) (size 15 to 20)
#    0.000    2.750    1.250    2.250    0.000    3.750 
#    0.000    0.625    0.000    2.250    0.000    0.875 
#    0.000    0.000    0.000    0.000    0.000    0.000 
#
# Total GULP energy -793418.778019 kJ/mol
# GULP energy per Si atom -12397.168407 kJ/mol
# Density = 1.570405 g / cm^3
# Si number density = 15.739874 Si / 1000 Ang^3
#
#
#
# Elastic Constant Matrix: (Units=GPa)
#
#
# Indices 1 2 3 4 5 6 
#
# 1 92.2951 36.5464 56.0246 0.0000 0.0000 0.0000
# 2 36.5464 53.5081 44.1604 0.0000 0.0000 0.0000
# 3 56.0246 44.1604 130.0796 0.0000 0.0000 0.0000
# 4 0.0000 0.0000 0.0000 13.4702 0.0000 0.0000
# 5 0.0000 0.0000 0.0000 0.0000 13.6502 0.0000
# 6 0.0000 0.0000 0.0000 0.0000 0.0000 21.1785
#
#
#
# Elastic Compliance Matrix: (Units=1/GPa)
#
#
# Indices 1 2 3 4 5 6 
#
# 1 0.016614 -0.007560 -0.004589 0.000000 0.000000 0.000000
# 2 -0.007560 0.029403 -0.006726 0.000000 0.000000 0.000000
# 3 -0.004589 -0.006726 0.011947 0.000000 0.000000 0.000000
# 4 0.000000 0.000000 0.000000 0.074238 0.000000 0.000000
# 5 0.000000 0.000000 0.000000 0.000000 0.073259 0.000000
# 6 0.000000 0.000000 0.000000 0.000000 0.000000 0.047218
#
#
# Mechanical properties :
#
#
# Convention : Reuss Voigt Hill
#
# Bulk Modulus (GPa) = 49.46927 61.03842 55.25385
# Shear Modulus (GPa) = 16.82549 18.93653 17.88101
#
# Velocity S-wave (km/s) = 3.27306 3.47233 3.37416
# Velocity P-wave (km/s) = 6.76620 7.41213 7.09652
#
# Compressibility (1/GPa) = 0.02021457
#
# Stress axis : x y z
#
# Youngs Moduli (GPa) = 60.19005 34.00973 83.70009
#
# Poissons Ratio (x) = 0.25712 0.38410
# Poissons Ratio (y) = 0.45505 0.56296
# Poissons Ratio (z) = 0.27621 0.22875
#
# Static dielectric constant tensor:
#      x y z
#    x 3.040710 0.000000 0.000000 
#    y 0.000000 2.805170 0.000000 
#    z 0.000000 0.000000 3.110740 
# 
# 
# High freq. dielectric constant tensor:
#      x y z
#    x 1.588300 0.000000 0.000000 
#    y 0.000000 1.582680 0.000000 
#    z 0.000000 0.000000 1.593770 
# 
# From -- ./inp_files/21936.got.cif
#   From: 2010.03.12/outbox.cif.g09.slc.cpg/sg59_11_cif.got.tgz:21936.got - 2010.04.16 16:29:54.
