data_PCOD8239432
_publ_section_title
;
Structure prediction by ZEFSAII (Michael W. Deem and Ramdas Pophale) SiO2 
 PCOD8239432
Probable space group: P M M N
;
_chemical_formula_sum "Si O2"
_cell_formula_units_Z 48
_cell_length_a 13.798546
_cell_length_b 9.519489
_cell_length_c 20.976027
_cell_angle_alpha 90.000000
_cell_angle_beta 90.000000
_cell_angle_gamma 90.000000
_cell_volume 2755.308268
_symmetry_space_group_name_H-M "P M M N"
_symmetry_group_IT_number 59
_space_group.IT_coordinate_system_code '2'
_symmetry_cell_setting 'orthorhombic'
loop_
_space_group_symop_operation_xyz
x,y,z
1/2-x,1/2-y,z
1/2+x,-y,-z
-x,1/2+y,-z
-x,-y,-z
1/2+x,1/2+y,-z
1/2-x,y,z
x,1/2-y,z
loop_
_atom_site_type_symbol
_atom_site_label
_atom_site_fract_x
_atom_site_fract_y
_atom_site_fract_z
Si Si1 0.140962 0.588163 0.521747
Si Si2 0.143291 0.083311 0.036513
Si Si3 0.976783 0.916700 0.843309
Si Si4 0.448152 0.085968 0.410750
Si Si5 0.136767 0.411396 0.894393
Si Si6 0.640806 0.583400 0.721005
O O1 0.250000 0.555819 0.546931
O O2 0.131427 0.750000 0.500861
O O3 0.119726 0.494513 0.460315
O O4 0.062315 0.553814 0.577038
O O5 0.250000 0.020963 0.049831
O O6 0.149195 0.250000 0.038709
O O7 0.073994 0.028217 0.092119
O O8 0.108743 0.036989 0.966046
O O9 0.991179 0.750000 0.841188
O O10 0.914380 0.971462 0.783597
O O11 0.081111 0.992094 0.843036
O O12 0.425160 0.250000 0.418741
O O13 0.419936 0.032605 0.340449
O O14 0.250000 0.431834 0.882180
O O15 0.106589 0.250000 0.884479
O O16 0.750000 0.521277 0.719184
O O17 0.646361 0.750000 0.723094
#
# Coordination Sequence:
#
# PCOD8239432 Si02
#       6
#     8   8   8   8   8   8
#     4   9  17  29  46  69  95 120 149 188 228 259
#     4   8  14  26  45  67  89 115 147 182 224 273
#     4  10  18  28  46  70  91 113 147 189 225 259
#     4   9  17  30  48  69  93 123 155 182 215 264
#     4   9  18  32  47  62  85 119 153 184 225 274
#     4   9  17  29  46  69  95 120 146 178 219 268
#
# _framework density 17.420919000000001
#
# number of rings (size 3 to 8) (size 9 to 14) (size 15 to 20)
#    0.000    3.000    0.000    2.500    0.000    3.333 
#    0.000    1.667    0.000    7.000    0.000    0.000 
#    0.000    0.000    0.000    0.000    0.000    0.000 
#
# Total GULP energy -594969.226978 kJ/mol
# GULP energy per Si atom -12395.192229 kJ/mol
# Density = 1.738127 g / cm^3
# Si number density = 17.420919 Si / 1000 Ang^3
#
#
#
# Elastic Constant Matrix: (Units=GPa)
#
#
# Indices 1 2 3 4 5 6 
#
# 1 129.0510 38.0886 79.8386 0.0000 0.0000 0.0000
# 2 38.0886 31.5225 31.4205 0.0000 0.0000 0.0000
# 3 79.8386 31.4205 110.4401 0.0000 0.0000 0.0000
# 4 0.0000 0.0000 0.0000 19.3022 0.0000 0.0000
# 5 0.0000 0.0000 0.0000 0.0000 26.0609 0.0000
# 6 0.0000 0.0000 0.0000 0.0000 0.0000 24.9297
#
#
#
# Elastic Compliance Matrix: (Units=1/GPa)
#
#
# Indices 1 2 3 4 5 6 
#
# 1 0.016429 -0.011185 -0.008695 0.000000 0.000000 0.000000
# 2 -0.011185 0.051895 -0.006679 0.000000 0.000000 0.000000
# 3 -0.008695 -0.006679 0.017240 0.000000 0.000000 0.000000
# 4 0.000000 0.000000 0.000000 0.051808 0.000000 0.000000
# 5 0.000000 0.000000 0.000000 0.000000 0.038372 0.000000
# 6 0.000000 0.000000 0.000000 0.000000 0.000000 0.040113
#
#
# Mechanical properties :
#
#
# Convention : Reuss Voigt Hill
#
# Bulk Modulus (GPa) = 30.81840 63.30101 47.05971
# Shear Modulus (GPa) = 17.87064 22.16960 20.02012
#
# Velocity S-wave (km/s) = 3.20631 3.57120 3.39366
# Velocity P-wave (km/s) = 5.60679 7.30888 6.51367
#
# Compressibility (1/GPa) = 0.03244814
#
# Stress axis : x y z
#
# Youngs Moduli (GPa) = 60.86795 19.26971 58.00354
#
# Poissons Ratio (x) = 0.21552 0.50432
# Poissons Ratio (y) = 0.68078 0.38739
# Poissons Ratio (z) = 0.52923 0.12870
#
# Static dielectric constant tensor:
#      x y z
#    x 3.421400 0.000000 0.000000 
#    y 0.000000 2.874900 0.000000 
#    z 0.000000 0.000000 3.272740 
# 
# 
# High freq. dielectric constant tensor:
#      x y z
#    x 1.684540 0.000000 0.000000 
#    y 0.000000 1.636290 0.000000 
#    z 0.000000 0.000000 1.658980 
# 
# From -- ./inp_files/28816.got.cif
#   From: 2010.03.12/outbox.cif.g09.slc.cpg/sg59_15_cif.got.tgz:28816.got - 2010.04.16 16:29:54.
