data_PCOD8239244
_publ_section_title
;
Structure prediction by ZEFSAII (Michael W. Deem and Ramdas Pophale) SiO2 
 PCOD8239244
Probable space group: P M M N
;
_chemical_formula_sum "Si O2"
_cell_formula_units_Z 64
_cell_length_a 26.513283
_cell_length_b 8.930098
_cell_length_c 18.495069
_cell_angle_alpha 90.000000
_cell_angle_beta 90.000000
_cell_angle_gamma 90.000000
_cell_volume 4379.007492
_symmetry_space_group_name_H-M "P M M N"
_symmetry_group_IT_number 59
_space_group.IT_coordinate_system_code '2'
_symmetry_cell_setting 'orthorhombic'
loop_
_space_group_symop_operation_xyz
x,y,z
1/2-x,1/2-y,z
1/2+x,-y,-z
-x,1/2+y,-z
-x,-y,-z
1/2+x,1/2+y,-z
1/2-x,y,z
x,1/2-y,z
loop_
_atom_site_type_symbol
_atom_site_label
_atom_site_fract_x
_atom_site_fract_y
_atom_site_fract_z
Si Si1 0.600055 0.425055 0.909712
Si Si2 0.305544 0.571572 0.173696
Si Si3 0.456822 0.076050 0.545623
Si Si4 0.499514 0.928097 0.172491
Si Si5 0.806246 0.426622 0.663619
Si Si6 0.455912 0.573807 0.954626
Si Si7 0.896848 0.921430 0.589155
Si Si8 0.501734 0.572670 0.671977
O O1 0.601703 0.250000 0.894425
O O2 0.652243 0.497043 0.880411
O O3 0.552602 0.486416 0.863520
O O4 0.594127 0.455791 0.996082
O O5 0.250000 0.511678 0.150880
O O6 0.305063 0.750000 0.170874
O O7 0.318490 0.518059 0.255007
O O8 0.469210 0.250000 0.557996
O O9 0.406285 0.057102 0.497195
O O10 0.500000 0.000000 0.500000
O O11 0.455530 0.991383 0.622794
O O12 0.503631 0.750000 0.176010
O O13 0.545848 0.992847 0.123464
O O14 0.503853 0.996951 0.251016
O O15 0.750000 0.480962 0.641436
O O16 0.809040 0.250000 0.660517
O O17 0.846891 0.488483 0.607956
O O18 0.465487 0.750000 0.944700
O O19 0.500000 0.500000 0.000000
O O20 0.886727 0.750000 0.608042
O O21 0.944965 0.976042 0.636317
O O22 0.496326 0.750000 0.678171
#
# Coordination Sequence:
#
# PCOD8239244 Si02
#       8
#     8   8   8   8   8   8   8   8
#     4   8  14  23  36  54  75 103 134 161 195 234
#     4   8  13  22  36  55  78 101 129 165 197 225
#     4   9  17  29  42  58  80 105 135 167 200 240
#     4  10  18  27  40  57  78 106 137 165 198 238
#     4   9  17  27  40  59  81 107 140 173 201 231
#     4   9  16  26  38  54  78 103 131 166 199 237
#     4   9  18  29  41  58  80 107 136 165 199 239
#     4  10  19  29  41  60  83 106 135 167 202 243
#
# _framework density 14.615183999999999
#
# number of rings (size 3 to 8) (size 9 to 14) (size 15 to 20)
#    0.000    3.000    0.000    4.500    0.000    4.250 
#    0.000    0.000    0.000    0.750    0.000    0.000 
#    0.000    1.000    0.000    5.250    0.000    2.625 
#
# Total GULP energy -792908.231438 kJ/mol
# GULP energy per Si atom -12389.191116 kJ/mol
# Density = 1.458192 g / cm^3
# Si number density = 14.615184 Si / 1000 Ang^3
#
#
#
# Elastic Constant Matrix: (Units=GPa)
#
#
# Indices 1 2 3 4 5 6 
#
# 1 77.5632 28.7789 55.0222 0.0000 0.0000 0.0000
# 2 28.7789 58.5681 42.6283 0.0000 0.0000 0.0000
# 3 55.0222 42.6283 119.8713 0.0000 0.0000 0.0000
# 4 0.0000 0.0000 0.0000 25.0349 0.0000 0.0000
# 5 0.0000 0.0000 0.0000 0.0000 23.8767 0.0000
# 6 0.0000 0.0000 0.0000 0.0000 0.0000 16.1548
#
#
#
# Elastic Compliance Matrix: (Units=1/GPa)
#
#
# Indices 1 2 3 4 5 6 
#
# 1 0.019860 -0.004215 -0.007617 0.000000 0.000000 0.000000
# 2 -0.004215 0.023931 -0.006576 0.000000 0.000000 0.000000
# 3 -0.007617 -0.006576 0.014177 0.000000 0.000000 0.000000
# 4 0.000000 0.000000 0.000000 0.039944 0.000000 0.000000
# 5 0.000000 0.000000 0.000000 0.000000 0.041882 0.000000
# 6 0.000000 0.000000 0.000000 0.000000 0.000000 0.061901
#
#
# Mechanical properties :
#
#
# Convention : Reuss Voigt Hill
#
# Bulk Modulus (GPa) = 47.27421 56.54015 51.90718
# Shear Modulus (GPa) = 20.36146 21.65148 21.00647
#
# Velocity S-wave (km/s) = 3.73657 3.85312 3.79529
# Velocity P-wave (km/s) = 7.14368 7.65279 7.40261
#
# Compressibility (1/GPa) = 0.02115318
#
# Stress axis : x y z
#
# Youngs Moduli (GPa) = 50.35248 41.78639 70.53625
#
# Poissons Ratio (x) = 0.17611 0.53729
# Poissons Ratio (y) = 0.21222 0.46383
# Poissons Ratio (z) = 0.38354 0.27478
#
# Static dielectric constant tensor:
#      x y z
#    x 2.942540 0.000000 0.000000 
#    y 0.000000 2.857050 0.000000 
#    z 0.000000 0.000000 3.145870 
# 
# 
# High freq. dielectric constant tensor:
#      x y z
#    x 1.523390 0.000000 0.000000 
#    y 0.000000 1.552730 0.000000 
#    z 0.000000 0.000000 1.554420 
# 
# From -- ./inp_files/28524.got.cif
#   From: 2010.03.12/outbox.cif.g09.slc.cpg/sg59_15_cif.got.tgz:28524.got - 2010.04.16 16:29:54.
