data_PCOD8239776
_publ_section_title
;
Structure prediction by ZEFSAII (Michael W. Deem and Ramdas Pophale) SiO2 
 PCOD8239776
Probable space group: P M M N
;
_chemical_formula_sum "Si O2"
_cell_formula_units_Z 48
_cell_length_a 8.965216
_cell_length_b 15.548454
_cell_length_c 18.742990
_cell_angle_alpha 90.000000
_cell_angle_beta 90.000000
_cell_angle_gamma 90.000000
_cell_volume 2612.683750
_symmetry_space_group_name_H-M "P M M N"
_symmetry_group_IT_number 59
_space_group.IT_coordinate_system_code '2'
_symmetry_cell_setting 'orthorhombic'
loop_
_space_group_symop_operation_xyz
x,y,z
1/2-x,1/2-y,z
1/2+x,-y,-z
-x,1/2+y,-z
-x,-y,-z
1/2+x,1/2+y,-z
1/2-x,y,z
x,1/2-y,z
loop_
_atom_site_type_symbol
_atom_site_label
_atom_site_fract_x
_atom_site_fract_y
_atom_site_fract_z
Si Si1 0.419388 0.250000 0.807765
Si Si2 0.576931 0.919898 0.706990
Si Si3 0.076789 0.422968 0.959299
Si Si4 0.917270 0.563977 0.208967
Si Si5 0.574705 0.250000 0.952856
Si Si6 0.080472 0.750000 0.540907
Si Si7 0.582827 0.250000 0.289436
Si Si8 0.925810 0.922930 0.542025
O O1 0.250000 0.250000 0.841896
O O2 0.438415 0.337582 0.761900
O O3 0.543728 0.250000 0.868627
O O4 0.750000 0.902433 0.715477
O O5 0.496181 0.836006 0.739371
O O6 0.533627 0.935349 0.624910
O O7 0.533607 0.003700 0.751462
O O8 0.250000 0.419451 0.979226
O O9 0.051874 0.436146 0.875191
O O10 0.999531 0.335150 0.986641
O O11 0.000000 0.500000 0.000000
O O12 0.750000 0.531374 0.225780
O O13 0.750000 0.250000 0.968417
O O14 0.250000 0.750000 0.512281
O O15 0.075891 0.750000 0.625753
O O16 0.995110 0.834173 0.512333
O O17 0.750000 0.250000 0.259831
O O18 0.750000 0.921745 0.528460
O O19 0.000000 0.000000 0.500000
#
# Coordination Sequence:
#
# PCOD8239776 Si02
#       8
#     4   8   8   8   4   4   4   8
#     4   8  16  32  51  72  99 132 170 209 244 290
#     4  10  20  33  51  76 104 131 165 209 252 294
#     4  10  20  35  54  77 104 134 169 210 252 298
#     4   9  18  33  53  75 101 133 168 205 249 299
#     4  10  18  30  51  76 101 134 171 205 247 302
#     4   9  17  31  52  75  98 129 167 207 251 303
#     4   9  17  31  52  73  96 131 170 203 244 301
#     4  10  20  34  52  75 102 134 170 209 251 298
#
# _framework density 18.371911999999998
#
# number of rings (size 3 to 8) (size 9 to 14) (size 15 to 20)
#    0.000    2.500    0.000    3.750    0.000    7.333 
#    0.000    1.667    0.000    9.000    0.000    0.000 
#    0.000    0.000    0.000    0.000    0.000    0.000 
#
# Total GULP energy -595117.929358 kJ/mol
# GULP energy per Si atom -12398.290195 kJ/mol
# Density = 1.833010 g / cm^3
# Si number density = 18.371912 Si / 1000 Ang^3
#
#
#
# Elastic Constant Matrix: (Units=GPa)
#
#
# Indices 1 2 3 4 5 6 
#
# 1 123.3455 81.1029 34.4643 0.0000 0.0000 0.0000
# 2 81.1029 187.3376 44.8927 0.0000 0.0000 0.0000
# 3 34.4643 44.8927 32.4223 0.0000 0.0000 0.0000
# 4 0.0000 0.0000 0.0000 29.3388 0.0000 0.0000
# 5 0.0000 0.0000 0.0000 0.0000 25.4046 0.0000
# 6 0.0000 0.0000 0.0000 0.0000 0.0000 41.2335
#
#
#
# Elastic Compliance Matrix: (Units=1/GPa)
#
#
# Indices 1 2 3 4 5 6 
#
# 1 0.012852 -0.003427 -0.008916 0.000000 0.000000 0.000000
# 2 -0.003427 0.008903 -0.008684 0.000000 0.000000 0.000000
# 3 -0.008916 -0.008684 0.052344 0.000000 0.000000 0.000000
# 4 0.000000 0.000000 0.000000 0.034085 0.000000 0.000000
# 5 0.000000 0.000000 0.000000 0.000000 0.039363 0.000000
# 6 0.000000 0.000000 0.000000 0.000000 0.000000 0.024252
#
#
# Mechanical properties :
#
#
# Convention : Reuss Voigt Hill
#
# Bulk Modulus (GPa) = 31.20619 73.78056 52.49338
# Shear Modulus (GPa) = 22.26838 31.37174 26.82006
#
# Velocity S-wave (km/s) = 3.48528 4.13679 3.82493
# Velocity P-wave (km/s) = 5.76359 7.94128 6.93840
#
# Compressibility (1/GPa) = 0.03204492
#
# Stress axis : x y z
#
# Youngs Moduli (GPa) = 77.80795 112.32604 19.10446
#
# Poissons Ratio (x) = 0.38499 0.17033
# Poissons Ratio (y) = 0.26668 0.16589
# Poissons Ratio (z) = 0.69373 0.97538
#
# Static dielectric constant tensor:
#      x y z
#    x 3.460240 0.000000 0.000000 
#    y 0.000000 3.776660 0.000000 
#    z 0.000000 0.000000 2.936370 
# 
# 
# High freq. dielectric constant tensor:
#      x y z
#    x 1.725070 0.000000 0.000000 
#    y 0.000000 1.735300 0.000000 
#    z 0.000000 0.000000 1.659350 
# 
# From -- ./inp_files/25693.got.cif
#   From: 2010.03.12/outbox.cif.g09.slc.cpg/sg59_13_cif.got.tgz:25693.got - 2010.04.16 16:29:54.
