data_PCOD8239690
_publ_section_title
;
Structure prediction by ZEFSAII (Michael W. Deem and Ramdas Pophale) SiO2 
 PCOD8239690
Probable space group: P M M N
;
_chemical_formula_sum "Si O2"
_cell_formula_units_Z 64
_cell_length_a 25.211323
_cell_length_b 8.810516
_cell_length_c 17.113174
_cell_angle_alpha 90.000000
_cell_angle_beta 90.000000
_cell_angle_gamma 90.000000
_cell_volume 3801.259748
_symmetry_space_group_name_H-M "P M M N"
_symmetry_group_IT_number 59
_space_group.IT_coordinate_system_code '2'
_symmetry_cell_setting 'orthorhombic'
loop_
_space_group_symop_operation_xyz
x,y,z
1/2-x,1/2-y,z
1/2+x,-y,-z
-x,1/2+y,-z
-x,-y,-z
1/2+x,1/2+y,-z
1/2-x,y,z
x,1/2-y,z
loop_
_atom_site_type_symbol
_atom_site_label
_atom_site_fract_x
_atom_site_fract_y
_atom_site_fract_z
Si Si1 0.597117 0.072373 0.178753
Si Si2 0.939799 0.570939 0.330079
Si Si3 0.555572 0.571887 0.667847
Si Si4 0.900743 0.427419 0.814554
Si Si5 0.688852 0.924501 0.910142
Si Si6 0.498431 0.429038 0.915198
Si Si7 0.056001 0.424905 0.501481
Si Si8 0.688883 0.924736 0.090059
O O1 0.586100 0.250000 0.173316
O O2 0.596236 0.018147 0.268416
O O3 0.552929 0.984459 0.130213
O O4 0.654610 0.034623 0.144207
O O5 0.937147 0.750000 0.312437
O O6 0.915496 0.528262 0.416671
O O7 0.000783 0.519030 0.322302
O O8 0.543656 0.750000 0.678076
O O9 0.596930 0.515792 0.732476
O O10 0.583426 0.538716 0.582404
O O11 0.903246 0.250000 0.797474
O O12 0.845745 0.466942 0.856013
O O13 0.949323 0.481286 0.868774
O O14 0.750000 0.955202 0.889959
O O15 0.674064 0.750000 0.893663
O O16 0.677278 0.964667 0.000055
O O17 0.495791 0.250000 0.923949
O O18 0.500000 0.500000 0.000000
O O19 0.043744 0.250000 0.508358
O O20 0.000000 0.500000 0.500000
O O21 0.750000 0.955242 0.110233
O O22 0.674126 0.750000 0.106643
#
# Coordination Sequence:
#
# PCOD8239690 Si02
#       8
#     8   8   8   8   8   8   8   8
#     4  12  23  33  49  74 103 135 169 204 247 297
#     4  10  18  31  48  69 100 133 166 205 245 292
#     4  10  18  30  48  71  99 131 166 203 245 297
#     4  11  22  33  48  72 101 134 167 202 246 295
#     4   9  19  36  56  75  95 124 165 211 254 295
#     4  11  23  36  49  68  99 134 170 206 247 299
#     4   8  16  28  45  68  94 127 164 201 243 289
#     4   9  19  37  58  76  96 126 166 212 259 300
#
# _framework density 16.836523
#
# number of rings (size 3 to 8) (size 9 to 14) (size 15 to 20)
#    0.000    2.000    1.250    4.125    0.000    5.500 
#    0.000    1.250    0.000    0.000    0.000    0.875 
#    0.000    7.000    0.000    0.000    0.000    0.000 
#
# Total GULP energy -793327.701805 kJ/mol
# GULP energy per Si atom -12395.745341 kJ/mol
# Density = 1.679820 g / cm^3
# Si number density = 16.836523 Si / 1000 Ang^3
#
#
#
# Elastic Constant Matrix: (Units=GPa)
#
#
# Indices 1 2 3 4 5 6 
#
# 1 62.8889 19.9126 44.3273 0.0000 0.0000 0.0000
# 2 19.9126 47.9238 40.4215 0.0000 0.0000 0.0000
# 3 44.3273 40.4215 139.9807 0.0000 0.0000 0.0000
# 4 0.0000 0.0000 0.0000 25.9026 0.0000 0.0000
# 5 0.0000 0.0000 0.0000 0.0000 16.8502 0.0000
# 6 0.0000 0.0000 0.0000 0.0000 0.0000 25.1796
#
#
#
# Elastic Compliance Matrix: (Units=1/GPa)
#
#
# Indices 1 2 3 4 5 6 
#
# 1 0.021072 -0.004134 -0.005479 0.000000 0.000000 0.000000
# 2 -0.004134 0.028396 -0.006891 0.000000 0.000000 0.000000
# 3 -0.005479 -0.006891 0.010869 0.000000 0.000000 0.000000
# 4 0.000000 0.000000 0.000000 0.038606 0.000000 0.000000
# 5 0.000000 0.000000 0.000000 0.000000 0.059346 0.000000
# 6 0.000000 0.000000 0.000000 0.000000 0.000000 0.039715
#
#
# Mechanical properties :
#
#
# Convention : Reuss Voigt Hill
#
# Bulk Modulus (GPa) = 36.59114 51.12403 43.85759
# Shear Modulus (GPa) = 20.82280 23.32862 22.07571
#
# Velocity S-wave (km/s) = 3.52058 3.72640 3.62495
# Velocity P-wave (km/s) = 6.18921 6.99611 6.60500
#
# Compressibility (1/GPa) = 0.02732902
#
# Stress axis : x y z
#
# Youngs Moduli (GPa) = 47.45643 35.21600 92.00796
#
# Poissons Ratio (x) = 0.14559 0.50411
# Poissons Ratio (y) = 0.19620 0.63399
# Poissons Ratio (z) = 0.26001 0.24266
#
# Static dielectric constant tensor:
#      x y z
#    x 2.840830 0.000000 0.000000 
#    y 0.000000 3.134490 0.000000 
#    z 0.000000 0.000000 3.641130 
# 
# 
# High freq. dielectric constant tensor:
#      x y z
#    x 1.606540 0.000000 0.000000 
#    y 0.000000 1.659470 0.000000 
#    z 0.000000 0.000000 1.663960 
# 
# From -- ./inp_files/28487.got.cif
#   From: 2010.03.12/outbox.cif.g09.slc.cpg/sg59_15_cif.got.tgz:28487.got - 2010.04.16 16:29:54.
