data_PCOD8239461
_publ_section_title
;
Structure prediction by ZEFSAII (Michael W. Deem and Ramdas Pophale) SiO2 
 PCOD8239461
Probable space group: P M M N
;
_chemical_formula_sum "Si O2"
_cell_formula_units_Z 40
_cell_length_a 24.610787
_cell_length_b 9.084736
_cell_length_c 10.411376
_cell_angle_alpha 90.000000
_cell_angle_beta 90.000000
_cell_angle_gamma 90.000000
_cell_volume 2327.801502
_symmetry_space_group_name_H-M "P M M N"
_symmetry_group_IT_number 59
_space_group.IT_coordinate_system_code '2'
_symmetry_cell_setting 'orthorhombic'
loop_
_space_group_symop_operation_xyz
x,y,z
1/2-x,1/2-y,z
1/2+x,-y,-z
-x,1/2+y,-z
-x,-y,-z
1/2+x,1/2+y,-z
1/2-x,y,z
x,1/2-y,z
loop_
_atom_site_type_symbol
_atom_site_label
_atom_site_fract_x
_atom_site_fract_y
_atom_site_fract_z
Si Si1 0.250000 0.085681 0.018093
Si Si2 0.134855 0.075401 0.736976
Si Si3 0.856357 0.420208 0.997787
Si Si4 0.750000 0.588844 0.287917
Si Si5 0.021605 0.078226 0.624962
Si Si6 0.030079 0.919040 0.113889
O O1 0.250000 0.250000 0.077929
O O2 0.196198 0.999118 0.063746
O O3 0.250000 0.094503 0.865604
O O4 0.140551 0.250000 0.765838
O O5 0.192077 0.013970 0.673974
O O6 0.085707 0.042675 0.640361
O O7 0.123511 0.994496 0.870577
O O8 0.842519 0.250000 0.024753
O O9 0.905030 0.437378 0.895788
O O10 0.750000 0.750000 0.350501
O O11 0.011186 0.250000 0.607948
O O12 0.989209 0.017138 0.748937
O O13 0.000000 0.000000 0.500000
O O14 0.011982 0.750000 0.104026
O O15 0.000000 0.000000 0.000000
#
# Coordination Sequence:
#
# PCOD8239461 Si02
#       6
#     4   8   8   4   8   8
#     4   9  17  29  45  68 101 136 164 202 254 304
#     4   9  16  29  48  70  99 131 164 203 253 309
#     4  10  18  28  47  75 102 129 166 211 255 300
#     4   7  12  23  43  68  89 118 156 194 240 290
#     4  10  21  35  50  71 102 138 174 212 257 308
#     4  10  20  33  51  75 103 134 169 211 256 305
#
# _framework density 17.183595
#
# number of rings (size 3 to 8) (size 9 to 14) (size 15 to 20)
#    0.000    2.600    2.000    2.100    0.000    2.400 
#    0.000    0.000    0.000    1.200    0.000    2.800 
#    0.000    0.000    0.000    0.000    0.000    0.000 
#
# Total GULP energy -495698.400686 kJ/mol
# GULP energy per Si atom -12392.460017 kJ/mol
# Density = 1.714448 g / cm^3
# Si number density = 17.183595 Si / 1000 Ang^3
#
#
#
# Elastic Constant Matrix: (Units=GPa)
#
#
# Indices 1 2 3 4 5 6 
#
# 1 156.1163 48.9939 64.2803 0.0000 0.0000 0.0000
# 2 48.9939 68.7403 35.4927 0.0000 0.0000 0.0000
# 3 64.2803 35.4927 96.1030 0.0000 0.0000 0.0000
# 4 0.0000 0.0000 0.0000 22.4051 0.0000 0.0000
# 5 0.0000 0.0000 0.0000 0.0000 18.5618 0.0000
# 6 0.0000 0.0000 0.0000 0.0000 0.0000 26.9660
#
#
#
# Elastic Compliance Matrix: (Units=1/GPa)
#
#
# Indices 1 2 3 4 5 6 
#
# 1 0.009837 -0.004465 -0.004930 0.000000 0.000000 0.000000
# 2 -0.004465 0.020002 -0.004400 0.000000 0.000000 0.000000
# 3 -0.004930 -0.004400 0.015329 0.000000 0.000000 0.000000
# 4 0.000000 0.000000 0.000000 0.044633 0.000000 0.000000
# 5 0.000000 0.000000 0.000000 0.000000 0.053874 0.000000
# 6 0.000000 0.000000 0.000000 0.000000 0.000000 0.037084
#
#
# Mechanical properties :
#
#
# Convention : Reuss Voigt Hill
#
# Bulk Modulus (GPa) = 56.89880 68.72148 62.81014
# Shear Modulus (GPa) = 23.34164 25.06608 24.20386
#
# Velocity S-wave (km/s) = 3.68960 3.82346 3.75713
# Velocity P-wave (km/s) = 7.16485 7.71824 7.44668
#
# Compressibility (1/GPa) = 0.01757506
#
# Stress axis : x y z
#
# Youngs Moduli (GPa) = 101.65730 49.99432 65.23795
#
# Poissons Ratio (x) = 0.22325 0.32165
# Poissons Ratio (y) = 0.45395 0.28708
# Poissons Ratio (z) = 0.50122 0.22000
#
# Static dielectric constant tensor:
#      x y z
#    x 3.846080 0.000000 0.000000 
#    y 0.000000 3.085530 0.000000 
#    z 0.000000 0.000000 2.804650 
# 
# 
# High freq. dielectric constant tensor:
#      x y z
#    x 1.691460 0.000000 0.000000 
#    y 0.000000 1.654940 0.000000 
#    z 0.000000 0.000000 1.606230 
# 
# From -- ./inp_files/5877.got.cif
#   From: 2010.03.12/outbox.cif.g09.slc.cpg/sg59_3_cif.got.tgz:5877.got - 2010.04.16 16:29:54.
