data_PCOD8239101
_publ_section_title
;
Structure prediction by ZEFSAII (Michael W. Deem and Ramdas Pophale) SiO2 
 PCOD8239101
Probable space group: P M M N
;
_chemical_formula_sum "Si O2"
_cell_formula_units_Z 48
_cell_length_a 13.355364
_cell_length_b 32.153973
_cell_length_c 7.546086
_cell_angle_alpha 90.000000
_cell_angle_beta 90.000000
_cell_angle_gamma 90.000000
_cell_volume 3240.500720
_symmetry_space_group_name_H-M "P M M N"
_symmetry_group_IT_number 59
_space_group.IT_coordinate_system_code '2'
_symmetry_cell_setting 'orthorhombic'
loop_
_space_group_symop_operation_xyz
x,y,z
1/2-x,1/2-y,z
1/2+x,-y,-z
-x,1/2+y,-z
-x,-y,-z
1/2+x,1/2+y,-z
1/2-x,y,z
x,1/2-y,z
loop_
_atom_site_type_symbol
_atom_site_label
_atom_site_fract_x
_atom_site_fract_y
_atom_site_fract_z
Si Si1 0.631495 0.703711 0.364874
Si Si2 0.132070 0.141603 0.938130
Si Si3 0.637110 0.495906 0.864552
Si Si4 0.366810 0.053690 0.464739
Si Si5 0.945414 0.946588 0.156402
Si Si6 0.868658 0.857434 0.662041
O O1 0.750000 0.706727 0.382414
O O2 0.584388 0.750000 0.363875
O O3 0.602667 0.680877 0.182248
O O4 0.587532 0.678081 0.532216
O O5 0.250000 0.131170 0.925234
O O6 0.070731 0.102281 0.867712
O O7 0.098705 0.152657 0.137396
O O8 0.750000 0.478295 0.864023
O O9 0.611979 0.519159 0.682088
O O10 0.560973 0.457552 0.887218
O O11 0.627260 0.528398 0.025153
O O12 0.250000 0.058384 0.506402
O O13 0.422106 0.039947 0.643200
O O14 0.410894 0.097669 0.395828
O O15 0.750000 0.858422 0.647194
#
# Coordination Sequence:
#
# PCOD8239101 Si02
#       6
#     8   8   8   8   8   8
#     4   9  17  27  39  58  84 113 142 171 205 245
#     4  10  17  27  43  62  83 113 147 174 204 250
#     4  10  21  32  42  63  89 111 145 187 217 248
#     4  10  17  28  45  63  83 111 146 178 208 249
#     4  11  19  29  47  63  82 116 150 178 215 254
#     4   9  16  25  40  58  81 110 140 173 203 238
#
# _framework density 14.812526
#
# number of rings (size 3 to 8) (size 9 to 14) (size 15 to 20)
#    0.000    2.167    3.333    2.000    0.000    0.667 
#    0.000    3.333    0.000    0.000    0.000    0.000 
#    0.000    0.667    0.000    0.167    0.000    0.000 
#
# Total GULP energy -595165.219324 kJ/mol
# GULP energy per Si atom -12399.275403 kJ/mol
# Density = 1.477881 g / cm^3
# Si number density = 14.812526 Si / 1000 Ang^3
#
#
#
# Elastic Constant Matrix: (Units=GPa)
#
#
# Indices 1 2 3 4 5 6 
#
# 1 39.6923 27.5233 20.2101 0.0000 0.0000 0.0000
# 2 27.5233 63.1234 15.4757 0.0000 0.0000 0.0000
# 3 20.2101 15.4757 104.5405 0.0000 0.0000 0.0000
# 4 0.0000 0.0000 0.0000 20.2847 0.0000 0.0000
# 5 0.0000 0.0000 0.0000 0.0000 10.2691 0.0000
# 6 0.0000 0.0000 0.0000 0.0000 0.0000 11.4549
#
#
#
# Elastic Compliance Matrix: (Units=1/GPa)
#
#
# Indices 1 2 3 4 5 6 
#
# 1 0.038621 -0.015575 -0.005161 0.000000 0.000000 0.000000
# 2 -0.015575 0.022719 -0.000352 0.000000 0.000000 0.000000
# 3 -0.005161 -0.000352 0.010616 0.000000 0.000000 0.000000
# 4 0.000000 0.000000 0.000000 0.049298 0.000000 0.000000
# 5 0.000000 0.000000 0.000000 0.000000 0.097380 0.000000
# 6 0.000000 0.000000 0.000000 0.000000 0.000000 0.087299
#
#
# Mechanical properties :
#
#
# Convention : Reuss Voigt Hill
#
# Bulk Modulus (GPa) = 33.57886 37.08607 35.33246
# Shear Modulus (GPa) = 13.96511 18.01154 15.98832
#
# Velocity S-wave (km/s) = 3.07382 3.49085 3.28895
# Velocity P-wave (km/s) = 5.94275 6.42957 6.19095
#
# Compressibility (1/GPa) = 0.02978064
#
# Stress axis : x y z
#
# Youngs Moduli (GPa) = 25.89253 44.01557 94.20163
#
# Poissons Ratio (x) = 0.68552 0.48615
# Poissons Ratio (y) = 0.40326 0.03319
# Poissons Ratio (z) = 0.13363 0.01551
#
# Static dielectric constant tensor:
#      x y z
#    x 2.419960 0.000000 0.000000 
#    y 0.000000 2.903900 0.000000 
#    z 0.000000 0.000000 3.135280 
# 
# 
# High freq. dielectric constant tensor:
#      x y z
#    x 1.502710 0.000000 0.000000 
#    y 0.000000 1.557540 0.000000 
#    z 0.000000 0.000000 1.591710 
# 
# From -- ./inp_files/7871.got.cif
#   From: 2010.03.12/outbox.cif.g09.slc.cpg/sg59_4_cif.got.tgz:7871.got - 2010.04.16 16:29:54.
