data_PCOD8239196
_publ_section_title
;
Structure prediction by ZEFSAII (Michael W. Deem and Ramdas Pophale) SiO2 
 PCOD8239196
Probable space group: P M M N
;
_chemical_formula_sum "Si O2"
_cell_formula_units_Z 48
_cell_length_a 14.640567
_cell_length_b 19.804652
_cell_length_c 9.036757
_cell_angle_alpha 90.000000
_cell_angle_beta 90.000000
_cell_angle_gamma 90.000000
_cell_volume 2620.219752
_symmetry_space_group_name_H-M "P M M N"
_symmetry_group_IT_number 59
_space_group.IT_coordinate_system_code '2'
_symmetry_cell_setting 'orthorhombic'
loop_
_space_group_symop_operation_xyz
x,y,z
1/2-x,1/2-y,z
1/2+x,-y,-z
-x,1/2+y,-z
-x,-y,-z
1/2+x,1/2+y,-z
1/2-x,y,z
x,1/2-y,z
loop_
_atom_site_type_symbol
_atom_site_label
_atom_site_fract_x
_atom_site_fract_y
_atom_site_fract_z
Si Si1 0.902770 0.960062 0.726131
Si Si2 0.350929 0.595109 0.119804
Si Si3 0.400369 0.517176 0.843312
Si Si4 0.028575 0.326186 0.791246
Si Si5 0.354575 0.111468 0.010925
Si Si6 0.350573 0.425570 0.600297
O O1 0.890474 0.951408 0.553111
O O2 0.008442 0.959992 0.763702
O O3 0.854218 0.028360 0.779214
O O4 0.857934 0.894942 0.811142
O O5 0.250000 0.627282 0.140731
O O6 0.426988 0.647789 0.172946
O O7 0.360203 0.577321 0.944037
O O8 0.414090 0.453089 0.952937
O O9 0.337224 0.490056 0.709424
O O10 0.020619 0.250000 0.732198
O O11 0.091507 0.325326 0.940780
O O12 0.078183 0.371547 0.667050
O O13 0.250000 0.111146 0.953429
O O14 0.250000 0.392959 0.578232
#
# Coordination Sequence:
#
# PCOD8239196 Si02
#       6
#     8   8   8   8   8   8
#     4  11  18  34  56  86 117 139 170 221 282 333
#     4  11  20  35  58  84 110 140 180 230 277 322
#     4  10  17  32  55  82 112 142 166 215 280 326
#     4  11  23  39  55  74 104 150 193 224 263 317
#     4  10  18  33  56  81 109 139 175 224 271 322
#     4  11  22  34  54  86 117 144 175 220 275 336
#
# _framework density 18.319072999999999
#
# number of rings (size 3 to 8) (size 9 to 14) (size 15 to 20)
#    0.000    1.333    5.000    7.000    0.000    1.667 
#    0.000    0.833    0.000    2.000    0.000    0.000 
#    0.000    0.000    0.000    0.000    0.000    0.000 
#
# Total GULP energy -594701.910109 kJ/mol
# GULP energy per Si atom -12389.623127 kJ/mol
# Density = 1.827738 g / cm^3
# Si number density = 18.319073 Si / 1000 Ang^3
#
#
#
# Elastic Constant Matrix: (Units=GPa)
#
#
# Indices 1 2 3 4 5 6 
#
# 1 149.4665 48.8600 40.7219 0.0000 0.0000 0.0000
# 2 48.8600 61.6200 39.3270 0.0000 0.0000 0.0000
# 3 40.7219 39.3270 118.4145 0.0000 0.0000 0.0000
# 4 0.0000 0.0000 0.0000 11.2901 0.0000 0.0000
# 5 0.0000 0.0000 0.0000 0.0000 22.6988 0.0000
# 6 0.0000 0.0000 0.0000 0.0000 0.0000 9.2109
#
#
#
# Elastic Compliance Matrix: (Units=1/GPa)
#
#
# Indices 1 2 3 4 5 6 
#
# 1 0.009112 -0.006630 -0.000931 0.000000 0.000000 0.000000
# 2 -0.006630 0.025418 -0.006162 0.000000 0.000000 0.000000
# 3 -0.000931 -0.006162 0.010812 0.000000 0.000000 0.000000
# 4 0.000000 0.000000 0.000000 0.088573 0.000000 0.000000
# 5 0.000000 0.000000 0.000000 0.000000 0.044055 0.000000
# 6 0.000000 0.000000 0.000000 0.000000 0.000000 0.108567
#
#
# Mechanical properties :
#
#
# Convention : Reuss Voigt Hill
#
# Bulk Modulus (GPa) = 55.88235 65.25765 60.57000
# Shear Modulus (GPa) = 15.62749 22.01276 18.82013
#
# Velocity S-wave (km/s) = 2.92391 3.47022 3.20871
# Velocity P-wave (km/s) = 6.47844 7.19421 6.84569
#
# Compressibility (1/GPa) = 0.01789474
#
# Stress axis : x y z
#
# Youngs Moduli (GPa) = 109.74914 39.34154 92.49354
#
# Poissons Ratio (x) = 0.26085 0.08615
# Poissons Ratio (y) = 0.72769 0.56991
# Poissons Ratio (z) = 0.10222 0.24241
#
# Static dielectric constant tensor:
#      x y z
#    x 3.496990 0.000000 0.000000 
#    y 0.000000 2.968420 0.000000 
#    z 0.000000 0.000000 3.565540 
# 
# 
# High freq. dielectric constant tensor:
#      x y z
#    x 1.731750 0.000000 0.000000 
#    y 0.000000 1.648330 0.000000 
#    z 0.000000 0.000000 1.711270 
# 
# From -- ./inp_files/9226.got.cif
#   From: 2010.03.12/outbox.cif.g09.slc.cpg/sg59_5_cif.got.tgz:9226.got - 2010.04.16 16:29:54.
