data_PCOD8239895
_publ_section_title
;
Structure prediction by ZEFSAII (Michael W. Deem and Ramdas Pophale) SiO2 
 PCOD8239895
Probable space group: P M M N
;
_chemical_formula_sum "Si O2"
_cell_formula_units_Z 56
_cell_length_a 18.135451
_cell_length_b 9.313582
_cell_length_c 18.782878
_cell_angle_alpha 90.000000
_cell_angle_beta 90.000000
_cell_angle_gamma 90.000000
_cell_volume 3172.540979
_symmetry_space_group_name_H-M "P M M N"
_symmetry_group_IT_number 59
_space_group.IT_coordinate_system_code '2'
_symmetry_cell_setting 'orthorhombic'
loop_
_space_group_symop_operation_xyz
x,y,z
1/2-x,1/2-y,z
1/2+x,-y,-z
-x,1/2+y,-z
-x,-y,-z
1/2+x,1/2+y,-z
1/2-x,y,z
x,1/2-y,z
loop_
_atom_site_type_symbol
_atom_site_label
_atom_site_fract_x
_atom_site_fract_y
_atom_site_fract_z
Si Si1 0.408476 0.083204 0.062544
Si Si2 0.544788 0.416977 0.715110
Si Si3 0.167085 0.416127 0.651860
Si Si4 0.026884 0.413359 0.567105
Si Si5 0.421963 0.913753 0.929251
Si Si6 0.593828 0.417923 0.229082
Si Si7 0.164092 0.416599 0.207787
O O1 0.397607 0.250000 0.049030
O O2 0.492658 0.040974 0.079148
O O3 0.359070 0.031834 0.128860
O O4 0.381603 0.005588 0.990274
O O5 0.543090 0.250000 0.737150
O O6 0.530925 0.434925 0.631019
O O7 0.483157 0.502036 0.758866
O O8 0.623401 0.487013 0.733185
O O9 0.250000 0.437202 0.622574
O O10 0.151220 0.250000 0.672115
O O11 0.108456 0.465706 0.592008
O O12 0.157254 0.511928 0.722432
O O13 0.031126 0.250000 0.542408
O O14 0.000000 0.500000 0.500000
O O15 0.416189 0.750000 0.953492
O O16 0.382640 0.938535 0.853197
O O17 0.584161 0.250000 0.247584
O O18 0.250000 0.442632 0.218582
O O19 0.142360 0.250000 0.218545
#
# Coordination Sequence:
#
# PCOD8239895 Si02
#       7
#     8   8   8   8   8   8   8
#     4   9  17  30  46  68  97 129 170 216 262 310
#     4  10  20  34  53  77 105 134 171 212 255 306
#     4   9  19  36  55  78 109 140 172 212 260 312
#     4   9  19  35  56  82 107 136 170 209 253 300
#     4   9  17  29  46  70  97 128 167 215 263 306
#     4  10  18  31  52  77 105 134 172 216 258 307
#     4  10  20  35  53  73 101 137 177 222 270 315
#
# _framework density 17.651467
#
# number of rings (size 3 to 8) (size 9 to 14) (size 15 to 20)
#    0.000    2.571    1.429    1.714    0.000    5.143 
#    0.000    1.429    0.000    5.143    0.000    0.000 
#    0.000    0.000    0.000    0.000    0.000    0.000 
#
# Total GULP energy -694355.771672 kJ/mol
# GULP energy per Si atom -12399.210208 kJ/mol
# Density = 1.761129 g / cm^3
# Si number density = 17.651467 Si / 1000 Ang^3
#
#
#
# Elastic Constant Matrix: (Units=GPa)
#
#
# Indices 1 2 3 4 5 6 
#
# 1 94.6356 45.2436 51.7810 0.0000 0.0000 0.0000
# 2 45.2436 82.3670 58.7345 0.0000 0.0000 0.0000
# 3 51.7810 58.7345 111.9486 0.0000 0.0000 0.0000
# 4 0.0000 0.0000 0.0000 36.8834 0.0000 0.0000
# 5 0.0000 0.0000 0.0000 0.0000 21.3517 0.0000
# 6 0.0000 0.0000 0.0000 0.0000 0.0000 24.7743
#
#
#
# Elastic Compliance Matrix: (Units=1/GPa)
#
#
# Indices 1 2 3 4 5 6 
#
# 1 0.015541 -0.005449 -0.004329 0.000000 0.000000 0.000000
# 2 -0.005449 0.021309 -0.008659 0.000000 0.000000 0.000000
# 3 -0.004329 -0.008659 0.015478 0.000000 0.000000 0.000000
# 4 0.000000 0.000000 0.000000 0.027112 0.000000 0.000000
# 5 0.000000 0.000000 0.000000 0.000000 0.046835 0.000000
# 6 0.000000 0.000000 0.000000 0.000000 0.000000 0.040364
#
#
# Mechanical properties :
#
#
# Convention : Reuss Voigt Hill
#
# Bulk Modulus (GPa) = 64.71560 66.71883 65.71722
# Shear Modulus (GPa) = 23.96170 25.48134 24.72152
#
# Velocity S-wave (km/s) = 3.68841 3.80357 3.74643
# Velocity P-wave (km/s) = 7.40822 7.56105 7.48503
#
# Compressibility (1/GPa) = 0.01545222
#
# Stress axis : x y z
#
# Youngs Moduli (GPa) = 64.34632 46.92888 64.60662
#
# Poissons Ratio (x) = 0.25573 0.27970
# Poissons Ratio (y) = 0.35065 0.55945
# Poissons Ratio (z) = 0.27857 0.40637
#
# Static dielectric constant tensor:
#      x y z
#    x 3.136590 0.000000 0.000000 
#    y 0.000000 3.319060 0.000000 
#    z 0.000000 0.000000 3.233730 
# 
# 
# High freq. dielectric constant tensor:
#      x y z
#    x 1.660710 0.000000 0.000000 
#    y 0.000000 1.685570 0.000000 
#    z 0.000000 0.000000 1.675430 
# 
# From -- ./inp_files/30559.got.cif
#   From: 2010.03.12/outbox.cif.g09.slc.cpg/sg59_16_cif.got.tgz:30559.got - 2010.04.16 16:29:54.
