data_PCOD8239377
_publ_section_title
;
Structure prediction by ZEFSAII (Michael W. Deem and Ramdas Pophale) SiO2 
 PCOD8239377
Probable space group: P M M N
;
_chemical_formula_sum "Si O2"
_cell_formula_units_Z 64
_cell_length_a 29.468682
_cell_length_b 9.669166
_cell_length_c 14.396437
_cell_angle_alpha 90.000000
_cell_angle_beta 90.000000
_cell_angle_gamma 90.000000
_cell_volume 4102.085891
_symmetry_space_group_name_H-M "P M M N"
_symmetry_group_IT_number 59
_space_group.IT_coordinate_system_code '2'
_symmetry_cell_setting 'orthorhombic'
loop_
_space_group_symop_operation_xyz
x,y,z
1/2-x,1/2-y,z
1/2+x,-y,-z
-x,1/2+y,-z
-x,-y,-z
1/2+x,1/2+y,-z
1/2-x,y,z
x,1/2-y,z
loop_
_atom_site_type_symbol
_atom_site_label
_atom_site_fract_x
_atom_site_fract_y
_atom_site_fract_z
Si Si1 0.620131 0.588962 0.565328
Si Si2 0.463059 0.411309 0.555858
Si Si3 0.802038 0.411088 0.633743
Si Si4 0.627041 0.596312 0.926927
Si Si5 0.069625 0.097109 0.252333
Si Si6 0.012820 0.407144 0.760753
Si Si7 0.541150 0.589693 0.039763
Si Si8 0.802324 0.407590 0.846802
O O1 0.633666 0.750000 0.572057
O O2 0.588515 0.557354 0.476324
O O3 0.666139 0.499235 0.564260
O O4 0.590211 0.539964 0.652537
O O5 0.500000 0.500000 0.500000
O O6 0.474639 0.250000 0.539162
O O7 0.463547 0.452449 0.664597
O O8 0.750000 0.440745 0.605996
O O9 0.813408 0.250000 0.621111
O O10 0.810386 0.456537 0.740548
O O11 0.642257 0.750000 0.958714
O O12 0.608718 0.601474 0.822943
O O13 0.670390 0.496523 0.923019
O O14 0.588636 0.537554 0.996542
O O15 0.048991 0.250000 0.268400
O O16 0.030735 0.997557 0.216610
O O17 0.996035 0.250000 0.753009
O O18 0.046171 0.426082 0.848732
O O19 0.532813 0.750000 0.010881
O O20 0.500000 0.500000 0.000000
O O21 0.750000 0.423616 0.873063
O O22 0.818408 0.250000 0.856559
#
# Coordination Sequence:
#
# PCOD8239377 Si02
#       8
#     8   8   8   8   8   8   8   8
#     4  10  19  30  44  65  92 122 152 184 224 268
#     4  10  20  32  46  66  92 122 157 192 227 267
#     4   9  18  31  46  66  92 119 147 182 224 271
#     4  10  19  30  44  65  92 122 152 184 224 268
#     4  10  18  28  43  65  94 122 151 190 228 262
#     4  10  20  32  46  65  90 123 160 194 226 263
#     4  10  20  32  46  66  92 122 157 192 227 267
#     4   9  18  31  46  66  92 119 147 182 224 271
#
# _framework density 15.60182
#
# number of rings (size 3 to 8) (size 9 to 14) (size 15 to 20)
#    0.000    2.250    3.750    0.750    0.000    2.500 
#    0.000    1.250    0.000    0.000    0.000    0.875 
#    0.000    7.000    0.000    0.000    0.000    0.000 
#
# Total GULP energy -793414.357963 kJ/mol
# GULP energy per Si atom -12397.099343 kJ/mol
# Density = 1.556631 g / cm^3
# Si number density = 15.601820 Si / 1000 Ang^3
#
#
#
# Elastic Constant Matrix: (Units=GPa)
#
#
# Indices 1 2 3 4 5 6 
#
# 1 89.3389 50.2037 31.6755 0.0000 0.0000 0.0000
# 2 50.2037 59.4226 25.0941 0.0000 0.0000 0.0000
# 3 31.6755 25.0941 73.5600 0.0000 0.0000 0.0000
# 4 0.0000 0.0000 0.0000 16.7772 0.0000 0.0000
# 5 0.0000 0.0000 0.0000 0.0000 25.4270 0.0000
# 6 0.0000 0.0000 0.0000 0.0000 0.0000 31.4913
#
#
#
# Elastic Compliance Matrix: (Units=1/GPa)
#
#
# Indices 1 2 3 4 5 6 
#
# 1 0.022133 -0.017144 -0.003682 0.000000 0.000000 0.000000
# 2 -0.017144 0.032941 -0.003855 0.000000 0.000000 0.000000
# 3 -0.003682 -0.003855 0.016495 0.000000 0.000000 0.000000
# 4 0.000000 0.000000 0.000000 0.059605 0.000000 0.000000
# 5 0.000000 0.000000 0.000000 0.000000 0.039328 0.000000
# 6 0.000000 0.000000 0.000000 0.000000 0.000000 0.031755
#
#
# Mechanical properties :
#
#
# Convention : Reuss Voigt Hill
#
# Bulk Modulus (GPa) = 45.03226 48.47425 46.75325
# Shear Modulus (GPa) = 19.30339 22.42898 20.86618
#
# Velocity S-wave (km/s) = 3.52128 3.79567 3.66104
# Velocity P-wave (km/s) = 6.74230 7.09553 6.92117
#
# Compressibility (1/GPa) = 0.02220630
#
# Stress axis : x y z
#
# Youngs Moduli (GPa) = 45.18123 30.35717 60.62464
#
# Poissons Ratio (x) = 0.52046 0.22322
# Poissons Ratio (y) = 0.77461 0.23371
# Poissons Ratio (z) = 0.16636 0.11703
#
# Static dielectric constant tensor:
#      x y z
#    x 2.834850 0.000000 0.000000 
#    y 0.000000 3.056800 0.000000 
#    z 0.000000 0.000000 2.965850 
# 
# 
# High freq. dielectric constant tensor:
#      x y z
#    x 1.581540 0.000000 0.000000 
#    y 0.000000 1.602460 0.000000 
#    z 0.000000 0.000000 1.577430 
# 
# From -- ./inp_files/21921.got.cif
#   From: 2010.03.12/outbox.cif.g09.slc.cpg/sg59_11_cif.got.tgz:21921.got - 2010.04.16 16:29:54.
