data_PCOD8239516
_publ_section_title
;
Structure prediction by ZEFSAII (Michael W. Deem and Ramdas Pophale) SiO2 
 PCOD8239516
Probable space group: P M M N
;
_chemical_formula_sum "Si O2"
_cell_formula_units_Z 56
_cell_length_a 22.173134
_cell_length_b 8.663131
_cell_length_c 17.141097
_cell_angle_alpha 90.000000
_cell_angle_beta 90.000000
_cell_angle_gamma 90.000000
_cell_volume 3292.612145
_symmetry_space_group_name_H-M "P M M N"
_symmetry_group_IT_number 59
_space_group.IT_coordinate_system_code '2'
_symmetry_cell_setting 'orthorhombic'
loop_
_space_group_symop_operation_xyz
x,y,z
1/2-x,1/2-y,z
1/2+x,-y,-z
-x,1/2+y,-z
-x,-y,-z
1/2+x,1/2+y,-z
1/2-x,y,z
x,1/2-y,z
loop_
_atom_site_type_symbol
_atom_site_label
_atom_site_fract_x
_atom_site_fract_y
_atom_site_fract_z
Si Si1 0.915895 0.928933 0.504639
Si Si2 0.017118 0.570140 0.627297
Si Si3 0.183899 0.428024 0.080722
Si Si4 0.548461 0.567070 0.940103
Si Si5 0.528398 0.070717 0.775730
Si Si6 0.815821 0.079135 0.593457
Si Si7 0.848325 0.571290 0.744749
O O1 0.923823 0.750000 0.485874
O O2 0.959777 0.980984 0.575145
O O3 0.925513 0.022768 0.424516
O O4 0.849755 0.969733 0.533063
O O5 0.017237 0.750000 0.645870
O O6 0.019847 0.481816 0.710348
O O7 0.250000 0.498343 0.050918
O O8 0.184125 0.250000 0.057347
O O9 0.118864 0.496680 0.048811
O O10 0.185478 0.449701 0.173598
O O11 0.550324 0.750000 0.948157
O O12 0.522157 0.524306 0.855721
O O13 0.500000 0.500000 0.000000
O O14 0.520190 0.250000 0.794974
O O15 0.592675 0.033594 0.738884
O O16 0.750000 0.098393 0.557465
O O17 0.845741 0.250000 0.602248
O O18 0.807188 0.992784 0.676108
O O19 0.866103 0.750000 0.731234
#
# Coordination Sequence:
#
# PCOD8239516 Si02
#       7
#     8   8   8   8   8   8   8
#     4  10  20  32  48  68  93 126 164 205 248 291
#     4  10  19  32  50  71  96 124 159 204 248 292
#     4   8  15  28  47  70  95 127 166 204 241 289
#     4  10  20  34  52  75 105 136 170 209 255 306
#     4  11  20  31  50  73 100 131 165 203 246 297
#     4  11  22  32  43  63  94 131 168 207 249 292
#     4  10  18  29  45  67  95 129 167 203 240 288
#
# _framework density 17.007773
#
# number of rings (size 3 to 8) (size 9 to 14) (size 15 to 20)
#    0.000    2.000    1.429    4.714    0.000    2.857 
#    0.000    0.000    0.000    8.571    0.000    1.000 
#    0.000    5.714    0.000    0.000    0.000    0.000 
#
# Total GULP energy -693765.201291 kJ/mol
# GULP energy per Si atom -12388.664309 kJ/mol
# Density = 1.696906 g / cm^3
# Si number density = 17.007773 Si / 1000 Ang^3
#
#
#
# Elastic Constant Matrix: (Units=GPa)
#
#
# Indices 1 2 3 4 5 6 
#
# 1 93.9841 21.4147 49.1625 0.0000 0.0000 0.0000
# 2 21.4147 58.3304 18.1677 0.0000 0.0000 0.0000
# 3 49.1625 18.1677 74.4208 0.0000 0.0000 0.0000
# 4 0.0000 0.0000 0.0000 28.1005 0.0000 0.0000
# 5 0.0000 0.0000 0.0000 0.0000 13.0078 0.0000
# 6 0.0000 0.0000 0.0000 0.0000 0.0000 19.1982
#
#
#
# Elastic Compliance Matrix: (Units=1/GPa)
#
#
# Indices 1 2 3 4 5 6 
#
# 1 0.016705 -0.002918 -0.010323 0.000000 0.000000 0.000000
# 2 -0.002918 0.019064 -0.002727 0.000000 0.000000 0.000000
# 3 -0.010323 -0.002727 0.020922 0.000000 0.000000 0.000000
# 4 0.000000 0.000000 0.000000 0.035587 0.000000 0.000000
# 5 0.000000 0.000000 0.000000 0.000000 0.076877 0.000000
# 6 0.000000 0.000000 0.000000 0.000000 0.000000 0.052088
#
#
# Mechanical properties :
#
#
# Convention : Reuss Voigt Hill
#
# Bulk Modulus (GPa) = 40.39315 44.91390 42.65352
# Shear Modulus (GPa) = 19.12563 21.26065 20.19314
#
# Velocity S-wave (km/s) = 3.35703 3.53945 3.44944
# Velocity P-wave (km/s) = 6.23118 6.57030 6.40298
#
# Compressibility (1/GPa) = 0.02475668
#
# Stress axis : x y z
#
# Youngs Moduli (GPa) = 59.86330 52.45467 47.79640
#
# Poissons Ratio (x) = 0.15304 0.49340
# Poissons Ratio (y) = 0.17466 0.13032
# Poissons Ratio (z) = 0.61796 0.14302
#
# Static dielectric constant tensor:
#      x y z
#    x 3.266800 0.000000 0.000000 
#    y 0.000000 3.166660 0.000000 
#    z 0.000000 0.000000 3.057460 
# 
# 
# High freq. dielectric constant tensor:
#      x y z
#    x 1.638390 0.000000 0.000000 
#    y 0.000000 1.657590 0.000000 
#    z 0.000000 0.000000 1.626220 
# 
# From -- ./inp_files/28373.got.cif
#   From: 2010.03.12/outbox.cif.g09.slc.cpg/sg59_15_cif.got.tgz:28373.got - 2010.04.16 16:29:54.
