data_PCOD8239893
_publ_section_title
;
Structure prediction by ZEFSAII (Michael W. Deem and Ramdas Pophale) SiO2 
 PCOD8239893
Probable space group: P M M N
;
_chemical_formula_sum "Si O2"
_cell_formula_units_Z 64
_cell_length_a 19.200463
_cell_length_b 8.906831
_cell_length_c 20.657314
_cell_angle_alpha 90.000000
_cell_angle_beta 90.000000
_cell_angle_gamma 90.000000
_cell_volume 3532.716318
_symmetry_space_group_name_H-M "P M M N"
_symmetry_group_IT_number 59
_space_group.IT_coordinate_system_code '2'
_symmetry_cell_setting 'orthorhombic'
loop_
_space_group_symop_operation_xyz
x,y,z
1/2-x,1/2-y,z
1/2+x,-y,-z
-x,1/2+y,-z
-x,-y,-z
1/2+x,1/2+y,-z
1/2-x,y,z
x,1/2-y,z
loop_
_atom_site_type_symbol
_atom_site_label
_atom_site_fract_x
_atom_site_fract_y
_atom_site_fract_z
Si Si1 0.329049 0.076543 0.013417
Si Si2 0.963866 0.072990 0.179257
Si Si3 0.670949 0.073747 0.641993
Si Si4 0.035713 0.927420 0.561048
Si Si5 0.328915 0.075491 0.862556
Si Si6 0.461240 0.073101 0.310737
Si Si7 0.460439 0.572719 0.059661
Si Si8 0.825200 0.427537 0.496687
O O1 0.250000 0.035931 0.032250
O O2 0.344770 0.250000 0.028631
O O3 0.379288 0.973257 0.056537
O O4 0.342298 0.043572 0.938038
O O5 0.969023 0.250000 0.167002
O O6 0.996656 0.024214 0.247408
O O7 0.882896 0.023642 0.178616
O O8 0.007086 0.985247 0.125697
O O9 0.750000 0.032954 0.662942
O O10 0.658451 0.250000 0.646758
O O11 0.656696 0.013180 0.568985
O O12 0.616502 0.994553 0.690237
O O13 0.026374 0.750000 0.556556
O O14 0.117219 0.974615 0.556106
O O15 0.004297 0.990521 0.627692
O O16 0.000000 0.000000 0.500000
O O17 0.250000 0.028864 0.843801
O O18 0.341109 0.250000 0.847341
O O19 0.454185 0.250000 0.314563
O O20 0.468775 0.750000 0.056015
O O21 0.500000 0.500000 0.000000
O O22 0.750000 0.492172 0.474303
O O23 0.820233 0.250000 0.502794
#
# Coordination Sequence:
#
# PCOD8239893 Si02
#       8
#     8   8   8   8   8   8   8   8
#     4   9  18  34  57  85 115 143 175 221 276 328
#     4  11  23  38  54  78 113 151 187 224 266 322
#     4   9  17  31  53  79 103 134 180 224 265 322
#     4  10  18  31  52  77 104 135 173 218 265 316
#     4   9  18  34  57  83 109 140 180 224 271 323
#     4  10  22  36  51  78 113 144 180 222 270 321
#     4  12  23  36  57  84 111 141 181 227 272 322
#     4   8  14  26  47  75 103 132 170 216 264 313
#
# _framework density 18.11637
#
# number of rings (size 3 to 8) (size 9 to 14) (size 15 to 20)
#    0.000    2.250    2.500    3.000    0.000    1.750 
#    0.000    2.500    0.000    3.375    0.000    0.000 
#    0.000    0.000    0.000    0.000    0.000    0.000 
#
# Total GULP energy -793450.445730 kJ/mol
# GULP energy per Si atom -12397.663215 kJ/mol
# Density = 1.807514 g / cm^3
# Si number density = 18.116370 Si / 1000 Ang^3
#
#
#
# Elastic Constant Matrix: (Units=GPa)
#
#
# Indices 1 2 3 4 5 6 
#
# 1 155.9876 50.7997 72.7882 0.0000 0.0000 0.0000
# 2 50.7997 61.9740 45.9746 0.0000 0.0000 0.0000
# 3 72.7882 45.9746 105.4330 0.0000 0.0000 0.0000
# 4 0.0000 0.0000 0.0000 21.1889 0.0000 0.0000
# 5 0.0000 0.0000 0.0000 0.0000 30.1709 0.0000
# 6 0.0000 0.0000 0.0000 0.0000 0.0000 32.4027
#
#
#
# Elastic Compliance Matrix: (Units=1/GPa)
#
#
# Indices 1 2 3 4 5 6 
#
# 1 0.010302 -0.004683 -0.005070 0.000000 0.000000 0.000000
# 2 -0.004683 0.025980 -0.008096 0.000000 0.000000 0.000000
# 3 -0.005070 -0.008096 0.016515 0.000000 0.000000 0.000000
# 4 0.000000 0.000000 0.000000 0.047194 0.000000 0.000000
# 5 0.000000 0.000000 0.000000 0.000000 0.033144 0.000000
# 6 0.000000 0.000000 0.000000 0.000000 0.000000 0.030862
#
#
# Mechanical properties :
#
#
# Convention : Reuss Voigt Hill
#
# Bulk Modulus (GPa) = 58.48155 73.61328 66.04741
# Shear Modulus (GPa) = 24.34339 27.00800 25.67569
#
# Velocity S-wave (km/s) = 3.66966 3.86528 3.76874
# Velocity P-wave (km/s) = 7.09270 7.78732 7.44811
#
# Compressibility (1/GPa) = 0.01709941
#
# Stress axis : x y z
#
# Youngs Moduli (GPa) = 97.07176 38.49083 60.55120
#
# Poissons Ratio (x) = 0.18026 0.30699
# Poissons Ratio (y) = 0.45461 0.49020
# Poissons Ratio (z) = 0.49214 0.31161
#
# Static dielectric constant tensor:
#      x y z
#    x 3.470820 0.000000 0.000000 
#    y 0.000000 3.203610 0.000000 
#    z 0.000000 0.000000 3.406780 
# 
# 
# High freq. dielectric constant tensor:
#      x y z
#    x 1.722300 0.000000 0.000000 
#    y 0.000000 1.685730 0.000000 
#    z 0.000000 0.000000 1.672220 
# 
# From -- ./inp_files/30655.got.cif
#   From: 2010.03.12/outbox.cif.g09.slc.cpg/sg59_16_cif.got.tgz:30655.got - 2010.04.16 16:29:54.
