data_PCOD8239930
_publ_section_title
;
Structure prediction by ZEFSAII (Michael W. Deem and Ramdas Pophale) SiO2 
 PCOD8239930
Probable space group: P M M N
;
_chemical_formula_sum "Si O2"
_cell_formula_units_Z 48
_cell_length_a 8.685573
_cell_length_b 18.058213
_cell_length_c 15.543718
_cell_angle_alpha 90.000000
_cell_angle_beta 90.000000
_cell_angle_gamma 90.000000
_cell_volume 2437.968863
_symmetry_space_group_name_H-M "P M M N"
_symmetry_group_IT_number 59
_space_group.IT_coordinate_system_code '2'
_symmetry_cell_setting 'orthorhombic'
loop_
_space_group_symop_operation_xyz
x,y,z
1/2-x,1/2-y,z
1/2+x,-y,-z
-x,1/2+y,-z
-x,-y,-z
1/2+x,1/2+y,-z
1/2-x,y,z
x,1/2-y,z
loop_
_atom_site_type_symbol
_atom_site_label
_atom_site_fract_x
_atom_site_fract_y
_atom_site_fract_z
Si Si1 0.070521 0.664308 0.846028
Si Si2 0.932794 0.581982 0.503803
Si Si3 0.431882 0.924516 0.677330
Si Si4 0.430835 0.586298 0.330972
Si Si5 0.427469 0.335847 0.825560
Si Si6 0.569102 0.580840 0.004684
O O1 0.250000 0.652062 0.863697
O O2 0.027778 0.750000 0.836416
O O3 0.018907 0.623569 0.759101
O O4 0.978064 0.630581 0.924651
O O5 0.750000 0.582769 0.501768
O O6 0.000000 0.500000 0.500000
O O7 0.993767 0.616075 0.593612
O O8 0.999148 0.622299 0.418773
O O9 0.250000 0.927881 0.664963
O O10 0.494128 0.007246 0.690648
O O11 0.250000 0.575495 0.342082
O O12 0.467531 0.642993 0.255070
O O13 0.250000 0.355118 0.804883
O O14 0.449004 0.250000 0.846417
O O15 0.488682 0.380520 0.908037
O O16 0.750000 0.573327 0.005422
O O17 0.500000 0.500000 0.000000
#
# Coordination Sequence:
#
# PCOD8239930 Si02
#       6
#     8   8   8   8   8   8
#     4  10  22  39  58  82 114 150 185 226 278 332
#     4  10  18  31  53  80 110 144 184 231 279 325
#     4  10  19  34  56  81 111 147 187 231 278 328
#     4  11  21  34  55  83 112 143 184 231 277 329
#     4  10  22  40  58  78 109 147 184 224 274 329
#     4  11  23  39  61  87 113 145 185 230 277 328
#
# _framework density 19.68852
#
# number of rings (size 3 to 8) (size 9 to 14) (size 15 to 20)
#    0.000    1.667    0.000    7.500    0.000    8.000 
#    0.000    0.833    0.000    3.000    0.000    0.000 
#    0.000    0.000    0.000    0.000    0.000    0.000 
#
# Total GULP energy -595281.078832 kJ/mol
# GULP energy per Si atom -12401.689142 kJ/mol
# Density = 1.964371 g / cm^3
# Si number density = 19.688520 Si / 1000 Ang^3
#
#
#
# Elastic Constant Matrix: (Units=GPa)
#
#
# Indices 1 2 3 4 5 6 
#
# 1 93.7607 15.7035 52.9585 0.0000 0.0000 0.0000
# 2 15.7035 63.5342 34.7096 0.0000 0.0000 0.0000
# 3 52.9585 34.7096 158.7887 0.0000 0.0000 0.0000
# 4 0.0000 0.0000 0.0000 5.5968 0.0000 0.0000
# 5 0.0000 0.0000 0.0000 0.0000 39.1628 0.0000
# 6 0.0000 0.0000 0.0000 0.0000 0.0000 24.9010
#
#
#
# Elastic Compliance Matrix: (Units=1/GPa)
#
#
# Indices 1 2 3 4 5 6 
#
# 1 0.013194 -0.000973 -0.004188 0.000000 0.000000 0.000000
# 2 -0.000973 0.017946 -0.003598 0.000000 0.000000 0.000000
# 3 -0.004188 -0.003598 0.008481 0.000000 0.000000 0.000000
# 4 0.000000 0.000000 0.000000 0.178673 0.000000 0.000000
# 5 0.000000 0.000000 0.000000 0.000000 0.025534 0.000000
# 6 0.000000 0.000000 0.000000 0.000000 0.000000 0.040159
#
#
# Mechanical properties :
#
#
# Convention : Reuss Voigt Hill
#
# Bulk Modulus (GPa) = 45.24418 58.09188 51.66803
# Shear Modulus (GPa) = 16.18792 28.11293 22.15043
#
# Velocity S-wave (km/s) = 2.87052 3.78284 3.35780
# Velocity P-wave (km/s) = 5.83235 6.97491 6.42906
#
# Compressibility (1/GPa) = 0.02210229
#
# Stress axis : x y z
#
# Youngs Moduli (GPa) = 75.79375 55.72323 117.91325
#
# Poissons Ratio (x) = 0.05424 0.49377
# Poissons Ratio (y) = 0.07377 0.42427
# Poissons Ratio (z) = 0.31739 0.20050
#
# Static dielectric constant tensor:
#      x y z
#    x 3.586060 0.000000 0.000000 
#    y 0.000000 3.325630 0.000000 
#    z 0.000000 0.000000 3.930070 
# 
# 
# High freq. dielectric constant tensor:
#      x y z
#    x 1.774070 0.000000 0.000000 
#    y 0.000000 1.743750 0.000000 
#    z 0.000000 0.000000 1.792870 
# 
# From -- ./inp_files/20364.got.cif
#   From: 2010.03.12/outbox.cif.g09.slc.cpg/sg59_11_cif.got.tgz:20364.got - 2010.04.16 16:29:54.
