data_PCOD8239672
_publ_section_title
;
Structure prediction by ZEFSAII (Michael W. Deem and Ramdas Pophale) SiO2 
 PCOD8239672
Probable space group: P M M N
;
_chemical_formula_sum "Si O2"
_cell_formula_units_Z 64
_cell_length_a 9.492113
_cell_length_b 19.620913
_cell_length_c 20.274444
_cell_angle_alpha 90.000000
_cell_angle_beta 90.000000
_cell_angle_gamma 90.000000
_cell_volume 3775.991994
_symmetry_space_group_name_H-M "P M M N"
_symmetry_group_IT_number 59
_space_group.IT_coordinate_system_code '2'
_symmetry_cell_setting 'orthorhombic'
loop_
_space_group_symop_operation_xyz
x,y,z
1/2-x,1/2-y,z
1/2+x,-y,-z
-x,1/2+y,-z
-x,-y,-z
1/2+x,1/2+y,-z
1/2-x,y,z
x,1/2-y,z
loop_
_atom_site_type_symbol
_atom_site_label
_atom_site_fract_x
_atom_site_fract_y
_atom_site_fract_z
Si Si1 0.082591 0.173875 0.610389
Si Si2 0.415794 0.828518 0.657462
Si Si3 0.083702 0.934744 0.763076
Si Si4 0.593573 0.830865 0.534115
Si Si5 0.909407 0.082494 0.952773
Si Si6 0.588188 0.327081 0.835766
Si Si7 0.917035 0.586826 0.266881
Si Si8 0.585833 0.456691 0.092731
O O1 0.250000 0.177821 0.610580
O O2 0.022116 0.250000 0.625329
O O3 0.034362 0.147021 0.538041
O O4 0.028191 0.120878 0.665251
O O5 0.250000 0.837878 0.647517
O O6 0.454917 0.750000 0.672259
O O7 0.476556 0.873900 0.717695
O O8 0.488477 0.856304 0.590869
O O9 0.250000 0.929017 0.761682
O O10 0.028623 0.924958 0.838465
O O11 0.036410 0.007897 0.734002
O O12 0.750000 0.861301 0.546809
O O13 0.602663 0.750000 0.534235
O O14 0.750000 0.054388 0.946329
O O15 0.926934 0.152920 0.913092
O O16 0.943900 0.093851 0.030754
O O17 0.011721 0.028040 0.920250
O O18 0.750000 0.335150 0.812753
O O19 0.535628 0.250000 0.827797
O O20 0.489792 0.375572 0.793549
O O21 0.750000 0.594918 0.258536
O O22 0.750000 0.473264 0.101164
#
# Coordination Sequence:
#
# PCOD8239672 Si02
#       8
#     8   8   8   8   8   8   8   8
#     4   8  14  25  43  66  88 112 147 188 225 263
#     4   9  17  30  47  66  89 117 148 184 231 283
#     4   9  17  29  46  69  93 116 147 192 234 267
#     4   8  14  27  46  65  85 111 146 186 224 268
#     4   9  17  29  46  66  88 117 152 186 221 264
#     4  10  20  32  44  64  98 130 153 185 230 274
#     4  10  18  30  48  68  90 120 158 194 226 267
#     4   9  16  29  48  67  87 113 149 189 225 263
#
# _framework density 16.949187999999999
#
# number of rings (size 3 to 8) (size 9 to 14) (size 15 to 20)
#    0.000    3.000    1.250    1.125    0.000    0.750 
#    0.000    3.125    0.000    6.000    0.000    0.000 
#    0.000    3.000    0.000    0.000    0.000    0.000 
#
# Total GULP energy -793113.121627 kJ/mol
# GULP energy per Si atom -12392.392525 kJ/mol
# Density = 1.691061 g / cm^3
# Si number density = 16.949188 Si / 1000 Ang^3
#
#
#
# Elastic Constant Matrix: (Units=GPa)
#
#
# Indices 1 2 3 4 5 6 
#
# 1 30.3738 22.0177 31.1108 0.0000 0.0000 0.0000
# 2 22.0177 81.6473 64.6976 0.0000 0.0000 0.0000
# 3 31.1108 64.6976 163.9311 0.0000 0.0000 0.0000
# 4 0.0000 0.0000 0.0000 28.7621 0.0000 0.0000
# 5 0.0000 0.0000 0.0000 0.0000 23.3974 0.0000
# 6 0.0000 0.0000 0.0000 0.0000 0.0000 12.1860
#
#
#
# Elastic Compliance Matrix: (Units=1/GPa)
#
#
# Indices 1 2 3 4 5 6 
#
# 1 0.043900 -0.007620 -0.005324 0.000000 0.000000 0.000000
# 2 -0.007620 0.019144 -0.006109 0.000000 0.000000 0.000000
# 3 -0.005324 -0.006109 0.009522 0.000000 0.000000 0.000000
# 4 0.000000 0.000000 0.000000 0.034768 0.000000 0.000000
# 5 0.000000 0.000000 0.000000 0.000000 0.042740 0.000000
# 6 0.000000 0.000000 0.000000 0.000000 0.000000 0.082061
#
#
# Mechanical properties :
#
#
# Convention : Reuss Voigt Hill
#
# Bulk Modulus (GPa) = 29.01984 56.84494 42.93239
# Shear Modulus (GPa) = 17.74772 23.41084 20.57928
#
# Velocity S-wave (km/s) = 3.23942 3.72053 3.48828
# Velocity P-wave (km/s) = 5.58128 7.21580 6.45052
#
# Compressibility (1/GPa) = 0.03445918
#
# Stress axis : x y z
#
# Youngs Moduli (GPa) = 22.77911 52.23705 105.02421
#
# Poissons Ratio (x) = 0.39802 0.55916
# Poissons Ratio (y) = 0.17357 0.64161
# Poissons Ratio (z) = 0.12128 0.31913
#
# Static dielectric constant tensor:
#      x y z
#    x 2.987000 0.000000 0.000000 
#    y 0.000000 3.084640 0.000000 
#    z 0.000000 0.000000 3.706250 
# 
# 
# High freq. dielectric constant tensor:
#      x y z
#    x 1.625830 0.000000 0.000000 
#    y 0.000000 1.624850 0.000000 
#    z 0.000000 0.000000 1.670030 
# 
# From -- ./inp_files/29711.got.cif
#   From: 2010.03.12/outbox.cif.g09.slc.cpg/sg59_15_cif.got.tgz:29711.got - 2010.04.16 16:29:54.
