data_PCOD8239710
_publ_section_title
;
Structure prediction by ZEFSAII (Michael W. Deem and Ramdas Pophale) SiO2 
 PCOD8239710
Probable space group: P M M N
;
_chemical_formula_sum "Si O2"
_cell_formula_units_Z 64
_cell_length_a 16.954844
_cell_length_b 26.407865
_cell_length_c 8.405215
_cell_angle_alpha 90.000000
_cell_angle_beta 90.000000
_cell_angle_gamma 90.000000
_cell_volume 3763.361315
_symmetry_space_group_name_H-M "P M M N"
_symmetry_group_IT_number 59
_space_group.IT_coordinate_system_code '2'
_symmetry_cell_setting 'orthorhombic'
loop_
_space_group_symop_operation_xyz
x,y,z
1/2-x,1/2-y,z
1/2+x,-y,-z
-x,1/2+y,-z
-x,-y,-z
1/2+x,1/2+y,-z
1/2-x,y,z
x,1/2-y,z
loop_
_atom_site_type_symbol
_atom_site_label
_atom_site_fract_x
_atom_site_fract_y
_atom_site_fract_z
Si Si1 0.429613 0.611634 0.804342
Si Si2 0.919065 0.892938 0.600898
Si Si3 0.659824 0.102239 0.505158
Si Si4 0.984167 0.373464 0.703512
Si Si5 0.989320 0.692272 0.004846
Si Si6 0.058399 0.961200 0.077675
Si Si7 0.340474 0.192150 0.199307
Si Si8 0.159700 0.496377 0.347895
O O1 0.509178 0.593108 0.717804
O O2 0.359883 0.617532 0.676063
O O3 0.448497 0.664861 0.888421
O O4 0.401486 0.571482 0.936926
O O5 0.863207 0.847941 0.664215
O O6 0.950148 0.874200 0.431823
O O7 0.873041 0.945158 0.575391
O O8 0.750000 0.117024 0.543174
O O9 0.603482 0.132216 0.627777
O O10 0.644871 0.042040 0.527702
O O11 0.991239 0.424472 0.806876
O O12 0.001823 0.325575 0.814010
O O13 0.014040 0.750000 0.996197
O O14 0.898577 0.683321 0.950443
O O15 0.123949 0.991276 0.175405
O O16 0.000000 0.000000 0.000000
O O17 0.250000 0.182664 0.145360
O O18 0.350568 0.250000 0.263390
O O19 0.250000 0.487556 0.312577
#
# Coordination Sequence:
#
# PCOD8239710 Si02
#       8
#     8   8   8   8   8   8   8   8
#     4   9  18  31  53  76  94 132 166 201 251 298
#     4  10  18  31  49  72 101 128 171 204 242 296
#     4   9  19  34  51  73 103 133 165 205 253 305
#     4   9  20  32  51  75  96 132 169 201 252 297
#     4   9  18  35  55  77 100 126 169 213 248 298
#     4  10  18  30  49  71  97 129 168 204 239 296
#     4   9  18  33  52  72  98 133 168 207 253 293
#     4  10  20  31  46  70 102 138 166 205 254 290
#
# _framework density 17.006074000000002
#
# number of rings (size 3 to 8) (size 9 to 14) (size 15 to 20)
#    0.000    2.625    1.250    0.375    1.750    2.500 
#    0.000    5.000    0.000    3.750    0.000    0.000 
#    0.000    0.000    0.000    0.000    0.000    0.000 
#
# Total GULP energy -793486.333914 kJ/mol
# GULP energy per Si atom -12398.223967 kJ/mol
# Density = 1.696737 g / cm^3
# Si number density = 17.006074 Si / 1000 Ang^3
#
#
#
# Elastic Constant Matrix: (Units=GPa)
#
#
# Indices 1 2 3 4 5 6 
#
# 1 97.0813 47.6578 52.4766 0.0000 0.0000 0.0000
# 2 47.6578 84.8436 53.3355 0.0000 0.0000 0.0000
# 3 52.4766 53.3355 119.7350 0.0000 0.0000 0.0000
# 4 0.0000 0.0000 0.0000 18.1554 0.0000 0.0000
# 5 0.0000 0.0000 0.0000 0.0000 20.8453 0.0000
# 6 0.0000 0.0000 0.0000 0.0000 0.0000 20.3799
#
#
#
# Elastic Compliance Matrix: (Units=1/GPa)
#
#
# Indices 1 2 3 4 5 6 
#
# 1 0.015521 -0.006170 -0.004054 0.000000 0.000000 0.000000
# 2 -0.006170 0.018823 -0.005681 0.000000 0.000000 0.000000
# 3 -0.004054 -0.005681 0.012659 0.000000 0.000000 0.000000
# 4 0.000000 0.000000 0.000000 0.055080 0.000000 0.000000
# 5 0.000000 0.000000 0.000000 0.000000 0.047972 0.000000
# 6 0.000000 0.000000 0.000000 0.000000 0.000000 0.049068
#
#
# Mechanical properties :
#
#
# Convention : Reuss Voigt Hill
#
# Bulk Modulus (GPa) = 65.81552 67.62217 66.71885
# Shear Modulus (GPa) = 21.18673 21.75545 21.47109
#
# Velocity S-wave (km/s) = 3.53347 3.58058 3.55710
# Velocity P-wave (km/s) = 7.44529 7.54612 7.49587
#
# Compressibility (1/GPa) = 0.01519398
#
# Stress axis : x y z
#
# Youngs Moduli (GPa) = 64.42971 53.12638 78.99531
#
# Poissons Ratio (x) = 0.32777 0.32025
# Poissons Ratio (y) = 0.39751 0.44874
# Poissons Ratio (z) = 0.26120 0.30179
#
# Static dielectric constant tensor:
#      x y z
#    x 3.159990 0.000000 0.000000 
#    y 0.000000 3.460680 0.000000 
#    z 0.000000 0.000000 3.288380 
# 
# 
# High freq. dielectric constant tensor:
#      x y z
#    x 1.644960 0.000000 0.000000 
#    y 0.000000 1.652190 0.000000 
#    z 0.000000 0.000000 1.655210 
# 
# From -- ./inp_files/10800.got.cif
#   From: 2010.03.12/outbox.cif.g09.slc.cpg/sg59_6_cif.got.tgz:10800.got - 2010.04.16 16:29:54.
