data_PCOD8239012
_publ_section_title
;
Structure prediction by ZEFSAII (Michael W. Deem and Ramdas Pophale) SiO2 
 PCOD8239012
Probable space group: P N N M
;
_chemical_formula_sum "Si O2"
_cell_formula_units_Z 40
_cell_length_a 9.000000
_cell_length_b 24.000000
_cell_length_c 9.000000
_cell_angle_alpha 90.000000
_cell_angle_beta 90.000000
_cell_angle_gamma 90.000000
_cell_volume 1944.000000
_symmetry_space_group_name_H-M "P N N M"
_symmetry_group_IT_number 58
_symmetry_cell_setting 'orthorhombic'
loop_
_space_group_symop_operation_xyz
x,y,z
-x,-y,z
1/2+x,1/2-y,1/2-z
1/2-x,1/2+y,1/2-z
-x,-y,-z
x,y,-z
1/2-x,1/2+y,1/2+z
1/2+x,1/2-y,1/2+z
loop_
_atom_site_type_symbol
_atom_site_label
_atom_site_fract_x
_atom_site_fract_y
_atom_site_fract_z
Si Si1 0.171873 0.497063 0.828345
Si Si2 0.219414 0.887058 0.824967
Si Si3 0.024682 0.308205 0.325920
Si Si4 0.501134 0.315952 0.163900
Si Si5 0.297783 0.120776 0.662670
O O1 0.252862 0.448453 0.738551
O O2 0.244941 0.557387 0.789629
O O3 0.000000 0.500000 0.781387
O O4 0.191813 0.481889 0.000000
O O5 0.329569 0.838958 0.763296
O O6 0.063153 0.862989 0.772492
O O7 0.227181 0.893001 0.000000
O O8 0.038311 0.300146 0.500000
O O9 0.001583 0.245847 0.259508
O O10 0.895731 0.351226 0.288794
O O11 0.666078 0.336642 0.141569
O O12 0.423485 0.314358 0.000000
O O13 0.379232 0.116336 0.500000
#
# Coordination Sequence:
#
# PCOD8239012 Si02
#       5
#     8   8   8   8   8
#     4  10  20  37  61  86 111 149 197 238 282 340
#     4  11  23  38  59  87 118 151 188 237 289 338
#     4  10  21  37  58  84 114 149 189 232 283 339
#     4  10  22  39  57  82 116 151 188 232 283 341
#     4  10  21  38  61  85 113 150 193 238 281 335
#
# _framework density 20.576132000000001
#
# number of rings (size 3 to 8) (size 9 to 14) (size 15 to 20)
#    0.000    1.800    2.000    1.800    0.000    6.000 
#    0.000    4.000    0.000    0.000    0.000    0.000 
#    0.000    0.000    0.000    0.000    0.000    0.000 
#
# Total GULP energy -495668.785914 kJ/mol
# GULP energy per Si atom -12391.719648 kJ/mol
# Density = 2.052930 g / cm^3
# Si number density = 20.576132 Si / 1000 Ang^3
#
#
#
# Elastic Constant Matrix: (Units=GPa)
#
#
# Indices 1 2 3 4 5 6 
#
# 1 23.1908 8.4718 18.8905 0.0000 0.0000 0.0000
# 2 8.4718 159.0750 42.2236 0.0000 0.0000 0.0000
# 3 18.8905 42.2236 28.5827 0.0000 0.0000 0.0000
# 4 0.0000 0.0000 0.0000 16.7283 0.0000 0.0000
# 5 0.0000 0.0000 0.0000 0.0000 13.1466 0.0000
# 6 0.0000 0.0000 0.0000 0.0000 0.0000 30.6269
#
#
#
# Elastic Compliance Matrix: (Units=1/GPa)
#
#
# Indices 1 2 3 4 5 6 
#
# 1 0.147053 0.029553 -0.140845 0.000000 0.000000 0.000000
# 2 0.029553 0.016281 -0.043582 0.000000 0.000000 0.000000
# 3 -0.140845 -0.043582 0.192453 0.000000 0.000000 0.000000
# 4 0.000000 0.000000 0.000000 0.059779 0.000000 0.000000
# 5 0.000000 0.000000 0.000000 0.000000 0.076065 0.000000
# 6 0.000000 0.000000 0.000000 0.000000 0.000000 0.032651
#
#
# Mechanical properties :
#
#
# Convention : Reuss Voigt Hill
#
# Bulk Modulus (GPa) = 21.72124 38.89113 30.30619
# Shear Modulus (GPa) = 5.88668 21.51787 13.70228
#
# Velocity S-wave (km/s) = 1.69326 3.23734 2.58336
# Velocity P-wave (km/s) = 3.79504 5.73724 4.86407
#
# Compressibility (1/GPa) = 0.04603789
#
# Stress axis : x y z
#
# Youngs Moduli (GPa) = 6.80029 61.42305 5.19609
#
# Poissons Ratio (x) = -1.81525 0.73184
# Poissons Ratio (y) = -0.20097 0.22646
# Poissons Ratio (z) = 0.95779 2.67695
#
# Static dielectric constant tensor:
#      x y z
#    x 3.564250 0.000000 0.000000 
#    y 0.000000 4.083200 0.000000 
#    z 0.000000 0.000000 3.624830 
# 
# 
# High freq. dielectric constant tensor:
#      x y z
#    x 1.772840 0.000000 0.000000 
#    y 0.000000 1.836930 0.000000 
#    z 0.000000 0.000000 1.786190 
# 
# From -- ./inp_files/2413.got.cif
#   From: 2010.06.25/outbox.ucp.g09.slc.cvg/sg58_2_cif.got.tgz:2413.got - 2010.06.28 15:54:47.
