data_PCOD8239401
_publ_section_title
;
Structure prediction by ZEFSAII (Michael W. Deem and Ramdas Pophale) SiO2 
 PCOD8239401
Probable space group: P M M N
;
_chemical_formula_sum "Si O2"
_cell_formula_units_Z 56
_cell_length_a 13.846902
_cell_length_b 9.528358
_cell_length_c 26.235926
_cell_angle_alpha 90.000000
_cell_angle_beta 90.000000
_cell_angle_gamma 90.000000
_cell_volume 3461.521887
_symmetry_space_group_name_H-M "P M M N"
_symmetry_group_IT_number 59
_space_group.IT_coordinate_system_code '2'
_symmetry_cell_setting 'orthorhombic'
loop_
_space_group_symop_operation_xyz
x,y,z
1/2-x,1/2-y,z
1/2+x,-y,-z
-x,1/2+y,-z
-x,-y,-z
1/2+x,1/2+y,-z
1/2-x,y,z
x,1/2-y,z
loop_
_atom_site_type_symbol
_atom_site_label
_atom_site_fract_x
_atom_site_fract_y
_atom_site_fract_z
Si Si1 0.863871 0.094708 0.038283
Si Si2 0.023205 0.913119 0.574004
Si Si3 0.644611 0.415975 0.926774
Si Si4 0.044287 0.415327 0.875124
Si Si5 0.361955 0.412504 0.770983
Si Si6 0.360962 0.586598 0.673632
Si Si7 0.361263 0.913531 0.473139
O O1 0.750000 0.108786 0.037601
O O2 0.909157 0.250000 0.048203
O O3 0.892080 0.988245 0.082180
O O4 0.894508 0.034218 0.982402
O O5 0.995557 0.750000 0.574183
O O6 0.073256 0.959722 0.626363
O O7 0.099681 0.947064 0.529538
O O8 0.924488 0.000328 0.567639
O O9 0.750000 0.481703 0.913375
O O10 0.654997 0.250000 0.929838
O O11 0.567715 0.458958 0.883394
O O12 0.061322 0.250000 0.881019
O O13 0.076322 0.465504 0.819226
O O14 0.250000 0.440970 0.783178
O O15 0.381273 0.250000 0.759073
O O16 0.397086 0.500690 0.722500
O O17 0.250000 0.550257 0.660454
O O18 0.372931 0.750000 0.685857
O O19 0.250000 0.962092 0.469886
O O20 0.371444 0.750000 0.460183
#
# Coordination Sequence:
#
# PCOD8239401 Si02
#       7
#     8   8   8   8   8   8   8
#     4   9  17  28  42  62  88 114 138 168 209 258
#     4   9  17  29  46  68  92 119 152 187 220 256
#     4   8  15  28  44  62  84 110 141 175 211 253
#     4  10  18  28  45  65  85 112 143 176 214 255
#     4   9  18  30  42  61  88 112 138 178 224 262
#     4   9  17  30  48  67  87 115 150 182 213 254
#     4   9  17  29  45  67  96 125 150 180 219 261
#
# _framework density 16.177855000000001
#
# number of rings (size 3 to 8) (size 9 to 14) (size 15 to 20)
#    0.000    3.000    0.000    2.143    0.000    4.000 
#    0.000    1.429    0.000    4.714    0.000    2.000 
#    0.000    0.000    0.000    0.000    0.000    0.000 
#
# Total GULP energy -694217.496214 kJ/mol
# GULP energy per Si atom -12396.741004 kJ/mol
# Density = 1.614103 g / cm^3
# Si number density = 16.177855 Si / 1000 Ang^3
#
#
#
# Elastic Constant Matrix: (Units=GPa)
#
#
# Indices 1 2 3 4 5 6 
#
# 1 95.2190 38.1007 72.4250 0.0000 0.0000 0.0000
# 2 38.1007 40.4573 48.0395 0.0000 0.0000 0.0000
# 3 72.4250 48.0395 135.9356 0.0000 0.0000 0.0000
# 4 0.0000 0.0000 0.0000 26.4954 0.0000 0.0000
# 5 0.0000 0.0000 0.0000 0.0000 29.1210 0.0000
# 6 0.0000 0.0000 0.0000 0.0000 0.0000 21.5212
#
#
#
# Elastic Compliance Matrix: (Units=1/GPa)
#
#
# Indices 1 2 3 4 5 6 
#
# 1 0.020012 -0.010658 -0.006895 0.000000 0.000000 0.000000
# 2 -0.010658 0.048266 -0.011378 0.000000 0.000000 0.000000
# 3 -0.006895 -0.011378 0.015051 0.000000 0.000000 0.000000
# 4 0.000000 0.000000 0.000000 0.037742 0.000000 0.000000
# 5 0.000000 0.000000 0.000000 0.000000 0.034340 0.000000
# 6 0.000000 0.000000 0.000000 0.000000 0.000000 0.046466
#
#
# Mechanical properties :
#
#
# Convention : Reuss Voigt Hill
#
# Bulk Modulus (GPa) = 39.27037 65.41583 52.34310
# Shear Modulus (GPa) = 18.64080 22.96395 20.80238
#
# Velocity S-wave (km/s) = 3.39815 3.77167 3.58977
# Velocity P-wave (km/s) = 6.30265 7.71301 7.04322
#
# Compressibility (1/GPa) = 0.02546449
#
# Stress axis : x y z
#
# Youngs Moduli (GPa) = 49.97097 20.71861 66.43950
#
# Poissons Ratio (x) = 0.22083 0.45812
# Poissons Ratio (y) = 0.53261 0.75598
# Poissons Ratio (z) = 0.34457 0.23574
#
# Static dielectric constant tensor:
#      x y z
#    x 3.157110 0.000000 0.000000 
#    y 0.000000 2.949320 0.000000 
#    z 0.000000 0.000000 3.053870 
# 
# 
# High freq. dielectric constant tensor:
#      x y z
#    x 1.616150 0.000000 0.000000 
#    y 0.000000 1.608050 0.000000 
#    z 0.000000 0.000000 1.610930 
# 
# From -- ./inp_files/31927.got.cif
#   From: 2010.03.12/outbox.cif.g09.slc.cpg/sg59_16_cif.got.tgz:31927.got - 2010.04.16 16:29:54.
