data_PCOD8239047
_publ_section_title
;
Structure prediction by ZEFSAII (Michael W. Deem and Ramdas Pophale) SiO2 
 PCOD8239047
Probable space group: P M M N
;
_chemical_formula_sum "Si O2"
_cell_formula_units_Z 56
_cell_length_a 22.031840
_cell_length_b 9.231487
_cell_length_c 17.869543
_cell_angle_alpha 90.000000
_cell_angle_beta 90.000000
_cell_angle_gamma 90.000000
_cell_volume 3634.426390
_symmetry_space_group_name_H-M "P M M N"
_symmetry_group_IT_number 59
_space_group.IT_coordinate_system_code '2'
_symmetry_cell_setting 'orthorhombic'
loop_
_space_group_symop_operation_xyz
x,y,z
1/2-x,1/2-y,z
1/2+x,-y,-z
-x,1/2+y,-z
-x,-y,-z
1/2+x,1/2+y,-z
1/2-x,y,z
x,1/2-y,z
loop_
_atom_site_type_symbol
_atom_site_label
_atom_site_fract_x
_atom_site_fract_y
_atom_site_fract_z
Si Si1 0.682719 0.578721 0.664349
Si Si2 0.437917 0.411061 0.919065
Si Si3 0.415733 0.419533 0.448073
Si Si4 0.081449 0.587321 0.056347
Si Si5 0.903371 0.921536 0.798721
Si Si6 0.524899 0.917754 0.236123
Si Si7 0.466537 0.415869 0.599885
O O1 0.750000 0.508623 0.662556
O O2 0.688135 0.750000 0.659079
O O3 0.644648 0.519518 0.592546
O O4 0.649894 0.535385 0.741498
O O5 0.412542 0.250000 0.933980
O O6 0.509741 0.415262 0.932283
O O7 0.428728 0.457480 0.831772
O O8 0.403100 0.518942 0.975029
O O9 0.420473 0.250000 0.431981
O O10 0.415274 0.454732 0.537488
O O11 0.474408 0.488015 0.410387
O O12 0.107386 0.750000 0.058087
O O13 0.112978 0.493572 0.121526
O O14 0.909595 0.750000 0.809561
O O15 0.965941 0.981758 0.765603
O O16 0.504154 0.750000 0.225949
O O17 0.558830 0.941097 0.315885
O O18 0.486787 0.250000 0.588817
#
# Coordination Sequence:
#
# PCOD8239047 Si02
#       7
#     8   8   8   8   8   8   8
#     4   9  17  28  41  58  80 105 137 173 201 233
#     4   8  14  23  34  50  73 101 130 154 183 226
#     4   9  16  27  41  58  77 103 136 165 200 242
#     4   9  16  25  36  51  74 101 128 159 192 225
#     4  10  17  25  39  55  73 101 136 165 194 233
#     4   9  16  25  37  55  80 105 128 160 198 236
#     4   9  16  25  40  59  81 104 129 165 204 243
#
# _framework density 15.408208999999999
#
# number of rings (size 3 to 8) (size 9 to 14) (size 15 to 20)
#    0.000    3.000    1.429    1.714    0.000    3.429 
#    0.000    0.000    0.000    3.857    0.000    0.000 
#    0.000    1.143    0.000   12.000    0.000    1.286 
#
# Total GULP energy -693855.157963 kJ/mol
# GULP energy per Si atom -12390.270678 kJ/mol
# Density = 1.537314 g / cm^3
# Si number density = 15.408209 Si / 1000 Ang^3
#
#
#
# Elastic Constant Matrix: (Units=GPa)
#
#
# Indices 1 2 3 4 5 6 
#
# 1 51.9631 22.0157 46.7334 0.0000 0.0000 0.0000
# 2 22.0157 59.9188 48.9393 0.0000 0.0000 0.0000
# 3 46.7334 48.9393 172.0114 0.0000 0.0000 0.0000
# 4 0.0000 0.0000 0.0000 20.2382 0.0000 0.0000
# 5 0.0000 0.0000 0.0000 0.0000 14.4677 0.0000
# 6 0.0000 0.0000 0.0000 0.0000 0.0000 8.1851
#
#
#
# Elastic Compliance Matrix: (Units=1/GPa)
#
#
# Indices 1 2 3 4 5 6 
#
# 1 0.026586 -0.005040 -0.005789 0.000000 0.000000 0.000000
# 2 -0.005040 0.022697 -0.005088 0.000000 0.000000 0.000000
# 3 -0.005789 -0.005088 0.008834 0.000000 0.000000 0.000000
# 4 0.000000 0.000000 0.000000 0.049412 0.000000 0.000000
# 5 0.000000 0.000000 0.000000 0.000000 0.069120 0.000000
# 6 0.000000 0.000000 0.000000 0.000000 0.000000 0.122174
#
#
# Mechanical properties :
#
#
# Convention : Reuss Voigt Hill
#
# Bulk Modulus (GPa) = 38.04837 57.69669 47.87253
# Shear Modulus (GPa) = 14.73109 19.65851 17.19480
#
# Velocity S-wave (km/s) = 3.09537 3.57577 3.34421
# Velocity P-wave (km/s) = 6.12554 7.38748 6.78591
#
# Compressibility (1/GPa) = 0.02628234
#
# Stress axis : x y z
#
# Youngs Moduli (GPa) = 37.61326 44.05877 113.19781
#
# Poissons Ratio (x) = 0.22206 0.65533
# Poissons Ratio (y) = 0.18957 0.57598
# Poissons Ratio (z) = 0.21775 0.22418
#
# Static dielectric constant tensor:
#      x y z
#    x 2.561690 0.000000 0.000000 
#    y 0.000000 2.968660 0.000000 
#    z 0.000000 0.000000 3.483190 
# 
# 
# High freq. dielectric constant tensor:
#      x y z
#    x 1.512070 0.000000 0.000000 
#    y 0.000000 1.586750 0.000000 
#    z 0.000000 0.000000 1.615230 
# 
# From -- ./inp_files/28377.got.cif
#   From: 2010.03.12/outbox.cif.g09.slc.cpg/sg59_15_cif.got.tgz:28377.got - 2010.04.16 16:29:54.
