data_PCOD8239559
_publ_section_title
;
Structure prediction by ZEFSAII (Michael W. Deem and Ramdas Pophale) SiO2 
 PCOD8239559
Probable space group: P M M N
;
_chemical_formula_sum "Si O2"
_cell_formula_units_Z 64
_cell_length_a 10.116354
_cell_length_b 14.240663
_cell_length_c 23.971879
_cell_angle_alpha 90.000000
_cell_angle_beta 90.000000
_cell_angle_gamma 90.000000
_cell_volume 3453.474902
_symmetry_space_group_name_H-M "P M M N"
_symmetry_group_IT_number 59
_space_group.IT_coordinate_system_code '2'
_symmetry_cell_setting 'orthorhombic'
loop_
_space_group_symop_operation_xyz
x,y,z
1/2-x,1/2-y,z
1/2+x,-y,-z
-x,1/2+y,-z
-x,-y,-z
1/2+x,1/2+y,-z
1/2-x,y,z
x,1/2-y,z
loop_
_atom_site_type_symbol
_atom_site_label
_atom_site_fract_x
_atom_site_fract_y
_atom_site_fract_z
Si Si1 0.902598 0.639708 0.730620
Si Si2 0.105743 0.052198 0.381558
Si Si3 0.399021 0.357857 0.489994
Si Si4 0.099938 0.982920 0.923522
Si Si5 0.402262 0.351015 0.721934
Si Si6 0.097555 0.359273 0.011111
Si Si7 0.903889 0.478406 0.205547
Si Si8 0.470723 0.854357 0.392032
O O1 0.750000 0.608904 0.742563
O O2 0.912319 0.750000 0.723670
O O3 0.962331 0.591167 0.674478
O O4 0.000731 0.609260 0.780492
O O5 0.250000 0.100275 0.383071
O O6 0.032115 0.084896 0.438671
O O7 0.128144 0.939500 0.379323
O O8 0.250000 0.393514 0.499275
O O9 0.404071 0.250000 0.472750
O O10 0.472963 0.375485 0.547339
O O11 0.250000 0.948446 0.935615
O O12 0.079455 0.004376 0.858795
O O13 0.998996 0.900844 0.941566
O O14 0.071730 0.081269 0.954865
O O15 0.250000 0.348907 0.737009
O O16 0.466396 0.250000 0.739185
O O17 0.463668 0.434869 0.758346
O O18 0.416680 0.363669 0.655243
O O19 0.250000 0.369646 0.030823
O O20 0.063176 0.250000 0.000022
O O21 0.750000 0.455370 0.219829
O O22 0.404284 0.750000 0.390064
#
# Coordination Sequence:
#
# PCOD8239559 Si02
#       8
#     8   8   8   8   8   8   8   8
#     4  10  21  37  55  73  98 137 182 222 261 311
#     4  10  19  32  48  67  93 128 169 210 256 313
#     4   9  17  29  47  70  92 117 157 210 260 309
#     4   9  19  34  53  80 111 142 175 213 259 307
#     4   9  17  30  49  73 100 131 167 206 253 309
#     4   9  18  34  56  81 109 142 178 214 252 298
#     4  10  20  35  55  79 108 139 173 217 263 304
#     4  10  18  29  47  70  95 123 158 205 261 314
#
# _framework density 18.532059
#
# number of rings (size 3 to 8) (size 9 to 14) (size 15 to 20)
#    0.000    2.500    1.250    1.125    0.000    5.250 
#    0.000    5.000    0.000    0.375    0.000    3.500 
#    0.000    0.000    0.000    0.000    0.000    0.000 
#
# Total GULP energy -792978.087487 kJ/mol
# GULP energy per Si atom -12390.282617 kJ/mol
# Density = 1.848988 g / cm^3
# Si number density = 18.532059 Si / 1000 Ang^3
#
#
#
# Elastic Constant Matrix: (Units=GPa)
#
#
# Indices 1 2 3 4 5 6 
#
# 1 60.1580 38.9162 35.7901 0.0000 0.0000 0.0000
# 2 38.9162 113.3872 42.8861 0.0000 0.0000 0.0000
# 3 35.7901 42.8861 104.4303 0.0000 0.0000 0.0000
# 4 0.0000 0.0000 0.0000 23.5310 0.0000 0.0000
# 5 0.0000 0.0000 0.0000 0.0000 18.1308 0.0000
# 6 0.0000 0.0000 0.0000 0.0000 0.0000 23.1497
#
#
#
# Elastic Compliance Matrix: (Units=1/GPa)
#
#
# Indices 1 2 3 4 5 6 
#
# 1 0.023942 -0.006054 -0.005719 0.000000 0.000000 0.000000
# 2 -0.006054 0.011972 -0.002842 0.000000 0.000000 0.000000
# 3 -0.005719 -0.002842 0.012703 0.000000 0.000000 0.000000
# 4 0.000000 0.000000 0.000000 0.042497 0.000000 0.000000
# 5 0.000000 0.000000 0.000000 0.000000 0.055155 0.000000
# 6 0.000000 0.000000 0.000000 0.000000 0.000000 0.043197
#
#
# Mechanical properties :
#
#
# Convention : Reuss Voigt Hill
#
# Bulk Modulus (GPa) = 51.58119 57.01781 54.29950
# Shear Modulus (GPa) = 22.20671 23.65452 22.93062
#
# Velocity S-wave (km/s) = 3.46538 3.57657 3.52141
# Velocity P-wave (km/s) = 6.62614 6.92024 6.77478
#
# Compressibility (1/GPa) = 0.01938691
#
# Stress axis : x y z
#
# Youngs Moduli (GPa) = 41.76814 83.52840 78.72313
#
# Poissons Ratio (x) = 0.50569 0.45022
# Poissons Ratio (y) = 0.25287 0.22370
# Poissons Ratio (z) = 0.23887 0.23736
#
# Static dielectric constant tensor:
#      x y z
#    x 3.184710 0.000000 0.000000 
#    y 0.000000 3.571860 0.000000 
#    z 0.000000 0.000000 3.400260 
# 
# 
# High freq. dielectric constant tensor:
#      x y z
#    x 1.687720 0.000000 0.000000 
#    y 0.000000 1.727540 0.000000 
#    z 0.000000 0.000000 1.718560 
# 
# From -- ./inp_files/31988.got.cif
#   From: 2010.03.12/outbox.cif.g09.slc.cpg/sg59_16_cif.got.tgz:31988.got - 2010.04.16 16:29:54.
