data_PCOD8239727
_publ_section_title
;
Structure prediction by ZEFSAII (Michael W. Deem and Ramdas Pophale) SiO2 
 PCOD8239727
Probable space group: P M M N
;
_chemical_formula_sum "Si O2"
_cell_formula_units_Z 64
_cell_length_a 9.679632
_cell_length_b 14.504166
_cell_length_c 24.795516
_cell_angle_alpha 90.000000
_cell_angle_beta 90.000000
_cell_angle_gamma 90.000000
_cell_volume 3481.166205
_symmetry_space_group_name_H-M "P M M N"
_symmetry_group_IT_number 59
_space_group.IT_coordinate_system_code '2'
_symmetry_cell_setting 'orthorhombic'
loop_
_space_group_symop_operation_xyz
x,y,z
1/2-x,1/2-y,z
1/2+x,-y,-z
-x,1/2+y,-z
-x,-y,-z
1/2+x,1/2+y,-z
1/2-x,y,z
x,1/2-y,z
loop_
_atom_site_type_symbol
_atom_site_label
_atom_site_fract_x
_atom_site_fract_y
_atom_site_fract_z
Si Si1 0.907008 0.145189 0.020448
Si Si2 0.596331 0.148312 0.403339
Si Si3 0.590521 0.853594 0.081661
Si Si4 0.592799 0.416289 0.517522
Si Si5 0.412972 0.650417 0.367734
Si Si6 0.909004 0.458648 0.129085
Si Si7 0.912920 0.857777 0.781813
Si Si8 0.087943 0.039453 0.325859
O O1 0.750000 0.130783 0.001122
O O2 0.932343 0.250000 0.039548
O O3 0.943202 0.079234 0.069912
O O4 0.004203 0.119538 0.970841
O O5 0.750000 0.113948 0.386882
O O6 0.569448 0.250000 0.379859
O O7 0.585004 0.155256 0.468085
O O8 0.484032 0.080366 0.378539
O O9 0.750000 0.858230 0.064323
O O10 0.552283 0.750000 0.102695
O O11 0.561728 0.930585 0.127892
O O12 0.500000 0.500000 0.500000
O O13 0.750000 0.449943 0.527526
O O14 0.531536 0.371570 0.572098
O O15 0.250000 0.658871 0.371386
O O16 0.474565 0.750000 0.348893
O O17 0.451864 0.569602 0.325016
O O18 0.750000 0.438028 0.144995
O O19 0.008996 0.407544 0.169978
O O20 0.750000 0.870326 0.790736
O O21 0.953057 0.750000 0.778734
O O22 0.963700 0.909187 0.727720
O O23 0.250000 0.054529 0.333551
#
# Coordination Sequence:
#
# PCOD8239727 Si02
#       8
#     8   8   8   8   8   8   8   8
#     4   9  17  29  47  74 106 137 172 214 255 297
#     4  10  20  32  49  75 105 134 165 204 250 301
#     4   9  18  32  50  75 107 141 175 209 249 300
#     4  10  18  30  49  74 104 136 168 202 244 297
#     4   9  17  31  53  77 101 133 170 205 246 299
#     4  10  20  34  53  76 103 138 177 214 253 302
#     4  10  22  38  54  75 103 131 163 211 265 310
#     4  10  20  36  56  76  99 130 169 212 256 302
#
# _framework density 18.384643000000001
#
# number of rings (size 3 to 8) (size 9 to 14) (size 15 to 20)
#    0.000    2.375    1.250    1.500    0.000    4.500 
#    0.000    1.875    0.000    3.000    0.000    0.000 
#    0.000    0.000    0.000    0.000    0.000    0.000 
#
# Total GULP energy -793262.665176 kJ/mol
# GULP energy per Si atom -12394.729143 kJ/mol
# Density = 1.834280 g / cm^3
# Si number density = 18.384643 Si / 1000 Ang^3
#
#
#
# Elastic Constant Matrix: (Units=GPa)
#
#
# Indices 1 2 3 4 5 6 
#
# 1 46.2502 40.8784 33.7880 0.0000 0.0000 0.0000
# 2 40.8784 146.4754 60.8000 0.0000 0.0000 0.0000
# 3 33.7880 60.8000 79.2801 0.0000 0.0000 0.0000
# 4 0.0000 0.0000 0.0000 29.1578 0.0000 0.0000
# 5 0.0000 0.0000 0.0000 0.0000 26.3061 0.0000
# 6 0.0000 0.0000 0.0000 0.0000 0.0000 22.3101
#
#
#
# Elastic Compliance Matrix: (Units=1/GPa)
#
#
# Indices 1 2 3 4 5 6 
#
# 1 0.033776 -0.005063 -0.010512 0.000000 0.000000 0.000000
# 2 -0.005063 0.010774 -0.006105 0.000000 0.000000 0.000000
# 3 -0.010512 -0.006105 0.021776 0.000000 0.000000 0.000000
# 4 0.000000 0.000000 0.000000 0.034296 0.000000 0.000000
# 5 0.000000 0.000000 0.000000 0.000000 0.038014 0.000000
# 6 0.000000 0.000000 0.000000 0.000000 0.000000 0.044823
#
#
# Mechanical properties :
#
#
# Convention : Reuss Voigt Hill
#
# Bulk Modulus (GPa) = 43.54311 60.32651 51.93481
# Shear Modulus (GPa) = 21.32436 24.65741 22.99088
#
# Velocity S-wave (km/s) = 3.40943 3.66621 3.54015
# Velocity P-wave (km/s) = 6.26377 7.12785 6.70973
#
# Compressibility (1/GPa) = 0.02296574
#
# Stress axis : x y z
#
# Youngs Moduli (GPa) = 29.60688 92.81519 45.92299
#
# Poissons Ratio (x) = 0.46990 0.48275
# Poissons Ratio (y) = 0.14989 0.28036
# Poissons Ratio (z) = 0.31123 0.56664
#
# Static dielectric constant tensor:
#      x y z
#    x 3.241940 0.000000 0.000000 
#    y 0.000000 3.840680 0.000000 
#    z 0.000000 0.000000 3.241410 
# 
# 
# High freq. dielectric constant tensor:
#      x y z
#    x 1.696300 0.000000 0.000000 
#    y 0.000000 1.729620 0.000000 
#    z 0.000000 0.000000 1.687790 
# 
# From -- ./inp_files/31448.got.cif
#   From: 2010.03.12/outbox.cif.g09.slc.cpg/sg59_16_cif.got.tgz:31448.got - 2010.04.16 16:29:54.
