data_PCOD8239347
_publ_section_title
;
Structure prediction by ZEFSAII (Michael W. Deem and Ramdas Pophale) SiO2 
 PCOD8239347
Probable space group: P M M N
;
_chemical_formula_sum "Si O2"
_cell_formula_units_Z 64
_cell_length_a 26.068269
_cell_length_b 9.297977
_cell_length_c 16.989928
_cell_angle_alpha 90.000000
_cell_angle_beta 90.000000
_cell_angle_gamma 90.000000
_cell_volume 4118.055542
_symmetry_space_group_name_H-M "P M M N"
_symmetry_group_IT_number 59
_space_group.IT_coordinate_system_code '2'
_symmetry_cell_setting 'orthorhombic'
loop_
_space_group_symop_operation_xyz
x,y,z
1/2-x,1/2-y,z
1/2+x,-y,-z
-x,1/2+y,-z
-x,-y,-z
1/2+x,1/2+y,-z
1/2-x,y,z
x,1/2-y,z
loop_
_atom_site_type_symbol
_atom_site_label
_atom_site_fract_x
_atom_site_fract_y
_atom_site_fract_z
Si Si1 0.058324 0.083239 0.343532
Si Si2 0.578240 0.413236 0.145043
Si Si3 0.877005 0.583661 0.515078
Si Si4 0.810495 0.415840 0.401273
Si Si5 0.540847 0.581951 0.830239
Si Si6 0.050549 0.916366 0.023563
Si Si7 0.536832 0.589142 0.394285
Si Si8 0.626187 0.585363 0.275427
O O1 0.044880 0.250000 0.342011
O O2 0.111032 0.054275 0.392406
O O3 0.063510 0.028925 0.253722
O O4 0.011348 0.013482 0.389341
O O5 0.588453 0.250000 0.172136
O O6 0.519556 0.454386 0.165917
O O7 0.618784 0.514924 0.189556
O O8 0.588875 0.430044 0.051108
O O9 0.861893 0.750000 0.499499
O O10 0.831470 0.483704 0.482974
O O11 0.929113 0.545036 0.469019
O O12 0.750000 0.431768 0.402404
O O13 0.827743 0.250000 0.396339
O O14 0.831521 0.500112 0.325519
O O15 0.550810 0.750000 0.845510
O O16 0.571789 0.491423 0.896889
O O17 0.037722 0.750000 0.040455
O O18 0.000000 0.000000 0.000000
O O19 0.515706 0.750000 0.403465
O O20 0.571194 0.574794 0.316562
O O21 0.644553 0.750000 0.266507
#
# Coordination Sequence:
#
# PCOD8239347 Si02
#       8
#     8   8   8   8   8   8   8   8
#     4  10  18  28  42  60  87 119 150 182 217 257
#     4   9  16  27  41  59  85 116 150 184 217 253
#     4   9  19  32  45  64  86 111 145 182 220 262
#     4  10  21  36  52  67  85 111 142 179 224 270
#     4   9  17  27  39  58  85 120 154 183 217 251
#     4   9  17  27  39  56  80 114 153 187 217 249
#     4   9  17  27  38  59  87 114 148 181 214 254
#     4  10  19  29  45  68  89 113 146 182 220 262
#
# _framework density 15.541315000000001
#
# number of rings (size 3 to 8) (size 9 to 14) (size 15 to 20)
#    0.000    2.625    1.250    3.000    0.000    6.500 
#    0.000    0.000    0.000    0.000    0.000    0.000 
#    0.000    1.000    0.000    6.500    0.000    4.875 
#
# Total GULP energy -793267.321680 kJ/mol
# GULP energy per Si atom -12394.801901 kJ/mol
# Density = 1.550594 g / cm^3
# Si number density = 15.541315 Si / 1000 Ang^3
#
#
#
# Elastic Constant Matrix: (Units=GPa)
#
#
# Indices 1 2 3 4 5 6 
#
# 1 41.2327 35.5799 30.9256 0.0000 0.0000 0.0000
# 2 35.5799 90.4739 54.8607 0.0000 0.0000 0.0000
# 3 30.9256 54.8607 113.9484 0.0000 0.0000 0.0000
# 4 0.0000 0.0000 0.0000 27.4637 0.0000 0.0000
# 5 0.0000 0.0000 0.0000 0.0000 11.8264 0.0000
# 6 0.0000 0.0000 0.0000 0.0000 0.0000 18.3712
#
#
#
# Elastic Compliance Matrix: (Units=1/GPa)
#
#
# Indices 1 2 3 4 5 6 
#
# 1 0.038231 -0.012348 -0.004431 0.000000 0.000000 0.000000
# 2 -0.012348 0.019598 -0.006084 0.000000 0.000000 0.000000
# 3 -0.004431 -0.006084 0.012908 0.000000 0.000000 0.000000
# 4 0.000000 0.000000 0.000000 0.036412 0.000000 0.000000
# 5 0.000000 0.000000 0.000000 0.000000 0.084557 0.000000
# 6 0.000000 0.000000 0.000000 0.000000 0.000000 0.054433
#
#
# Mechanical properties :
#
#
# Convention : Reuss Voigt Hill
#
# Bulk Modulus (GPa) = 39.98318 54.26524 47.12421
# Shear Modulus (GPa) = 16.65543 19.81817 18.23680
#
# Velocity S-wave (km/s) = 3.27722 3.57486 3.42927
# Velocity P-wave (km/s) = 6.33270 7.21332 6.78731
#
# Compressibility (1/GPa) = 0.02501051
#
# Stress axis : x y z
#
# Youngs Moduli (GPa) = 26.15671 51.02478 77.47250
#
# Poissons Ratio (x) = 0.63006 0.34327
# Poissons Ratio (y) = 0.32298 0.47137
# Poissons Ratio (z) = 0.11590 0.31046
#
# Static dielectric constant tensor:
#      x y z
#    x 2.460310 0.000000 0.000000 
#    y 0.000000 3.105090 0.000000 
#    z 0.000000 0.000000 3.451470 
# 
# 
# High freq. dielectric constant tensor:
#      x y z
#    x 1.529170 0.000000 0.000000 
#    y 0.000000 1.607030 0.000000 
#    z 0.000000 0.000000 1.604330 
# 
# From -- ./inp_files/28461.got.cif
#   From: 2010.03.12/outbox.cif.g09.slc.cpg/sg59_15_cif.got.tgz:28461.got - 2010.04.16 16:29:54.
