data_PCOD8239455
_publ_section_title
;
Structure prediction by ZEFSAII (Michael W. Deem and Ramdas Pophale) SiO2 
 PCOD8239455
Probable space group: P M M N
;
_chemical_formula_sum "Si O2"
_cell_formula_units_Z 64
_cell_length_a 14.444661
_cell_length_b 8.857092
_cell_length_c 28.227884
_cell_angle_alpha 90.000000
_cell_angle_beta 90.000000
_cell_angle_gamma 90.000000
_cell_volume 3611.410312
_symmetry_space_group_name_H-M "P M M N"
_symmetry_group_IT_number 59
_space_group.IT_coordinate_system_code '2'
_symmetry_cell_setting 'orthorhombic'
loop_
_space_group_symop_operation_xyz
x,y,z
1/2-x,1/2-y,z
1/2+x,-y,-z
-x,1/2+y,-z
-x,-y,-z
1/2+x,1/2+y,-z
1/2-x,y,z
x,1/2-y,z
loop_
_atom_site_type_symbol
_atom_site_label
_atom_site_fract_x
_atom_site_fract_y
_atom_site_fract_z
Si Si1 0.144840 0.573939 0.070817
Si Si2 0.355412 0.072618 0.422689
Si Si3 0.355069 0.571825 0.800809
Si Si4 0.143125 0.075118 0.970512
Si Si5 0.025031 0.571288 0.889457
Si Si6 0.147228 0.070460 0.528691
Si Si7 0.026937 0.429114 0.614851
Si Si8 0.644388 0.571779 0.296525
O O1 0.250000 0.545302 0.087975
O O2 0.126558 0.750000 0.061899
O O3 0.075407 0.509083 0.110584
O O4 0.123395 0.483910 0.022963
O O5 0.250000 0.029256 0.410129
O O6 0.370531 0.250000 0.418281
O O7 0.380163 0.015770 0.475926
O O8 0.422016 0.989352 0.385366
O O9 0.250000 0.517885 0.811394
O O10 0.359354 0.750000 0.795815
O O11 0.420641 0.514533 0.843005
O O12 0.391856 0.500074 0.752184
O O13 0.250000 0.051831 0.956881
O O14 0.114019 0.250000 0.967597
O O15 0.082444 0.976787 0.935278
O O16 0.012037 0.750000 0.889411
O O17 0.250000 0.011466 0.541160
O O18 0.147437 0.250000 0.529757
O O19 0.077620 0.004989 0.567995
O O20 0.027232 0.250000 0.614634
O O21 0.079933 0.489881 0.661192
O O22 0.750000 0.522099 0.307021
O O23 0.636857 0.750000 0.291929
#
# Coordination Sequence:
#
# PCOD8239455 Si02
#       8
#     8   8   8   8   8   8   8   8
#     4  10  21  36  52  71  99 134 169 205 243 283
#     4   9  18  31  45  63  91 128 164 195 230 274
#     4   9  19  35  53  74 100 128 156 189 235 288
#     4  10  20  33  50  74 104 136 169 203 239 283
#     4  11  21  33  52  75 100 130 164 202 243 290
#     4   8  14  26  44  66  94 126 157 189 229 280
#     4  10  18  28  47  72  94 120 156 196 236 278
#     4   9  18  32  50  73  99 124 151 187 234 287
#
# _framework density 17.721608
#
# number of rings (size 3 to 8) (size 9 to 14) (size 15 to 20)
#    0.000    2.500    0.000    3.375    0.000    5.250 
#    0.000    1.250    0.000    2.625    0.000    0.000 
#    0.000    0.000    0.000    0.000    0.000    0.000 
#
# Total GULP energy -793593.848746 kJ/mol
# GULP energy per Si atom -12399.903887 kJ/mol
# Density = 1.768127 g / cm^3
# Si number density = 17.721608 Si / 1000 Ang^3
#
#
#
# Elastic Constant Matrix: (Units=GPa)
#
#
# Indices 1 2 3 4 5 6 
#
# 1 116.9839 27.4068 72.0800 0.0000 0.0000 0.0000
# 2 27.4068 28.0864 19.9998 0.0000 0.0000 0.0000
# 3 72.0800 19.9998 93.1719 0.0000 0.0000 0.0000
# 4 0.0000 0.0000 0.0000 25.6530 0.0000 0.0000
# 5 0.0000 0.0000 0.0000 0.0000 31.3011 0.0000
# 6 0.0000 0.0000 0.0000 0.0000 0.0000 29.0208
#
#
#
# Elastic Compliance Matrix: (Units=1/GPa)
#
#
# Indices 1 2 3 4 5 6 
#
# 1 0.018104 -0.009081 -0.012057 0.000000 0.000000 0.000000
# 2 -0.009081 0.046583 -0.002974 0.000000 0.000000 0.000000
# 3 -0.012057 -0.002974 0.020699 0.000000 0.000000 0.000000
# 4 0.000000 0.000000 0.000000 0.038982 0.000000 0.000000
# 5 0.000000 0.000000 0.000000 0.000000 0.031948 0.000000
# 6 0.000000 0.000000 0.000000 0.000000 0.000000 0.034458
#
#
# Mechanical properties :
#
#
# Convention : Reuss Voigt Hill
#
# Bulk Modulus (GPa) = 26.90857 53.02393 39.96625
# Shear Modulus (GPa) = 19.88975 25.11202 22.50088
#
# Velocity S-wave (km/s) = 3.35378 3.76843 3.56713
# Velocity P-wave (km/s) = 5.49673 6.99430 6.29024
#
# Compressibility (1/GPa) = 0.03716289
#
# Stress axis : x y z
#
# Youngs Moduli (GPa) = 55.23494 21.46683 48.31224
#
# Poissons Ratio (x) = 0.19494 0.58249
# Poissons Ratio (y) = 0.50159 0.14369
# Poissons Ratio (z) = 0.66596 0.06385
#
# Static dielectric constant tensor:
#      x y z
#    x 3.467150 0.000000 0.000000 
#    y 0.000000 3.083500 0.000000 
#    z 0.000000 0.000000 3.259420 
# 
# 
# High freq. dielectric constant tensor:
#      x y z
#    x 1.689130 0.000000 0.000000 
#    y 0.000000 1.673870 0.000000 
#    z 0.000000 0.000000 1.665650 
# 
# From -- ./inp_files/33307.got.cif
#   From: 2010.03.12/outbox.cif.g09.slc.cpg/sg59_17_cif.got.tgz:33307.got - 2010.04.16 16:29:54.
