data_PCOD8239852
_publ_section_title
;
Structure prediction by ZEFSAII (Michael W. Deem and Ramdas Pophale) SiO2 
 PCOD8239852
Probable space group: P M M N
;
_chemical_formula_sum "Si O2"
_cell_formula_units_Z 56
_cell_length_a 19.076054
_cell_length_b 9.435729
_cell_length_c 17.861838
_cell_angle_alpha 90.000000
_cell_angle_beta 90.000000
_cell_angle_gamma 90.000000
_cell_volume 3215.067894
_symmetry_space_group_name_H-M "P M M N"
_symmetry_group_IT_number 59
_space_group.IT_coordinate_system_code '2'
_symmetry_cell_setting 'orthorhombic'
loop_
_space_group_symop_operation_xyz
x,y,z
1/2-x,1/2-y,z
1/2+x,-y,-z
-x,1/2+y,-z
-x,-y,-z
1/2+x,1/2+y,-z
1/2-x,y,z
x,1/2-y,z
loop_
_atom_site_type_symbol
_atom_site_label
_atom_site_fract_x
_atom_site_fract_y
_atom_site_fract_z
Si Si1 0.934320 0.417553 0.697535
Si Si2 0.833359 0.907668 0.964330
Si Si3 0.169260 0.916699 0.176330
Si Si4 0.171922 0.418437 0.872196
Si Si5 0.565590 0.414463 0.529825
Si Si6 0.090537 0.081364 0.727845
Si Si7 0.668962 0.087274 0.398797
O O1 0.933293 0.250000 0.702981
O O2 0.875910 0.477699 0.754383
O O3 0.915770 0.467431 0.613534
O O4 0.011101 0.473992 0.720538
O O5 0.750000 0.901521 0.965200
O O6 0.863700 0.750000 0.949644
O O7 0.860120 0.011498 0.899277
O O8 0.857251 0.966551 0.046111
O O9 0.250000 0.957027 0.191709
O O10 0.159658 0.750000 0.165873
O O11 0.250000 0.480580 0.856998
O O12 0.176418 0.250000 0.872175
O O13 0.119564 0.472322 0.807817
O O14 0.500000 0.500000 0.500000
O O15 0.543866 0.250000 0.530956
O O16 0.632835 0.442847 0.478511
O O17 0.095721 0.250000 0.719546
O O18 0.137180 0.014448 0.663192
O O19 0.750000 0.050323 0.409171
O O20 0.657495 0.250000 0.374255
#
# Coordination Sequence:
#
# PCOD8239852 Si02
#       7
#     8   8   8   8   8   8   8
#     4   9  18  31  49  72  95 122 159 200 241 283
#     4   8  14  27  46  66  90 120 155 195 239 286
#     4   9  17  30  48  69  93 122 159 201 242 286
#     4   8  14  25  44  69  92 119 157 196 234 280
#     4  10  19  34  53  71  95 128 164 197 237 287
#     4  10  18  31  51  72  96 127 164 201 236 281
#     4  10  21  34  49  73 103 130 157 196 244 288
#
# _framework density 17.417984000000001
#
# number of rings (size 3 to 8) (size 9 to 14) (size 15 to 20)
#    0.000    2.857    1.429    1.286    0.000    1.429 
#    0.000    5.714    0.000    2.571    0.000    2.000 
#    0.000    0.000    0.000    0.000    0.000    0.000 
#
# Total GULP energy -694196.113385 kJ/mol
# GULP energy per Si atom -12396.359168 kJ/mol
# Density = 1.737834 g / cm^3
# Si number density = 17.417984 Si / 1000 Ang^3
#
#
#
# Elastic Constant Matrix: (Units=GPa)
#
#
# Indices 1 2 3 4 5 6 
#
# 1 104.4071 30.7003 78.5505 0.0000 0.0000 0.0000
# 2 30.7003 33.5782 42.8414 0.0000 0.0000 0.0000
# 3 78.5505 42.8414 187.7234 0.0000 0.0000 0.0000
# 4 0.0000 0.0000 0.0000 26.8549 0.0000 0.0000
# 5 0.0000 0.0000 0.0000 0.0000 31.4318 0.0000
# 6 0.0000 0.0000 0.0000 0.0000 0.0000 15.5957
#
#
#
# Elastic Compliance Matrix: (Units=1/GPa)
#
#
# Indices 1 2 3 4 5 6 
#
# 1 0.015460 -0.008297 -0.004575 0.000000 0.000000 0.000000
# 2 -0.008297 0.046468 -0.007133 0.000000 0.000000 0.000000
# 3 -0.004575 -0.007133 0.008869 0.000000 0.000000 0.000000
# 4 0.000000 0.000000 0.000000 0.037237 0.000000 0.000000
# 5 0.000000 0.000000 0.000000 0.000000 0.031815 0.000000
# 6 0.000000 0.000000 0.000000 0.000000 0.000000 0.064120
#
#
# Mechanical properties :
#
#
# Convention : Reuss Voigt Hill
#
# Bulk Modulus (GPa) = 32.48213 69.98813 51.23513
# Shear Modulus (GPa) = 19.66624 26.35091 23.00858
#
# Velocity S-wave (km/s) = 3.36382 3.89376 3.63845
# Velocity P-wave (km/s) = 5.81172 7.77714 6.86513
#
# Compressibility (1/GPa) = 0.03078616
#
# Stress axis : x y z
#
# Youngs Moduli (GPa) = 64.68310 21.52026 112.74771
#
# Poissons Ratio (x) = 0.17856 0.51588
# Poissons Ratio (y) = 0.53669 0.80421
# Poissons Ratio (z) = 0.29596 0.15350
#
# Static dielectric constant tensor:
#      x y z
#    x 3.278800 0.000000 0.000000 
#    y 0.000000 3.005800 0.000000 
#    z 0.000000 0.000000 3.746280 
# 
# 
# High freq. dielectric constant tensor:
#      x y z
#    x 1.658700 0.000000 0.000000 
#    y 0.000000 1.638160 0.000000 
#    z 0.000000 0.000000 1.689600 
# 
# From -- ./inp_files/28102.got.cif
#   From: 2010.03.12/outbox.cif.g09.slc.cpg/sg59_15_cif.got.tgz:28102.got - 2010.04.16 16:29:54.
