data_PCOD8239775
_publ_section_title
;
Structure prediction by ZEFSAII (Michael W. Deem and Ramdas Pophale) SiO2 
 PCOD8239775
Probable space group: P M M N
;
_chemical_formula_sum "Si O2"
_cell_formula_units_Z 56
_cell_length_a 17.052725
_cell_length_b 8.921512
_cell_length_c 20.403937
_cell_angle_alpha 90.000000
_cell_angle_beta 90.000000
_cell_angle_gamma 90.000000
_cell_volume 3104.175210
_symmetry_space_group_name_H-M "P M M N"
_symmetry_group_IT_number 59
_space_group.IT_coordinate_system_code '2'
_symmetry_cell_setting 'orthorhombic'
loop_
_space_group_symop_operation_xyz
x,y,z
1/2-x,1/2-y,z
1/2+x,-y,-z
-x,1/2+y,-z
-x,-y,-z
1/2+x,1/2+y,-z
1/2-x,y,z
x,1/2-y,z
loop_
_atom_site_type_symbol
_atom_site_label
_atom_site_fract_x
_atom_site_fract_y
_atom_site_fract_z
Si Si1 0.472030 0.925054 0.644574
Si Si2 0.660033 0.924569 0.439676
Si Si3 0.112370 0.585193 0.027203
Si Si4 0.557897 0.914671 0.088034
Si Si5 0.431461 0.570626 0.456378
Si Si6 0.010964 0.077162 0.207930
Si Si7 0.836791 0.073695 0.835697
O O1 0.474030 0.750000 0.625580
O O2 0.471275 0.949624 0.722089
O O3 0.393081 0.998621 0.616002
O O4 0.550613 0.006960 0.616270
O O5 0.750000 0.945302 0.418935
O O6 0.637086 0.750000 0.445549
O O7 0.647727 0.005498 0.510684
O O8 0.144875 0.750000 0.010196
O O9 0.159995 0.515781 0.088740
O O10 0.022641 0.595561 0.049015
O O11 0.121721 0.487675 0.961181
O O12 0.588138 0.750000 0.107543
O O13 0.547570 0.008269 0.154449
O O14 0.500000 0.500000 0.500000
O O15 0.430548 0.750000 0.456265
O O16 0.021598 0.250000 0.191177
O O17 0.097849 0.005763 0.208329
O O18 0.750000 0.039357 0.807261
O O19 0.855834 0.250000 0.835320
#
# Coordination Sequence:
#
# PCOD8239775 Si02
#       7
#     8   8   8   8   8   8   8
#     4  10  20  34  52  74 102 135 170 205 242 290
#     4  10  20  34  54  79 104 129 160 202 250 295
#     4   8  14  25  42  64  89 115 147 191 239 284
#     4   9  16  26  43  66  90 117 151 193 236 280
#     4  10  18  30  51  75 100 129 161 198 239 284
#     4  10  20  32  48  71  98 131 168 204 245 292
#     4   9  18  32  49  69  94 126 164 206 252 300
#
# _framework density 18.040217999999999
#
# number of rings (size 3 to 8) (size 9 to 14) (size 15 to 20)
#    0.000    2.571    0.000    5.571    0.000    7.143 
#    0.000    0.714    0.000    1.714    0.000    2.000 
#    0.000    0.000    0.000    0.000    0.000    0.000 
#
# Total GULP energy -694020.174404 kJ/mol
# GULP energy per Si atom -12393.217400 kJ/mol
# Density = 1.799916 g / cm^3
# Si number density = 18.040218 Si / 1000 Ang^3
#
#
#
# Elastic Constant Matrix: (Units=GPa)
#
#
# Indices 1 2 3 4 5 6 
#
# 1 62.4151 40.1488 30.5540 0.0000 0.0000 0.0000
# 2 40.1488 137.0728 58.9956 0.0000 0.0000 0.0000
# 3 30.5540 58.9956 92.5130 0.0000 0.0000 0.0000
# 4 0.0000 0.0000 0.0000 30.3640 0.0000 0.0000
# 5 0.0000 0.0000 0.0000 0.0000 17.1347 0.0000
# 6 0.0000 0.0000 0.0000 0.0000 0.0000 21.7962
#
#
#
# Elastic Compliance Matrix: (Units=1/GPa)
#
#
# Indices 1 2 3 4 5 6 
#
# 1 0.020820 -0.004326 -0.004117 0.000000 0.000000 0.000000
# 2 -0.004326 0.010954 -0.005557 0.000000 0.000000 0.000000
# 3 -0.004117 -0.005557 0.015713 0.000000 0.000000 0.000000
# 4 0.000000 0.000000 0.000000 0.032934 0.000000 0.000000
# 5 0.000000 0.000000 0.000000 0.000000 0.058361 0.000000
# 6 0.000000 0.000000 0.000000 0.000000 0.000000 0.045880
#
#
# Mechanical properties :
#
#
# Convention : Reuss Voigt Hill
#
# Bulk Modulus (GPa) = 51.31775 61.26644 56.29209
# Shear Modulus (GPa) = 22.81467 24.67915 23.74691
#
# Velocity S-wave (km/s) = 3.56006 3.70267 3.63206
# Velocity P-wave (km/s) = 6.73845 7.23287 6.99004
#
# Compressibility (1/GPa) = 0.01948644
#
# Stress axis : x y z
#
# Youngs Moduli (GPa) = 48.03032 91.29020 63.64309
#
# Poissons Ratio (x) = 0.39493 0.26205
# Poissons Ratio (y) = 0.20779 0.35364
# Poissons Ratio (z) = 0.19776 0.50727
#
# Static dielectric constant tensor:
#      x y z
#    x 3.201080 0.000000 0.000000 
#    y 0.000000 3.576210 0.000000 
#    z 0.000000 0.000000 3.445600 
# 
# 
# High freq. dielectric constant tensor:
#      x y z
#    x 1.662560 0.000000 0.000000 
#    y 0.000000 1.711950 0.000000 
#    z 0.000000 0.000000 1.688190 
# 
# From -- ./inp_files/30553.got.cif
#   From: 2010.03.12/outbox.cif.g09.slc.cpg/sg59_16_cif.got.tgz:30553.got - 2010.04.16 16:29:54.
