data_PCOD8239308
_publ_section_title
;
Structure prediction by ZEFSAII (Michael W. Deem and Ramdas Pophale) SiO2 
 PCOD8239308
Probable space group: P M M N
;
_chemical_formula_sum "Si O2"
_cell_formula_units_Z 64
_cell_length_a 9.229605
_cell_length_b 26.435060
_cell_length_c 16.898478
_cell_angle_alpha 90.000000
_cell_angle_beta 90.000000
_cell_angle_gamma 90.000000
_cell_volume 4122.977892
_symmetry_space_group_name_H-M "P M M N"
_symmetry_group_IT_number 59
_space_group.IT_coordinate_system_code '2'
_symmetry_cell_setting 'orthorhombic'
loop_
_space_group_symop_operation_xyz
x,y,z
1/2-x,1/2-y,z
1/2+x,-y,-z
-x,1/2+y,-z
-x,-y,-z
1/2+x,1/2+y,-z
1/2-x,y,z
x,1/2-y,z
loop_
_atom_site_type_symbol
_atom_site_label
_atom_site_fract_x
_atom_site_fract_y
_atom_site_fract_z
Si Si1 0.917361 0.949533 0.521290
Si Si2 0.581539 0.563436 0.826048
Si Si3 0.079862 0.192566 0.897425
Si Si4 0.414495 0.427704 0.651062
Si Si5 0.915310 0.371587 0.778122
Si Si6 0.420960 0.954758 0.671248
Si Si7 0.417311 0.107113 0.014677
Si Si8 0.413823 0.959763 0.096551
O O1 0.750000 0.960864 0.542322
O O2 0.927313 0.914829 0.442703
O O3 0.999287 0.926383 0.597706
O O4 0.000000 0.000000 0.500000
O O5 0.750000 0.560168 0.800211
O O6 0.481476 0.572193 0.749957
O O7 0.555608 0.608499 0.890326
O O8 0.529500 0.512311 0.868822
O O9 0.250000 0.186802 0.882092
O O10 0.036732 0.250000 0.917141
O O11 0.998646 0.175483 0.817641
O O12 0.028489 0.158878 0.972989
O O13 0.250000 0.420412 0.680332
O O14 0.514851 0.387014 0.694578
O O15 0.461705 0.485640 0.670037
O O16 0.750000 0.355475 0.763569
O O17 0.930128 0.419429 0.834196
O O18 0.250000 0.946026 0.664349
O O19 0.250000 0.098949 0.996458
O O20 0.493380 0.057571 0.978588
O O21 0.250000 0.964984 0.066965
#
# Coordination Sequence:
#
# PCOD8239308 Si02
#       8
#     8   8   8   8   8   8   8   8
#     4   9  17  28  41  58  82 114 150 183 212 244
#     4  10  18  28  40  57  84 113 144 180 216 255
#     4   9  18  33  49  63  84 112 141 178 222 264
#     4   9  17  28  41  59  83 112 146 177 207 249
#     4  10  18  27  43  65  86 110 142 178 214 256
#     4  10  19  28  40  59  83 117 153 181 213 250
#     4   9  18  29  43  61  79 107 144 178 215 260
#     4   9  17  27  38  56  82 111 139 172 215 253
#
# _framework density 15.522762
#
# number of rings (size 3 to 8) (size 9 to 14) (size 15 to 20)
#    0.000    2.625    1.250    2.250    0.000    4.250 
#    0.000    0.000    0.000    0.000    0.000    0.000 
#    0.000    1.000    0.000    7.750    0.000    1.875 
#
# Total GULP energy -793300.036310 kJ/mol
# GULP energy per Si atom -12395.313067 kJ/mol
# Density = 1.548743 g / cm^3
# Si number density = 15.522762 Si / 1000 Ang^3
#
#
#
# Elastic Constant Matrix: (Units=GPa)
#
#
# Indices 1 2 3 4 5 6 
#
# 1 72.9072 20.6690 51.4419 0.0000 0.0000 0.0000
# 2 20.6690 44.2317 25.9489 0.0000 0.0000 0.0000
# 3 51.4419 25.9489 111.1988 0.0000 0.0000 0.0000
# 4 0.0000 0.0000 0.0000 13.2884 0.0000 0.0000
# 5 0.0000 0.0000 0.0000 0.0000 28.9005 0.0000
# 6 0.0000 0.0000 0.0000 0.0000 0.0000 13.8722
#
#
#
# Elastic Compliance Matrix: (Units=1/GPa)
#
#
# Indices 1 2 3 4 5 6 
#
# 1 0.021212 -0.004814 -0.008689 0.000000 0.000000 0.000000
# 2 -0.004814 0.027287 -0.004140 0.000000 0.000000 0.000000
# 3 -0.008689 -0.004140 0.013979 0.000000 0.000000 0.000000
# 4 0.000000 0.000000 0.000000 0.075253 0.000000 0.000000
# 5 0.000000 0.000000 0.000000 0.000000 0.034601 0.000000
# 6 0.000000 0.000000 0.000000 0.000000 0.000000 0.072087
#
#
# Mechanical properties :
#
#
# Convention : Reuss Voigt Hill
#
# Bulk Modulus (GPa) = 36.77902 47.16192 41.97047
# Shear Modulus (GPa) = 17.31474 19.89742 18.60608
#
# Velocity S-wave (km/s) = 3.34345 3.58414 3.46588
# Velocity P-wave (km/s) = 6.21690 6.89757 6.56606
#
# Compressibility (1/GPa) = 0.02718941
#
# Stress axis : x y z
#
# Youngs Moduli (GPa) = 47.14299 36.64757 71.53620
#
# Poissons Ratio (x) = 0.17644 0.62161
# Poissons Ratio (y) = 0.22697 0.29619
# Poissons Ratio (z) = 0.40965 0.15173
#
# Static dielectric constant tensor:
#      x y z
#    x 3.058640 0.000000 0.000000 
#    y 0.000000 2.623500 0.000000 
#    z 0.000000 0.000000 3.391930 
# 
# 
# High freq. dielectric constant tensor:
#      x y z
#    x 1.603990 0.000000 0.000000 
#    y 0.000000 1.533240 0.000000 
#    z 0.000000 0.000000 1.600250 
# 
# From -- ./inp_files/26669.got.cif
#   From: 2010.03.12/outbox.cif.g09.slc.cpg/sg59_14_cif.got.tgz:26669.got - 2010.04.16 16:29:54.
