data_PCOD8239763
_publ_section_title
;
Structure prediction by ZEFSAII (Michael W. Deem and Ramdas Pophale) SiO2 
 PCOD8239763
Probable space group: P M M N
;
_chemical_formula_sum "Si O2"
_cell_formula_units_Z 56
_cell_length_a 9.192484
_cell_length_b 14.690003
_cell_length_c 21.197568
_cell_angle_alpha 90.000000
_cell_angle_beta 90.000000
_cell_angle_gamma 90.000000
_cell_volume 2862.469080
_symmetry_space_group_name_H-M "P M M N"
_symmetry_group_IT_number 59
_space_group.IT_coordinate_system_code '2'
_symmetry_cell_setting 'orthorhombic'
loop_
_space_group_symop_operation_xyz
x,y,z
1/2-x,1/2-y,z
1/2+x,-y,-z
-x,1/2+y,-z
-x,-y,-z
1/2+x,1/2+y,-z
1/2-x,y,z
x,1/2-y,z
loop_
_atom_site_type_symbol
_atom_site_label
_atom_site_fract_x
_atom_site_fract_y
_atom_site_fract_z
Si Si1 0.079605 0.149773 0.932604
Si Si2 0.413330 0.918821 0.954771
Si Si3 0.585156 0.750000 0.751796
Si Si4 0.920542 0.992345 0.405720
Si Si5 0.411943 0.466975 0.829852
Si Si6 0.422348 0.750000 0.879600
Si Si7 0.418587 0.449641 0.283621
Si Si8 0.080321 0.856131 0.493496
O O1 0.250000 0.147764 0.945819
O O2 0.014602 0.250000 0.947744
O O3 0.048950 0.134038 0.855933
O O4 0.010499 0.073607 0.981386
O O5 0.250000 0.898660 0.978448
O O6 0.483649 0.835659 0.916267
O O7 0.412287 0.995308 0.901412
O O8 0.750000 0.750000 0.777555
O O9 0.475040 0.750000 0.808384
O O10 0.556842 0.840923 0.710659
O O11 0.750000 0.975102 0.399314
O O12 0.988942 0.902630 0.437715
O O13 0.953900 0.085889 0.443443
O O14 0.989840 0.000489 0.337113
O O15 0.250000 0.476484 0.799397
O O16 0.528752 0.511991 0.783881
O O17 0.250000 0.750000 0.874117
O O18 0.250000 0.474759 0.291639
O O19 0.250000 0.862929 0.476210
O O20 0.034075 0.750000 0.502735
#
# Coordination Sequence:
#
# PCOD8239763 Si02
#       8
#     8   8   4   8   8   4   8   8
#     4  10  21  35  52  74 100 131 171 223 279 330
#     4  10  19  32  51  74 100 132 172 218 272 335
#     4  10  22  36  52  78 110 144 181 224 279 338
#     4  10  21  37  60  91 124 158 195 235 278 329
#     4  10  21  37  54  74 102 138 180 224 273 330
#     4  10  18  30  50  76 104 136 169 212 271 334
#     4  11  23  38  56  81 113 148 185 228 278 332
#     4   9  19  38  63  91 124 160 196 235 278 325
#
# _framework density 19.56353
#
# number of rings (size 3 to 8) (size 9 to 14) (size 15 to 20)
#    0.000    2.000    2.143    1.286    1.000    3.143 
#    0.000    0.714    0.000    2.571    0.000    0.000 
#    0.000    0.000    0.000    0.000    0.000    0.000 
#
# Total GULP energy -693818.933776 kJ/mol
# GULP energy per Si atom -12389.623817 kJ/mol
# Density = 1.951900 g / cm^3
# Si number density = 19.563530 Si / 1000 Ang^3
#
#
#
# Elastic Constant Matrix: (Units=GPa)
#
#
# Indices 1 2 3 4 5 6 
#
# 1 75.5550 29.9454 46.3966 0.0000 0.0000 0.0000
# 2 29.9454 90.9721 35.4828 0.0000 0.0000 0.0000
# 3 46.3966 35.4828 88.0726 0.0000 0.0000 0.0000
# 4 0.0000 0.0000 0.0000 30.9457 0.0000 0.0000
# 5 0.0000 0.0000 0.0000 0.0000 35.3315 0.0000
# 6 0.0000 0.0000 0.0000 0.0000 0.0000 32.6855
#
#
#
# Elastic Compliance Matrix: (Units=1/GPa)
#
#
# Indices 1 2 3 4 5 6 
#
# 1 0.020218 -0.002967 -0.009455 0.000000 0.000000 0.000000
# 2 -0.002967 0.013477 -0.003867 0.000000 0.000000 0.000000
# 3 -0.009455 -0.003867 0.017893 0.000000 0.000000 0.000000
# 4 0.000000 0.000000 0.000000 0.032315 0.000000 0.000000
# 5 0.000000 0.000000 0.000000 0.000000 0.028303 0.000000
# 6 0.000000 0.000000 0.000000 0.000000 0.000000 0.030595
#
#
# Mechanical properties :
#
#
# Convention : Reuss Voigt Hill
#
# Bulk Modulus (GPa) = 52.60413 53.13882 52.87147
# Shear Modulus (GPa) = 27.51559 29.31086 28.41323
#
# Velocity S-wave (km/s) = 3.75437 3.87491 3.81511
# Velocity P-wave (km/s) = 6.76320 6.87321 6.81843
#
# Compressibility (1/GPa) = 0.01900991
#
# Stress axis : x y z
#
# Youngs Moduli (GPa) = 49.46184 74.19924 55.88759
#
# Poissons Ratio (x) = 0.22016 0.52843
# Poissons Ratio (y) = 0.14676 0.21610
# Poissons Ratio (z) = 0.46767 0.28690
#
# Static dielectric constant tensor:
#      x y z
#    x 3.472250 0.000000 0.000000 
#    y 0.000000 3.864490 0.000000 
#    z 0.000000 0.000000 3.348680 
# 
# 
# High freq. dielectric constant tensor:
#      x y z
#    x 1.756010 0.000000 0.000000 
#    y 0.000000 1.776310 0.000000 
#    z 0.000000 0.000000 1.750570 
# 
# From -- ./inp_files/29246.got.cif
#   From: 2010.03.12/outbox.cif.g09.slc.cpg/sg59_15_cif.got.tgz:29246.got - 2010.04.16 16:29:54.
