data_PCOD8239648
_publ_section_title
;
Structure prediction by ZEFSAII (Michael W. Deem and Ramdas Pophale) SiO2 
 PCOD8239648
Probable space group: P M M N
;
_chemical_formula_sum "Si O2"
_cell_formula_units_Z 56
_cell_length_a 21.234458
_cell_length_b 9.081278
_cell_length_c 17.589063
_cell_angle_alpha 90.000000
_cell_angle_beta 90.000000
_cell_angle_gamma 90.000000
_cell_volume 3391.804839
_symmetry_space_group_name_H-M "P M M N"
_symmetry_group_IT_number 59
_space_group.IT_coordinate_system_code '2'
_symmetry_cell_setting 'orthorhombic'
loop_
_space_group_symop_operation_xyz
x,y,z
1/2-x,1/2-y,z
1/2+x,-y,-z
-x,1/2+y,-z
-x,-y,-z
1/2+x,1/2+y,-z
1/2-x,y,z
x,1/2-y,z
loop_
_atom_site_type_symbol
_atom_site_label
_atom_site_fract_x
_atom_site_fract_y
_atom_site_fract_z
Si Si1 0.453170 0.580983 0.096526
Si Si2 0.914757 0.416615 0.444043
Si Si3 0.062366 0.084252 0.411351
Si Si4 0.592689 0.921099 0.043052
Si Si5 0.675934 0.081519 0.161608
Si Si6 0.891508 0.576848 0.295504
Si Si7 0.535332 0.419626 0.732814
O O1 0.438694 0.750000 0.075835
O O2 0.526703 0.547642 0.084333
O O3 0.436542 0.546515 0.184052
O O4 0.410410 0.477224 0.043903
O O5 0.889206 0.250000 0.445541
O O6 0.899920 0.492371 0.524985
O O7 0.879155 0.506575 0.378218
O O8 0.988819 0.420107 0.429320
O O9 0.088381 0.250000 0.411485
O O10 0.074072 0.014640 0.328313
O O11 0.610413 0.750000 0.043756
O O12 0.645991 0.010234 0.086781
O O13 0.750000 0.071147 0.151294
O O14 0.653161 0.250000 0.169317
O O15 0.656996 0.993364 0.236837
O O16 0.879192 0.750000 0.300342
O O17 0.961649 0.539901 0.267032
O O18 0.543663 0.250000 0.710107
#
# Coordination Sequence:
#
# PCOD8239648 Si02
#       7
#     8   8   8   8   8   8   8
#     4   9  17  30  46  67  93 121 151 188 232 283
#     4   9  16  26  39  57  83 117 150 181 219 262
#     4   9  16  24  36  58  85 116 151 183 216 255
#     4  10  19  32  48  68  89 117 154 192 235 279
#     4  11  23  36  49  66  90 121 157 196 237 281
#     4  10  18  30  46  64  86 115 153 192 229 271
#     4   9  16  27  42  62  90 120 150 184 225 274
#
# _framework density 16.510384999999999
#
# number of rings (size 3 to 8) (size 9 to 14) (size 15 to 20)
#    0.000    2.429    1.429    2.143    0.000    6.286 
#    0.000    0.000    0.000    0.000    0.000    0.000 
#    0.000    1.143    0.000   10.000    0.000    5.857 
#
# Total GULP energy -694446.187103 kJ/mol
# GULP energy per Si atom -12400.824770 kJ/mol
# Density = 1.647281 g / cm^3
# Si number density = 16.510385 Si / 1000 Ang^3
#
#
#
# Elastic Constant Matrix: (Units=GPa)
#
#
# Indices 1 2 3 4 5 6 
#
# 1 30.5875 32.7206 29.7827 0.0000 0.0000 0.0000
# 2 32.7206 126.6939 71.0046 0.0000 0.0000 0.0000
# 3 29.7827 71.0046 133.7148 0.0000 0.0000 0.0000
# 4 0.0000 0.0000 0.0000 36.9131 0.0000 0.0000
# 5 0.0000 0.0000 0.0000 0.0000 14.2230 0.0000
# 6 0.0000 0.0000 0.0000 0.0000 0.0000 15.9301
#
#
#
# Elastic Compliance Matrix: (Units=1/GPa)
#
#
# Indices 1 2 3 4 5 6 
#
# 1 0.048211 -0.009159 -0.005875 0.000000 0.000000 0.000000
# 2 -0.009159 0.012977 -0.004851 0.000000 0.000000 0.000000
# 3 -0.005875 -0.004851 0.011363 0.000000 0.000000 0.000000
# 4 0.000000 0.000000 0.000000 0.027091 0.000000 0.000000
# 5 0.000000 0.000000 0.000000 0.000000 0.070309 0.000000
# 6 0.000000 0.000000 0.000000 0.000000 0.000000 0.062774
#
#
# Mechanical properties :
#
#
# Convention : Reuss Voigt Hill
#
# Bulk Modulus (GPa) = 30.50466 62.00136 46.25301
# Shear Modulus (GPa) = 17.64160 23.91246 20.77703
#
# Velocity S-wave (km/s) = 3.27236 3.80982 3.55127
# Velocity P-wave (km/s) = 5.72660 7.54900 6.70005
#
# Compressibility (1/GPa) = 0.03278188
#
# Stress axis : x y z
#
# Youngs Moduli (GPa) = 20.74230 77.05813 88.00392
#
# Poissons Ratio (x) = 0.70575 0.51700
# Poissons Ratio (y) = 0.18997 0.42692
# Poissons Ratio (z) = 0.12185 0.37382
#
# Static dielectric constant tensor:
#      x y z
#    x 2.502410 0.000000 0.000000 
#    y 0.000000 3.280290 0.000000 
#    z 0.000000 0.000000 3.293810 
# 
# 
# High freq. dielectric constant tensor:
#      x y z
#    x 1.559110 0.000000 0.000000 
#    y 0.000000 1.652220 0.000000 
#    z 0.000000 0.000000 1.650140 
# 
# From -- ./inp_files/25987.got.cif
#   From: 2010.03.12/outbox.cif.g09.slc.cpg/sg59_13_cif.got.tgz:25987.got - 2010.04.16 16:29:54.
