data_PCOD8239533
_publ_section_title
;
Structure prediction by ZEFSAII (Michael W. Deem and Ramdas Pophale) SiO2 
 PCOD8239533
Probable space group: P M M N
;
_chemical_formula_sum "Si O2"
_cell_formula_units_Z 48
_cell_length_a 8.772451
_cell_length_b 20.525629
_cell_length_c 15.322835
_cell_angle_alpha 90.000000
_cell_angle_beta 90.000000
_cell_angle_gamma 90.000000
_cell_volume 2759.030814
_symmetry_space_group_name_H-M "P M M N"
_symmetry_group_IT_number 59
_space_group.IT_coordinate_system_code '2'
_symmetry_cell_setting 'orthorhombic'
loop_
_space_group_symop_operation_xyz
x,y,z
1/2-x,1/2-y,z
1/2+x,-y,-z
-x,1/2+y,-z
-x,-y,-z
1/2+x,1/2+y,-z
1/2-x,y,z
x,1/2-y,z
loop_
_atom_site_type_symbol
_atom_site_label
_atom_site_fract_x
_atom_site_fract_y
_atom_site_fract_z
Si Si1 0.076730 0.679171 0.473914
Si Si2 0.579698 0.992162 0.261611
Si Si3 0.431623 0.551248 0.567092
Si Si4 0.579137 0.845534 0.297473
Si Si5 0.427679 0.822658 0.118114
Si Si6 0.932197 0.955590 0.075064
O O1 0.250000 0.662652 0.446639
O O2 0.066292 0.750000 0.520655
O O3 0.017196 0.623923 0.540119
O O4 0.977047 0.684310 0.387393
O O5 0.750000 0.016896 0.243447
O O6 0.577318 0.922705 0.308494
O O7 0.501244 0.985981 0.166168
O O8 0.502820 0.039818 0.333879
O O9 0.500000 0.500000 0.500000
O O10 0.250000 0.541969 0.568179
O O11 0.750000 0.820709 0.277555
O O12 0.471426 0.822149 0.219635
O O13 0.250000 0.837871 0.108999
O O14 0.464891 0.750000 0.079872
O O15 0.516801 0.879892 0.066122
O O16 0.750000 0.956462 0.073188
O O17 0.000000 0.000000 0.000000
#
# Coordination Sequence:
#
# PCOD8239533 Si02
#       6
#     8   8   8   8   8   8
#     4  10  20  30  42  65  97 131 165 205 252 297
#     4   8  16  30  48  70  95 124 163 207 249 292
#     4  10  18  31  49  68  94 128 168 209 244 290
#     4  10  18  29  46  69  98 132 168 203 246 301
#     4  10  20  33  50  74 105 136 167 207 255 310
#     4  10  20  35  55  78 104 134 169 213 263 315
#
# _framework density 17.397414000000001
#
# number of rings (size 3 to 8) (size 9 to 14) (size 15 to 20)
#    0.000    2.333    1.667    3.000    0.000    3.667 
#    0.000    0.833    0.000    1.000    0.000    4.667 
#    0.000    0.000    0.000    0.000    0.000    0.000 
#
# Total GULP energy -594732.946665 kJ/mol
# GULP energy per Si atom -12390.269722 kJ/mol
# Density = 1.735782 g / cm^3
# Si number density = 17.397414 Si / 1000 Ang^3
#
#
#
# Elastic Constant Matrix: (Units=GPa)
#
#
# Indices 1 2 3 4 5 6 
#
# 1 52.8218 34.8860 25.0990 0.0000 0.0000 0.0000
# 2 34.8860 132.1151 71.0550 0.0000 0.0000 0.0000
# 3 25.0990 71.0550 98.3606 0.0000 0.0000 0.0000
# 4 0.0000 0.0000 0.0000 22.1302 0.0000 0.0000
# 5 0.0000 0.0000 0.0000 0.0000 19.8394 0.0000
# 6 0.0000 0.0000 0.0000 0.0000 0.0000 21.5067
#
#
#
# Elastic Compliance Matrix: (Units=1/GPa)
#
#
# Indices 1 2 3 4 5 6 
#
# 1 0.023287 -0.004830 -0.002453 0.000000 0.000000 0.000000
# 2 -0.004830 0.013380 -0.008433 0.000000 0.000000 0.000000
# 3 -0.002453 -0.008433 0.016885 0.000000 0.000000 0.000000
# 4 0.000000 0.000000 0.000000 0.045187 0.000000 0.000000
# 5 0.000000 0.000000 0.000000 0.000000 0.050405 0.000000
# 6 0.000000 0.000000 0.000000 0.000000 0.000000 0.046497
#
#
# Mechanical properties :
#
#
# Convention : Reuss Voigt Hill
#
# Bulk Modulus (GPa) = 45.20907 60.59750 52.90328
# Shear Modulus (GPa) = 21.32681 22.84577 22.08629
#
# Velocity S-wave (km/s) = 3.50503 3.62770 3.56689
# Velocity P-wave (km/s) = 6.51328 7.24251 6.88755
#
# Compressibility (1/GPa) = 0.02211946
#
# Stress axis : x y z
#
# Youngs Moduli (GPa) = 42.94233 74.73769 59.22468
#
# Poissons Ratio (x) = 0.36096 0.14530
# Poissons Ratio (y) = 0.20740 0.49946
# Poissons Ratio (z) = 0.10535 0.63029
#
# Static dielectric constant tensor:
#      x y z
#    x 3.175550 0.000000 0.000000 
#    y 0.000000 3.440770 0.000000 
#    z 0.000000 0.000000 3.187520 
# 
# 
# High freq. dielectric constant tensor:
#      x y z
#    x 1.661850 0.000000 0.000000 
#    y 0.000000 1.674830 0.000000 
#    z 0.000000 0.000000 1.643680 
# 
# From -- ./inp_files/20697.got.cif
#   From: 2010.03.12/outbox.cif.g09.slc.cpg/sg59_11_cif.got.tgz:20697.got - 2010.04.16 16:29:54.
