data_PCOD8239299
_publ_section_title
;
Structure prediction by ZEFSAII (Michael W. Deem and Ramdas Pophale) SiO2 
 PCOD8239299
Probable space group: P M M N
;
_chemical_formula_sum "Si O2"
_cell_formula_units_Z 48
_cell_length_a 23.182046
_cell_length_b 8.927471
_cell_length_c 13.246479
_cell_angle_alpha 90.000000
_cell_angle_beta 90.000000
_cell_angle_gamma 90.000000
_cell_volume 2741.452129
_symmetry_space_group_name_H-M "P M M N"
_symmetry_group_IT_number 59
_space_group.IT_coordinate_system_code '2'
_symmetry_cell_setting 'orthorhombic'
loop_
_space_group_symop_operation_xyz
x,y,z
1/2-x,1/2-y,z
1/2+x,-y,-z
-x,1/2+y,-z
-x,-y,-z
1/2+x,1/2+y,-z
1/2-x,y,z
x,1/2-y,z
loop_
_atom_site_type_symbol
_atom_site_label
_atom_site_fract_x
_atom_site_fract_y
_atom_site_fract_z
Si Si1 0.089248 0.915288 0.746353
Si Si2 0.094709 0.924627 0.257732
Si Si3 0.495314 0.427562 0.891586
Si Si4 0.816624 0.924049 0.619650
Si Si5 0.015398 0.415892 0.401764
Si Si6 0.683470 0.426969 0.409617
O O1 0.103827 0.750000 0.791563
O O2 0.145478 0.982347 0.687628
O O3 0.040813 0.897090 0.663726
O O4 0.063641 0.019037 0.835867
O O5 0.107052 0.750000 0.250420
O O6 0.054701 0.978449 0.164231
O O7 0.155172 0.009719 0.276547
O O8 0.060920 0.969057 0.357486
O O9 0.491825 0.250000 0.899364
O O10 0.500000 0.500000 0.000000
O O11 0.750000 0.959671 0.632943
O O12 0.830575 0.750000 0.613452
O O13 0.838193 0.997444 0.513944
O O14 0.042519 0.250000 0.419831
O O15 0.000000 0.500000 0.500000
O O16 0.750000 0.470153 0.387238
O O17 0.675282 0.250000 0.423038
#
# Coordination Sequence:
#
# PCOD8239299 Si02
#       6
#     8   8   8   8   8   8
#     4   9  18  31  47  69  97 128 163 200 240 288
#     4  10  20  33  49  70  95 126 164 202 244 295
#     4  10  21  36  55  76  96 121 156 202 255 304
#     4  10  20  32  48  73 104 137 170 203 240 284
#     4  10  18  27  42  66  97 130 161 198 242 289
#     4   9  17  30  49  73 103 139 173 203 236 279
#
# _framework density 17.508969
#
# number of rings (size 3 to 8) (size 9 to 14) (size 15 to 20)
#    0.000    2.333    0.000    3.000    0.000    5.667 
#    0.000    0.000    0.000    1.000    0.000    2.333 
#    0.000    0.000    0.000    0.000    0.000    0.000 
#
# Total GULP energy -594640.918351 kJ/mol
# GULP energy per Si atom -12388.352466 kJ/mol
# Density = 1.746912 g / cm^3
# Si number density = 17.508969 Si / 1000 Ang^3
#
#
#
# Elastic Constant Matrix: (Units=GPa)
#
#
# Indices 1 2 3 4 5 6 
#
# 1 84.9653 36.9218 40.7245 0.0000 0.0000 0.0000
# 2 36.9218 57.1680 56.7351 0.0000 0.0000 0.0000
# 3 40.7245 56.7351 101.2865 0.0000 0.0000 0.0000
# 4 0.0000 0.0000 0.0000 21.7964 0.0000 0.0000
# 5 0.0000 0.0000 0.0000 0.0000 25.4588 0.0000
# 6 0.0000 0.0000 0.0000 0.0000 0.0000 25.4291
#
#
#
# Elastic Compliance Matrix: (Units=1/GPa)
#
#
# Indices 1 2 3 4 5 6 
#
# 1 0.016461 -0.009149 -0.001494 0.000000 0.000000 0.000000
# 2 -0.009149 0.044473 -0.021233 0.000000 0.000000 0.000000
# 3 -0.001494 -0.021233 0.022367 0.000000 0.000000 0.000000
# 4 0.000000 0.000000 0.000000 0.045879 0.000000 0.000000
# 5 0.000000 0.000000 0.000000 0.000000 0.039279 0.000000
# 6 0.000000 0.000000 0.000000 0.000000 0.000000 0.039325
#
#
# Mechanical properties :
#
#
# Convention : Reuss Voigt Hill
#
# Bulk Modulus (GPa) = 51.15034 56.90917 54.02976
# Shear Modulus (GPa) = 17.98218 21.80609 19.89413
#
# Velocity S-wave (km/s) = 3.20820 3.53288 3.37445
# Velocity P-wave (km/s) = 6.55749 7.01535 6.79028
#
# Compressibility (1/GPa) = 0.01955021
#
# Stress axis : x y z
#
# Youngs Moduli (GPa) = 60.74892 22.48543 44.70834
#
# Poissons Ratio (x) = 0.20571 0.06679
# Poissons Ratio (y) = 0.55578 0.94929
# Poissons Ratio (z) = 0.09076 0.47743
#
# Static dielectric constant tensor:
#      x y z
#    x 3.505700 0.000000 0.000000 
#    y 0.000000 3.606000 0.000000 
#    z 0.000000 0.000000 3.090510 
# 
# 
# High freq. dielectric constant tensor:
#      x y z
#    x 1.677890 0.000000 0.000000 
#    y 0.000000 1.683700 0.000000 
#    z 0.000000 0.000000 1.648790 
# 
# From -- ./inp_files/14338.got.cif
#   From: 2010.03.12/outbox.cif.g09.slc.cpg/sg59_8_cif.got.tgz:14338.got - 2010.04.16 16:29:54.
