data_PCOD8239052
_publ_section_title
;
Structure prediction by ZEFSAII (Michael W. Deem and Ramdas Pophale) SiO2 
 PCOD8239052
Probable space group: P M M N
;
_chemical_formula_sum "Si O2"
_cell_formula_units_Z 56
_cell_length_a 8.646623
_cell_length_b 22.320873
_cell_length_c 17.915203
_cell_angle_alpha 90.000000
_cell_angle_beta 90.000000
_cell_angle_gamma 90.000000
_cell_volume 3457.637294
_symmetry_space_group_name_H-M "P M M N"
_symmetry_group_IT_number 59
_space_group.IT_coordinate_system_code '2'
_symmetry_cell_setting 'orthorhombic'
loop_
_space_group_symop_operation_xyz
x,y,z
1/2-x,1/2-y,z
1/2+x,-y,-z
-x,1/2+y,-z
-x,-y,-z
1/2+x,1/2+y,-z
1/2-x,y,z
x,1/2-y,z
loop_
_atom_site_type_symbol
_atom_site_label
_atom_site_fract_x
_atom_site_fract_y
_atom_site_fract_z
Si Si1 0.431043 0.967004 0.820264
Si Si2 0.931631 0.595759 0.376427
Si Si3 0.933270 0.435803 0.478469
Si Si4 0.070607 0.561666 0.976273
Si Si5 0.069832 0.681269 0.259637
Si Si6 0.931484 0.531189 0.666575
Si Si7 0.569883 0.091488 0.867140
O O1 0.250000 0.961586 0.802235
O O2 0.484056 0.924293 0.890937
O O3 0.525194 0.944409 0.748372
O O4 0.468390 0.036236 0.838255
O O5 0.750000 0.584807 0.380429
O O6 0.997254 0.609655 0.459864
O O7 0.970526 0.652740 0.325947
O O8 0.009449 0.536874 0.341161
O O9 0.750000 0.434445 0.481983
O O10 0.000000 0.500000 0.500000
O O11 0.991051 0.423708 0.394063
O O12 0.250000 0.550486 0.968843
O O13 0.033292 0.607504 0.044687
O O14 0.000000 0.500000 0.000000
O O15 0.250000 0.673883 0.279143
O O16 0.020925 0.750000 0.251642
O O17 0.029062 0.649848 0.181007
O O18 0.750000 0.531847 0.654260
O O19 0.750000 0.073627 0.858119
#
# Coordination Sequence:
#
# PCOD8239052 Si02
#       7
#     8   8   8   8   8   8   8
#     4  10  17  25  39  61  86 112 143 178 214 258
#     4  11  20  31  45  61  84 113 146 182 220 258
#     4  10  18  29  44  62  84 111 143 175 213 260
#     4   8  15  25  38  57  80 108 142 175 211 256
#     4  10  20  32  46  64  86 115 152 188 220 254
#     4  11  19  28  42  62  88 116 145 175 213 262
#     4   9  16  28  43  57  80 114 146 179 218 258
#
# _framework density 16.196031000000001
#
# number of rings (size 3 to 8) (size 9 to 14) (size 15 to 20)
#    0.000    2.143    1.429    6.000    0.000    0.857 
#    0.000    0.000    0.000    0.000    0.000    0.000 
#    0.000    1.143    0.000    8.571    0.000    2.286 
#
# Total GULP energy -693800.269894 kJ/mol
# GULP energy per Si atom -12389.290534 kJ/mol
# Density = 1.615917 g / cm^3
# Si number density = 16.196031 Si / 1000 Ang^3
#
#
#
# Elastic Constant Matrix: (Units=GPa)
#
#
# Indices 1 2 3 4 5 6 
#
# 1 85.3310 15.6485 43.6017 0.0000 0.0000 0.0000
# 2 15.6485 40.6118 38.7820 0.0000 0.0000 0.0000
# 3 43.6017 38.7820 169.2009 0.0000 0.0000 0.0000
# 4 0.0000 0.0000 0.0000 15.3369 0.0000 0.0000
# 5 0.0000 0.0000 0.0000 0.0000 25.8019 0.0000
# 6 0.0000 0.0000 0.0000 0.0000 0.0000 12.0984
#
#
#
# Elastic Compliance Matrix: (Units=1/GPa)
#
#
# Indices 1 2 3 4 5 6 
#
# 1 0.013682 -0.002439 -0.002967 0.000000 0.000000 0.000000
# 2 -0.002439 0.031958 -0.006696 0.000000 0.000000 0.000000
# 3 -0.002967 -0.006696 0.008210 0.000000 0.000000 0.000000
# 4 0.000000 0.000000 0.000000 0.065202 0.000000 0.000000
# 5 0.000000 0.000000 0.000000 0.000000 0.038757 0.000000
# 6 0.000000 0.000000 0.000000 0.000000 0.000000 0.082656
#
#
# Mechanical properties :
#
#
# Convention : Reuss Voigt Hill
#
# Bulk Modulus (GPa) = 33.73211 54.57868 44.15539
# Shear Modulus (GPa) = 18.21158 23.78822 20.99990
#
# Velocity S-wave (km/s) = 3.35692 3.83661 3.60475
# Velocity P-wave (km/s) = 5.99148 7.30740 6.68191
#
# Compressibility (1/GPa) = 0.02964535
#
# Stress axis : x y z
#
# Youngs Moduli (GPa) = 73.08723 31.29112 121.80963
#
# Poissons Ratio (x) = 0.07632 0.36138
# Poissons Ratio (y) = 0.17825 0.81570
# Poissons Ratio (z) = 0.21683 0.20954
#
# Static dielectric constant tensor:
#      x y z
#    x 5.904220 0.000000 0.000000 
#    y 0.000000 2.549320 0.000000 
#    z 0.000000 0.000000 4.111900 
# 
# 
# High freq. dielectric constant tensor:
#      x y z
#    x 1.634790 0.000000 0.000000 
#    y 0.000000 1.535730 0.000000 
#    z 0.000000 0.000000 1.653480 
# 
# From -- ./inp_files/26407.got.cif
#   From: 2010.03.12/outbox.cif.g09.slc.cpg/sg59_14_cif.got.tgz:26407.got - 2010.04.16 16:29:54.
