data_PCOD8239758
_publ_section_title
;
Structure prediction by ZEFSAII (Michael W. Deem and Ramdas Pophale) SiO2 
 PCOD8239758
Probable space group: P M M N
;
_chemical_formula_sum "Si O2"
_cell_formula_units_Z 64
_cell_length_a 9.127333
_cell_length_b 18.817350
_cell_length_c 21.312710
_cell_angle_alpha 90.000000
_cell_angle_beta 90.000000
_cell_angle_gamma 90.000000
_cell_volume 3660.505249
_symmetry_space_group_name_H-M "P M M N"
_symmetry_group_IT_number 59
_space_group.IT_coordinate_system_code '2'
_symmetry_cell_setting 'orthorhombic'
loop_
_space_group_symop_operation_xyz
x,y,z
1/2-x,1/2-y,z
1/2+x,-y,-z
-x,1/2+y,-z
-x,-y,-z
1/2+x,1/2+y,-z
1/2-x,y,z
x,1/2-y,z
loop_
_atom_site_type_symbol
_atom_site_label
_atom_site_fract_x
_atom_site_fract_y
_atom_site_fract_z
Si Si1 0.087390 0.630366 0.765718
Si Si2 0.924200 0.975633 0.936846
Si Si3 0.421931 0.574152 0.298415
Si Si4 0.580220 0.832744 0.396927
Si Si5 0.917362 0.672518 0.881923
Si Si6 0.915796 0.527137 0.181816
Si Si7 0.579194 0.927195 0.513136
Si Si8 0.919180 0.581786 0.653305
O O1 0.250000 0.661056 0.757886
O O2 0.088834 0.549945 0.788338
O O3 0.005376 0.677097 0.817203
O O4 0.008482 0.634475 0.698477
O O5 0.750000 0.986535 0.940646
O O6 0.967996 0.892442 0.926409
O O7 0.989544 0.024792 0.881801
O O8 0.000000 0.000000 0.000000
O O9 0.250000 0.584225 0.286882
O O10 0.482132 0.637829 0.340661
O O11 0.503317 0.578681 0.231151
O O12 0.457409 0.500592 0.333785
O O13 0.750000 0.848645 0.381926
O O14 0.548550 0.750000 0.403896
O O15 0.532623 0.868388 0.462539
O O16 0.750000 0.658603 0.863153
O O17 0.937093 0.750000 0.915587
O O18 0.750000 0.554276 0.168056
O O19 0.750000 0.944061 0.510635
O O20 0.536205 0.899028 0.582233
O O21 0.500000 0.000000 0.500000
O O22 0.750000 0.596165 0.667023
#
# Coordination Sequence:
#
# PCOD8239758 Si02
#       8
#     8   8   8   8   8   8   8   8
#     4   9  17  28  45  71  99 127 159 201 249 295
#     4  10  19  32  52  79 110 141 175 215 255 300
#     4  10  18  30  50  74  98 125 161 208 256 302
#     4  10  21  35  50  70  98 131 167 211 265 322
#     4   9  18  33  52  73 100 137 176 210 248 299
#     4   9  17  30  49  74 102 130 162 202 248 296
#     4  10  19  32  50  71  96 128 171 218 259 309
#     4   9  17  29  46  70  97 124 161 208 253 300
#
# _framework density 17.483923999999998
#
# number of rings (size 3 to 8) (size 9 to 14) (size 15 to 20)
#    0.000    2.500    1.250    1.500    0.000    5.000 
#    0.000    0.625    0.000    3.000    0.000    1.750 
#    0.000    0.000    0.000    0.000    0.000    0.000 
#
# Total GULP energy -793480.165512 kJ/mol
# GULP energy per Si atom -12398.127586 kJ/mol
# Density = 1.744413 g / cm^3
# Si number density = 17.483924 Si / 1000 Ang^3
#
#
#
# Elastic Constant Matrix: (Units=GPa)
#
#
# Indices 1 2 3 4 5 6 
#
# 1 92.4400 39.7122 64.7103 0.0000 0.0000 0.0000
# 2 39.7122 75.4690 52.6437 0.0000 0.0000 0.0000
# 3 64.7103 52.6437 145.6926 0.0000 0.0000 0.0000
# 4 0.0000 0.0000 0.0000 19.2074 0.0000 0.0000
# 5 0.0000 0.0000 0.0000 0.0000 33.0460 0.0000
# 6 0.0000 0.0000 0.0000 0.0000 0.0000 18.9619
#
#
#
# Elastic Compliance Matrix: (Units=1/GPa)
#
#
# Indices 1 2 3 4 5 6 
#
# 1 0.016957 -0.004906 -0.005759 0.000000 0.000000 0.000000
# 2 -0.004906 0.019135 -0.004735 0.000000 0.000000 0.000000
# 3 -0.005759 -0.004735 0.011133 0.000000 0.000000 0.000000
# 4 0.000000 0.000000 0.000000 0.052063 0.000000 0.000000
# 5 0.000000 0.000000 0.000000 0.000000 0.030261 0.000000
# 6 0.000000 0.000000 0.000000 0.000000 0.000000 0.052737
#
#
# Mechanical properties :
#
#
# Convention : Reuss Voigt Hill
#
# Bulk Modulus (GPa) = 60.88353 69.74822 65.31588
# Shear Modulus (GPa) = 22.87702 24.67874 23.77788
#
# Velocity S-wave (km/s) = 3.62119 3.76108 3.69180
# Velocity P-wave (km/s) = 7.23755 7.67075 7.45730
#
# Compressibility (1/GPa) = 0.01642480
#
# Stress axis : x y z
#
# Youngs Moduli (GPa) = 58.97415 52.26052 89.82629
#
# Poissons Ratio (x) = 0.25637 0.51730
# Poissons Ratio (y) = 0.28930 0.42535
# Poissons Ratio (z) = 0.33962 0.24747
#
# Static dielectric constant tensor:
#      x y z
#    x 3.396130 0.000000 0.000000 
#    y 0.000000 3.494880 0.000000 
#    z 0.000000 0.000000 3.267640 
# 
# 
# High freq. dielectric constant tensor:
#      x y z
#    x 1.683940 0.000000 0.000000 
#    y 0.000000 1.643780 0.000000 
#    z 0.000000 0.000000 1.671780 
# 
# From -- ./inp_files/29526.got.cif
#   From: 2010.03.12/outbox.cif.g09.slc.cpg/sg59_15_cif.got.tgz:29526.got - 2010.04.16 16:29:54.
