data_PCOD8239877
_publ_section_title
;
Structure prediction by ZEFSAII (Michael W. Deem and Ramdas Pophale) SiO2 
 PCOD8239877
Probable space group: P M M N
;
_chemical_formula_sum "Si O2"
_cell_formula_units_Z 48
_cell_length_a 14.840814
_cell_length_b 9.496510
_cell_length_c 18.980076
_cell_angle_alpha 90.000000
_cell_angle_beta 90.000000
_cell_angle_gamma 90.000000
_cell_volume 2674.974825
_symmetry_space_group_name_H-M "P M M N"
_symmetry_group_IT_number 59
_space_group.IT_coordinate_system_code '2'
_symmetry_cell_setting 'orthorhombic'
loop_
_space_group_symop_operation_xyz
x,y,z
1/2-x,1/2-y,z
1/2+x,-y,-z
-x,1/2+y,-z
-x,-y,-z
1/2+x,1/2+y,-z
1/2-x,y,z
x,1/2-y,z
loop_
_atom_site_type_symbol
_atom_site_label
_atom_site_fract_x
_atom_site_fract_y
_atom_site_fract_z
Si Si1 0.852337 0.907427 0.656151
Si Si2 0.509679 0.416633 0.739072
Si Si3 0.988888 0.586042 0.099991
Si Si4 0.910323 0.586333 0.502867
Si Si5 0.355475 0.914488 0.992600
Si Si6 0.153446 0.416317 0.647354
O O1 0.750000 0.911614 0.680515
O O2 0.892321 0.750000 0.665751
O O3 0.857353 0.951984 0.574084
O O4 0.901637 0.015806 0.706765
O O5 0.518672 0.250000 0.731157
O O6 0.500015 0.461883 0.819769
O O7 0.425388 0.480619 0.695432
O O8 0.964490 0.750000 0.093108
O O9 0.903322 0.500859 0.069864
O O10 0.084719 0.553027 0.062246
O O11 0.934908 0.750000 0.499275
O O12 0.853135 0.541328 0.434648
O O13 0.000000 0.500000 0.500000
O O14 0.250000 0.960334 0.003134
O O15 0.359775 0.750000 0.973577
O O16 0.250000 0.473248 0.674799
O O17 0.149299 0.250000 0.655709
#
# Coordination Sequence:
#
# PCOD8239877 Si02
#       6
#     8   8   8   8   8   8
#     4  10  21  35  51  73 102 138 176 213 257 306
#     4  10  20  34  53  78 105 134 169 210 255 301
#     4   9  19  34  53  79 108 135 168 211 254 300
#     4  10  18  31  52  72  95 130 173 218 259 300
#     4   9  18  34  55  77 103 137 173 207 250 304
#     4   9  17  30  49  72  98 130 168 208 253 303
#
# _framework density 17.944094
#
# number of rings (size 3 to 8) (size 9 to 14) (size 15 to 20)
#    0.000    2.500    1.667    0.500    0.000    4.667 
#    0.000    3.333    0.000    3.000    0.000    0.000 
#    0.000    0.000    0.000    0.000    0.000    0.000 
#
# Total GULP energy -594979.251929 kJ/mol
# GULP energy per Si atom -12395.401082 kJ/mol
# Density = 1.790325 g / cm^3
# Si number density = 17.944094 Si / 1000 Ang^3
#
#
#
# Elastic Constant Matrix: (Units=GPa)
#
#
# Indices 1 2 3 4 5 6 
#
# 1 130.9426 38.1783 56.8474 0.0000 0.0000 0.0000
# 2 38.1783 33.9259 43.0477 0.0000 0.0000 0.0000
# 3 56.8474 43.0477 139.7903 0.0000 0.0000 0.0000
# 4 0.0000 0.0000 0.0000 18.5489 0.0000 0.0000
# 5 0.0000 0.0000 0.0000 0.0000 1.4715 0.0000
# 6 0.0000 0.0000 0.0000 0.0000 0.0000 28.6745
#
#
#
# Elastic Compliance Matrix: (Units=1/GPa)
#
#
# Indices 1 2 3 4 5 6 
#
# 1 0.011475 -0.011476 -0.001132 0.000000 0.000000 0.000000
# 2 -0.011476 0.059858 -0.013766 0.000000 0.000000 0.000000
# 3 -0.001132 -0.013766 0.011853 0.000000 0.000000 0.000000
# 4 0.000000 0.000000 0.000000 0.053912 0.000000 0.000000
# 5 0.000000 0.000000 0.000000 0.000000 0.679596 0.000000
# 6 0.000000 0.000000 0.000000 0.000000 0.000000 0.034874
#
#
# Mechanical properties :
#
#
# Convention : Reuss Voigt Hill
#
# Bulk Modulus (GPa) = 32.85486 64.53396 48.69441
# Shear Modulus (GPa) = 5.46769 20.84465 13.15617
#
# Velocity S-wave (km/s) = 1.74748 3.41199 2.71066
# Velocity P-wave (km/s) = 4.73507 7.18082 6.08215
#
# Compressibility (1/GPa) = 0.03043690
#
# Stress axis : x y z
#
# Youngs Moduli (GPa) = 87.14964 16.70619 84.36530
#
# Poissons Ratio (x) = 0.19172 0.09552
# Poissons Ratio (y) = 1.00014 1.16138
# Poissons Ratio (z) = 0.09867 0.22998
#
# Static dielectric constant tensor:
#      x y z
#    x 3.367310 0.000000 0.000000 
#    y 0.000000 3.119370 0.000000 
#    z 0.000000 0.000000 3.174270 
# 
# 
# High freq. dielectric constant tensor:
#      x y z
#    x 1.701140 0.000000 0.000000 
#    y 0.000000 1.670740 0.000000 
#    z 0.000000 0.000000 1.695040 
# 
# From -- ./inp_files/25456.got.cif
#   From: 2010.03.12/outbox.cif.g09.slc.cpg/sg59_13_cif.got.tgz:25456.got - 2010.04.16 16:29:54.
