data_PCOD8239181
_publ_section_title
;
Structure prediction by ZEFSAII (Michael W. Deem and Ramdas Pophale) SiO2 
 PCOD8239181
Probable space group: P M M N
;
_chemical_formula_sum "Si O2"
_cell_formula_units_Z 64
_cell_length_a 18.197603
_cell_length_b 19.694308
_cell_length_c 10.074860
_cell_angle_alpha 90.000000
_cell_angle_beta 90.000000
_cell_angle_gamma 90.000000
_cell_volume 3610.720999
_symmetry_space_group_name_H-M "P M M N"
_symmetry_group_IT_number 59
_space_group.IT_coordinate_system_code '2'
_symmetry_cell_setting 'orthorhombic'
loop_
_space_group_symop_operation_xyz
x,y,z
1/2-x,1/2-y,z
1/2+x,-y,-z
-x,1/2+y,-z
-x,-y,-z
1/2+x,1/2+y,-z
1/2-x,y,z
x,1/2-y,z
loop_
_atom_site_type_symbol
_atom_site_label
_atom_site_fract_x
_atom_site_fract_y
_atom_site_fract_z
Si Si1 0.087476 0.930681 0.533161
Si Si2 0.162627 0.571350 0.801933
Si Si3 0.082979 0.084639 0.461709
Si Si4 0.665867 0.404910 0.726826
Si Si5 0.337472 0.674471 0.021604
Si Si6 0.163384 0.428507 0.908020
Si Si7 0.665464 0.559927 0.797224
Si Si8 0.664382 0.829330 0.322815
O O1 0.131947 0.905819 0.660335
O O2 0.117567 0.892989 0.403468
O O3 0.003901 0.908510 0.550801
O O4 0.102299 0.010915 0.519347
O O5 0.250000 0.570625 0.794540
O O6 0.130997 0.497609 0.844215
O O7 0.132092 0.626191 0.906207
O O8 0.117615 0.096030 0.316316
O O9 0.115877 0.141607 0.557869
O O10 0.750000 0.390852 0.688368
O O11 0.635716 0.352199 0.835552
O O12 0.656912 0.479174 0.789299
O O13 0.250000 0.672988 0.018904
O O14 0.368509 0.750000 0.999273
O O15 0.250000 0.438015 0.918973
O O16 0.141278 0.365144 0.815513
O O17 0.134471 0.416882 0.058444
O O18 0.750000 0.581911 0.776747
O O19 0.750000 0.843770 0.353926
O O20 0.648174 0.750000 0.306909
#
# Coordination Sequence:
#
# PCOD8239181 Si02
#       8
#     8   8   8   8   8   8   8   8
#     4  10  20  32  50  75 103 134 174 215 258 301
#     4  10  17  30  52  77 103 133 170 214 258 305
#     4  10  20  34  49  74 106 135 168 216 260 309
#     4   9  16  29  49  74  99 129 170 211 249 301
#     4   9  17  30  49  74 103 131 163 208 257 303
#     4   9  16  29  51  78 102 127 167 218 263 307
#     4   9  16  29  52  77  99 126 166 214 261 305
#     4  10  20  35  56  79 103 135 174 217 268 319
#
# _framework density 17.724992
#
# number of rings (size 3 to 8) (size 9 to 14) (size 15 to 20)
#    0.000    2.500    2.500    0.750    0.000    1.000 
#    0.000    4.375    0.000    5.250    0.000    0.000 
#    0.000    0.000    0.000    0.000    0.000    0.000 
#
# Total GULP energy -793576.420772 kJ/mol
# GULP energy per Si atom -12399.631575 kJ/mol
# Density = 1.768465 g / cm^3
# Si number density = 17.724992 Si / 1000 Ang^3
#
#
#
# Elastic Constant Matrix: (Units=GPa)
#
#
# Indices 1 2 3 4 5 6 
#
# 1 45.1022 32.9370 45.8946 0.0000 0.0000 0.0000
# 2 32.9370 103.7651 70.8865 0.0000 0.0000 0.0000
# 3 45.8946 70.8865 167.7874 0.0000 0.0000 0.0000
# 4 0.0000 0.0000 0.0000 26.1321 0.0000 0.0000
# 5 0.0000 0.0000 0.0000 0.0000 4.6180 0.0000
# 6 0.0000 0.0000 0.0000 0.0000 0.0000 12.6128
#
#
#
# Elastic Compliance Matrix: (Units=1/GPa)
#
#
# Indices 1 2 3 4 5 6 
#
# 1 0.033264 -0.006105 -0.006519 0.000000 0.000000 0.000000
# 2 -0.006105 0.014667 -0.004527 0.000000 0.000000 0.000000
# 3 -0.006519 -0.004527 0.009656 0.000000 0.000000 0.000000
# 4 0.000000 0.000000 0.000000 0.038267 0.000000 0.000000
# 5 0.000000 0.000000 0.000000 0.000000 0.216544 0.000000
# 6 0.000000 0.000000 0.000000 0.000000 0.000000 0.079285
#
#
# Mechanical properties :
#
#
# Convention : Reuss Voigt Hill
#
# Bulk Modulus (GPa) = 42.94641 68.45453 55.70047
# Shear Modulus (GPa) = 11.52745 19.80167 15.66456
#
# Velocity S-wave (km/s) = 2.55296 3.34602 2.97603
# Velocity P-wave (km/s) = 5.74213 7.32339 6.58043
#
# Compressibility (1/GPa) = 0.02328483
#
# Stress axis : x y z
#
# Youngs Moduli (GPa) = 30.06237 68.17830 103.56617
#
# Poissons Ratio (x) = 0.41622 0.67520
# Poissons Ratio (y) = 0.18353 0.46882
# Poissons Ratio (z) = 0.19599 0.30863
#
# Static dielectric constant tensor:
#      x y z
#    x 2.977050 0.000000 0.000000 
#    y 0.000000 3.146280 0.000000 
#    z 0.000000 0.000000 3.455940 
# 
# 
# High freq. dielectric constant tensor:
#      x y z
#    x 1.652530 0.000000 0.000000 
#    y 0.000000 1.660240 0.000000 
#    z 0.000000 0.000000 1.702580 
# 
# From -- ./inp_files/11605.got.cif
#   From: 2010.03.12/outbox.cif.g09.slc.cpg/sg59_6_cif.got.tgz:11605.got - 2010.04.16 16:29:54.
