data_PCOD8239096
_publ_section_title
;
Structure prediction by ZEFSAII (Michael W. Deem and Ramdas Pophale) SiO2 
 PCOD8239096
Probable space group: P M M N
;
_chemical_formula_sum "Si O2"
_cell_formula_units_Z 64
_cell_length_a 8.982463
_cell_length_b 26.604983
_cell_length_c 17.125644
_cell_angle_alpha 90.000000
_cell_angle_beta 90.000000
_cell_angle_gamma 90.000000
_cell_volume 4092.656868
_symmetry_space_group_name_H-M "P M M N"
_symmetry_group_IT_number 59
_space_group.IT_coordinate_system_code '2'
_symmetry_cell_setting 'orthorhombic'
loop_
_space_group_symop_operation_xyz
x,y,z
1/2-x,1/2-y,z
1/2+x,-y,-z
-x,1/2+y,-z
-x,-y,-z
1/2+x,1/2+y,-z
1/2-x,y,z
x,1/2-y,z
loop_
_atom_site_type_symbol
_atom_site_label
_atom_site_fract_x
_atom_site_fract_y
_atom_site_fract_z
Si Si1 0.574759 0.553475 0.989581
Si Si2 0.417433 0.460775 0.606080
Si Si3 0.576455 0.878452 0.519400
Si Si4 0.924005 0.530933 0.823093
Si Si5 0.426800 0.580955 0.136328
Si Si6 0.925683 0.557011 0.656560
Si Si7 0.077894 0.691114 0.404593
Si Si8 0.421679 0.126929 0.723725
O O1 0.750000 0.550547 0.007342
O O2 0.545197 0.567171 0.897992
O O3 0.500000 0.500000 0.000000
O O4 0.495550 0.591845 0.049782
O O5 0.250000 0.481522 0.602149
O O6 0.456857 0.428273 0.530467
O O7 0.527243 0.507498 0.609701
O O8 0.439814 0.426487 0.682104
O O9 0.750000 0.863630 0.513239
O O10 0.526669 0.892798 0.608187
O O11 0.481256 0.832370 0.485915
O O12 0.750000 0.524822 0.809531
O O13 0.984715 0.474307 0.836818
O O14 0.994451 0.556059 0.744671
O O15 0.250000 0.585062 0.131970
O O16 0.490196 0.623317 0.194528
O O17 0.750000 0.556362 0.659580
O O18 0.250000 0.677002 0.394647
O O19 0.051154 0.750000 0.410028
O O20 0.989983 0.670669 0.329667
O O21 0.250000 0.140307 0.739450
#
# Coordination Sequence:
#
# PCOD8239096 Si02
#       8
#     8   8   8   8   8   8   8   8
#     4   9  16  26  38  55  81 116 155 190 222 257
#     4   9  17  27  37  58  87 114 145 179 215 254
#     4   9  19  31  44  63  86 112 145 181 220 265
#     4   8  15  25  38  57  83 117 153 185 218 250
#     4  10  17  27  42  61  86 117 152 186 219 258
#     4  10  17  27  42  60  85 118 151 182 217 258
#     4  10  21  36  52  67  85 111 143 181 225 270
#     4  10  19  30  46  68  90 114 146 183 222 265
#
# _framework density 15.637763
#
# number of rings (size 3 to 8) (size 9 to 14) (size 15 to 20)
#    0.000    2.625    1.250    3.375    0.000    3.500 
#    0.000    0.625    0.000    0.000    0.000    0.000 
#    0.000    1.000    0.000    9.250    0.000    3.125 
#
# Total GULP energy -793085.893137 kJ/mol
# GULP energy per Si atom -12391.967080 kJ/mol
# Density = 1.560217 g / cm^3
# Si number density = 15.637763 Si / 1000 Ang^3
#
#
#
# Elastic Constant Matrix: (Units=GPa)
#
#
# Indices 1 2 3 4 5 6 
#
# 1 71.7813 31.6442 44.7546 0.0000 0.0000 0.0000
# 2 31.6442 50.8976 38.1217 0.0000 0.0000 0.0000
# 3 44.7546 38.1217 105.2210 0.0000 0.0000 0.0000
# 4 0.0000 0.0000 0.0000 12.0569 0.0000 0.0000
# 5 0.0000 0.0000 0.0000 0.0000 21.7270 0.0000
# 6 0.0000 0.0000 0.0000 0.0000 0.0000 18.6418
#
#
#
# Elastic Compliance Matrix: (Units=1/GPa)
#
#
# Indices 1 2 3 4 5 6 
#
# 1 0.021586 -0.008981 -0.005928 0.000000 0.000000 0.000000
# 2 -0.008981 0.030701 -0.007303 0.000000 0.000000 0.000000
# 3 -0.005928 -0.007303 0.014671 0.000000 0.000000 0.000000
# 4 0.000000 0.000000 0.000000 0.082940 0.000000 0.000000
# 5 0.000000 0.000000 0.000000 0.000000 0.046026 0.000000
# 6 0.000000 0.000000 0.000000 0.000000 0.000000 0.053643
#
#
# Mechanical properties :
#
#
# Convention : Reuss Voigt Hill
#
# Bulk Modulus (GPa) = 44.37575 50.77120 47.57348
# Shear Modulus (GPa) = 16.58370 18.04378 17.31374
#
# Velocity S-wave (km/s) = 3.26005 3.40054 3.33103
# Velocity P-wave (km/s) = 6.52759 6.92501 6.72923
#
# Compressibility (1/GPa) = 0.02253483
#
# Stress axis : x y z
#
# Youngs Moduli (GPa) = 46.32606 32.57246 68.16180
#
# Poissons Ratio (x) = 0.29253 0.40404
# Poissons Ratio (y) = 0.41605 0.49779
# Poissons Ratio (z) = 0.27460 0.23788
#
# Static dielectric constant tensor:
#      x y z
#    x 2.975680 0.000000 0.000000 
#    y 0.000000 2.540650 0.000000 
#    z 0.000000 0.000000 3.620070 
# 
# 
# High freq. dielectric constant tensor:
#      x y z
#    x 1.601690 0.000000 0.000000 
#    y 0.000000 1.536160 0.000000 
#    z 0.000000 0.000000 1.610900 
# 
# From -- ./inp_files/26663.got.cif
#   From: 2010.03.12/outbox.cif.g09.slc.cpg/sg59_14_cif.got.tgz:26663.got - 2010.04.16 16:29:54.
