data_PCOD8239145
_publ_section_title
;
Structure prediction by ZEFSAII (Michael W. Deem and Ramdas Pophale) SiO2 
 PCOD8239145
Probable space group: P M M N
;
_chemical_formula_sum "Si O2"
_cell_formula_units_Z 64
_cell_length_a 18.305146
_cell_length_b 17.054503
_cell_length_c 11.298212
_cell_angle_alpha 90.000000
_cell_angle_beta 90.000000
_cell_angle_gamma 90.000000
_cell_volume 3527.134204
_symmetry_space_group_name_H-M "P M M N"
_symmetry_group_IT_number 59
_space_group.IT_coordinate_system_code '2'
_symmetry_cell_setting 'orthorhombic'
loop_
_space_group_symop_operation_xyz
x,y,z
1/2-x,1/2-y,z
1/2+x,-y,-z
-x,1/2+y,-z
-x,-y,-z
1/2+x,1/2+y,-z
1/2-x,y,z
x,1/2-y,z
loop_
_atom_site_type_symbol
_atom_site_label
_atom_site_fract_x
_atom_site_fract_y
_atom_site_fract_z
Si Si1 0.333025 0.453340 0.189653
Si Si2 0.107916 0.893919 0.091473
Si Si3 0.040551 0.335626 0.820324
Si Si4 0.666319 0.337850 0.677773
Si Si5 0.832648 0.043610 0.137611
Si Si6 0.829606 0.871102 0.030579
Si Si7 0.404104 0.995778 0.403845
Si Si8 0.433143 0.481753 0.663886
O O1 0.250000 0.484175 0.175422
O O2 0.389337 0.518198 0.141838
O O3 0.343165 0.374003 0.112458
O O4 0.352146 0.445185 0.328553
O O5 0.155016 0.839177 0.179679
O O6 0.023342 0.868921 0.096365
O O7 0.137848 0.891364 0.956500
O O8 0.019284 0.250000 0.767729
O O9 0.061701 0.393442 0.713932
O O10 0.109658 0.320605 0.905291
O O11 0.750000 0.357391 0.647457
O O12 0.646197 0.250000 0.632524
O O13 0.615051 0.403236 0.615913
O O14 0.750000 0.066055 0.178435
O O15 0.888071 0.039216 0.248607
O O16 0.831676 0.960644 0.073035
O O17 0.750000 0.833981 0.057333
O O18 0.486347 0.014582 0.361503
O O19 0.390341 0.019284 0.539463
#
# Coordination Sequence:
#
# PCOD8239145 Si02
#       8
#     8   8   8   8   8   8   8   8
#     4   9  16  29  52  77 101 127 161 213 262 304
#     4  10  17  28  50  75 104 128 160 207 257 317
#     4  11  21  32  51  76 104 138 175 218 272 326
#     4  10  19  32  53  79 107 139 174 218 272 324
#     4   9  18  31  49  75 103 131 163 207 262 317
#     4   8  17  31  48  73 100 127 162 205 262 318
#     4  10  19  32  50  76 106 137 184 223 258 300
#     4  10  21  33  50  75 104 145 180 223 261 304
#
# _framework density 18.145043000000001
#
# number of rings (size 3 to 8) (size 9 to 14) (size 15 to 20)
#    0.000    2.375    2.500    3.375    1.750    2.750 
#    0.000    0.000    0.000    2.250    0.000    1.750 
#    0.000    0.000    0.000    0.000    0.000    0.000 
#
# Total GULP energy -792930.339675 kJ/mol
# GULP energy per Si atom -12389.536557 kJ/mol
# Density = 1.810374 g / cm^3
# Si number density = 18.145043 Si / 1000 Ang^3
#
#
#
# Elastic Constant Matrix: (Units=GPa)
#
#
# Indices 1 2 3 4 5 6 
#
# 1 102.3457 27.2548 45.0019 0.0000 0.0000 0.0000
# 2 27.2548 48.1777 31.5652 0.0000 0.0000 0.0000
# 3 45.0019 31.5652 121.5920 0.0000 0.0000 0.0000
# 4 0.0000 0.0000 0.0000 12.4838 0.0000 0.0000
# 5 0.0000 0.0000 0.0000 0.0000 30.3142 0.0000
# 6 0.0000 0.0000 0.0000 0.0000 0.0000 12.6049
#
#
#
# Elastic Compliance Matrix: (Units=1/GPa)
#
#
# Indices 1 2 3 4 5 6 
#
# 1 0.012559 -0.004891 -0.003378 0.000000 0.000000 0.000000
# 2 -0.004891 0.026915 -0.005177 0.000000 0.000000 0.000000
# 3 -0.003378 -0.005177 0.010818 0.000000 0.000000 0.000000
# 4 0.000000 0.000000 0.000000 0.080104 0.000000 0.000000
# 5 0.000000 0.000000 0.000000 0.000000 0.032988 0.000000
# 6 0.000000 0.000000 0.000000 0.000000 0.000000 0.079334
#
#
# Mechanical properties :
#
#
# Convention : Reuss Voigt Hill
#
# Bulk Modulus (GPa) = 42.73572 53.30660 48.02116
# Shear Modulus (GPa) = 18.02378 22.30016 20.16197
#
# Velocity S-wave (km/s) = 3.15511 3.50951 3.33702
# Velocity P-wave (km/s) = 6.07259 6.77230 6.43197
#
# Compressibility (1/GPa) = 0.02339963
#
# Stress axis : x y z
#
# Youngs Moduli (GPa) = 79.62529 37.15350 92.43440
#
# Poissons Ratio (x) = 0.18173 0.31227
# Poissons Ratio (y) = 0.38947 0.47853
# Poissons Ratio (z) = 0.26900 0.19234
#
# Static dielectric constant tensor:
#      x y z
#    x 3.543430 0.000000 0.000000 
#    y 0.000000 2.989520 0.000000 
#    z 0.000000 0.000000 3.511460 
# 
# 
# High freq. dielectric constant tensor:
#      x y z
#    x 1.718080 0.000000 0.000000 
#    y 0.000000 1.659360 0.000000 
#    z 0.000000 0.000000 1.686720 
# 
# From -- ./inp_files/17982.got.cif
#   From: 2010.03.12/outbox.cif.g09.slc.cpg/sg59_9_cif.got.tgz:17982.got - 2010.04.16 16:29:54.
