data_PCOD8239864
_publ_section_title
;
Structure prediction by ZEFSAII (Michael W. Deem and Ramdas Pophale) SiO2 
 PCOD8239864
Probable space group: P M M N
;
_chemical_formula_sum "Si O2"
_cell_formula_units_Z 64
_cell_length_a 12.990831
_cell_length_b 16.489312
_cell_length_c 16.944364
_cell_angle_alpha 90.000000
_cell_angle_beta 90.000000
_cell_angle_gamma 90.000000
_cell_volume 3629.649933
_symmetry_space_group_name_H-M "P M M N"
_symmetry_group_IT_number 59
_space_group.IT_coordinate_system_code '2'
_symmetry_cell_setting 'orthorhombic'
loop_
_space_group_symop_operation_xyz
x,y,z
1/2-x,1/2-y,z
1/2+x,-y,-z
-x,1/2+y,-z
-x,-y,-z
1/2+x,1/2+y,-z
1/2-x,y,z
x,1/2-y,z
loop_
_atom_site_type_symbol
_atom_site_label
_atom_site_fract_x
_atom_site_fract_y
_atom_site_fract_z
Si Si1 0.632803 0.035253 0.424997
Si Si2 0.451923 0.953157 0.148381
Si Si3 0.566808 0.156001 0.295546
Si Si4 0.431499 0.947133 0.398549
Si Si5 0.865702 0.431881 0.142323
Si Si6 0.633732 0.343108 0.727044
Si Si7 0.129167 0.841527 0.012969
Si Si8 0.864661 0.927739 0.733305
O O1 0.750000 0.009230 0.405316
O O2 0.601223 0.116515 0.378336
O O3 0.622845 0.051600 0.517508
O O4 0.554434 0.962798 0.402403
O O5 0.447563 0.883027 0.213577
O O6 0.416242 0.913114 0.066956
O O7 0.567189 0.986394 0.138153
O O8 0.383265 0.028128 0.181907
O O9 0.595688 0.250000 0.298479
O O10 0.629103 0.111399 0.226738
O O11 0.444892 0.145431 0.279452
O O12 0.408370 0.858843 0.361523
O O13 0.378093 0.010140 0.338943
O O14 0.750000 0.461370 0.126797
O O15 0.899221 0.366325 0.076343
O O16 0.750000 0.378305 0.738815
O O17 0.635066 0.250000 0.746287
O O18 0.250000 0.839387 0.028225
O O19 0.085135 0.750000 0.028834
O O20 0.750000 0.891136 0.732465
#
# Coordination Sequence:
#
# PCOD8239864 Si02
#       8
#     8   8   8   8   8   8   8   8
#     4  10  19  31  50  71  92 125 164 199 235 277
#     4  10  18  31  51  75  98 121 157 198 231 277
#     4  10  21  33  46  69  97 125 161 201 237 274
#     4   9  18  32  49  71  97 123 157 196 235 286
#     4  10  21  35  50  68  94 131 166 195 230 272
#     4  10  19  31  50  75 101 124 148 191 249 294
#     4  10  19  31  51  77 100 122 151 191 240 286
#     4   9  17  31  51  71  95 126 156 191 237 286
#
# _framework density 17.632553999999999
#
# number of rings (size 3 to 8) (size 9 to 14) (size 15 to 20)
#    0.000    2.250    0.000    5.250    0.000    3.250 
#    0.000    0.000    0.000    2.625    0.000    0.000 
#    0.000    0.000    0.000    0.000    0.000    0.000 
#
# Total GULP energy -793246.714261 kJ/mol
# GULP energy per Si atom -12394.479910 kJ/mol
# Density = 1.759242 g / cm^3
# Si number density = 17.632554 Si / 1000 Ang^3
#
#
#
# Elastic Constant Matrix: (Units=GPa)
#
#
# Indices 1 2 3 4 5 6 
#
# 1 112.3237 39.0904 29.5814 0.0000 0.0000 0.0000
# 2 39.0904 76.0829 30.9460 0.0000 0.0000 0.0000
# 3 29.5814 30.9460 86.9379 0.0000 0.0000 0.0000
# 4 0.0000 0.0000 0.0000 20.0469 0.0000 0.0000
# 5 0.0000 0.0000 0.0000 0.0000 19.0088 0.0000
# 6 0.0000 0.0000 0.0000 0.0000 0.0000 20.8097
#
#
#
# Elastic Compliance Matrix: (Units=1/GPa)
#
#
# Indices 1 2 3 4 5 6 
#
# 1 0.011146 -0.004892 -0.002051 0.000000 0.000000 0.000000
# 2 -0.004892 0.017516 -0.004570 0.000000 0.000000 0.000000
# 3 -0.002051 -0.004570 0.013827 0.000000 0.000000 0.000000
# 4 0.000000 0.000000 0.000000 0.049883 0.000000 0.000000
# 5 0.000000 0.000000 0.000000 0.000000 0.052607 0.000000
# 6 0.000000 0.000000 0.000000 0.000000 0.000000 0.048054
#
#
# Mechanical properties :
#
#
# Convention : Reuss Voigt Hill
#
# Bulk Modulus (GPa) = 51.38282 52.73111 52.05696
# Shear Modulus (GPa) = 22.46708 23.68819 23.07764
#
# Velocity S-wave (km/s) = 3.57344 3.66927 3.62167
# Velocity P-wave (km/s) = 6.79927 6.92256 6.86119
#
# Compressibility (1/GPa) = 0.01946176
#
# Stress axis : x y z
#
# Youngs Moduli (GPa) = 89.72191 57.09055 72.32158
#
# Poissons Ratio (x) = 0.27930 0.14833
# Poissons Ratio (y) = 0.43894 0.33053
# Poissons Ratio (z) = 0.18402 0.26092
#
# Static dielectric constant tensor:
#      x y z
#    x 3.335570 0.000000 0.000000 
#    y 0.000000 3.126880 0.000000 
#    z 0.000000 0.000000 3.458390 
# 
# 
# High freq. dielectric constant tensor:
#      x y z
#    x 1.675800 0.000000 0.000000 
#    y 0.000000 1.658530 0.000000 
#    z 0.000000 0.000000 1.694910 
# 
# From -- ./inp_files/27184.got.cif
#   From: 2010.03.12/outbox.cif.g09.slc.cpg/sg59_14_cif.got.tgz:27184.got - 2010.04.16 16:29:54.
