data_PCOD8239816
_publ_section_title
;
Structure prediction by ZEFSAII (Michael W. Deem and Ramdas Pophale) SiO2 
 PCOD8239816
Probable space group: P M M N
;
_chemical_formula_sum "Si O2"
_cell_formula_units_Z 48
_cell_length_a 17.283883
_cell_length_b 13.883405
_cell_length_c 11.244248
_cell_angle_alpha 90.000000
_cell_angle_beta 90.000000
_cell_angle_gamma 90.000000
_cell_volume 2698.160166
_symmetry_space_group_name_H-M "P M M N"
_symmetry_group_IT_number 59
_space_group.IT_coordinate_system_code '2'
_symmetry_cell_setting 'orthorhombic'
loop_
_space_group_symop_operation_xyz
x,y,z
1/2-x,1/2-y,z
1/2+x,-y,-z
-x,1/2+y,-z
-x,-y,-z
1/2+x,1/2+y,-z
1/2-x,y,z
x,1/2-y,z
loop_
_atom_site_type_symbol
_atom_site_label
_atom_site_fract_x
_atom_site_fract_y
_atom_site_fract_z
Si Si1 0.055239 0.426580 0.843592
Si Si2 0.873800 0.750000 0.853823
Si Si3 0.833964 0.549163 0.751502
Si Si4 0.028001 0.750000 0.715846
Si Si5 0.509515 0.954965 0.628086
Si Si6 0.396527 0.575040 0.041871
Si Si7 0.657548 0.750000 0.130725
Si Si8 0.662968 0.250000 0.101589
O O1 0.039125 0.484573 0.723135
O O2 0.117280 0.343839 0.811449
O O3 0.976070 0.384651 0.900188
O O4 0.090102 0.497298 0.940240
O O5 0.832953 0.656579 0.802551
O O6 0.964821 0.750000 0.821677
O O7 0.864147 0.750000 0.993628
O O8 0.750000 0.529503 0.693079
O O9 0.845201 0.473432 0.856908
O O10 0.899171 0.538297 0.652361
O O11 0.018870 0.655994 0.632594
O O12 0.110105 0.750000 0.781193
O O13 0.500000 0.000000 0.500000
O O14 0.349119 0.659710 0.983258
O O15 0.750000 0.750000 0.154242
O O16 0.750000 0.250000 0.150588
#
# Coordination Sequence:
#
# PCOD8239816 Si02
#       8
#     8   4   8   4   8   8   4   4
#     4  10  20  35  55  80 112 147 188 225 281 347
#     4  10  18  30  56  84 116 147 176 216 278 354
#     4  10  19  33  56  88 114 140 183 236 281 329
#     4  10  20  39  57  78 107 144 201 236 270 337
#     4  10  22  40  61  79 105 156 199 234 278 329
#     4  10  19  33  55  80 112 146 181 230 283 341
#     4  12  22  31  51  87 126 152 170 220 295 355
#     4  12  22  32  52  83 117 151 185 230 279 334
#
# _framework density 17.789901
#
# number of rings (size 3 to 8) (size 9 to 14) (size 15 to 20)
#    0.000    1.667    3.333    2.750    0.000    1.333 
#    0.000    2.500    0.000    0.000    0.000    0.000 
#    0.000    0.000    0.000    0.000    0.000    0.000 
#
# Total GULP energy -595163.465060 kJ/mol
# GULP energy per Si atom -12399.238855 kJ/mol
# Density = 1.774941 g / cm^3
# Si number density = 17.789901 Si / 1000 Ang^3
#
#
#
# Elastic Constant Matrix: (Units=GPa)
#
#
# Indices 1 2 3 4 5 6 
#
# 1 139.7184 63.9364 34.9177 0.0000 0.0000 0.0000
# 2 63.9364 108.6284 45.1362 0.0000 0.0000 0.0000
# 3 34.9177 45.1362 75.7940 0.0000 0.0000 0.0000
# 4 0.0000 0.0000 0.0000 23.2504 0.0000 0.0000
# 5 0.0000 0.0000 0.0000 0.0000 11.9168 0.0000
# 6 0.0000 0.0000 0.0000 0.0000 0.0000 23.1646
#
#
#
# Elastic Compliance Matrix: (Units=1/GPa)
#
#
# Indices 1 2 3 4 5 6 
#
# 1 0.009914 -0.005232 -0.001452 0.000000 0.000000 0.000000
# 2 -0.005232 0.014994 -0.006519 0.000000 0.000000 0.000000
# 3 -0.001452 -0.006519 0.017744 0.000000 0.000000 0.000000
# 4 0.000000 0.000000 0.000000 0.043010 0.000000 0.000000
# 5 0.000000 0.000000 0.000000 0.000000 0.083915 0.000000
# 6 0.000000 0.000000 0.000000 0.000000 0.000000 0.043169
#
#
# Mechanical properties :
#
#
# Convention : Reuss Voigt Hill
#
# Bulk Modulus (GPa) = 61.54729 68.01348 64.78039
# Shear Modulus (GPa) = 20.44426 23.67639 22.06032
#
# Velocity S-wave (km/s) = 3.39367 3.65209 3.52525
# Velocity P-wave (km/s) = 7.07304 7.48987 7.28444
#
# Compressibility (1/GPa) = 0.01624767
#
# Stress axis : x y z
#
# Youngs Moduli (GPa) = 100.86402 66.69439 56.35627
#
# Poissons Ratio (x) = 0.34896 0.08181
# Poissons Ratio (y) = 0.52774 0.36736
# Poissons Ratio (z) = 0.14642 0.43475
#
# Static dielectric constant tensor:
#      x y z
#    x 3.457540 0.000000 0.000000 
#    y 0.000000 3.414380 0.000000 
#    z 0.000000 0.000000 3.164840 
# 
# 
# High freq. dielectric constant tensor:
#      x y z
#    x 1.694230 0.000000 0.000000 
#    y 0.000000 1.700660 0.000000 
#    z 0.000000 0.000000 1.653980 
# 
# From -- ./inp_files/16901.got.cif
#   From: 2010.03.12/outbox.cif.g09.slc.cpg/sg59_9_cif.got.tgz:16901.got - 2010.04.16 16:29:54.
