data_PCOD8239059
_publ_section_title
;
Structure prediction by ZEFSAII (Michael W. Deem and Ramdas Pophale) SiO2 
 PCOD8239059
Probable space group: P M M N
;
_chemical_formula_sum "Si O2"
_cell_formula_units_Z 56
_cell_length_a 9.326554
_cell_length_b 14.036065
_cell_length_c 26.538351
_cell_angle_alpha 90.000000
_cell_angle_beta 90.000000
_cell_angle_gamma 90.000000
_cell_volume 3474.085589
_symmetry_space_group_name_H-M "P M M N"
_symmetry_group_IT_number 59
_space_group.IT_coordinate_system_code '2'
_symmetry_cell_setting 'orthorhombic'
loop_
_space_group_symop_operation_xyz
x,y,z
1/2-x,1/2-y,z
1/2+x,-y,-z
-x,1/2+y,-z
-x,-y,-z
1/2+x,1/2+y,-z
1/2-x,y,z
x,1/2-y,z
loop_
_atom_site_type_symbol
_atom_site_label
_atom_site_fract_x
_atom_site_fract_y
_atom_site_fract_z
Si Si1 0.579474 0.643076 0.833201
Si Si2 0.590701 0.137475 0.461539
Si Si3 0.420318 0.356785 0.278255
Si Si4 0.920093 0.145943 0.572499
Si Si5 0.417214 0.359630 0.975631
Si Si6 0.079877 0.038769 0.375569
Si Si7 0.917811 0.521628 0.925775
O O1 0.750000 0.645328 0.836322
O O2 0.521886 0.750000 0.844414
O O3 0.527846 0.610246 0.777382
O O4 0.521123 0.568404 0.874361
O O5 0.750000 0.093961 0.452318
O O6 0.600826 0.250000 0.459292
O O7 0.530572 0.109178 0.517153
O O8 0.481359 0.104052 0.419409
O O9 0.250000 0.356611 0.279264
O O10 0.476749 0.250000 0.289474
O O11 0.480648 0.427880 0.321150
O O12 0.750000 0.154565 0.570874
O O13 0.986224 0.250000 0.585641
O O14 0.969303 0.070371 0.614906
O O15 0.250000 0.366659 0.963117
O O16 0.469564 0.250000 0.973893
O O17 0.501734 0.421585 0.934206
O O18 0.451307 0.402167 0.030530
O O19 0.250000 0.049496 0.377596
O O20 0.750000 0.498919 0.922489
#
# Coordination Sequence:
#
# PCOD8239059 Si02
#       7
#     8   8   8   8   8   8   8
#     4   8  13  23  40  60  83 110 135 160 195 239
#     4   9  17  28  40  55  79 108 131 154 193 244
#     4   8  14  23  36  59  86 104 123 159 204 240
#     4   8  15  27  40  55  77 105 134 161 193 235
#     4   9  17  28  41  60  87 114 138 166 204 248
#     4  10  17  25  42  63  80 101 131 166 198 231
#     4   9  16  26  43  64  82 106 143 177 199 229
#
# _framework density 16.119351000000002
#
# number of rings (size 3 to 8) (size 9 to 14) (size 15 to 20)
#    0.000    3.286    0.000    3.000    0.000    2.857 
#    0.000    0.000    0.000    4.286    0.000    6.000 
#    0.000    0.000    0.000    0.000    0.000    0.000 
#
# Total GULP energy -693943.626466 kJ/mol
# GULP energy per Si atom -12391.850473 kJ/mol
# Density = 1.608266 g / cm^3
# Si number density = 16.119351 Si / 1000 Ang^3
#
#
#
# Elastic Constant Matrix: (Units=GPa)
#
#
# Indices 1 2 3 4 5 6 
#
# 1 17.8598 24.0522 22.1607 0.0000 0.0000 0.0000
# 2 24.0522 107.2673 80.9351 0.0000 0.0000 0.0000
# 3 22.1607 80.9351 134.1601 0.0000 0.0000 0.0000
# 4 0.0000 0.0000 0.0000 31.5616 0.0000 0.0000
# 5 0.0000 0.0000 0.0000 0.0000 15.4284 0.0000
# 6 0.0000 0.0000 0.0000 0.0000 0.0000 17.9160
#
#
#
# Elastic Compliance Matrix: (Units=1/GPa)
#
#
# Indices 1 2 3 4 5 6 
#
# 1 0.081657 -0.014927 -0.004483 0.000000 0.000000 0.000000
# 2 -0.014927 0.019840 -0.009503 0.000000 0.000000 0.000000
# 3 -0.004483 -0.009503 0.013927 0.000000 0.000000 0.000000
# 4 0.000000 0.000000 0.000000 0.031684 0.000000 0.000000
# 5 0.000000 0.000000 0.000000 0.000000 0.064815 0.000000
# 6 0.000000 0.000000 0.000000 0.000000 0.000000 0.055816
#
#
# Mechanical properties :
#
#
# Convention : Reuss Voigt Hill
#
# Bulk Modulus (GPa) = 17.36189 57.06478 37.21334
# Shear Modulus (GPa) = 14.50263 21.79050 18.14657
#
# Velocity S-wave (km/s) = 3.00276 3.68070 3.35888
# Velocity P-wave (km/s) = 4.77664 7.31722 6.17892
#
# Compressibility (1/GPa) = 0.05759741
#
# Stress axis : x y z
#
# Youngs Moduli (GPa) = 12.24637 50.40359 71.80147
#
# Poissons Ratio (x) = 0.75238 0.32189
# Poissons Ratio (y) = 0.18280 0.68234
# Poissons Ratio (z) = 0.05490 0.47899
#
# Static dielectric constant tensor:
#      x y z
#    x 2.696000 0.000000 0.000000 
#    y 0.000000 3.233430 0.000000 
#    z 0.000000 0.000000 3.291820 
# 
# 
# High freq. dielectric constant tensor:
#      x y z
#    x 1.574860 0.000000 0.000000 
#    y 0.000000 1.616420 0.000000 
#    z 0.000000 0.000000 1.612930 
# 
# From -- ./inp_files/31907.got.cif
#   From: 2010.03.12/outbox.cif.g09.slc.cpg/sg59_16_cif.got.tgz:31907.got - 2010.04.16 16:29:54.
