data_PCOD8239989
_publ_section_title
;
Structure prediction by ZEFSAII (Michael W. Deem and Ramdas Pophale) SiO2 
 PCOD8239989
Probable space group: P M M N
;
_chemical_formula_sum "Si O2"
_cell_formula_units_Z 48
_cell_length_a 9.633891
_cell_length_b 8.586614
_cell_length_c 29.418878
_cell_angle_alpha 90.000000
_cell_angle_beta 90.000000
_cell_angle_gamma 90.000000
_cell_volume 2433.603233
_symmetry_space_group_name_H-M "P M M N"
_symmetry_group_IT_number 59
_space_group.IT_coordinate_system_code '2'
_symmetry_cell_setting 'orthorhombic'
loop_
_space_group_symop_operation_xyz
x,y,z
1/2-x,1/2-y,z
1/2+x,-y,-z
-x,1/2+y,-z
-x,-y,-z
1/2+x,1/2+y,-z
1/2-x,y,z
x,1/2-y,z
loop_
_atom_site_type_symbol
_atom_site_label
_atom_site_fract_x
_atom_site_fract_y
_atom_site_fract_z
Si Si1 0.411894 0.932572 0.122338
Si Si2 0.409947 0.568750 0.800248
Si Si3 0.250000 0.934183 0.445885
Si Si4 0.410542 0.566297 0.958880
Si Si5 0.411928 0.074756 0.705573
Si Si6 0.008902 0.435286 0.608710
Si Si7 0.250000 0.434576 0.546135
O O1 0.250000 0.987862 0.120474
O O2 0.419253 0.750000 0.112261
O O3 0.479934 0.969606 0.170902
O O4 0.508250 0.021762 0.086577
O O5 0.250000 0.518206 0.810799
O O6 0.430071 0.750000 0.811011
O O7 0.446485 0.536280 0.747852
O O8 0.250000 0.750000 0.450901
O O9 0.373372 0.997306 0.415406
O O10 0.250000 0.003049 0.495574
O O11 0.250000 0.503028 0.958778
O O12 0.405670 0.750000 0.963548
O O13 0.500000 0.500000 0.000000
O O14 0.250000 0.079710 0.695016
O O15 0.465511 0.250000 0.716365
O O16 0.482796 0.001769 0.660467
O O17 0.020686 0.250000 0.612067
O O18 0.123100 0.501958 0.574705
O O19 0.250000 0.250000 0.543092
#
# Coordination Sequence:
#
# PCOD8239989 Si02
#       7
#     8   8   4   8   8   8   4
#     4  11  24  41  61  88 120 156 201 246 289 344
#     4  10  21  37  58  85 115 147 185 233 289 347
#     4  10  20  32  46  72 102 128 162 214 269 312
#     4  11  24  41  63  93 127 164 206 250 296 346
#     4   9  16  31  55  77  98 134 181 223 266 325
#     4   9  17  31  51  72  97 131 171 213 260 317
#     4  10  18  32  52  70  94 132 174 208 251 320
#
# _framework density 19.723839000000002
#
# number of rings (size 3 to 8) (size 9 to 14) (size 15 to 20)
#    0.000    2.000    0.833    3.000    0.000    7.667 
#    1.500    1.667    0.000    0.000    0.000    0.000 
#    0.000    0.000    0.000    0.000    0.000    0.000 
#
# Total GULP energy -594955.825054 kJ/mol
# GULP energy per Si atom -12394.913022 kJ/mol
# Density = 1.967895 g / cm^3
# Si number density = 19.723839 Si / 1000 Ang^3
#
#
#
# Elastic Constant Matrix: (Units=GPa)
#
#
# Indices 1 2 3 4 5 6 
#
# 1 161.1369 29.5243 77.3794 0.0000 0.0000 0.0000
# 2 29.5243 42.9225 18.0936 0.0000 0.0000 0.0000
# 3 77.3794 18.0936 141.8325 0.0000 0.0000 0.0000
# 4 0.0000 0.0000 0.0000 35.6585 0.0000 0.0000
# 5 0.0000 0.0000 0.0000 0.0000-1814.7334 0.0000
# 6 0.0000 0.0000 0.0000 0.0000 0.0000 27.2883
#
#
#
# Elastic Compliance Matrix: (Units=1/GPa)
#
#
# Indices 1 2 3 4 5 6 
#
# 1 0.009140 -0.004423 -0.004422 0.000000 0.000000 0.000000
# 2 -0.004423 0.026762 -0.001001 0.000000 0.000000 0.000000
# 3 -0.004422 -0.001001 0.009591 0.000000 0.000000 0.000000
# 4 0.000000 0.000000 0.000000 0.028044 0.000000 0.000000
# 5 0.000000 0.000000 0.000000 0.000000 -0.000551 0.000000
# 6 0.000000 0.000000 0.000000 0.000000 0.000000 0.036646
#
#
# Mechanical properties :
#
#
# Convention : Reuss Voigt Hill
#
# Bulk Modulus (GPa) = 38.75870 66.20961 52.48415
# Shear Modulus (GPa) = 36.25194 -335.63101 -149.68954
#
# Velocity S-wave (km/s) = 4.29181 -13.05889 -8.72109
# Velocity P-wave (km/s) = 6.65229 13.91899 8.64538
#
# Compressibility (1/GPa) = 0.02580066
#
# Stress axis : x y z
#
# Youngs Moduli (GPa) = 109.41113 37.36638 104.26548
#
# Poissons Ratio (x) = 0.16526 0.46108
# Poissons Ratio (y) = 0.48389 0.10438
# Poissons Ratio (z) = 0.48384 0.03741
#
# Static dielectric constant tensor:
#      x y z
#    x 3.842550 0.000000 0.000000 
#    y 0.000000 3.305100 0.000000 
#    z 0.000000 0.000000 3.789750 
# 
# 
# High freq. dielectric constant tensor:
#      x y z
#    x 1.769880 0.000000 0.000000 
#    y 0.000000 1.744990 0.000000 
#    z 0.000000 0.000000 1.787570 
# 
# From -- ./inp_files/33062.got.cif
#   From: 2010.03.12/outbox.cif.g09.slc.cpg/sg59_17_cif.got.tgz:33062.got - 2010.04.16 16:29:54.
