data_PCOD8239114
_publ_section_title
;
Structure prediction by ZEFSAII (Michael W. Deem and Ramdas Pophale) SiO2 
 PCOD8239114
Probable space group: P M M N
;
_chemical_formula_sum "Si O2"
_cell_formula_units_Z 64
_cell_length_a 8.957794
_cell_length_b 26.866668
_cell_length_c 17.091467
_cell_angle_alpha 90.000000
_cell_angle_beta 90.000000
_cell_angle_gamma 90.000000
_cell_volume 4113.336320
_symmetry_space_group_name_H-M "P M M N"
_symmetry_group_IT_number 59
_space_group.IT_coordinate_system_code '2'
_symmetry_cell_setting 'orthorhombic'
loop_
_space_group_symop_operation_xyz
x,y,z
1/2-x,1/2-y,z
1/2+x,-y,-z
-x,1/2+y,-z
-x,-y,-z
1/2+x,1/2+y,-z
1/2-x,y,z
x,1/2-y,z
loop_
_atom_site_type_symbol
_atom_site_label
_atom_site_fract_x
_atom_site_fract_y
_atom_site_fract_z
Si Si1 0.924587 0.373996 0.291321
Si Si2 0.577449 0.063062 0.665545
Si Si3 0.925710 0.448546 0.977035
Si Si4 0.579774 0.612420 0.468671
Si Si5 0.927311 0.960147 0.175367
Si Si6 0.573655 0.693888 0.591215
Si Si7 0.581499 0.546127 0.610786
Si Si8 0.075721 0.571278 0.855618
O O1 0.750000 0.362976 0.295418
O O2 0.981499 0.384906 0.202185
O O3 0.007944 0.326310 0.326982
O O4 0.961055 0.423968 0.338981
O O5 0.750000 0.071741 0.684795
O O6 0.519769 0.107035 0.608994
O O7 0.485750 0.064835 0.745666
O O8 0.547817 0.011857 0.619598
O O9 0.750000 0.455149 0.962529
O O10 0.004931 0.428636 0.898192
O O11 0.956632 0.413731 0.053702
O O12 0.000000 0.500000 0.000000
O O13 0.750000 0.621343 0.442572
O O14 0.519967 0.659655 0.518839
O O15 0.565528 0.562335 0.520501
O O16 0.750000 0.956654 0.172264
O O17 0.990402 0.016851 0.168142
O O18 0.750000 0.690942 0.599024
O O19 0.517406 0.750000 0.576994
O O20 0.750000 0.559055 0.639787
O O21 0.250000 0.564978 0.841133
#
# Coordination Sequence:
#
# PCOD8239114 Si02
#       8
#     8   8   8   8   8   8   8   8
#     4  10  17  27  45  68  89 113 146 182 220 261
#     4  11  20  28  41  62  87 116 150 186 219 257
#     4   9  16  27  40  57  82 115 153 185 216 252
#     4   9  18  31  45  61  82 111 144 179 221 268
#     4  10  18  29  41  57  84 120 155 185 221 255
#     4   9  19  36  52  65  86 114 143 180 226 270
#     4   9  18  30  41  58  85 117 150 179 215 258
#     4   8  15  26  40  59  85 114 144 180 217 251
#
# _framework density 15.559146999999999
#
# number of rings (size 3 to 8) (size 9 to 14) (size 15 to 20)
#    0.000    2.625    1.250    3.375    0.000    2.750 
#    0.000    1.875    0.000    0.000    0.000    0.000 
#    0.000    1.000    0.000    7.250    0.000    3.750 
#
# Total GULP energy -793117.283031 kJ/mol
# GULP energy per Si atom -12392.457547 kJ/mol
# Density = 1.552373 g / cm^3
# Si number density = 15.559147 Si / 1000 Ang^3
#
#
#
# Elastic Constant Matrix: (Units=GPa)
#
#
# Indices 1 2 3 4 5 6 
#
# 1 59.9580 22.3057 46.1530 0.0000 0.0000 0.0000
# 2 22.3057 59.5958 46.2313 0.0000 0.0000 0.0000
# 3 46.1530 46.2313 132.1153 0.0000 0.0000 0.0000
# 4 0.0000 0.0000 0.0000 13.7681 0.0000 0.0000
# 5 0.0000 0.0000 0.0000 0.0000 28.2107 0.0000
# 6 0.0000 0.0000 0.0000 0.0000 0.0000 14.5841
#
#
#
# Elastic Compliance Matrix: (Units=1/GPa)
#
#
# Indices 1 2 3 4 5 6 
#
# 1 0.023276 -0.003300 -0.006977 0.000000 0.000000 0.000000
# 2 -0.003300 0.023500 -0.007071 0.000000 0.000000 0.000000
# 3 -0.006977 -0.007071 0.012481 0.000000 0.000000 0.000000
# 4 0.000000 0.000000 0.000000 0.072631 0.000000 0.000000
# 5 0.000000 0.000000 0.000000 0.000000 0.035448 0.000000
# 6 0.000000 0.000000 0.000000 0.000000 0.000000 0.068568
#
#
# Mechanical properties :
#
#
# Convention : Reuss Voigt Hill
#
# Bulk Modulus (GPa) = 40.71228 53.44987 47.08108
# Shear Modulus (GPa) = 17.93498 20.44452 19.18975
#
# Velocity S-wave (km/s) = 3.39882 3.62883 3.51571
# Velocity P-wave (km/s) = 6.45179 7.21007 6.84145
#
# Compressibility (1/GPa) = 0.02456261
#
# Stress axis : x y z
#
# Youngs Moduli (GPa) = 42.96233 42.55368 80.12478
#
# Poissons Ratio (x) = 0.14042 0.55900
# Poissons Ratio (y) = 0.14177 0.56653
# Poissons Ratio (z) = 0.29973 0.30088
#
# Static dielectric constant tensor:
#      x y z
#    x 2.950500 0.000000 0.000000 
#    y 0.000000 2.690770 0.000000 
#    z 0.000000 0.000000 3.274790 
# 
# 
# High freq. dielectric constant tensor:
#      x y z
#    x 1.598990 0.000000 0.000000 
#    y 0.000000 1.534740 0.000000 
#    z 0.000000 0.000000 1.603390 
# 
# From -- ./inp_files/21909.got.cif
#   From: 2010.03.12/outbox.cif.g09.slc.cpg/sg59_11_cif.got.tgz:21909.got - 2010.04.16 16:29:54.
