data_PCOD8239898
_publ_section_title
;
Structure prediction by ZEFSAII (Michael W. Deem and Ramdas Pophale) SiO2 
 PCOD8239898
Probable space group: P M M N
;
_chemical_formula_sum "Si O2"
_cell_formula_units_Z 44
_cell_length_a 13.268196
_cell_length_b 15.451945
_cell_length_c 12.163559
_cell_angle_alpha 90.000000
_cell_angle_beta 90.000000
_cell_angle_gamma 90.000000
_cell_volume 2493.765992
_symmetry_space_group_name_H-M "P M M N"
_symmetry_group_IT_number 59
_space_group.IT_coordinate_system_code '2'
_symmetry_cell_setting 'orthorhombic'
loop_
_space_group_symop_operation_xyz
x,y,z
1/2-x,1/2-y,z
1/2+x,-y,-z
-x,1/2+y,-z
-x,-y,-z
1/2+x,1/2+y,-z
1/2-x,y,z
x,1/2-y,z
loop_
_atom_site_type_symbol
_atom_site_label
_atom_site_fract_x
_atom_site_fract_y
_atom_site_fract_z
Si Si1 0.362184 0.578443 0.463539
Si Si2 0.869026 0.602423 0.791356
Si Si3 0.001907 0.250000 0.829417
Si Si4 0.368730 0.250000 0.043580
Si Si5 0.363446 0.250000 0.613176
Si Si6 0.635978 0.093890 0.787566
Si Si7 0.064584 0.384748 0.443026
O O1 0.250000 0.590644 0.513797
O O2 0.365222 0.616862 0.341269
O O3 0.444075 0.625914 0.539562
O O4 0.391604 0.479247 0.457712
O O5 0.750000 0.600887 0.774425
O O6 0.902656 0.663267 0.891806
O O7 0.906434 0.503408 0.810462
O O8 0.915152 0.645423 0.681274
O O9 0.058657 0.250000 0.713342
O O10 0.934497 0.335821 0.846106
O O11 0.083597 0.250000 0.924571
O O12 0.250000 0.250000 0.028122
O O13 0.250000 0.250000 0.660707
O O14 0.377638 0.167778 0.535752
O O15 0.750000 0.102257 0.833506
#
# Coordination Sequence:
#
# PCOD8239898 Si02
#       7
#     8   8   4   4   4   8   8
#     4   9  17  31  51  77 108 140 172 209 257 314
#     4   9  18  35  58  79  99 136 183 225 260 307
#     4  12  22  34  50  77 108 143 169 214 273 318
#     4  10  22  39  56  73 100 134 178 228 273 314
#     4  12  22  31  46  78 112 139 169 212 272 326
#     4   9  18  34  55  78 104 137 181 217 255 314
#     4  10  18  31  52  78 107 135 172 213 261 308
#
# _framework density 17.643996999999999
#
# number of rings (size 3 to 8) (size 9 to 14) (size 15 to 20)
#    0.000    2.182    1.818    3.818    0.000    1.455 
#    0.000    0.455    0.000    2.182    0.000    0.000 
#    0.000    0.000    0.000    0.000    0.000    0.000 
#
# Total GULP energy -545446.701913 kJ/mol
# GULP energy per Si atom -12396.515953 kJ/mol
# Density = 1.760384 g / cm^3
# Si number density = 17.643997 Si / 1000 Ang^3
#
#
#
# Elastic Constant Matrix: (Units=GPa)
#
#
# Indices 1 2 3 4 5 6 
#
# 1 76.7630 28.1715 19.9765 0.0000 0.0000 0.0000
# 2 28.1715 80.3824 39.0667 0.0000 0.0000 0.0000
# 3 19.9765 39.0667 79.7031 0.0000 0.0000 0.0000
# 4 0.0000 0.0000 0.0000 15.1041 0.0000 0.0000
# 5 0.0000 0.0000 0.0000 0.0000 29.0250 0.0000
# 6 0.0000 0.0000 0.0000 0.0000 0.0000 22.5327
#
#
#
# Elastic Compliance Matrix: (Units=1/GPa)
#
#
# Indices 1 2 3 4 5 6 
#
# 1 0.015097 -0.004531 -0.001563 0.000000 0.000000 0.000000
# 2 -0.004531 0.017691 -0.007536 0.000000 0.000000 0.000000
# 3 -0.001563 -0.007536 0.016632 0.000000 0.000000 0.000000
# 4 0.000000 0.000000 0.000000 0.066207 0.000000 0.000000
# 5 0.000000 0.000000 0.000000 0.000000 0.034453 0.000000
# 6 0.000000 0.000000 0.000000 0.000000 0.000000 0.044380
#
#
# Mechanical properties :
#
#
# Convention : Reuss Voigt Hill
#
# Bulk Modulus (GPa) = 45.12598 45.69757 45.41177
# Shear Modulus (GPa) = 21.82398 23.30796 22.56597
#
# Velocity S-wave (km/s) = 3.52078 3.63852 3.58014
# Velocity P-wave (km/s) = 6.49301 6.60362 6.54855
#
# Compressibility (1/GPa) = 0.02216018
#
# Stress axis : x y z
#
# Youngs Moduli (GPa) = 66.23922 56.52579 60.12571
#
# Poissons Ratio (x) = 0.25614 0.09396
# Poissons Ratio (y) = 0.30016 0.45308
# Poissons Ratio (z) = 0.10351 0.42595
#
# Static dielectric constant tensor:
#      x y z
#    x 3.413030 0.000000 0.000000 
#    y 0.000000 3.264200 0.000000 
#    z 0.000000 0.000000 3.096510 
# 
# 
# High freq. dielectric constant tensor:
#      x y z
#    x 1.679710 0.000000 0.000000 
#    y 0.000000 1.688640 0.000000 
#    z 0.000000 0.000000 1.652240 
# 
# From -- ./inp_files/16774.got.cif
#   From: 2010.03.12/outbox.cif.g09.slc.cpg/sg59_9_cif.got.tgz:16774.got - 2010.04.16 16:29:54.
