data_PCOD8239981
_publ_section_title
;
Structure prediction by ZEFSAII (Michael W. Deem and Ramdas Pophale) SiO2 
 PCOD8239981
Probable space group: P M M N
;
_chemical_formula_sum "Si O2"
_cell_formula_units_Z 56
_cell_length_a 9.056898
_cell_length_b 21.422687
_cell_length_c 16.989369
_cell_angle_alpha 90.000000
_cell_angle_beta 90.000000
_cell_angle_gamma 90.000000
_cell_volume 3296.329888
_symmetry_space_group_name_H-M "P M M N"
_symmetry_group_IT_number 59
_space_group.IT_coordinate_system_code '2'
_symmetry_cell_setting 'orthorhombic'
loop_
_space_group_symop_operation_xyz
x,y,z
1/2-x,1/2-y,z
1/2+x,-y,-z
-x,1/2+y,-z
-x,-y,-z
1/2+x,1/2+y,-z
1/2-x,y,z
x,1/2-y,z
loop_
_atom_site_type_symbol
_atom_site_label
_atom_site_fract_x
_atom_site_fract_y
_atom_site_fract_z
Si Si1 0.576433 0.474200 0.377188
Si Si2 0.426606 0.939009 0.960649
Si Si3 0.922694 0.821656 0.040151
Si Si4 0.580463 0.417478 0.533313
Si Si5 0.079196 0.377482 0.795657
Si Si6 0.079070 0.818005 0.348161
Si Si7 0.923518 0.482107 0.204546
O O1 0.750000 0.482493 0.368274
O O2 0.535500 0.419930 0.440545
O O3 0.516609 0.538283 0.412186
O O4 0.508662 0.460862 0.289737
O O5 0.250000 0.943666 0.972066
O O6 0.473773 0.938812 0.868163
O O7 0.483821 0.872536 0.992123
O O8 0.500000 0.000000 0.000000
O O9 0.750000 0.833495 0.023330
O O10 0.966746 0.750000 0.018019
O O11 0.957539 0.831516 0.132268
O O12 0.750000 0.438963 0.542723
O O13 0.555066 0.347912 0.565484
O O14 0.250000 0.374954 0.773788
O O15 0.028830 0.447418 0.817554
O O16 0.992048 0.358981 0.718893
O O17 0.250000 0.813308 0.327682
O O18 0.004835 0.750000 0.350551
O O19 0.750000 0.478114 0.211820
#
# Coordination Sequence:
#
# PCOD8239981 Si02
#       7
#     8   8   8   8   8   8   8
#     4   9  16  29  48  67  89 119 152 191 235 279
#     4  11  21  35  54  76 103 133 170 212 255 302
#     4  10  21  37  54  73 101 135 171 209 252 306
#     4   9  17  28  44  66  91 120 154 189 230 276
#     4  10  18  32  51  71  97 131 166 196 238 294
#     4  10  20  31  42  64 100 132 157 191 234 282
#     4   9  17  30  50  73  98 125 157 203 247 288
#
# _framework density 16.988592000000001
#
# number of rings (size 3 to 8) (size 9 to 14) (size 15 to 20)
#    0.000    2.286    2.857    0.857    0.000    1.714 
#    0.000    1.429    0.000    0.857    0.000    4.000 
#    0.000    0.000    0.000    0.000    0.000    0.000 
#
# Total GULP energy -693856.132487 kJ/mol
# GULP energy per Si atom -12390.288080 kJ/mol
# Density = 1.694992 g / cm^3
# Si number density = 16.988592 Si / 1000 Ang^3
#
#
#
# Elastic Constant Matrix: (Units=GPa)
#
#
# Indices 1 2 3 4 5 6 
#
# 1 37.0283 29.8077 32.7168 0.0000 0.0000 0.0000
# 2 29.8077 81.6502 52.1184 0.0000 0.0000 0.0000
# 3 32.7168 52.1184 132.1526 0.0000 0.0000 0.0000
# 4 0.0000 0.0000 0.0000 20.0037 0.0000 0.0000
# 5 0.0000 0.0000 0.0000 0.0000 20.2228 0.0000
# 6 0.0000 0.0000 0.0000 0.0000 0.0000 21.1213
#
#
#
# Elastic Compliance Matrix: (Units=1/GPa)
#
#
# Indices 1 2 3 4 5 6 
#
# 1 0.041235 -0.011410 -0.005709 0.000000 0.000000 0.000000
# 2 -0.011410 0.019525 -0.004876 0.000000 0.000000 0.000000
# 3 -0.005709 -0.004876 0.010903 0.000000 0.000000 0.000000
# 4 0.000000 0.000000 0.000000 0.049991 0.000000 0.000000
# 5 0.000000 0.000000 0.000000 0.000000 0.049449 0.000000
# 6 0.000000 0.000000 0.000000 0.000000 0.000000 0.047346
#
#
# Mechanical properties :
#
#
# Convention : Reuss Voigt Hill
#
# Bulk Modulus (GPa) = 36.13338 53.34632 44.73985
# Shear Modulus (GPa) = 18.40528 21.34878 19.87703
#
# Velocity S-wave (km/s) = 3.29506 3.54878 3.42427
# Velocity P-wave (km/s) = 5.98264 6.94703 6.48279
#
# Compressibility (1/GPa) = 0.02767524
#
# Stress axis : x y z
#
# Youngs Moduli (GPa) = 24.25119 51.21719 91.71673
#
# Poissons Ratio (x) = 0.58436 0.52359
# Poissons Ratio (y) = 0.27669 0.44717
# Poissons Ratio (z) = 0.13845 0.24971
#
# Static dielectric constant tensor:
#      x y z
#    x 3.070730 0.000000 0.000000 
#    y 0.000000 3.248530 0.000000 
#    z 0.000000 0.000000 3.723870 
# 
# 
# High freq. dielectric constant tensor:
#      x y z
#    x 1.640300 0.000000 0.000000 
#    y 0.000000 1.635190 0.000000 
#    z 0.000000 0.000000 1.663790 
# 
# From -- ./inp_files/26006.got.cif
#   From: 2010.03.12/outbox.cif.g09.slc.cpg/sg59_14_cif.got.tgz:26006.got - 2010.04.16 16:29:54.
