data_PCOD8239009
_publ_section_title
;
Structure prediction by ZEFSAII (Michael W. Deem and Ramdas Pophale) SiO2 
 PCOD8239009
Probable space group: P N N M
;
_chemical_formula_sum "Si O2"
_cell_formula_units_Z 64
_cell_length_a 24.000000
_cell_length_b 15.000000
_cell_length_c 9.000000
_cell_angle_alpha 90.000000
_cell_angle_beta 90.000000
_cell_angle_gamma 90.000000
_cell_volume 3240.000000
_symmetry_space_group_name_H-M "P N N M"
_symmetry_group_IT_number 58
_symmetry_cell_setting 'orthorhombic'
loop_
_space_group_symop_operation_xyz
x,y,z
-x,-y,z
1/2+x,1/2-y,1/2-z
1/2-x,1/2+y,1/2-z
-x,-y,-z
x,y,-z
1/2-x,1/2+y,1/2+z
1/2+x,1/2-y,1/2+z
loop_
_atom_site_type_symbol
_atom_site_label
_atom_site_fract_x
_atom_site_fract_y
_atom_site_fract_z
Si Si1 0.861984 0.010259 0.173974
Si Si2 0.248100 0.261056 0.824573
Si Si3 0.089419 0.337291 0.331249
Si Si4 0.130793 0.812259 0.672214
Si Si5 0.983906 0.248141 0.332436
Si Si6 0.762233 0.923906 0.674212
Si Si7 0.322196 0.930850 0.326320
Si Si8 0.574743 0.333860 0.328100
O O1 0.887303 0.102809 0.230705
O O2 0.806430 0.995292 0.268080
O O3 0.905113 0.932125 0.212093
O O4 0.848132 0.014434 0.000000
O O5 0.311951 0.270241 0.771200
O O6 0.226831 0.169290 0.754519
O O7 0.215287 0.347980 0.766177
O O8 0.242593 0.250996 0.000000
O O9 0.109306 0.339620 0.500000
O O10 0.117087 0.421813 0.249337
O O11 0.110316 0.243030 0.258284
O O12 0.021184 0.339241 0.314970
O O13 0.136150 0.840025 0.500000
O O14 0.081692 0.738905 0.699381
O O15 0.991881 0.212007 0.500000
O O16 0.010045 0.173324 0.222499
O O17 0.768903 0.909530 0.500000
O O18 0.703396 0.972302 0.712900
O O19 0.329406 0.920844 0.500000
O O20 0.581699 0.312489 0.500000
#
# Coordination Sequence:
#
# PCOD8239009 Si02
#       8
#     8   8   8   8   8   8   8   8
#     4  11  22  34  51  79 112 146 188 229 271 333
#     4  10  21  38  58  81 110 147 184 227 281 333
#     4   9  18  32  52  79 105 135 181 228 266 317
#     4  10  20  38  58  76 109 149 183 227 284 334
#     4   8  18  34  53  79 105 141 190 230 270 330
#     4  11  23  38  56  82 114 149 187 228 279 335
#     4  10  20  36  56  79 110 145 182 224 279 335
#     4   9  18  32  49  73 107 144 178 222 276 322
#
# _framework density 19.753086
#
# number of rings (size 3 to 8) (size 9 to 14) (size 15 to 20)
#    0.750    1.500    1.250    1.875    0.000    8.000 
#    0.000    2.500    0.000    0.750    0.000    5.250 
#    0.000    0.000    0.000    0.000    0.000    0.000 
#
# Total GULP energy -792900.771270 kJ/mol
# GULP energy per Si atom -12389.074551 kJ/mol
# Density = 1.970813 g / cm^3
# Si number density = 19.753086 Si / 1000 Ang^3
#
#
#
# Elastic Constant Matrix: (Units=GPa)
#
#
# Indices 1 2 3 4 5 6 
#
# 1 37.4508 -17.7517 -2.8130 0.0000 0.0000 0.0000
# 2 -17.7517 27.1370 8.0559 0.0000 0.0000 0.0000
# 3 -2.8130 8.0559 14.0285 0.0000 0.0000 0.0000
# 4 0.0000 0.0000 0.0000 13.7795 0.0000 0.0000
# 5 0.0000 0.0000 0.0000 0.0000 19.2715 0.0000
# 6 0.0000 0.0000 0.0000 0.0000 0.0000 22.4464
#
#
#
# Elastic Compliance Matrix: (Units=1/GPa)
#
#
# Indices 1 2 3 4 5 6 
#
# 1 0.039495 0.028311 -0.008338 0.000000 0.000000 0.000000
# 2 0.028311 0.064717 -0.031487 0.000000 0.000000 0.000000
# 3 -0.008338 -0.031487 0.087693 0.000000 0.000000 0.000000
# 4 0.000000 0.000000 0.000000 0.072572 0.000000 0.000000
# 5 0.000000 0.000000 0.000000 0.000000 0.051890 0.000000
# 6 0.000000 0.000000 0.000000 0.000000 0.000000 0.044551
#
#
# Mechanical properties :
#
#
# Convention : Reuss Voigt Hill
#
# Bulk Modulus (GPa) = 5.92149 5.95540 5.93845
# Shear Modulus (GPa) = 11.35751 17.17450 14.26601
#
# Velocity S-wave (km/s) = 2.40046 2.95186 2.69032
# Velocity P-wave (km/s) = 3.26913 3.82615 3.55856
#
# Compressibility (1/GPa) = 0.16887634
#
# Stress axis : x y z
#
# Youngs Moduli (GPa) = 25.31982 15.45192 11.40341
#
# Poissons Ratio (x) = -0.43746 0.09508
# Poissons Ratio (y) = -0.71682 0.35906
# Poissons Ratio (z) = 0.21112 0.48653
#
# Static dielectric constant tensor:
#      x y z
#    x 3.676240 0.000000 0.000000 
#    y 0.000000 3.291800 0.000000 
#    z 0.000000 0.000000 3.465010 
# 
# 
# High freq. dielectric constant tensor:
#      x y z
#    x 1.761160 0.000000 0.000000 
#    y 0.000000 1.736470 0.000000 
#    z 0.000000 0.000000 1.766110 
# 
# From -- ./inp_files/9928.got.cif
#   From: 2010.06.25/outbox.ucp.g09.slc.cvg/sg58_5_cif.got.tgz:9928.got - 2010.06.28 15:54:47.
