data_PCOD8239284
_publ_section_title
;
Structure prediction by ZEFSAII (Michael W. Deem and Ramdas Pophale) SiO2 
 PCOD8239284
Probable space group: P M M N
;
_chemical_formula_sum "Si O2"
_cell_formula_units_Z 64
_cell_length_a 13.825612
_cell_length_b 9.392786
_cell_length_c 31.464564
_cell_angle_alpha 90.000000
_cell_angle_beta 90.000000
_cell_angle_gamma 90.000000
_cell_volume 4086.020212
_symmetry_space_group_name_H-M "P M M N"
_symmetry_group_IT_number 59
_space_group.IT_coordinate_system_code '2'
_symmetry_cell_setting 'orthorhombic'
loop_
_space_group_symop_operation_xyz
x,y,z
1/2-x,1/2-y,z
1/2+x,-y,-z
-x,1/2+y,-z
-x,-y,-z
1/2+x,1/2+y,-z
1/2-x,y,z
x,1/2-y,z
loop_
_atom_site_type_symbol
_atom_site_label
_atom_site_fract_x
_atom_site_fract_y
_atom_site_fract_z
Si Si1 0.862102 0.914696 0.477945
Si Si2 0.855641 0.081411 0.061782
Si Si3 0.026862 0.416289 0.436199
Si Si4 0.635930 0.407466 0.968833
Si Si5 0.637957 0.417094 0.634878
Si Si6 0.137735 0.084022 0.191202
Si Si7 0.635211 0.406982 0.729964
Si Si8 0.455611 0.418219 0.104910
O O1 0.750000 0.959138 0.474907
O O2 0.877248 0.750000 0.465478
O O3 0.898091 0.942935 0.525697
O O4 0.923271 0.012112 0.445851
O O5 0.750000 0.015138 0.072839
O O6 0.846001 0.250000 0.059416
O O7 0.932398 0.036698 0.097967
O O8 0.894964 0.031041 0.015392
O O9 0.009942 0.250000 0.427715
O O10 0.071097 0.488348 0.394827
O O11 0.750000 0.393336 0.969671
O O12 0.590630 0.250000 0.960557
O O13 0.607813 0.515180 0.932117
O O14 0.750000 0.457280 0.627506
O O15 0.621975 0.250000 0.625781
O O16 0.604639 0.456534 0.682806
O O17 0.250000 0.046596 0.183956
O O18 0.121362 0.250000 0.197399
O O19 0.078776 0.024784 0.150706
O O20 0.095159 0.011463 0.233679
O O21 0.750000 0.402657 0.731405
O O22 0.593363 0.250000 0.739216
O O23 0.439907 0.250000 0.102242
#
# Coordination Sequence:
#
# PCOD8239284 Si02
#       8
#     8   8   8   8   8   8   8   8
#     4   9  18  32  46  61  88 125 159 188 219 258
#     4   8  15  28  43  58  78 105 137 171 204 238
#     4  10  19  29  44  68  93 117 150 189 225 262
#     4   9  17  28  41  58  81 108 136 165 198 239
#     4   9  17  29  45  65  89 116 146 180 216 256
#     4   9  17  27  38  57  85 109 129 160 204 251
#     4   8  15  28  44  61  82 110 141 169 202 250
#     4  10  18  27  42  62  82 106 136 169 204 244
#
# _framework density 15.663163000000001
#
# number of rings (size 3 to 8) (size 9 to 14) (size 15 to 20)
#    0.000    3.000    0.000    3.000    0.000    3.250 
#    0.000    2.500    0.000    1.125    0.000    0.875 
#    0.000    3.000    0.000    0.000    0.000    0.000 
#
# Total GULP energy -793272.669161 kJ/mol
# GULP energy per Si atom -12394.885456 kJ/mol
# Density = 1.562751 g / cm^3
# Si number density = 15.663163 Si / 1000 Ang^3
#
#
#
# Elastic Constant Matrix: (Units=GPa)
#
#
# Indices 1 2 3 4 5 6 
#
# 1 74.8038 39.1852 59.3727 0.0000 0.0000 0.0000
# 2 39.1852 55.9203 56.1057 0.0000 0.0000 0.0000
# 3 59.3727 56.1057 129.3287 0.0000 0.0000 0.0000
# 4 0.0000 0.0000 0.0000 26.6542 0.0000 0.0000
# 5 0.0000 0.0000 0.0000 0.0000 24.2599 0.0000
# 6 0.0000 0.0000 0.0000 0.0000 0.0000 17.8759
#
#
#
# Elastic Compliance Matrix: (Units=1/GPa)
#
#
# Indices 1 2 3 4 5 6 
#
# 1 0.023902 -0.010163 -0.006564 0.000000 0.000000 0.000000
# 2 -0.010163 0.035987 -0.010946 0.000000 0.000000 0.000000
# 3 -0.006564 -0.010946 0.015494 0.000000 0.000000 0.000000
# 4 0.000000 0.000000 0.000000 0.037518 0.000000 0.000000
# 5 0.000000 0.000000 0.000000 0.000000 0.041220 0.000000
# 6 0.000000 0.000000 0.000000 0.000000 0.000000 0.055941
#
#
# Mechanical properties :
#
#
# Convention : Reuss Voigt Hill
#
# Bulk Modulus (GPa) = 49.90892 63.26443 56.58667
# Shear Modulus (GPa) = 18.37643 20.78395 19.58019
#
# Velocity S-wave (km/s) = 3.42895 3.64666 3.53948
# Velocity P-wave (km/s) = 6.90000 7.62949 7.27390
#
# Compressibility (1/GPa) = 0.02003650
#
# Stress axis : x y z
#
# Youngs Moduli (GPa) = 41.83725 27.78806 64.53971
#
# Poissons Ratio (x) = 0.28242 0.42364
# Poissons Ratio (y) = 0.42520 0.70646
# Poissons Ratio (z) = 0.27462 0.30417
#
# Static dielectric constant tensor:
#      x y z
#    x 2.936280 0.000000 0.000000 
#    y 0.000000 2.958090 0.000000 
#    z 0.000000 0.000000 3.080160 
# 
# 
# High freq. dielectric constant tensor:
#      x y z
#    x 1.577630 0.000000 0.000000 
#    y 0.000000 1.592820 0.000000 
#    z 0.000000 0.000000 1.594390 
# 
# From -- ./inp_files/33326.got.cif
#   From: 2010.03.12/outbox.cif.g09.slc.cpg/sg59_17_cif.got.tgz:33326.got - 2010.04.16 16:29:54.
