data_PCOD8239611
_publ_section_title
;
Structure prediction by ZEFSAII (Michael W. Deem and Ramdas Pophale) SiO2 
 PCOD8239611
Probable space group: P M M N
;
_chemical_formula_sum "Si O2"
_cell_formula_units_Z 48
_cell_length_a 9.043287
_cell_length_b 30.521974
_cell_length_c 9.924569
_cell_angle_alpha 90.000000
_cell_angle_beta 90.000000
_cell_angle_gamma 90.000000
_cell_volume 2739.369320
_symmetry_space_group_name_H-M "P M M N"
_symmetry_group_IT_number 59
_space_group.IT_coordinate_system_code '2'
_symmetry_cell_setting 'orthorhombic'
loop_
_space_group_symop_operation_xyz
x,y,z
1/2-x,1/2-y,z
1/2+x,-y,-z
-x,1/2+y,-z
-x,-y,-z
1/2+x,1/2+y,-z
1/2-x,y,z
x,1/2-y,z
loop_
_atom_site_type_symbol
_atom_site_label
_atom_site_fract_x
_atom_site_fract_y
_atom_site_fract_z
Si Si1 0.086704 0.040224 0.161342
Si Si2 0.425355 0.798333 0.358580
Si Si3 0.085789 0.042353 0.841270
Si Si4 0.424892 0.136364 0.136580
Si Si5 0.426147 0.869764 0.146874
Si Si6 0.581109 0.301259 0.338549
O O1 0.250000 0.031712 0.220579
O O2 0.030798 0.088990 0.200133
O O3 0.092203 0.037828 0.000733
O O4 0.980001 0.002690 0.220881
O O5 0.250000 0.796220 0.354125
O O6 0.488677 0.750000 0.321742
O O7 0.484918 0.833782 0.252923
O O8 0.473377 0.811452 0.509783
O O9 0.250000 0.049191 0.781802
O O10 0.983791 0.083320 0.801025
O O11 0.250000 0.137967 0.108618
O O12 0.471913 0.173774 0.239065
O O13 0.508409 0.143897 0.996502
O O14 0.250000 0.871374 0.137027
O O15 0.750000 0.317043 0.316584
O O16 0.568462 0.250000 0.307295
#
# Coordination Sequence:
#
# PCOD8239611 Si02
#       6
#     8   8   8   8   8   8
#     4   8  15  27  42  62  91 126 159 190 230 280
#     4   8  16  32  52  72  93 121 161 202 235 276
#     4   9  16  26  42  66  96 125 155 195 238 280
#     4  10  20  32  47  72 103 128 155 197 242 282
#     4  10  18  29  49  74  99 128 160 196 239 284
#     4   9  18  34  54  72  92 123 162 199 236 283
#
# _framework density 17.522281
#
# number of rings (size 3 to 8) (size 9 to 14) (size 15 to 20)
#    0.000    3.000    0.000    3.500    0.000    5.667 
#    0.000    3.333    0.000    4.500    0.000    0.000 
#    0.000    0.000    0.000    0.000    0.000    0.000 
#
# Total GULP energy -594978.741231 kJ/mol
# GULP energy per Si atom -12395.390442 kJ/mol
# Density = 1.748240 g / cm^3
# Si number density = 17.522281 Si / 1000 Ang^3
#
#
#
# Elastic Constant Matrix: (Units=GPa)
#
#
# Indices 1 2 3 4 5 6 
#
# 1 81.7445 51.5669 35.1895 0.0000 0.0000 0.0000
# 2 51.5669 120.8957 60.3667 0.0000 0.0000 0.0000
# 3 35.1895 60.3667 63.2335 0.0000 0.0000 0.0000
# 4 0.0000 0.0000 0.0000 2.4312 0.0000 0.0000
# 5 0.0000 0.0000 0.0000 0.0000 8.1045 0.0000
# 6 0.0000 0.0000 0.0000 0.0000 0.0000 28.5937
#
#
#
# Elastic Compliance Matrix: (Units=1/GPa)
#
#
# Indices 1 2 3 4 5 6 
#
# 1 0.017527 -0.004979 -0.005000 0.000000 0.000000 0.000000
# 2 -0.004979 0.017221 -0.013669 0.000000 0.000000 0.000000
# 3 -0.005000 -0.013669 0.031647 0.000000 0.000000 0.000000
# 4 0.000000 0.000000 0.000000 0.411320 0.000000 0.000000
# 5 0.000000 0.000000 0.000000 0.000000 0.123388 0.000000
# 6 0.000000 0.000000 0.000000 0.000000 0.000000 0.034973
#
#
# Mechanical properties :
#
#
# Convention : Reuss Voigt Hill
#
# Bulk Modulus (GPa) = 52.36445 62.23555 57.30000
# Shear Modulus (GPa) = 7.24913 15.74259 11.49586
#
# Velocity S-wave (km/s) = 2.03619 3.00064 2.56417
# Velocity P-wave (km/s) = 5.95630 6.89929 6.44506
#
# Compressibility (1/GPa) = 0.01909693
#
# Stress axis : x y z
#
# Youngs Moduli (GPa) = 57.05577 58.06932 31.59897
#
# Poissons Ratio (x) = 0.28913 0.15801
# Poissons Ratio (y) = 0.28408 0.43193
# Poissons Ratio (z) = 0.28530 0.79376
#
# Static dielectric constant tensor:
#      x y z
#    x 3.219700 0.000000 0.000000 
#    y 0.000000 3.627140 0.000000 
#    z 0.000000 0.000000 2.943950 
# 
# 
# High freq. dielectric constant tensor:
#      x y z
#    x 1.670150 0.000000 0.000000 
#    y 0.000000 1.690270 0.000000 
#    z 0.000000 0.000000 1.633270 
# 
# From -- ./inp_files/6294.got.cif
#   From: 2010.03.12/outbox.cif.g09.slc.cpg/sg59_4_cif.got.tgz:6294.got - 2010.04.16 16:29:54.
