data_PCOD8239166
_publ_section_title
;
Structure prediction by ZEFSAII (Michael W. Deem and Ramdas Pophale) SiO2 
 PCOD8239166
Probable space group: P M M N
;
_chemical_formula_sum "Si O2"
_cell_formula_units_Z 64
_cell_length_a 23.691803
_cell_length_b 8.833960
_cell_length_c 15.354283
_cell_angle_alpha 90.000000
_cell_angle_beta 90.000000
_cell_angle_gamma 90.000000
_cell_volume 3213.535354
_symmetry_space_group_name_H-M "P M M N"
_symmetry_group_IT_number 59
_space_group.IT_coordinate_system_code '2'
_symmetry_cell_setting 'orthorhombic'
loop_
_space_group_symop_operation_xyz
x,y,z
1/2-x,1/2-y,z
1/2+x,-y,-z
-x,1/2+y,-z
-x,-y,-z
1/2+x,1/2+y,-z
1/2-x,y,z
x,1/2-y,z
loop_
_atom_site_type_symbol
_atom_site_label
_atom_site_fract_x
_atom_site_fract_y
_atom_site_fract_z
Si Si1 0.373334 0.929466 0.950135
Si Si2 0.314922 0.426540 0.452995
Si Si3 0.388515 0.074949 0.122084
Si Si4 0.115230 0.928746 0.308522
Si Si5 0.015649 0.575549 0.864552
Si Si6 0.499915 0.427402 0.326513
Si Si7 0.880305 0.072805 0.390577
Si Si8 0.687386 0.070585 0.222544
O O1 0.371167 0.750000 0.963582
O O2 0.436021 0.992984 0.926292
O O3 0.332900 0.985656 0.872238
O O4 0.353594 0.005665 0.041039
O O5 0.250000 0.464833 0.474018
O O6 0.324134 0.250000 0.435554
O O7 0.332605 0.517606 0.367012
O O8 0.353040 0.476004 0.533629
O O9 0.373377 0.250000 0.134454
O O10 0.453907 0.049295 0.096002
O O11 0.374476 0.991793 0.211834
O O12 0.113408 0.750000 0.304244
O O13 0.057376 0.987464 0.354334
O O14 0.031521 0.750000 0.853644
O O15 0.017859 0.505997 0.767594
O O16 0.485062 0.250000 0.320030
O O17 0.552096 0.457224 0.391684
O O18 0.867445 0.250000 0.405608
O O19 0.854257 0.015568 0.298982
O O20 0.750000 0.005527 0.240030
O O21 0.687816 0.250000 0.221822
#
# Coordination Sequence:
#
# PCOD8239166 Si02
#       8
#     8   8   8   8   8   8   8   8
#     4  10  17  29  50  77 110 148 192 235 276 330
#     4  11  25  44  64  86 114 149 189 237 293 348
#     4  10  20  34  53  78 111 148 187 235 290 343
#     4  11  23  40  62  87 114 148 193 244 290 344
#     4   8  14  27  48  75 109 146 183 226 276 331
#     4   9  17  33  57  87 123 158 187 228 289 347
#     4  10  19  35  62  91 119 152 192 236 282 340
#     4   9  17  30  52  82 115 151 191 236 282 329
#
# _framework density 19.915759999999999
#
# number of rings (size 3 to 8) (size 9 to 14) (size 15 to 20)
#    0.000    2.250    1.250    3.375    0.000    2.500 
#    0.000    3.750    0.000    3.375    0.000    0.000 
#    0.000    0.000    0.000    0.000    0.000    0.000 
#
# Total GULP energy -793384.683023 kJ/mol
# GULP energy per Si atom -12396.635672 kJ/mol
# Density = 1.987043 g / cm^3
# Si number density = 19.915760 Si / 1000 Ang^3
#
#
#
# Elastic Constant Matrix: (Units=GPa)
#
#
# Indices 1 2 3 4 5 6 
#
# 1 45.6004 24.2418 30.0065 0.0000 0.0000 0.0000
# 2 24.2418 80.5931 39.3999 0.0000 0.0000 0.0000
# 3 30.0065 39.3999 99.8742 0.0000 0.0000 0.0000
# 4 0.0000 0.0000 0.0000 30.5321 0.0000 0.0000
# 5 0.0000 0.0000 0.0000 0.0000 23.6859 0.0000
# 6 0.0000 0.0000 0.0000 0.0000 0.0000 20.4097
#
#
#
# Elastic Compliance Matrix: (Units=1/GPa)
#
#
# Indices 1 2 3 4 5 6 
#
# 1 0.029223 -0.005572 -0.006581 0.000000 0.000000 0.000000
# 2 -0.005572 0.016435 -0.004809 0.000000 0.000000 0.000000
# 3 -0.006581 -0.004809 0.013887 0.000000 0.000000 0.000000
# 4 0.000000 0.000000 0.000000 0.032752 0.000000 0.000000
# 5 0.000000 0.000000 0.000000 0.000000 0.042219 0.000000
# 6 0.000000 0.000000 0.000000 0.000000 0.000000 0.048996
#
#
# Mechanical properties :
#
#
# Convention : Reuss Voigt Hill
#
# Bulk Modulus (GPa) = 39.03406 45.92931 42.48169
# Shear Modulus (GPa) = 22.12586 23.75351 22.93969
#
# Velocity S-wave (km/s) = 3.33674 3.45729 3.39755
# Velocity P-wave (km/s) = 5.87259 6.24892 6.06367
#
# Compressibility (1/GPa) = 0.02561865
#
# Stress axis : x y z
#
# Youngs Moduli (GPa) = 34.21981 60.84426 72.00845
#
# Poissons Ratio (x) = 0.33905 0.47392
# Poissons Ratio (y) = 0.19069 0.34632
# Poissons Ratio (z) = 0.22522 0.29263
#
# Static dielectric constant tensor:
#      x y z
#    x 3.705970 0.000000 0.000000 
#    y 0.000000 3.284530 0.000000 
#    z 0.000000 0.000000 3.605240 
# 
# 
# High freq. dielectric constant tensor:
#      x y z
#    x 1.766260 0.000000 0.000000 
#    y 0.000000 1.745640 0.000000 
#    z 0.000000 0.000000 1.782830 
# 
# From -- ./inp_files/24758.got.cif
#   From: 2010.03.12/outbox.cif.g09.slc.cpg/sg59_13_cif.got.tgz:24758.got - 2010.04.16 16:29:54.
