data_PCOD8239914
_publ_section_title
;
Structure prediction by ZEFSAII (Michael W. Deem and Ramdas Pophale) SiO2 
 PCOD8239914
Probable space group: P M M N
;
_chemical_formula_sum "Si O2"
_cell_formula_units_Z 64
_cell_length_a 19.838870
_cell_length_b 9.182033
_cell_length_c 19.934106
_cell_angle_alpha 90.000000
_cell_angle_beta 90.000000
_cell_angle_gamma 90.000000
_cell_volume 3631.219853
_symmetry_space_group_name_H-M "P M M N"
_symmetry_group_IT_number 59
_space_group.IT_coordinate_system_code '2'
_symmetry_cell_setting 'orthorhombic'
loop_
_space_group_symop_operation_xyz
x,y,z
1/2-x,1/2-y,z
1/2+x,-y,-z
-x,1/2+y,-z
-x,-y,-z
1/2+x,1/2+y,-z
1/2-x,y,z
x,1/2-y,z
loop_
_atom_site_type_symbol
_atom_site_label
_atom_site_fract_x
_atom_site_fract_y
_atom_site_fract_z
Si Si1 0.325618 0.581931 0.420632
Si Si2 0.327231 0.579309 0.052224
Si Si3 0.565959 0.421707 0.474427
Si Si4 0.957379 0.078741 0.327939
Si Si5 0.583046 0.916269 0.842633
Si Si6 0.172373 0.420151 0.914870
Si Si7 0.572661 0.420314 0.183010
Si Si8 0.394807 0.082009 0.309459
O O1 0.250000 0.553084 0.444502
O O2 0.340298 0.750000 0.407504
O O3 0.371969 0.522414 0.481017
O O4 0.337618 0.501807 0.350341
O O5 0.250000 0.544286 0.073106
O O6 0.338095 0.750000 0.041247
O O7 0.378520 0.525093 0.108483
O O8 0.346342 0.498888 0.983829
O O9 0.500000 0.500000 0.500000
O O10 0.554310 0.250000 0.480449
O O11 0.581495 0.463231 0.396432
O O12 0.966525 0.250000 0.318218
O O13 0.919625 0.025202 0.260579
O O14 0.033089 0.014834 0.331826
O O15 0.594939 0.750000 0.865812
O O16 0.503362 0.950858 0.842231
O O17 0.615333 0.941153 0.769586
O O18 0.250000 0.449571 0.895252
O O19 0.157666 0.250000 0.923558
O O20 0.125453 0.483902 0.857225
O O21 0.590455 0.250000 0.174957
O O22 0.389065 0.250000 0.329098
#
# Coordination Sequence:
#
# PCOD8239914 Si02
#       8
#     8   8   8   8   8   8   8   8
#     4  10  21  33  45  70 107 138 167 210 260 306
#     4  10  21  36  54  76 102 136 178 217 253 304
#     4  10  18  31  53  75  98 132 173 214 255 302
#     4   8  15  30  52  76 100 125 164 214 254 294
#     4   9  19  34  53  78 107 136 169 213 261 306
#     4  10  21  37  56  77 103 136 172 212 260 311
#     4   9  18  34  55  79 105 133 169 215 260 307
#     4   9  17  32  52  72  97 132 172 208 246 299
#
# _framework density 17.624932000000001
#
# number of rings (size 3 to 8) (size 9 to 14) (size 15 to 20)
#    0.000    2.625    1.250    2.250    0.000    3.750 
#    0.000    5.625    0.000    2.250    0.000    0.000 
#    0.000    0.000    0.000    0.000    0.000    0.000 
#
# Total GULP energy -793437.691046 kJ/mol
# GULP energy per Si atom -12397.463923 kJ/mol
# Density = 1.758482 g / cm^3
# Si number density = 17.624932 Si / 1000 Ang^3
#
#
#
# Elastic Constant Matrix: (Units=GPa)
#
#
# Indices 1 2 3 4 5 6 
#
# 1 90.6534 48.6946 72.3647 0.0000 0.0000 0.0000
# 2 48.6946 68.0340 57.8247 0.0000 0.0000 0.0000
# 3 72.3647 57.8247 131.3424 0.0000 0.0000 0.0000
# 4 0.0000 0.0000 0.0000 28.2996 0.0000 0.0000
# 5 0.0000 0.0000 0.0000 0.0000 31.4382 0.0000
# 6 0.0000 0.0000 0.0000 0.0000 0.0000 28.6297
#
#
#
# Elastic Compliance Matrix: (Units=1/GPa)
#
#
# Indices 1 2 3 4 5 6 
#
# 1 0.022662 -0.008961 -0.008541 0.000000 0.000000 0.000000
# 2 -0.008961 0.027031 -0.006963 0.000000 0.000000 0.000000
# 3 -0.008541 -0.006963 0.015385 0.000000 0.000000 0.000000
# 4 0.000000 0.000000 0.000000 0.035336 0.000000 0.000000
# 5 0.000000 0.000000 0.000000 0.000000 0.031808 0.000000
# 6 0.000000 0.000000 0.000000 0.000000 0.000000 0.034929
#
#
# Mechanical properties :
#
#
# Convention : Reuss Voigt Hill
#
# Bulk Modulus (GPa) = 61.92894 71.97752 66.95323
# Shear Modulus (GPa) = 22.57699 25.08324 23.83012
#
# Velocity S-wave (km/s) = 3.58295 3.77658 3.68104
# Velocity P-wave (km/s) = 7.23395 7.74234 7.49246
#
# Compressibility (1/GPa) = 0.01614754
#
# Stress axis : x y z
#
# Youngs Moduli (GPa) = 44.12610 36.99494 64.99832
#
# Poissons Ratio (x) = 0.33152 0.55514
# Poissons Ratio (y) = 0.39542 0.45260
# Poissons Ratio (z) = 0.37687 0.25761
#
# Static dielectric constant tensor:
#      x y z
#    x 3.177830 0.000000 0.000000 
#    y 0.000000 3.125370 0.000000 
#    z 0.000000 0.000000 3.441280 
# 
# 
# High freq. dielectric constant tensor:
#      x y z
#    x 1.668800 0.000000 0.000000 
#    y 0.000000 1.668870 0.000000 
#    z 0.000000 0.000000 1.690400 
# 
# From -- ./inp_files/26352.got.cif
#   From: 2010.03.12/outbox.cif.g09.slc.cpg/sg59_14_cif.got.tgz:26352.got - 2010.04.16 16:29:54.
