data_PCOD8239125
_publ_section_title
;
Structure prediction by ZEFSAII (Michael W. Deem and Ramdas Pophale) SiO2 
 PCOD8239125
Probable space group: P M M N
;
_chemical_formula_sum "Si O2"
_cell_formula_units_Z 56
_cell_length_a 9.134223
_cell_length_b 26.952248
_cell_length_c 14.437230
_cell_angle_alpha 90.000000
_cell_angle_beta 90.000000
_cell_angle_gamma 90.000000
_cell_volume 3554.270521
_symmetry_space_group_name_H-M "P M M N"
_symmetry_group_IT_number 59
_space_group.IT_coordinate_system_code '2'
_symmetry_cell_setting 'orthorhombic'
loop_
_space_group_symop_operation_xyz
x,y,z
1/2-x,1/2-y,z
1/2+x,-y,-z
-x,1/2+y,-z
-x,-y,-z
1/2+x,1/2+y,-z
1/2-x,y,z
x,1/2-y,z
loop_
_atom_site_type_symbol
_atom_site_label
_atom_site_fract_x
_atom_site_fract_y
_atom_site_fract_z
Si Si1 0.421080 0.879294 0.261471
Si Si2 0.078760 0.042958 0.383940
Si Si3 0.081351 0.933919 0.441071
Si Si4 0.083082 0.458546 0.858713
Si Si5 0.086365 0.380930 0.013961
Si Si6 0.575982 0.692953 0.135600
Si Si7 0.924570 0.942658 0.823218
O O1 0.250000 0.875862 0.237422
O O2 0.445824 0.887906 0.371341
O O3 0.488383 0.926961 0.212609
O O4 0.501685 0.829084 0.228310
O O5 0.250000 0.048730 0.396078
O O6 0.029022 0.063770 0.283815
O O7 0.004900 0.076150 0.463844
O O8 0.028976 0.985545 0.393432
O O9 0.250000 0.938530 0.467503
O O10 0.250000 0.463121 0.822601
O O11 0.009205 0.511658 0.868562
O O12 0.080363 0.432447 0.958332
O O13 0.250000 0.361619 0.027725
O O14 0.024477 0.393893 0.116872
O O15 0.009975 0.336781 0.954194
O O16 0.750000 0.684959 0.145187
O O17 0.532323 0.750000 0.125164
O O18 0.750000 0.951397 0.832685
#
# Coordination Sequence:
#
# PCOD8239125 Si02
#       7
#     8   8   8   8   8   8   8
#     4  10  18  30  47  66  89 117 151 185 221 265
#     4   9  17  27  40  59  84 118 154 184 215 250
#     4   9  17  29  41  59  85 115 150 185 219 253
#     4  10  18  27  40  62  89 119 152 179 215 259
#     4   8  16  28  43  62  85 116 147 177 216 262
#     4   9  18  33  50  70  93 113 140 180 225 271
#     4  10  17  28  42  59  87 119 153 186 215 254
#
# _framework density 15.755694999999999
#
# number of rings (size 3 to 8) (size 9 to 14) (size 15 to 20)
#    0.000    2.714    1.429    2.143    0.000    2.000 
#    0.000    2.857    0.000    0.000    0.000    1.000 
#    0.000    3.429    0.000    0.000    0.000    0.000 
#
# Total GULP energy -693905.184070 kJ/mol
# GULP energy per Si atom -12391.164001 kJ/mol
# Density = 1.571983 g / cm^3
# Si number density = 15.755695 Si / 1000 Ang^3
#
#
#
# Elastic Constant Matrix: (Units=GPa)
#
#
# Indices 1 2 3 4 5 6 
#
# 1 42.8297 31.0195 34.7287 0.0000 0.0000 0.0000
# 2 31.0195 85.9482 54.2943 0.0000 0.0000 0.0000
# 3 34.7287 54.2943 114.4504 0.0000 0.0000 0.0000
# 4 0.0000 0.0000 0.0000 14.5138 0.0000 0.0000
# 5 0.0000 0.0000 0.0000 0.0000 20.8588 0.0000
# 6 0.0000 0.0000 0.0000 0.0000 0.0000 17.8683
#
#
#
# Elastic Compliance Matrix: (Units=1/GPa)
#
#
# Indices 1 2 3 4 5 6 
#
# 1 0.034750 -0.008397 -0.006561 0.000000 0.000000 0.000000
# 2 -0.008397 0.018643 -0.006296 0.000000 0.000000 0.000000
# 3 -0.006561 -0.006296 0.013715 0.000000 0.000000 0.000000
# 4 0.000000 0.000000 0.000000 0.068900 0.000000 0.000000
# 5 0.000000 0.000000 0.000000 0.000000 0.047941 0.000000
# 6 0.000000 0.000000 0.000000 0.000000 0.000000 0.055965
#
#
# Mechanical properties :
#
#
# Convention : Reuss Voigt Hill
#
# Bulk Modulus (GPa) = 40.65084 53.70146 47.17615
# Shear Modulus (GPa) = 17.20451 18.86057 18.03254
#
# Velocity S-wave (km/s) = 3.30806 3.46361 3.38673
# Velocity P-wave (km/s) = 6.35985 7.08190 6.73057
#
# Compressibility (1/GPa) = 0.02459974
#
# Stress axis : x y z
#
# Youngs Moduli (GPa) = 28.77720 53.64046 72.91266
#
# Poissons Ratio (x) = 0.45041 0.47838
# Poissons Ratio (y) = 0.24164 0.45906
# Poissons Ratio (z) = 0.18881 0.33772
#
# Static dielectric constant tensor:
#      x y z
#    x 2.933690 0.000000 0.000000 
#    y 0.000000 2.756480 0.000000 
#    z 0.000000 0.000000 3.169410 
# 
# 
# High freq. dielectric constant tensor:
#      x y z
#    x 1.597190 0.000000 0.000000 
#    y 0.000000 1.559640 0.000000 
#    z 0.000000 0.000000 1.606710 
# 
# From -- ./inp_files/21770.got.cif
#   From: 2010.03.12/outbox.cif.g09.slc.cpg/sg59_11_cif.got.tgz:21770.got - 2010.04.16 16:29:54.
