data_PCOD8239982
_publ_section_title
;
Structure prediction by ZEFSAII (Michael W. Deem and Ramdas Pophale) SiO2 
 PCOD8239982
Probable space group: P M M N
;
_chemical_formula_sum "Si O2"
_cell_formula_units_Z 64
_cell_length_a 31.343328
_cell_length_b 8.815389
_cell_length_c 12.209988
_cell_angle_alpha 90.000000
_cell_angle_beta 90.000000
_cell_angle_gamma 90.000000
_cell_volume 3373.663993
_symmetry_space_group_name_H-M "P M M N"
_symmetry_group_IT_number 59
_space_group.IT_coordinate_system_code '2'
_symmetry_cell_setting 'orthorhombic'
loop_
_space_group_symop_operation_xyz
x,y,z
1/2-x,1/2-y,z
1/2+x,-y,-z
-x,1/2+y,-z
-x,-y,-z
1/2+x,1/2+y,-z
1/2-x,y,z
x,1/2-y,z
loop_
_atom_site_type_symbol
_atom_site_label
_atom_site_fract_x
_atom_site_fract_y
_atom_site_fract_z
Si Si1 0.201541 0.075878 0.241116
Si Si2 0.867527 0.928801 0.593370
Si Si3 0.890106 0.930073 0.359037
Si Si4 0.547209 0.430161 0.988010
Si Si5 0.936492 0.076932 0.743046
Si Si6 0.983211 0.923753 0.392248
Si Si7 0.700975 0.427508 0.986493
Si Si8 0.624906 0.570100 0.118954
O O1 0.250000 0.059734 0.278217
O O2 0.190241 0.250000 0.210708
O O3 0.174512 0.014445 0.343719
O O4 0.190889 0.970726 0.138247
O O5 0.867973 0.750000 0.584838
O O6 0.867419 0.996053 0.469241
O O7 0.908505 0.974571 0.663549
O O8 0.890115 0.750000 0.363339
O O9 0.938145 0.995070 0.357741
O O10 0.868389 0.981788 0.245554
O O11 0.543235 0.250000 0.002402
O O12 0.581364 0.495787 0.073900
O O13 0.500000 0.500000 0.000000
O O14 0.566896 0.472467 0.869330
O O15 0.921747 0.250000 0.727019
O O16 0.985619 0.053874 0.710169
O O17 0.977008 0.750000 0.423212
O O18 0.000000 0.000000 0.500000
O O19 0.750000 0.472190 0.015959
O O20 0.693138 0.250000 0.001882
O O21 0.668235 0.517810 0.061555
O O22 0.619780 0.750000 0.106888
#
# Coordination Sequence:
#
# PCOD8239982 Si02
#       8
#     8   8   8   8   8   8   8   8
#     4   9  18  33  55  83 110 135 170 219 273 329
#     4  10  19  33  54  78 104 137 176 217 264 320
#     4   9  19  35  53  75 108 145 180 223 272 322
#     4  11  23  39  57  80 113 151 190 233 282 335
#     4  10  21  34  51  76 106 137 173 222 274 318
#     4  10  18  32  51  72 101 137 175 214 258 310
#     4  10  21  38  60  85 113 145 184 232 285 340
#     4  11  22  38  59  82 113 152 191 234 284 337
#
# _framework density 18.970472999999998
#
# number of rings (size 3 to 8) (size 9 to 14) (size 15 to 20)
#    0.000    2.000    1.250    2.625    0.000    6.250 
#    0.000    4.375    0.000    2.250    0.000    1.750 
#    0.000    0.000    0.000    0.000    0.000    0.000 
#
# Total GULP energy -793376.437739 kJ/mol
# GULP energy per Si atom -12396.506840 kJ/mol
# Density = 1.892730 g / cm^3
# Si number density = 18.970473 Si / 1000 Ang^3
#
#
#
# Elastic Constant Matrix: (Units=GPa)
#
#
# Indices 1 2 3 4 5 6 
#
# 1 114.4804 32.2218 72.5547 0.0000 0.0000 0.0000
# 2 32.2218 48.2372 33.7987 0.0000 0.0000 0.0000
# 3 72.5547 33.7987 150.1006 0.0000 0.0000 0.0000
# 4 0.0000 0.0000 0.0000 21.6536 0.0000 0.0000
# 5 0.0000 0.0000 0.0000 0.0000 33.8159 0.0000
# 6 0.0000 0.0000 0.0000 0.0000 0.0000 27.9826
#
#
#
# Elastic Compliance Matrix: (Units=1/GPa)
#
#
# Indices 1 2 3 4 5 6 
#
# 1 0.013661 -0.005341 -0.005401 0.000000 0.000000 0.000000
# 2 -0.005341 0.026703 -0.003431 0.000000 0.000000 0.000000
# 3 -0.005401 -0.003431 0.010045 0.000000 0.000000 0.000000
# 4 0.000000 0.000000 0.000000 0.046182 0.000000 0.000000
# 5 0.000000 0.000000 0.000000 0.000000 0.029572 0.000000
# 6 0.000000 0.000000 0.000000 0.000000 0.000000 0.035736
#
#
# Mechanical properties :
#
#
# Convention : Reuss Voigt Hill
#
# Bulk Modulus (GPa) = 45.32399 65.55206 55.43802
# Shear Modulus (GPa) = 25.30361 28.30663 26.80512
#
# Velocity S-wave (km/s) = 3.65614 3.86702 3.76306
# Velocity P-wave (km/s) = 6.46273 7.38703 6.94028
#
# Compressibility (1/GPa) = 0.02206337
#
# Stress axis : x y z
#
# Youngs Moduli (GPa) = 73.19882 37.44927 99.54847
#
# Poissons Ratio (x) = 0.20003 0.53764
# Poissons Ratio (y) = 0.39098 0.34154
# Poissons Ratio (z) = 0.39533 0.12848
#
# Static dielectric constant tensor:
#      x y z
#    x 3.590740 0.000000 0.000000 
#    y 0.000000 3.669340 0.000000 
#    z 0.000000 0.000000 3.547690 
# 
# 
# High freq. dielectric constant tensor:
#      x y z
#    x 1.736920 0.000000 0.000000 
#    y 0.000000 1.722580 0.000000 
#    z 0.000000 0.000000 1.745520 
# 
# From -- ./inp_files/19215.got.cif
#   From: 2010.03.12/outbox.cif.g09.slc.cpg/sg59_10_cif.got.tgz:19215.got - 2010.04.16 16:29:54.
