data_PCOD8239661
_publ_section_title
;
Structure prediction by ZEFSAII (Michael W. Deem and Ramdas Pophale) SiO2 
 PCOD8239661
Probable space group: P M M N
;
_chemical_formula_sum "Si O2"
_cell_formula_units_Z 64
_cell_length_a 8.969337
_cell_length_b 28.465210
_cell_length_c 15.529137
_cell_angle_alpha 90.000000
_cell_angle_beta 90.000000
_cell_angle_gamma 90.000000
_cell_volume 3964.807035
_symmetry_space_group_name_H-M "P M M N"
_symmetry_group_IT_number 59
_space_group.IT_coordinate_system_code '2'
_symmetry_cell_setting 'orthorhombic'
loop_
_space_group_symop_operation_xyz
x,y,z
1/2-x,1/2-y,z
1/2+x,-y,-z
-x,1/2+y,-z
-x,-y,-z
1/2+x,1/2+y,-z
1/2-x,y,z
x,1/2-y,z
loop_
_atom_site_type_symbol
_atom_site_label
_atom_site_fract_x
_atom_site_fract_y
_atom_site_fract_z
Si Si1 0.574910 0.548061 0.400231
Si Si2 0.573040 0.197534 0.500176
Si Si3 0.074837 0.451074 0.400760
Si Si4 0.085475 0.194244 0.994964
Si Si5 0.427273 0.861348 0.336466
Si Si6 0.074713 0.195551 0.186229
Si Si7 0.926759 0.139609 0.336011
Si Si8 0.574254 0.302981 0.827129
O O1 0.750000 0.543860 0.384449
O O2 0.537037 0.559391 0.499572
O O3 0.498025 0.499843 0.371605
O O4 0.506618 0.588480 0.340564
O O5 0.750000 0.200014 0.500505
O O6 0.505299 0.250000 0.501007
O O7 0.516086 0.170286 0.584210
O O8 0.515180 0.171237 0.415246
O O9 0.250000 0.453622 0.384127
O O10 0.003298 0.410999 0.341837
O O11 0.250000 0.173793 0.977485
O O12 0.090950 0.250000 0.995280
O O13 0.979468 0.175820 0.918557
O O14 0.030162 0.178696 0.089695
O O15 0.250000 0.868372 0.338918
O O16 0.482789 0.836037 0.249614
O O17 0.250000 0.187557 0.202662
O O18 0.033297 0.250000 0.200893
O O19 0.975658 0.164116 0.248394
O O20 0.750000 0.133261 0.338043
O O21 0.750000 0.301827 0.827858
O O22 0.512181 0.250000 0.812833
#
# Coordination Sequence:
#
# PCOD8239661 Si02
#       8
#     8   8   8   8   8   8   8   8
#     4  10  20  33  50  70  92 118 157 203 243 279
#     4   9  17  28  42  62  92 129 163 190 220 266
#     4  10  20  34  51  68  91 122 158 198 244 287
#     4   8  15  29  47  65  89 124 161 198 241 282
#     4  10  18  30  47  67  95 129 161 192 234 282
#     4   9  18  32  48  67  95 130 164 198 239 285
#     4  11  20  30  47  71  97 125 161 199 237 279
#     4   9  17  28  45  70  97 126 161 199 235 274
#
# _framework density 16.142022000000001
#
# number of rings (size 3 to 8) (size 9 to 14) (size 15 to 20)
#    0.000    2.500    1.250    2.625    0.000    4.250 
#    0.000    1.250    0.000    1.875    0.000    0.875 
#    0.000    0.000    0.000    0.000    0.000    0.000 
#
# Total GULP energy -793568.065887 kJ/mol
# GULP energy per Si atom -12399.501029 kJ/mol
# Density = 1.610528 g / cm^3
# Si number density = 16.142022 Si / 1000 Ang^3
#
#
#
# Elastic Constant Matrix: (Units=GPa)
#
#
# Indices 1 2 3 4 5 6 
#
# 1 50.7479 40.3937 34.8038 0.0000 0.0000 0.0000
# 2 40.3937 110.1300 56.2008 0.0000 0.0000 0.0000
# 3 34.8038 56.2008 117.0006 0.0000 0.0000 0.0000
# 4 0.0000 0.0000 0.0000 11.7924 0.0000 0.0000
# 5 0.0000 0.0000 0.0000 0.0000 25.1959 0.0000
# 6 0.0000 0.0000 0.0000 0.0000 0.0000 24.4565
#
#
#
# Elastic Compliance Matrix: (Units=1/GPa)
#
#
# Indices 1 2 3 4 5 6 
#
# 1 0.029716 -0.008463 -0.004774 0.000000 0.000000 0.000000
# 2 -0.008463 0.014439 -0.004418 0.000000 0.000000 0.000000
# 3 -0.004774 -0.004418 0.012089 0.000000 0.000000 0.000000
# 4 0.000000 0.000000 0.000000 0.084801 0.000000 0.000000
# 5 0.000000 0.000000 0.000000 0.000000 0.039689 0.000000
# 6 0.000000 0.000000 0.000000 0.000000 0.000000 0.040889
#
#
# Mechanical properties :
#
#
# Convention : Reuss Voigt Hill
#
# Bulk Modulus (GPa) = 47.77095 60.07500 53.92297
# Shear Modulus (GPa) = 18.94578 22.05430 20.50004
#
# Velocity S-wave (km/s) = 3.42964 3.70031 3.56754
# Velocity P-wave (km/s) = 6.73362 7.45344 7.10265
#
# Compressibility (1/GPa) = 0.02093322
#
# Stress axis : x y z
#
# Youngs Moduli (GPa) = 33.65231 69.25759 82.71650
#
# Poissons Ratio (x) = 0.58611 0.39492
# Poissons Ratio (y) = 0.28479 0.36546
# Poissons Ratio (z) = 0.16067 0.30600
#
# Static dielectric constant tensor:
#      x y z
#    x 2.935300 0.000000 0.000000 
#    y 0.000000 2.976030 0.000000 
#    z 0.000000 0.000000 3.118670 
# 
# 
# High freq. dielectric constant tensor:
#      x y z
#    x 1.613610 0.000000 0.000000 
#    y 0.000000 1.603750 0.000000 
#    z 0.000000 0.000000 1.610550 
# 
# From -- ./inp_files/21949.got.cif
#   From: 2010.03.12/outbox.cif.g09.slc.cpg/sg59_11_cif.got.tgz:21949.got - 2010.04.16 16:29:54.
