data_PCOD8239404
_publ_section_title
;
Structure prediction by ZEFSAII (Michael W. Deem and Ramdas Pophale) SiO2 
 PCOD8239404
Probable space group: P M M N
;
_chemical_formula_sum "Si O2"
_cell_formula_units_Z 64
_cell_length_a 17.568635
_cell_length_b 18.439323
_cell_length_c 12.090337
_cell_angle_alpha 90.000000
_cell_angle_beta 90.000000
_cell_angle_gamma 90.000000
_cell_volume 3916.709834
_symmetry_space_group_name_H-M "P M M N"
_symmetry_group_IT_number 59
_space_group.IT_coordinate_system_code '2'
_symmetry_cell_setting 'orthorhombic'
loop_
_space_group_symop_operation_xyz
x,y,z
1/2-x,1/2-y,z
1/2+x,-y,-z
-x,1/2+y,-z
-x,-y,-z
1/2+x,1/2+y,-z
1/2-x,y,z
x,1/2-y,z
loop_
_atom_site_type_symbol
_atom_site_label
_atom_site_fract_x
_atom_site_fract_y
_atom_site_fract_z
Si Si1 0.461250 0.542110 0.754597
Si Si2 0.386034 0.045459 0.127177
Si Si3 0.479210 0.164753 0.401571
Si Si4 0.665683 0.832062 0.735408
Si Si5 0.663504 0.076455 0.711147
Si Si6 0.160042 0.670494 0.088218
Si Si7 0.340003 0.544453 0.930002
Si Si8 0.015650 0.936450 0.415839
O O1 0.523517 0.544609 0.852405
O O2 0.467415 0.612748 0.674308
O O3 0.378255 0.542793 0.809649
O O4 0.471729 0.463752 0.694069
O O5 0.354227 0.125119 0.152709
O O6 0.341110 0.994603 0.213273
O O7 0.365973 0.025294 0.001431
O O8 0.502327 0.250000 0.391204
O O9 0.392428 0.150653 0.364369
O O10 0.485859 0.138833 0.529917
O O11 0.750000 0.850366 0.690563
O O12 0.658426 0.750000 0.773768
O O13 0.750000 0.084587 0.666293
O O14 0.638892 0.144224 0.788333
O O15 0.605908 0.072182 0.608110
O O16 0.250000 0.673230 0.077597
O O17 0.123864 0.750000 0.068838
O O18 0.129599 0.615736 0.994768
O O19 0.250000 0.544357 0.912426
O O20 0.000000 0.000000 0.500000
#
# Coordination Sequence:
#
# PCOD8239404 Si02
#       8
#     8   8   8   8   8   8   8   8
#     4   9  18  31  46  65  89 117 147 182 220 259
#     4   9  16  28  46  66  89 115 145 180 220 260
#     4   9  18  32  48  65  87 115 146 182 225 269
#     4   9  16  27  46  70  89 106 138 187 233 265
#     4   9  16  27  46  67  84 108 146 189 224 257
#     4   8  15  27  42  64  91 114 141 179 217 249
#     4  10  18  28  45  67  92 123 151 173 205 257
#     4   9  18  32  46  62  87 116 145 181 226 265
#
# _framework density 16.340244999999999
#
# number of rings (size 3 to 8) (size 9 to 14) (size 15 to 20)
#    0.000    3.000    0.000    3.000    0.000    1.000 
#    0.000    3.125    0.000    1.500    0.000    0.000 
#    0.000    0.000    0.000    0.000    0.000    0.000 
#
# Total GULP energy -793109.370112 kJ/mol
# GULP energy per Si atom -12392.333908 kJ/mol
# Density = 1.630305 g / cm^3
# Si number density = 16.340245 Si / 1000 Ang^3
#
#
#
# Elastic Constant Matrix: (Units=GPa)
#
#
# Indices 1 2 3 4 5 6 
#
# 1 80.0381 40.5223 53.7302 0.0000 0.0000 0.0000
# 2 40.5223 82.3798 42.8962 0.0000 0.0000 0.0000
# 3 53.7302 42.8962 77.6148 0.0000 0.0000 0.0000
# 4 0.0000 0.0000 0.0000 19.1429 0.0000 0.0000
# 5 0.0000 0.0000 0.0000 0.0000 25.7897 0.0000
# 6 0.0000 0.0000 0.0000 0.0000 0.0000 17.9678
#
#
#
# Elastic Compliance Matrix: (Units=1/GPa)
#
#
# Indices 1 2 3 4 5 6 
#
# 1 0.024483 -0.004518 -0.014452 0.000000 0.000000 0.000000
# 2 -0.004518 0.017878 -0.006753 0.000000 0.000000 0.000000
# 3 -0.014452 -0.006753 0.026621 0.000000 0.000000 0.000000
# 4 0.000000 0.000000 0.000000 0.052239 0.000000 0.000000
# 5 0.000000 0.000000 0.000000 0.000000 0.038775 0.000000
# 6 0.000000 0.000000 0.000000 0.000000 0.000000 0.055655
#
#
# Mechanical properties :
#
#
# Convention : Reuss Voigt Hill
#
# Bulk Modulus (GPa) = 57.02529 57.14779 57.08654
# Shear Modulus (GPa) = 18.31896 19.43903 18.87899
#
# Velocity S-wave (km/s) = 3.35191 3.45286 3.40276
# Velocity P-wave (km/s) = 7.06787 7.13764 7.10284
#
# Compressibility (1/GPa) = 0.01753608
#
# Stress axis : x y z
#
# Youngs Moduli (GPa) = 40.84466 55.93594 37.56438
#
# Poissons Ratio (x) = 0.25271 0.54288
# Poissons Ratio (y) = 0.18453 0.25367
# Poissons Ratio (z) = 0.59028 0.37774
#
# Static dielectric constant tensor:
#      x y z
#    x 3.015990 0.000000 0.000000 
#    y 0.000000 3.455390 0.000000 
#    z 0.000000 0.000000 3.017820 
# 
# 
# High freq. dielectric constant tensor:
#      x y z
#    x 1.616130 0.000000 0.000000 
#    y 0.000000 1.629970 0.000000 
#    z 0.000000 0.000000 1.602410 
# 
# From -- ./inp_files/17969.got.cif
#   From: 2010.03.12/outbox.cif.g09.slc.cpg/sg59_9_cif.got.tgz:17969.got - 2010.04.16 16:29:54.
