data_PCOD8239671
_publ_section_title
;
Structure prediction by ZEFSAII (Michael W. Deem and Ramdas Pophale) SiO2 
 PCOD8239671
Probable space group: P M M N
;
_chemical_formula_sum "Si O2"
_cell_formula_units_Z 64
_cell_length_a 28.701983
_cell_length_b 9.043879
_cell_length_c 15.581566
_cell_angle_alpha 90.000000
_cell_angle_beta 90.000000
_cell_angle_gamma 90.000000
_cell_volume 4044.620229
_symmetry_space_group_name_H-M "P M M N"
_symmetry_group_IT_number 59
_space_group.IT_coordinate_system_code '2'
_symmetry_cell_setting 'orthorhombic'
loop_
_space_group_symop_operation_xyz
x,y,z
1/2-x,1/2-y,z
1/2+x,-y,-z
-x,1/2+y,-z
-x,-y,-z
1/2+x,1/2+y,-z
1/2-x,y,z
x,1/2-y,z
loop_
_atom_site_type_symbol
_atom_site_label
_atom_site_fract_x
_atom_site_fract_y
_atom_site_fract_z
Si Si1 0.802506 0.576868 0.606739
Si Si2 0.056998 0.422982 0.834291
Si Si3 0.392077 0.924832 0.341513
Si Si4 0.952433 0.078052 0.814188
Si Si5 0.950327 0.425169 0.491403
Si Si6 0.604126 0.923592 0.341395
Si Si7 0.549391 0.077695 0.002188
Si Si8 0.300145 0.075017 0.586926
O O1 0.750000 0.542299 0.639655
O O2 0.812909 0.750000 0.612112
O O3 0.840370 0.492561 0.664192
O O4 0.808336 0.517190 0.509579
O O5 0.054833 0.250000 0.854757
O O6 0.090978 0.459876 0.755996
O O7 0.077979 0.504170 0.919145
O O8 0.005237 0.485638 0.812593
O O9 0.387176 0.750000 0.334799
O O10 0.421090 0.992574 0.261047
O O11 0.418088 0.972950 0.428660
O O12 0.956921 0.250000 0.793521
O O13 0.928076 0.051278 0.907590
O O14 0.956660 0.250000 0.487771
O O15 0.927968 0.482366 0.403895
O O16 0.000000 0.500000 0.500000
O O17 0.597444 0.750000 0.362440
O O18 0.657683 0.976420 0.352357
O O19 0.543173 0.250000 0.020529
O O20 0.500000 0.000000 0.000000
O O21 0.250000 0.014598 0.621518
O O22 0.297830 0.250000 0.583022
#
# Coordination Sequence:
#
# PCOD8239671 Si02
#       8
#     8   8   8   8   8   8   8   8
#     4   9  17  30  47  66  89 116 148 188 231 271
#     4   9  17  29  45  65  90 120 151 185 224 265
#     4  10  19  31  46  65  89 118 153 189 223 263
#     4   8  15  28  43  60  86 117 147 180 222 263
#     4  11  22  32  43  62  91 125 156 186 221 264
#     4  10  18  30  48  66  89 122 156 188 224 268
#     4   9  16  28  46  65  87 116 149 187 226 266
#     4   8  14  26  45  66  87 114 149 187 226 269
#
# _framework density 15.823487999999999
#
# number of rings (size 3 to 8) (size 9 to 14) (size 15 to 20)
#    0.000    2.750    1.250    3.000    0.000    3.250 
#    0.000    3.125    0.000    0.375    0.000    0.875 
#    0.000    3.000    0.000    0.000    0.000    0.000 
#
# Total GULP energy -793139.516981 kJ/mol
# GULP energy per Si atom -12392.804953 kJ/mol
# Density = 1.578747 g / cm^3
# Si number density = 15.823488 Si / 1000 Ang^3
#
#
#
# Elastic Constant Matrix: (Units=GPa)
#
#
# Indices 1 2 3 4 5 6 
#
# 1 98.6051 23.7146 38.3084 0.0000 0.0000 0.0000
# 2 23.7146 40.5010 30.1424 0.0000 0.0000 0.0000
# 3 38.3084 30.1424 85.7921 0.0000 0.0000 0.0000
# 4 0.0000 0.0000 0.0000 23.0780 0.0000 0.0000
# 5 0.0000 0.0000 0.0000 0.0000 13.0997 0.0000
# 6 0.0000 0.0000 0.0000 0.0000 0.0000 20.1346
#
#
#
# Elastic Compliance Matrix: (Units=1/GPa)
#
#
# Indices 1 2 3 4 5 6 
#
# 1 0.012823 -0.004397 -0.004181 0.000000 0.000000 0.000000
# 2 -0.004397 0.034940 -0.010313 0.000000 0.000000 0.000000
# 3 -0.004181 -0.010313 0.017146 0.000000 0.000000 0.000000
# 4 0.000000 0.000000 0.000000 0.043331 0.000000 0.000000
# 5 0.000000 0.000000 0.000000 0.000000 0.076338 0.000000
# 6 0.000000 0.000000 0.000000 0.000000 0.000000 0.049666
#
#
# Mechanical properties :
#
#
# Convention : Reuss Voigt Hill
#
# Bulk Modulus (GPa) = 36.86129 45.46990 41.16560
# Shear Modulus (GPa) = 17.78922 20.11129 18.95026
#
# Velocity S-wave (km/s) = 3.35659 3.56894 3.46439
# Velocity P-wave (km/s) = 6.19420 6.76618 6.48650
#
# Compressibility (1/GPa) = 0.02712873
#
# Stress axis : x y z
#
# Youngs Moduli (GPa) = 77.98326 28.62025 58.32115
#
# Poissons Ratio (x) = 0.12583 0.24385
# Poissons Ratio (y) = 0.34286 0.60146
# Poissons Ratio (z) = 0.32606 0.29516
#
# Static dielectric constant tensor:
#      x y z
#    x 2.479510 0.000000 0.000000 
#    y 0.000000 2.869510 0.000000 
#    z 0.000000 0.000000 2.960470 
# 
# 
# High freq. dielectric constant tensor:
#      x y z
#    x 1.589450 0.000000 0.000000 
#    y 0.000000 1.589640 0.000000 
#    z 0.000000 0.000000 1.600200 
# 
# From -- ./inp_files/25021.got.cif
#   From: 2010.03.12/outbox.cif.g09.slc.cpg/sg59_13_cif.got.tgz:25021.got - 2010.04.16 16:29:54.
