data_PCOD8239593
_publ_section_title
;
Structure prediction by ZEFSAII (Michael W. Deem and Ramdas Pophale) SiO2 
 PCOD8239593
Probable space group: P M M N
;
_chemical_formula_sum "Si O2"
_cell_formula_units_Z 56
_cell_length_a 15.996865
_cell_length_b 9.520804
_cell_length_c 19.836858
_cell_angle_alpha 90.000000
_cell_angle_beta 90.000000
_cell_angle_gamma 90.000000
_cell_volume 3021.213307
_symmetry_space_group_name_H-M "P M M N"
_symmetry_group_IT_number 59
_space_group.IT_coordinate_system_code '2'
_symmetry_cell_setting 'orthorhombic'
loop_
_space_group_symop_operation_xyz
x,y,z
1/2-x,1/2-y,z
1/2+x,-y,-z
-x,1/2+y,-z
-x,-y,-z
1/2+x,1/2+y,-z
1/2-x,y,z
x,1/2-y,z
loop_
_atom_site_type_symbol
_atom_site_label
_atom_site_fract_x
_atom_site_fract_y
_atom_site_fract_z
Si Si1 0.589934 0.908587 0.704474
Si Si2 0.156297 0.417254 0.432546
Si Si3 0.398339 0.591769 0.703345
Si Si4 0.650658 0.591963 0.421096
Si Si5 0.656894 0.583159 0.841729
Si Si6 0.000406 0.082068 0.069270
Si Si7 0.342128 0.916300 0.844646
O O1 0.623146 0.750000 0.696346
O O2 0.604427 0.980577 0.631052
O O3 0.494158 0.911085 0.725475
O O4 0.640348 0.979736 0.766544
O O5 0.250000 0.471547 0.421743
O O6 0.153303 0.250000 0.436338
O O7 0.121574 0.468969 0.505532
O O8 0.368319 0.750000 0.687413
O O9 0.387055 0.502962 0.636705
O O10 0.349453 0.527292 0.767642
O O11 0.750000 0.589237 0.417953
O O12 0.617571 0.750000 0.409891
O O13 0.750000 0.535603 0.865944
O O14 0.650739 0.750000 0.837324
O O15 0.584750 0.531528 0.892553
O O16 0.999072 0.250000 0.057945
O O17 0.917323 0.028069 0.108635
O O18 0.000000 0.000000 0.000000
O O19 0.250000 0.961338 0.872656
O O20 0.350754 0.750000 0.841013
#
# Coordination Sequence:
#
# PCOD8239593 Si02
#       7
#     8   8   8   8   8   8   8
#     4   9  15  25  44  70  96 122 159 204 243 283
#     4   8  14  25  41  62  91 127 163 198 240 290
#     4  10  18  29  48  73  96 121 161 208 242 276
#     4   9  18  31  44  62  93 130 164 199 242 291
#     4   9  16  28  49  75 101 127 158 202 249 284
#     4  10  20  35  53  76 103 128 158 195 238 289
#     4   9  17  31  51  72  97 131 166 197 232 279
#
# _framework density 18.535599999999999
#
# number of rings (size 3 to 8) (size 9 to 14) (size 15 to 20)
#    0.000    2.857    1.429    1.714    0.000    3.714 
#    0.000    0.714    0.000    0.857    0.000    0.000 
#    0.000    3.429    0.000    0.000    0.000    0.000 
#
# Total GULP energy -693790.542631 kJ/mol
# GULP energy per Si atom -12389.116833 kJ/mol
# Density = 1.849341 g / cm^3
# Si number density = 18.535600 Si / 1000 Ang^3
#
#
#
# Elastic Constant Matrix: (Units=GPa)
#
#
# Indices 1 2 3 4 5 6 
#
# 1 114.9076 15.4813 69.1969 0.0000 0.0000 0.0000
# 2 15.4813 24.6474 28.7998 0.0000 0.0000 0.0000
# 3 69.1969 28.7998 156.6199 0.0000 0.0000 0.0000
# 4 0.0000 0.0000 0.0000 23.8517 0.0000 0.0000
# 5 0.0000 0.0000 0.0000 0.0000 29.9982 0.0000
# 6 0.0000 0.0000 0.0000 0.0000 0.0000 7.2265
#
#
#
# Elastic Compliance Matrix: (Units=1/GPa)
#
#
# Indices 1 2 3 4 5 6 
#
# 1 0.011913 -0.001697 -0.004951 0.000000 0.000000 0.000000
# 2 -0.001697 0.051917 -0.008797 0.000000 0.000000 0.000000
# 3 -0.004951 -0.008797 0.010190 0.000000 0.000000 0.000000
# 4 0.000000 0.000000 0.000000 0.041926 0.000000 0.000000
# 5 0.000000 0.000000 0.000000 0.000000 0.033335 0.000000
# 6 0.000000 0.000000 0.000000 0.000000 0.000000 0.138380
#
#
# Mechanical properties :
#
#
# Convention : Reuss Voigt Hill
#
# Bulk Modulus (GPa) = 23.18606 58.12566 40.65586
# Shear Modulus (GPa) = 15.01828 24.39509 19.70669
#
# Velocity S-wave (km/s) = 2.84956 3.63177 3.26418
# Velocity P-wave (km/s) = 4.83350 7.00096 6.01565
#
# Compressibility (1/GPa) = 0.04312937
#
# Stress axis : x y z
#
# Youngs Moduli (GPa) = 83.94267 19.26149 98.13583
#
# Poissons Ratio (x) = 0.03269 0.48589
# Poissons Ratio (y) = 0.14248 0.86328
# Poissons Ratio (z) = 0.41561 0.16944
#
# Static dielectric constant tensor:
#      x y z
#    x 3.538570 0.000000 0.000000 
#    y 0.000000 2.849250 0.000000 
#    z 0.000000 0.000000 3.683030 
# 
# 
# High freq. dielectric constant tensor:
#      x y z
#    x 1.725820 0.000000 0.000000 
#    y 0.000000 1.639820 0.000000 
#    z 0.000000 0.000000 1.733810 
# 
# From -- ./inp_files/30378.got.cif
#   From: 2010.03.12/outbox.cif.g09.slc.cpg/sg59_16_cif.got.tgz:30378.got - 2010.04.16 16:29:54.
