data_PCOD8239218
_publ_section_title
;
Structure prediction by ZEFSAII (Michael W. Deem and Ramdas Pophale) SiO2 
 PCOD8239218
Probable space group: P M M N
;
_chemical_formula_sum "Si O2"
_cell_formula_units_Z 64
_cell_length_a 26.132698
_cell_length_b 9.085846
_cell_length_c 18.499852
_cell_angle_alpha 90.000000
_cell_angle_beta 90.000000
_cell_angle_gamma 90.000000
_cell_volume 4392.561747
_symmetry_space_group_name_H-M "P M M N"
_symmetry_group_IT_number 59
_space_group.IT_coordinate_system_code '2'
_symmetry_cell_setting 'orthorhombic'
loop_
_space_group_symop_operation_xyz
x,y,z
1/2-x,1/2-y,z
1/2+x,-y,-z
-x,1/2+y,-z
-x,-y,-z
1/2+x,1/2+y,-z
1/2-x,y,z
x,1/2-y,z
loop_
_atom_site_type_symbol
_atom_site_label
_atom_site_fract_x
_atom_site_fract_y
_atom_site_fract_z
Si Si1 0.807340 0.920959 0.313236
Si Si2 0.457308 0.420506 0.045864
Si Si3 0.992544 0.423177 0.321648
Si Si4 0.497553 0.423520 0.830200
Si Si5 0.691603 0.077219 0.166984
Si Si6 0.106213 0.417937 0.913339
Si Si7 0.955989 0.917967 0.540235
Si Si8 0.401873 0.420777 0.595484
O O1 0.750000 0.967994 0.336060
O O2 0.809970 0.750000 0.293127
O O3 0.844476 0.960403 0.379834
O O4 0.825931 0.008379 0.242874
O O5 0.471559 0.250000 0.056255
O O6 0.456344 0.500501 0.123796
O O7 0.500000 0.500000 0.000000
O O8 0.405082 0.436556 0.999336
O O9 0.987922 0.250000 0.303735
O O10 0.001268 0.515031 0.249923
O O11 0.940928 0.476411 0.360933
O O12 0.042020 0.458536 0.374248
O O13 0.506542 0.250000 0.830220
O O14 0.442777 0.465249 0.865120
O O15 0.750000 0.032265 0.148716
O O16 0.685201 0.250000 0.173052
O O17 0.654836 0.018526 0.104080
O O18 0.120233 0.250000 0.895279
O O19 0.971698 0.750000 0.534863
O O20 0.904662 0.948558 0.492350
O O21 0.000000 0.000000 0.500000
O O22 0.414619 0.250000 0.613376
#
# Coordination Sequence:
#
# PCOD8239218 Si02
#       8
#     8   8   8   8   8   8   8   8
#     4   9  17  28  41  56  75 101 132 164 196 229
#     4   9  17  29  43  60  81 104 132 163 196 234
#     4  10  18  26  38  57  79 103 132 163 196 234
#     4  10  19  29  41  59  82 107 135 164 196 234
#     4  10  20  30  40  57  80 105 134 167 198 227
#     4   9  18  30  43  58  77 104 134 161 193 233
#     4   8  15  26  38  53  74 100 128 159 194 231
#     4   9  16  27  41  55  75 103 133 163 196 234
#
# _framework density 14.570086
#
# number of rings (size 3 to 8) (size 9 to 14) (size 15 to 20)
#    0.000    2.750    0.000    3.000    0.000    7.750 
#    0.000    0.000    0.000    0.000    0.000    0.000 
#    0.000    1.000    0.000    7.500    0.000    2.000 
#
# Total GULP energy -792904.867412 kJ/mol
# GULP energy per Si atom -12389.138553 kJ/mol
# Density = 1.453692 g / cm^3
# Si number density = 14.570086 Si / 1000 Ang^3
#
#
#
# Elastic Constant Matrix: (Units=GPa)
#
#
# Indices 1 2 3 4 5 6 
#
# 1 63.1023 30.6161 46.5355 0.0000 0.0000 0.0000
# 2 30.6161 64.3902 41.8907 0.0000 0.0000 0.0000
# 3 46.5355 41.8907 104.6269 0.0000 0.0000 0.0000
# 4 0.0000 0.0000 0.0000 22.4862 0.0000 0.0000
# 5 0.0000 0.0000 0.0000 0.0000 23.6395 0.0000
# 6 0.0000 0.0000 0.0000 0.0000 0.0000 18.3197
#
#
#
# Elastic Compliance Matrix: (Units=1/GPa)
#
#
# Indices 1 2 3 4 5 6 
#
# 1 0.025388 -0.006390 -0.008734 0.000000 0.000000 0.000000
# 2 -0.006390 0.022609 -0.006210 0.000000 0.000000 0.000000
# 3 -0.008734 -0.006210 0.015929 0.000000 0.000000 0.000000
# 4 0.000000 0.000000 0.000000 0.044472 0.000000 0.000000
# 5 0.000000 0.000000 0.000000 0.000000 0.042302 0.000000
# 6 0.000000 0.000000 0.000000 0.000000 0.000000 0.054586
#
#
# Mechanical properties :
#
#
# Convention : Reuss Voigt Hill
#
# Bulk Modulus (GPa) = 47.03981 52.24490 49.64236
# Shear Modulus (GPa) = 19.60487 20.42754 20.01620
#
# Velocity S-wave (km/s) = 3.67216 3.74842 3.71049
# Velocity P-wave (km/s) = 7.09472 7.39389 7.24585
#
# Compressibility (1/GPa) = 0.02125859
#
# Stress axis : x y z
#
# Youngs Moduli (GPa) = 39.38838 44.23099 62.77936
#
# Poissons Ratio (x) = 0.28261 0.54830
# Poissons Ratio (y) = 0.25167 0.38987
# Poissons Ratio (z) = 0.34401 0.27468
#
# Static dielectric constant tensor:
#      x y z
#    x 2.777000 0.000000 0.000000 
#    y 0.000000 2.991820 0.000000 
#    z 0.000000 0.000000 3.127380 
# 
# 
# High freq. dielectric constant tensor:
#      x y z
#    x 1.517560 0.000000 0.000000 
#    y 0.000000 1.570830 0.000000 
#    z 0.000000 0.000000 1.551940 
# 
# From -- ./inp_files/28496.got.cif
#   From: 2010.03.12/outbox.cif.g09.slc.cpg/sg59_15_cif.got.tgz:28496.got - 2010.04.16 16:29:54.
