data_PCOD8239656
_publ_section_title
;
Structure prediction by ZEFSAII (Michael W. Deem and Ramdas Pophale) SiO2 
 PCOD8239656
Probable space group: P M M N
;
_chemical_formula_sum "Si O2"
_cell_formula_units_Z 64
_cell_length_a 9.028333
_cell_length_b 21.353285
_cell_length_c 19.371895
_cell_angle_alpha 90.000000
_cell_angle_beta 90.000000
_cell_angle_gamma 90.000000
_cell_volume 3734.602402
_symmetry_space_group_name_H-M "P M M N"
_symmetry_group_IT_number 59
_space_group.IT_coordinate_system_code '2'
_symmetry_cell_setting 'orthorhombic'
loop_
_space_group_symop_operation_xyz
x,y,z
1/2-x,1/2-y,z
1/2+x,-y,-z
-x,1/2+y,-z
-x,-y,-z
1/2+x,1/2+y,-z
1/2-x,y,z
x,1/2-y,z
loop_
_atom_site_type_symbol
_atom_site_label
_atom_site_fract_x
_atom_site_fract_y
_atom_site_fract_z
Si Si1 0.917164 0.679362 0.298207
Si Si2 0.073400 0.057048 0.041052
Si Si3 0.081974 0.487942 0.182635
Si Si4 0.922209 0.820390 0.040302
Si Si5 0.418336 0.869416 0.170420
Si Si6 0.074716 0.880892 0.412305
Si Si7 0.922748 0.505500 0.666416
Si Si8 0.923941 0.938529 0.529218
O O1 0.750000 0.655119 0.308945
O O2 0.918446 0.750000 0.271063
O O3 0.997967 0.636837 0.242395
O O4 0.006618 0.677127 0.370518
O O5 0.250000 0.047764 0.037156
O O6 0.015902 0.055212 0.121100
O O7 0.025184 0.125463 0.012652
O O8 0.000000 0.000000 0.000000
O O9 0.250000 0.467069 0.194153
O O10 0.071555 0.557737 0.151629
O O11 0.001921 0.481118 0.258210
O O12 0.750000 0.828990 0.057132
O O13 0.953378 0.750000 0.010772
O O14 0.008601 0.827435 0.111672
O O15 0.250000 0.846998 0.179992
O O16 0.250000 0.875670 0.419877
O O17 0.002554 0.881037 0.489362
O O18 0.019184 0.941837 0.369118
O O19 0.750000 0.494203 0.679467
O O20 0.950588 0.563012 0.612575
O O21 0.750000 0.940217 0.512935
O O22 0.000000 0.000000 0.500000
#
# Coordination Sequence:
#
# PCOD8239656 Si02
#       8
#     8   8   8   8   8   8   8   8
#     4  11  23  35  46  65  96 131 166 204 244 289
#     4  10  19  32  51  71  95 127 165 209 255 301
#     4   9  16  28  47  71  95 122 158 203 248 290
#     4  10  21  35  49  69  99 132 165 204 253 306
#     4  11  20  32  51  71  94 127 168 207 242 291
#     4  10  18  30  47  66  91 124 160 199 239 285
#     4   8  14  26  44  66  91 117 149 189 236 284
#     4   9  16  26  43  66  91 121 154 190 235 287
#
# _framework density 17.137031
#
# number of rings (size 3 to 8) (size 9 to 14) (size 15 to 20)
#    0.000    2.250    2.500    2.625    0.000    2.750 
#    0.000    0.000    0.000    0.000    0.000    0.875 
#    0.000    5.000    0.000    0.000    0.000    0.125 
#
# Total GULP energy -792972.854735 kJ/mol
# GULP energy per Si atom -12390.200855 kJ/mol
# Density = 1.709803 g / cm^3
# Si number density = 17.137031 Si / 1000 Ang^3
#
#
#
# Elastic Constant Matrix: (Units=GPa)
#
#
# Indices 1 2 3 4 5 6 
#
# 1 73.3167 26.1404 31.9687 0.0000 0.0000 0.0000
# 2 26.1404 61.6788 40.3325 0.0000 0.0000 0.0000
# 3 31.9687 40.3325 114.5402 0.0000 0.0000 0.0000
# 4 0.0000 0.0000 0.0000 25.7697 0.0000 0.0000
# 5 0.0000 0.0000 0.0000 0.0000 22.2606 0.0000
# 6 0.0000 0.0000 0.0000 0.0000 0.0000 17.6212
#
#
#
# Elastic Compliance Matrix: (Units=1/GPa)
#
#
# Indices 1 2 3 4 5 6 
#
# 1 0.016742 -0.005249 -0.002825 0.000000 0.000000 0.000000
# 2 -0.005249 0.022708 -0.006531 0.000000 0.000000 0.000000
# 3 -0.002825 -0.006531 0.011819 0.000000 0.000000 0.000000
# 4 0.000000 0.000000 0.000000 0.038805 0.000000 0.000000
# 5 0.000000 0.000000 0.000000 0.000000 0.044922 0.000000
# 6 0.000000 0.000000 0.000000 0.000000 0.000000 0.056750
#
#
# Mechanical properties :
#
#
# Convention : Reuss Voigt Hill
#
# Bulk Modulus (GPa) = 45.33009 49.60210 47.46609
# Shear Modulus (GPa) = 21.90006 23.20323 22.55164
#
# Velocity S-wave (km/s) = 3.57870 3.68364 3.63155
# Velocity P-wave (km/s) = 6.60190 6.86291 6.73367
#
# Compressibility (1/GPa) = 0.02206040
#
# Stress axis : x y z
#
# Youngs Moduli (GPa) = 59.72835 44.03671 84.61101
#
# Poissons Ratio (x) = 0.23113 0.23901
# Poissons Ratio (y) = 0.31349 0.55262
# Poissons Ratio (z) = 0.16872 0.28762
#
# Static dielectric constant tensor:
#      x y z
#    x 3.140350 0.000000 0.000000 
#    y 0.000000 2.970610 0.000000 
#    z 0.000000 0.000000 3.544260 
# 
# 
# High freq. dielectric constant tensor:
#      x y z
#    x 1.648960 0.000000 0.000000 
#    y 0.000000 1.621170 0.000000 
#    z 0.000000 0.000000 1.667410 
# 
# From -- ./inp_files/29673.got.cif
#   From: 2010.03.12/outbox.cif.g09.slc.cpg/sg59_15_cif.got.tgz:29673.got - 2010.04.16 16:29:54.
