data_PCOD8239772
_publ_section_title
;
Structure prediction by ZEFSAII (Michael W. Deem and Ramdas Pophale) SiO2 
 PCOD8239772
Probable space group: P M M N
;
_chemical_formula_sum "Si O2"
_cell_formula_units_Z 64
_cell_length_a 18.058495
_cell_length_b 8.835740
_cell_length_c 21.708655
_cell_angle_alpha 90.000000
_cell_angle_beta 90.000000
_cell_angle_gamma 90.000000
_cell_volume 3463.836609
_symmetry_space_group_name_H-M "P M M N"
_symmetry_group_IT_number 59
_space_group.IT_coordinate_system_code '2'
_symmetry_cell_setting 'orthorhombic'
loop_
_space_group_symop_operation_xyz
x,y,z
1/2-x,1/2-y,z
1/2+x,-y,-z
-x,1/2+y,-z
-x,-y,-z
1/2+x,1/2+y,-z
1/2-x,y,z
x,1/2-y,z
loop_
_atom_site_type_symbol
_atom_site_label
_atom_site_fract_x
_atom_site_fract_y
_atom_site_fract_z
Si Si1 0.101670 0.421089 0.755946
Si Si2 0.027970 0.571524 0.937552
Si Si3 0.584423 0.569739 0.377474
Si Si4 0.335966 0.575088 0.510793
Si Si5 0.833394 0.069705 0.730251
Si Si6 0.082183 0.930223 0.389577
Si Si7 0.452272 0.922145 0.174903
Si Si8 0.833824 0.571007 0.120373
O O1 0.128931 0.250000 0.749856
O O2 0.111910 0.497419 0.688775
O O3 0.151048 0.494824 0.810547
O O4 0.015367 0.430168 0.773166
O O5 0.030201 0.750000 0.943894
O O6 0.971858 0.527100 0.882861
O O7 0.111056 0.510886 0.926437
O O8 0.000000 0.500000 0.000000
O O9 0.582706 0.750000 0.374972
O O10 0.640839 0.516187 0.428991
O O11 0.501737 0.508375 0.390331
O O12 0.250000 0.549335 0.498207
O O13 0.354996 0.750000 0.521830
O O14 0.379249 0.509975 0.451759
O O15 0.750000 0.005115 0.734014
O O16 0.833012 0.250000 0.726579
O O17 0.873477 0.004061 0.669305
O O18 0.877350 0.019394 0.792038
O O19 0.084697 0.750000 0.387399
O O20 0.443907 0.750000 0.150832
O O21 0.750000 0.534929 0.100567
O O22 0.851188 0.750000 0.118814
#
# Coordination Sequence:
#
# PCOD8239772 Si02
#       8
#     8   8   8   8   8   8   8   8
#     4   8  14  27  49  75 100 129 165 206 253 308
#     4  11  22  37  58  82 109 146 187 222 256 301
#     4  10  18  30  51  74  95 127 173 218 255 305
#     4  10  21  34  45  63  97 135 169 213 269 318
#     4   9  15  25  49  82 106 127 164 216 267 314
#     4   9  16  29  49  72  97 129 170 215 261 312
#     4   9  16  31  53  77 106 134 165 210 261 317
#     4   9  18  34  57  84 113 142 173 214 267 320
#
# _framework density 18.476621999999999
#
# number of rings (size 3 to 8) (size 9 to 14) (size 15 to 20)
#    0.000    2.625    1.250    2.625    0.000    2.500 
#    0.000    4.375    0.000    3.375    0.000    0.000 
#    0.000    0.000    0.000    0.000    0.000    0.000 
#
# Total GULP energy -793361.648925 kJ/mol
# GULP energy per Si atom -12396.275764 kJ/mol
# Density = 1.843457 g / cm^3
# Si number density = 18.476622 Si / 1000 Ang^3
#
#
#
# Elastic Constant Matrix: (Units=GPa)
#
#
# Indices 1 2 3 4 5 6 
#
# 1 82.4516 28.7817 51.6349 0.0000 0.0000 0.0000
# 2 28.7817 47.7717 38.6734 0.0000 0.0000 0.0000
# 3 51.6349 38.6734 139.0717 0.0000 0.0000 0.0000
# 4 0.0000 0.0000 0.0000 23.4946 0.0000 0.0000
# 5 0.0000 0.0000 0.0000 0.0000 25.6845 0.0000
# 6 0.0000 0.0000 0.0000 0.0000 0.0000 19.4181
#
#
#
# Elastic Compliance Matrix: (Units=1/GPa)
#
#
# Indices 1 2 3 4 5 6 
#
# 1 0.017343 -0.006757 -0.004560 0.000000 0.000000 0.000000
# 2 -0.006757 0.029647 -0.005736 0.000000 0.000000 0.000000
# 3 -0.004560 -0.005736 0.010479 0.000000 0.000000 0.000000
# 4 0.000000 0.000000 0.000000 0.042563 0.000000 0.000000
# 5 0.000000 0.000000 0.000000 0.000000 0.038934 0.000000
# 6 0.000000 0.000000 0.000000 0.000000 0.000000 0.051498
#
#
# Mechanical properties :
#
#
# Convention : Reuss Voigt Hill
#
# Bulk Modulus (GPa) = 42.80268 56.38609 49.59438
# Shear Modulus (GPa) = 21.51861 23.73310 22.62586
#
# Velocity S-wave (km/s) = 3.41638 3.58787 3.50318
# Velocity P-wave (km/s) = 6.22723 6.90996 6.57746
#
# Compressibility (1/GPa) = 0.02336302
#
# Stress axis : x y z
#
# Youngs Moduli (GPa) = 57.66086 33.73000 95.43316
#
# Poissons Ratio (x) = 0.22792 0.43518
# Poissons Ratio (y) = 0.38963 0.54736
# Poissons Ratio (z) = 0.26293 0.19346
#
# Static dielectric constant tensor:
#      x y z
#    x 3.469060 0.000000 0.000000 
#    y 0.000000 3.218060 0.000000 
#    z 0.000000 0.000000 3.501740 
# 
# 
# High freq. dielectric constant tensor:
#      x y z
#    x 1.717720 0.000000 0.000000 
#    y 0.000000 1.664970 0.000000 
#    z 0.000000 0.000000 1.723090 
# 
# From -- ./inp_files/30939.got.cif
#   From: 2010.03.12/outbox.cif.g09.slc.cpg/sg59_16_cif.got.tgz:30939.got - 2010.04.16 16:29:54.
