data_PCOD8239704
_publ_section_title
;
Structure prediction by ZEFSAII (Michael W. Deem and Ramdas Pophale) SiO2 
 PCOD8239704
Probable space group: P M M N
;
_chemical_formula_sum "Si O2"
_cell_formula_units_Z 64
_cell_length_a 8.563189
_cell_length_b 27.750624
_cell_length_c 14.793911
_cell_angle_alpha 90.000000
_cell_angle_beta 90.000000
_cell_angle_gamma 90.000000
_cell_volume 3515.533853
_symmetry_space_group_name_H-M "P M M N"
_symmetry_group_IT_number 59
_space_group.IT_coordinate_system_code '2'
_symmetry_cell_setting 'orthorhombic'
loop_
_space_group_symop_operation_xyz
x,y,z
1/2-x,1/2-y,z
1/2+x,-y,-z
-x,1/2+y,-z
-x,-y,-z
1/2+x,1/2+y,-z
1/2-x,y,z
x,1/2-y,z
loop_
_atom_site_type_symbol
_atom_site_label
_atom_site_fract_x
_atom_site_fract_y
_atom_site_fract_z
Si Si1 0.432165 0.026299 0.852456
Si Si2 0.433304 0.609576 0.031141
Si Si3 0.065751 0.696286 0.153575
Si Si4 0.566469 0.466545 0.664966
Si Si5 0.433682 0.078161 0.145698
Si Si6 0.434494 0.110317 0.532161
Si Si7 0.433298 0.195992 0.656309
Si Si8 0.565812 0.574742 0.655585
O O1 0.250000 0.013834 0.856402
O O2 0.472998 0.064476 0.929481
O O3 0.477769 0.049652 0.756083
O O4 0.530294 0.978055 0.870451
O O5 0.250000 0.602283 0.047218
O O6 0.493408 0.659032 0.077522
O O7 0.473630 0.611856 0.924804
O O8 0.250000 0.698681 0.152696
O O9 0.996363 0.750000 0.134631
O O10 0.012589 0.677506 0.251746
O O11 0.750000 0.464451 0.684272
O O12 0.522454 0.431794 0.583917
O O13 0.509068 0.520093 0.638154
O O14 0.250000 0.086658 0.133949
O O15 0.494101 0.093226 0.246485
O O16 0.250000 0.101449 0.540325
O O17 0.483947 0.161750 0.573516
O O18 0.490759 0.108545 0.427288
O O19 0.250000 0.194020 0.672332
O O20 0.489422 0.250000 0.632047
O O21 0.750000 0.574556 0.659935
#
# Coordination Sequence:
#
# PCOD8239704 Si02
#       8
#     8   8   8   8   8   8   8   8
#     4  11  21  33  49  71 100 132 165 198 237 285
#     4  11  21  33  51  74  98 125 161 201 243 290
#     4   9  19  35  53  72  96 126 157 191 235 288
#     4  10  19  31  46  69 100 128 158 197 240 283
#     4  10  20  35  51  69  97 131 166 202 242 283
#     4  10  18  30  49  70  93 125 163 196 234 283
#     4   9  18  31  48  72  99 123 150 189 235 282
#     4   8  17  32  48  66  92 127 162 198 235 276
#
# _framework density 18.204916000000001
#
# number of rings (size 3 to 8) (size 9 to 14) (size 15 to 20)
#    0.000    2.250    0.000    4.500    0.000    3.500 
#    0.000    3.125    0.000    0.750    0.000    1.750 
#    0.000    0.000    0.000    0.000    0.000    0.000 
#
# Total GULP energy -793514.776925 kJ/mol
# GULP energy per Si atom -12398.668389 kJ/mol
# Density = 1.816348 g / cm^3
# Si number density = 18.204916 Si / 1000 Ang^3
#
#
#
# Elastic Constant Matrix: (Units=GPa)
#
#
# Indices 1 2 3 4 5 6 
#
# 1 33.8786 11.7972 12.8271 0.0000 0.0000 0.0000
# 2 11.7972 83.0804 70.0288 0.0000 0.0000 0.0000
# 3 12.8271 70.0288 142.6117 0.0000 0.0000 0.0000
# 4 0.0000 0.0000 0.0000 29.9318 0.0000 0.0000
# 5 0.0000 0.0000 0.0000 0.0000 23.7619 0.0000
# 6 0.0000 0.0000 0.0000 0.0000 0.0000 17.2270
#
#
#
# Elastic Compliance Matrix: (Units=1/GPa)
#
#
# Indices 1 2 3 4 5 6 
#
# 1 0.031149 -0.003517 -0.001074 0.000000 0.000000 0.000000
# 2 -0.003517 0.020934 -0.009963 0.000000 0.000000 0.000000
# 3 -0.001074 -0.009963 0.012001 0.000000 0.000000 0.000000
# 4 0.000000 0.000000 0.000000 0.033409 0.000000 0.000000
# 5 0.000000 0.000000 0.000000 0.000000 0.042084 0.000000
# 6 0.000000 0.000000 0.000000 0.000000 0.000000 0.058049
#
#
# Mechanical properties :
#
#
# Convention : Reuss Voigt Hill
#
# Bulk Modulus (GPa) = 28.59279 49.87520 39.23400
# Shear Modulus (GPa) = 20.97370 25.17864 23.07617
#
# Velocity S-wave (km/s) = 3.39793 3.72300 3.56417
# Velocity P-wave (km/s) = 5.57985 6.77768 6.20772
#
# Compressibility (1/GPa) = 0.03497385
#
# Stress axis : x y z
#
# Youngs Moduli (GPa) = 32.10394 47.76920 83.32603
#
# Poissons Ratio (x) = 0.16802 0.08953
# Poissons Ratio (y) = 0.11292 0.83019
# Poissons Ratio (z) = 0.03449 0.47593
#
# Static dielectric constant tensor:
#      x y z
#    x 3.210060 0.000000 0.000000 
#    y 0.000000 3.413670 0.000000 
#    z 0.000000 0.000000 3.718230 
# 
# 
# High freq. dielectric constant tensor:
#      x y z
#    x 1.696270 0.000000 0.000000 
#    y 0.000000 1.680240 0.000000 
#    z 0.000000 0.000000 1.710510 
# 
# From -- ./inp_files/21933.got.cif
#   From: 2010.03.12/outbox.cif.g09.slc.cpg/sg59_11_cif.got.tgz:21933.got - 2010.04.16 16:29:54.
