data_PCOD8239803
_publ_section_title
;
Structure prediction by ZEFSAII (Michael W. Deem and Ramdas Pophale) SiO2 
 PCOD8239803
Probable space group: P M M N
;
_chemical_formula_sum "Si O2"
_cell_formula_units_Z 56
_cell_length_a 8.907568
_cell_length_b 14.496385
_cell_length_c 23.672364
_cell_angle_alpha 90.000000
_cell_angle_beta 90.000000
_cell_angle_gamma 90.000000
_cell_volume 3056.754014
_symmetry_space_group_name_H-M "P M M N"
_symmetry_group_IT_number 59
_space_group.IT_coordinate_system_code '2'
_symmetry_cell_setting 'orthorhombic'
loop_
_space_group_symop_operation_xyz
x,y,z
1/2-x,1/2-y,z
1/2+x,-y,-z
-x,1/2+y,-z
-x,-y,-z
1/2+x,1/2+y,-z
1/2-x,y,z
x,1/2-y,z
loop_
_atom_site_type_symbol
_atom_site_label
_atom_site_fract_x
_atom_site_fract_y
_atom_site_fract_z
Si Si1 0.427819 0.850427 0.093941
Si Si2 0.585082 0.750000 0.584755
Si Si3 0.575101 0.250000 0.528015
Si Si4 0.073509 0.044370 0.132989
Si Si5 0.420579 0.430738 0.343435
Si Si6 0.072736 0.855496 0.762813
Si Si7 0.570799 0.050912 0.553667
Si Si8 0.078173 0.856158 0.966499
O O1 0.250000 0.845345 0.090795
O O2 0.488713 0.750000 0.116136
O O3 0.475872 0.935710 0.134227
O O4 0.484074 0.867860 0.030117
O O5 0.750000 0.750000 0.555646
O O6 0.457075 0.750000 0.538289
O O7 0.564772 0.836301 0.624027
O O8 0.750000 0.250000 0.537225
O O9 0.510760 0.156377 0.555559
O O10 0.250000 0.055196 0.143908
O O11 0.984535 0.101587 0.179340
O O12 0.032216 0.084000 0.071953
O O13 0.250000 0.452170 0.325210
O O14 0.519038 0.422929 0.287305
O O15 0.481942 0.508539 0.386525
O O16 0.250000 0.854916 0.763624
O O17 0.012262 0.750000 0.755994
O O18 0.750000 0.042703 0.547143
O O19 0.500000 0.000000 0.500000
O O20 0.250000 0.891129 0.960431
O O21 0.068754 0.750000 0.947404
#
# Coordination Sequence:
#
# PCOD8239803 Si02
#       8
#     8   4   4   8   8   8   8   8
#     4   8  16  32  53  76 102 135 174 211 250 301
#     4  10  18  30  52  80 108 136 168 211 256 297
#     4  10  20  32  50  80 114 142 170 205 246 301
#     4  11  21  32  52  79 105 134 170 214 258 300
#     4  10  20  35  54  76 103 135 173 215 257 300
#     4  11  24  39  55  75 101 135 172 210 257 312
#     4  10  20  33  52  79 110 141 172 208 252 301
#     4   9  17  31  51  75 107 142 170 202 250 306
#
# _framework density 18.320086
#
# number of rings (size 3 to 8) (size 9 to 14) (size 15 to 20)
#    0.000    2.143    2.143    2.571    0.000    4.000 
#    0.000    0.714    1.571    3.429    0.000    0.000 
#    0.000    0.000    0.000    0.000    0.000    0.000 
#
# Total GULP energy -694114.440452 kJ/mol
# GULP energy per Si atom -12394.900722 kJ/mol
# Density = 1.827839 g / cm^3
# Si number density = 18.320086 Si / 1000 Ang^3
#
#
#
# Elastic Constant Matrix: (Units=GPa)
#
#
# Indices 1 2 3 4 5 6 
#
# 1 33.8357 26.9527 23.6655 0.0000 0.0000 0.0000
# 2 26.9527 118.0446 45.3678 0.0000 0.0000 0.0000
# 3 23.6655 45.3678 75.8019 0.0000 0.0000 0.0000
# 4 0.0000 0.0000 0.0000 38.9745 0.0000 0.0000
# 5 0.0000 0.0000 0.0000 0.0000 29.5815 0.0000
# 6 0.0000 0.0000 0.0000 0.0000 0.0000 19.9093
#
#
#
# Elastic Compliance Matrix: (Units=1/GPa)
#
#
# Indices 1 2 3 4 5 6 
#
# 1 0.040571 -0.005709 -0.009250 0.000000 0.000000 0.000000
# 2 -0.005709 0.011805 -0.005283 0.000000 0.000000 0.000000
# 3 -0.009250 -0.005283 0.019242 0.000000 0.000000 0.000000
# 4 0.000000 0.000000 0.000000 0.025658 0.000000 0.000000
# 5 0.000000 0.000000 0.000000 0.000000 0.033805 0.000000
# 6 0.000000 0.000000 0.000000 0.000000 0.000000 0.050228
#
#
# Mechanical properties :
#
#
# Convention : Reuss Voigt Hill
#
# Bulk Modulus (GPa) = 32.11768 46.62822 39.37295
# Shear Modulus (GPa) = 21.53580 26.47280 24.00430
#
# Velocity S-wave (km/s) = 3.43232 3.80546 3.62370
# Velocity P-wave (km/s) = 5.76864 6.69447 6.24873
#
# Compressibility (1/GPa) = 0.03113550
#
# Stress axis : x y z
#
# Youngs Moduli (GPa) = 24.64785 84.70768 51.96914
#
# Poissons Ratio (x) = 0.48356 0.48071
# Poissons Ratio (y) = 0.14070 0.27457
# Poissons Ratio (z) = 0.22799 0.44754
#
# Static dielectric constant tensor:
#      x y z
#    x 3.234600 0.000000 0.000000 
#    y 0.000000 3.948060 0.000000 
#    z 0.000000 0.000000 3.255480 
# 
# 
# High freq. dielectric constant tensor:
#      x y z
#    x 1.690870 0.000000 0.000000 
#    y 0.000000 1.721190 0.000000 
#    z 0.000000 0.000000 1.692330 
# 
# From -- ./inp_files/29189.got.cif
#   From: 2010.03.12/outbox.cif.g09.slc.cpg/sg59_15_cif.got.tgz:29189.got - 2010.04.16 16:29:54.
