data_PCOD8239413
_publ_section_title
;
Structure prediction by ZEFSAII (Michael W. Deem and Ramdas Pophale) SiO2 
 PCOD8239413
Probable space group: P M M N
;
_chemical_formula_sum "Si O2"
_cell_formula_units_Z 40
_cell_length_a 8.917723
_cell_length_b 26.100254
_cell_length_c 9.775066
_cell_angle_alpha 90.000000
_cell_angle_beta 90.000000
_cell_angle_gamma 90.000000
_cell_volume 2275.193878
_symmetry_space_group_name_H-M "P M M N"
_symmetry_group_IT_number 59
_space_group.IT_coordinate_system_code '2'
_symmetry_cell_setting 'orthorhombic'
loop_
_space_group_symop_operation_xyz
x,y,z
1/2-x,1/2-y,z
1/2+x,-y,-z
-x,1/2+y,-z
-x,-y,-z
1/2+x,1/2+y,-z
1/2-x,y,z
x,1/2-y,z
loop_
_atom_site_type_symbol
_atom_site_label
_atom_site_fract_x
_atom_site_fract_y
_atom_site_fract_z
Si Si1 0.925954 0.250000 0.658585
Si Si2 0.923787 0.860645 0.647910
Si Si3 0.927892 0.646866 0.337507
Si Si4 0.077250 0.250000 0.374015
Si Si5 0.572338 0.948099 0.841581
Si Si6 0.426554 0.447223 0.846802
O O1 0.750000 0.250000 0.685236
O O2 0.997680 0.198533 0.723354
O O3 0.962827 0.250000 0.498600
O O4 0.750000 0.873827 0.643887
O O5 0.985509 0.863603 0.492650
O O6 0.950535 0.802866 0.709630
O O7 0.998317 0.902790 0.747330
O O8 0.750000 0.653892 0.332839
O O9 0.982792 0.600015 0.244305
O O10 0.250000 0.250000 0.430118
O O11 0.750000 0.951282 0.829486
O O12 0.504324 0.001580 0.789930
O O13 0.523442 0.936710 0.997263
O O14 0.250000 0.454841 0.834255
#
# Coordination Sequence:
#
# PCOD8239413 Si02
#       6
#     4   8   8   4   8   8
#     4  10  18  28  45  70  94 114 142 180 222 262
#     4   8  14  26  46  67  86 113 147 180 214 257
#     4   9  17  31  48  65  88 118 149 179 215 261
#     4   8  14  28  47  64  88 120 146 172 216 266
#     4   9  17  30  46  65  89 116 148 185 223 260
#     4   9  18  31  46  64  88 119 151 181 218 264
#
# _framework density 17.580918
#
# number of rings (size 3 to 8) (size 9 to 14) (size 15 to 20)
#    0.000    3.200    0.000    2.100    0.000    1.600 
#    0.000    5.000    0.000    4.800    0.000    5.600 
#    0.000    0.000    0.000    0.000    0.000    0.000 
#
# Total GULP energy -495671.120112 kJ/mol
# GULP energy per Si atom -12391.778003 kJ/mol
# Density = 1.754090 g / cm^3
# Si number density = 17.580918 Si / 1000 Ang^3
#
#
#
# Elastic Constant Matrix: (Units=GPa)
#
#
# Indices 1 2 3 4 5 6 
#
# 1 28.3757 34.6085 17.0467 0.0000 0.0000 0.0000
# 2 34.6085 208.1323 83.7458 0.0000 0.0000 0.0000
# 3 17.0467 83.7458 68.4170 0.0000 0.0000 0.0000
# 4 0.0000 0.0000 0.0000 20.0349 0.0000 0.0000
# 5 0.0000 0.0000 0.0000 0.0000 12.4638 0.0000
# 6 0.0000 0.0000 0.0000 0.0000 0.0000 28.2145
#
#
#
# Elastic Compliance Matrix: (Units=1/GPa)
#
#
# Indices 1 2 3 4 5 6 
#
# 1 0.044762 -0.005824 -0.004024 0.000000 0.000000 0.000000
# 2 -0.005824 0.010225 -0.011065 0.000000 0.000000 0.000000
# 3 -0.004024 -0.011065 0.029163 0.000000 0.000000 0.000000
# 4 0.000000 0.000000 0.000000 0.049913 0.000000 0.000000
# 5 0.000000 0.000000 0.000000 0.000000 0.080232 0.000000
# 6 0.000000 0.000000 0.000000 0.000000 0.000000 0.035443
#
#
# Mechanical properties :
#
#
# Convention : Reuss Voigt Hill
#
# Bulk Modulus (GPa) = 23.62718 63.96969 43.79844
# Shear Modulus (GPa) = 16.35734 23.44425 19.90079
#
# Velocity S-wave (km/s) = 3.05356 3.65568 3.36810
# Velocity P-wave (km/s) = 5.08926 7.36774 6.33183
#
# Compressibility (1/GPa) = 0.04232413
#
# Stress axis : x y z
#
# Youngs Moduli (GPa) = 22.34035 97.79619 34.28965
#
# Poissons Ratio (x) = 0.56955 0.13799
# Poissons Ratio (y) = 0.13011 0.37942
# Poissons Ratio (z) = 0.08990 1.08214
#
# Static dielectric constant tensor:
#      x y z
#    x 2.912040 0.000000 0.000000 
#    y 0.000000 3.703380 0.000000 
#    z 0.000000 0.000000 3.203060 
# 
# 
# High freq. dielectric constant tensor:
#      x y z
#    x 1.647310 0.000000 0.000000 
#    y 0.000000 1.701070 0.000000 
#    z 0.000000 0.000000 1.646730 
# 
# From -- ./inp_files/5930.got.cif
#   From: 2010.03.12/outbox.cif.g09.slc.cpg/sg59_3_cif.got.tgz:5930.got - 2010.04.16 16:29:54.
