data_PCOD8239212
_publ_section_title
;
Structure prediction by ZEFSAII (Michael W. Deem and Ramdas Pophale) SiO2 
 PCOD8239212
Probable space group: P M M N
;
_chemical_formula_sum "Si O2"
_cell_formula_units_Z 64
_cell_length_a 22.974245
_cell_length_b 9.140068
_cell_length_c 19.965638
_cell_angle_alpha 90.000000
_cell_angle_beta 90.000000
_cell_angle_gamma 90.000000
_cell_volume 4192.507686
_symmetry_space_group_name_H-M "P M M N"
_symmetry_group_IT_number 59
_space_group.IT_coordinate_system_code '2'
_symmetry_cell_setting 'orthorhombic'
loop_
_space_group_symop_operation_xyz
x,y,z
1/2-x,1/2-y,z
1/2+x,-y,-z
-x,1/2+y,-z
-x,-y,-z
1/2+x,1/2+y,-z
1/2-x,y,z
x,1/2-y,z
loop_
_atom_site_type_symbol
_atom_site_label
_atom_site_fract_x
_atom_site_fract_y
_atom_site_fract_z
Si Si1 0.524079 0.583046 0.341834
Si Si2 0.391479 0.078830 0.171656
Si Si3 0.101517 0.580606 0.400083
Si Si4 0.059075 0.081147 0.516337
Si Si5 0.477074 0.920568 0.789960
Si Si6 0.553166 0.584680 0.082417
Si Si7 0.682023 0.081106 0.720133
Si Si8 0.581078 0.415408 0.957155
O O1 0.524016 0.750000 0.315957
O O2 0.459235 0.538968 0.364838
O O3 0.569648 0.563468 0.403659
O O4 0.544268 0.478381 0.281913
O O5 0.382282 0.250000 0.160061
O O6 0.454606 0.044572 0.202533
O O7 0.342537 0.019173 0.221119
O O8 0.383441 0.998757 0.100605
O O9 0.103167 0.750000 0.419386
O O10 0.109212 0.490432 0.469771
O O11 0.153532 0.536149 0.350573
O O12 0.052455 0.250000 0.497106
O O13 0.000000 0.000000 0.500000
O O14 0.463790 0.750000 0.796238
O O15 0.440120 0.002598 0.846926
O O16 0.576665 0.750000 0.089141
O O17 0.486582 0.584671 0.060205
O O18 0.591375 0.499401 0.027130
O O19 0.750000 0.052113 0.713596
O O20 0.667442 0.250000 0.736662
O O21 0.604641 0.250000 0.963581
#
# Coordination Sequence:
#
# PCOD8239212 Si02
#       8
#     8   8   8   8   8   8   8   8
#     4   9  16  26  39  56  78 105 135 167 202 243
#     4  10  19  29  41  58  78 103 136 173 211 248
#     4   9  17  29  43  58  77 102 134 172 211 251
#     4   9  17  27  40  58  78 102 132 166 204 247
#     4  10  18  25  37  57  80 107 137 167 200 240
#     4   9  16  25  37  54  77 104 132 165 199 233
#     4  10  20  33  47  61  79 106 141 179 218 256
#     4   9  16  26  40  55  74 101 134 168 200 238
#
# _framework density 15.265326999999999
#
# number of rings (size 3 to 8) (size 9 to 14) (size 15 to 20)
#    0.000    2.625    1.250    2.625    0.000    7.250 
#    0.000    0.000    0.000    0.000    0.000    0.000 
#    0.000    0.000    0.000    1.125    0.000   19.250 
#
# Total GULP energy -793450.445960 kJ/mol
# GULP energy per Si atom -12397.663218 kJ/mol
# Density = 1.523058 g / cm^3
# Si number density = 15.265327 Si / 1000 Ang^3
#
#
#
# Elastic Constant Matrix: (Units=GPa)
#
#
# Indices 1 2 3 4 5 6 
#
# 1 32.3071 25.4087 34.0525 0.0000 0.0000 0.0000
# 2 25.4087 109.8232 76.9953 0.0000 0.0000 0.0000
# 3 34.0525 76.9953 135.5896 0.0000 0.0000 0.0000
# 4 0.0000 0.0000 0.0000 35.6118 0.0000 0.0000
# 5 0.0000 0.0000 0.0000 0.0000 12.8063 0.0000
# 6 0.0000 0.0000 0.0000 0.0000 0.0000 12.4361
#
#
#
# Elastic Compliance Matrix: (Units=1/GPa)
#
#
# Indices 1 2 3 4 5 6 
#
# 1 0.043109 -0.003960 -0.008578 0.000000 0.000000 0.000000
# 2 -0.003960 0.015492 -0.007803 0.000000 0.000000 0.000000
# 3 -0.008578 -0.007803 0.013960 0.000000 0.000000 0.000000
# 4 0.000000 0.000000 0.000000 0.028081 0.000000 0.000000
# 5 0.000000 0.000000 0.000000 0.000000 0.078086 0.000000
# 6 0.000000 0.000000 0.000000 0.000000 0.000000 0.080411
#
#
# Mechanical properties :
#
#
# Convention : Reuss Voigt Hill
#
# Bulk Modulus (GPa) = 31.36757 61.18145 46.27451
# Shear Modulus (GPa) = 16.10585 21.58841 18.84713
#
# Velocity S-wave (km/s) = 3.25169 3.76468 3.51755
# Velocity P-wave (km/s) = 5.88990 7.68523 6.84667
#
# Compressibility (1/GPa) = 0.03188006
#
# Stress axis : x y z
#
# Youngs Moduli (GPa) = 23.19728 64.54902 71.63157
#
# Poissons Ratio (x) = 0.25560 0.61444
# Poissons Ratio (y) = 0.09186 0.55893
# Poissons Ratio (z) = 0.19898 0.50366
#
# Static dielectric constant tensor:
#      x y z
#    x 2.403760 0.000000 0.000000 
#    y 0.000000 3.108230 0.000000 
#    z 0.000000 0.000000 3.229460 
# 
# 
# High freq. dielectric constant tensor:
#      x y z
#    x 1.502480 0.000000 0.000000 
#    y 0.000000 1.600600 0.000000 
#    z 0.000000 0.000000 1.597450 
# 
# From -- ./inp_files/30898.got.cif
#   From: 2010.03.12/outbox.cif.g09.slc.cpg/sg59_16_cif.got.tgz:30898.got - 2010.04.16 16:29:54.
