data_PCOD8239734
_publ_section_title
;
Structure prediction by ZEFSAII (Michael W. Deem and Ramdas Pophale) SiO2 
 PCOD8239734
Probable space group: P M M N
;
_chemical_formula_sum "Si O2"
_cell_formula_units_Z 64
_cell_length_a 8.910798
_cell_length_b 19.694781
_cell_length_c 19.815733
_cell_angle_alpha 90.000000
_cell_angle_beta 90.000000
_cell_angle_gamma 90.000000
_cell_volume 3477.586142
_symmetry_space_group_name_H-M "P M M N"
_symmetry_group_IT_number 59
_space_group.IT_coordinate_system_code '2'
_symmetry_cell_setting 'orthorhombic'
loop_
_space_group_symop_operation_xyz
x,y,z
1/2-x,1/2-y,z
1/2+x,-y,-z
-x,1/2+y,-z
-x,-y,-z
1/2+x,1/2+y,-z
1/2-x,y,z
x,1/2-y,z
loop_
_atom_site_type_symbol
_atom_site_label
_atom_site_fract_x
_atom_site_fract_y
_atom_site_fract_z
Si Si1 0.427206 0.420834 0.351151
Si Si2 0.075341 0.897803 0.881063
Si Si3 0.926554 0.556692 0.305027
Si Si4 0.576344 0.327018 0.457437
Si Si5 0.926707 0.036552 0.835886
Si Si6 0.077690 0.567506 0.022446
Si Si7 0.421670 0.671992 0.385540
Si Si8 0.077917 0.325887 0.229627
O O1 0.250000 0.430055 0.353720
O O2 0.501491 0.494446 0.346149
O O3 0.478193 0.381922 0.418065
O O4 0.479246 0.377342 0.286645
O O5 0.250000 0.913942 0.868814
O O6 0.022843 0.833618 0.837455
O O7 0.046286 0.879487 0.961066
O O8 0.977101 0.960801 0.854842
O O9 0.750000 0.546162 0.303194
O O10 0.986596 0.563190 0.229008
O O11 0.966110 0.626087 0.342763
O O12 0.750000 0.337065 0.438676
O O13 0.526402 0.250000 0.439208
O O14 0.548439 0.340897 0.535873
O O15 0.750000 0.036221 0.819363
O O16 0.968722 0.086421 0.900235
O O17 0.250000 0.548522 0.026011
O O18 0.000000 0.500000 0.000000
O O19 0.250000 0.653507 0.367582
O O20 0.454741 0.750000 0.367031
O O21 0.250000 0.340105 0.210726
O O22 0.056016 0.250000 0.257635
#
# Coordination Sequence:
#
# PCOD8239734 Si02
#       8
#     8   8   8   8   8   8   8   8
#     4  11  22  36  55  79 110 148 188 227 269 323
#     4  10  18  30  49  75 104 135 176 225 271 316
#     4  12  24  36  55  84 115 144 178 228 278 322
#     4   9  19  37  60  84 111 143 182 227 271 320
#     4  10  18  32  52  75 106 142 176 217 269 322
#     4   8  16  28  46  72 100 131 171 215 261 314
#     4   9  20  41  65  85 107 140 179 218 270 337
#     4  10  21  35  50  71 104 149 193 228 268 323
#
# _framework density 18.403569999999998
#
# number of rings (size 3 to 8) (size 9 to 14) (size 15 to 20)
#    0.000    2.125    1.250    3.375    0.000    3.750 
#    0.000    1.250    0.000    0.750    0.000    1.750 
#    0.000    0.000    0.000    0.000    0.000    0.000 
#
# Total GULP energy -793211.991147 kJ/mol
# GULP energy per Si atom -12393.937362 kJ/mol
# Density = 1.836168 g / cm^3
# Si number density = 18.403570 Si / 1000 Ang^3
#
#
#
# Elastic Constant Matrix: (Units=GPa)
#
#
# Indices 1 2 3 4 5 6 
#
# 1 81.7532 36.7994 52.0422 0.0000 0.0000 0.0000
# 2 36.7994 78.0060 52.0115 0.0000 0.0000 0.0000
# 3 52.0422 52.0115 112.1194 0.0000 0.0000 0.0000
# 4 0.0000 0.0000 0.0000 21.0633 0.0000 0.0000
# 5 0.0000 0.0000 0.0000 0.0000 30.9420 0.0000
# 6 0.0000 0.0000 0.0000 0.0000 0.0000 26.3001
#
#
#
# Elastic Compliance Matrix: (Units=1/GPa)
#
#
# Indices 1 2 3 4 5 6 
#
# 1 0.018307 -0.004301 -0.006502 0.000000 0.000000 0.000000
# 2 -0.004301 0.019571 -0.007082 0.000000 0.000000 0.000000
# 3 -0.006502 -0.007082 0.015223 0.000000 0.000000 0.000000
# 4 0.000000 0.000000 0.000000 0.047476 0.000000 0.000000
# 5 0.000000 0.000000 0.000000 0.000000 0.032318 0.000000
# 6 0.000000 0.000000 0.000000 0.000000 0.000000 0.038023
#
#
# Mechanical properties :
#
#
# Convention : Reuss Voigt Hill
#
# Bulk Modulus (GPa) = 57.70592 61.50943 59.60768
# Shear Modulus (GPa) = 23.53320 24.39613 23.96466
#
# Velocity S-wave (km/s) = 3.57981 3.64486 3.61248
# Velocity P-wave (km/s) = 6.96496 7.15600 7.06113
#
# Compressibility (1/GPa) = 0.01732924
#
# Stress axis : x y z
#
# Youngs Moduli (GPa) = 54.62329 51.09666 65.69084
#
# Poissons Ratio (x) = 0.21976 0.42715
# Poissons Ratio (y) = 0.23493 0.46525
# Poissons Ratio (z) = 0.35519 0.36189
#
# Static dielectric constant tensor:
#      x y z
#    x 3.333350 0.000000 0.000000 
#    y 0.000000 3.151120 0.000000 
#    z 0.000000 0.000000 3.823340 
# 
# 
# High freq. dielectric constant tensor:
#      x y z
#    x 1.717750 0.000000 0.000000 
#    y 0.000000 1.680360 0.000000 
#    z 0.000000 0.000000 1.727780 
# 
# From -- ./inp_files/26257.got.cif
#   From: 2010.03.12/outbox.cif.g09.slc.cpg/sg59_14_cif.got.tgz:26257.got - 2010.04.16 16:29:54.
