data_PCOD8239113
_publ_section_title
;
Structure prediction by ZEFSAII (Michael W. Deem and Ramdas Pophale) SiO2 
 PCOD8239113
Probable space group: P M M N
;
_chemical_formula_sum "Si O2"
_cell_formula_units_Z 56
_cell_length_a 9.402312
_cell_length_b 21.708235
_cell_length_c 16.869329
_cell_angle_alpha 90.000000
_cell_angle_beta 90.000000
_cell_angle_gamma 90.000000
_cell_volume 3443.158229
_symmetry_space_group_name_H-M "P M M N"
_symmetry_group_IT_number 59
_space_group.IT_coordinate_system_code '2'
_symmetry_cell_setting 'orthorhombic'
loop_
_space_group_symop_operation_xyz
x,y,z
1/2-x,1/2-y,z
1/2+x,-y,-z
-x,1/2+y,-z
-x,-y,-z
1/2+x,1/2+y,-z
1/2-x,y,z
x,1/2-y,z
loop_
_atom_site_type_symbol
_atom_site_label
_atom_site_fract_x
_atom_site_fract_y
_atom_site_fract_z
Si Si1 0.083971 0.943011 0.538649
Si Si2 0.416705 0.683176 0.145416
Si Si3 0.913358 0.495679 0.297460
Si Si4 0.413673 0.582748 0.031051
Si Si5 0.584502 0.117021 0.700094
Si Si6 0.584621 0.018837 0.121643
Si Si7 0.084398 0.681638 0.459897
O O1 0.250000 0.949349 0.513821
O O2 0.065293 0.944795 0.634029
O O3 0.022108 0.876182 0.510821
O O4 0.000000 0.000000 0.500000
O O5 0.250000 0.690330 0.161207
O O6 0.490306 0.750000 0.143427
O O7 0.446539 0.651864 0.060118
O O8 0.479484 0.643295 0.217851
O O9 0.750000 0.516789 0.292960
O O10 0.962196 0.467162 0.212273
O O11 0.004422 0.554664 0.321837
O O12 0.250000 0.565299 0.046295
O O13 0.503391 0.539533 0.088145
O O14 0.451291 0.576177 0.937487
O O15 0.750000 0.100381 0.707094
O O16 0.557039 0.167828 0.632576
O O17 0.750000 0.002942 0.118257
O O18 0.250000 0.685553 0.478750
O O19 0.017607 0.750000 0.479560
#
# Coordination Sequence:
#
# PCOD8239113 Si02
#       7
#     8   8   8   8   8   8   8
#     4  10  19  31  48  68  90 118 151 188 227 268
#     4   9  16  25  40  64  90 113 142 181 217 251
#     4  10  19  29  43  65  95 121 140 176 229 271
#     4   9  16  27  44  63  82 110 147 178 206 248
#     4  10  17  27  45  67  89 115 148 181 217 264
#     4   9  17  28  42  61  87 114 138 172 217 258
#     4   9  17  29  46  67  89 116 152 190 224 263
#
# _framework density 16.264137000000002
#
# number of rings (size 3 to 8) (size 9 to 14) (size 15 to 20)
#    0.000    2.571    2.857    0.429    0.000    1.714 
#    0.000    0.000    0.000    5.143    0.000    6.000 
#    0.000    0.000    0.000    6.571    0.000    8.000 
#
# Total GULP energy -693823.800749 kJ/mol
# GULP energy per Si atom -12389.710728 kJ/mol
# Density = 1.622712 g / cm^3
# Si number density = 16.264137 Si / 1000 Ang^3
#
#
#
# Elastic Constant Matrix: (Units=GPa)
#
#
# Indices 1 2 3 4 5 6 
#
# 1 22.5280 19.9667 20.9524 0.0000 0.0000 0.0000
# 2 19.9667 116.6746 58.4232 0.0000 0.0000 0.0000
# 3 20.9524 58.4232 112.7188 0.0000 0.0000 0.0000
# 4 0.0000 0.0000 0.0000 19.5773 0.0000 0.0000
# 5 0.0000 0.0000 0.0000 0.0000 16.1066 0.0000
# 6 0.0000 0.0000 0.0000 0.0000 0.0000 14.8441
#
#
#
# Elastic Compliance Matrix: (Units=1/GPa)
#
#
# Indices 1 2 3 4 5 6 
#
# 1 0.056582 -0.005964 -0.007426 0.000000 0.000000 0.000000
# 2 -0.005964 0.012204 -0.005217 0.000000 0.000000 0.000000
# 3 -0.007426 -0.005217 0.012956 0.000000 0.000000 0.000000
# 4 0.000000 0.000000 0.000000 0.051080 0.000000 0.000000
# 5 0.000000 0.000000 0.000000 0.000000 0.062086 0.000000
# 6 0.000000 0.000000 0.000000 0.000000 0.000000 0.067367
#
#
# Mechanical properties :
#
#
# Convention : Reuss Voigt Hill
#
# Bulk Modulus (GPa) = 22.45809 50.06732 36.26271
# Shear Modulus (GPa) = 15.90675 20.27753 18.09214
#
# Velocity S-wave (km/s) = 3.13073 3.53478 3.33888
# Velocity P-wave (km/s) = 5.18719 6.89277 6.09989
#
# Compressibility (1/GPa) = 0.04452739
#
# Stress axis : x y z
#
# Youngs Moduli (GPa) = 17.67334 81.94249 77.18528
#
# Poissons Ratio (x) = 0.48874 0.57320
# Poissons Ratio (y) = 0.10541 0.40264
# Poissons Ratio (z) = 0.13125 0.42746
#
# Static dielectric constant tensor:
#      x y z
#    x 2.852990 0.000000 0.000000 
#    y 0.000000 3.190200 0.000000 
#    z 0.000000 0.000000 3.387980 
# 
# 
# High freq. dielectric constant tensor:
#      x y z
#    x 1.594310 0.000000 0.000000 
#    y 0.000000 1.606670 0.000000 
#    z 0.000000 0.000000 1.633500 
# 
# From -- ./inp_files/26129.got.cif
#   From: 2010.03.12/outbox.cif.g09.slc.cpg/sg59_14_cif.got.tgz:26129.got - 2010.04.16 16:29:54.
