data_PCOD8239720
_publ_section_title
;
Structure prediction by ZEFSAII (Michael W. Deem and Ramdas Pophale) SiO2 
 PCOD8239720
Probable space group: P M M N
;
_chemical_formula_sum "Si O2"
_cell_formula_units_Z 64
_cell_length_a 23.238401
_cell_length_b 12.601108
_cell_length_c 12.538588
_cell_angle_alpha 90.000000
_cell_angle_beta 90.000000
_cell_angle_gamma 90.000000
_cell_volume 3671.669718
_symmetry_space_group_name_H-M "P M M N"
_symmetry_group_IT_number 59
_space_group.IT_coordinate_system_code '2'
_symmetry_cell_setting 'orthorhombic'
loop_
_space_group_symop_operation_xyz
x,y,z
1/2-x,1/2-y,z
1/2+x,-y,-z
-x,1/2+y,-z
-x,-y,-z
1/2+x,1/2+y,-z
1/2-x,y,z
x,1/2-y,z
loop_
_atom_site_type_symbol
_atom_site_label
_atom_site_fract_x
_atom_site_fract_y
_atom_site_fract_z
Si Si1 0.147601 0.369913 0.917458
Si Si2 0.042733 0.873362 0.404338
Si Si3 0.685588 0.870474 0.848255
Si Si4 0.561782 0.457408 0.022945
Si Si5 0.476936 0.631804 0.777910
Si Si6 0.586672 0.016959 0.794854
Si Si7 0.685573 0.873134 0.316205
Si Si8 0.425246 0.490665 0.602503
O O1 0.123778 0.250000 0.914923
O O2 0.093211 0.446079 0.917925
O O3 0.183894 0.393738 0.811074
O O4 0.184785 0.389924 0.023982
O O5 0.048634 0.750000 0.434773
O O6 0.975065 0.901028 0.393385
O O7 0.077474 0.894338 0.294758
O O8 0.073399 0.948964 0.490027
O O9 0.750000 0.890440 0.807576
O O10 0.665891 0.750000 0.823537
O O11 0.645639 0.951130 0.781997
O O12 0.557022 0.362522 0.108699
O O13 0.500000 0.500000 0.000000
O O14 0.589793 0.423515 0.910117
O O15 0.491250 0.750000 0.739379
O O16 0.536075 0.568925 0.789673
O O17 0.435473 0.577955 0.692558
O O18 0.750000 0.906577 0.354178
O O19 0.674519 0.750000 0.341398
O O20 0.637389 0.938887 0.380599
#
# Coordination Sequence:
#
# PCOD8239720 Si02
#       8
#     8   8   8   8   8   8   8   8
#     4   9  16  28  47  73 107 139 170 206 251 310
#     4  10  21  37  57  76  99 134 177 216 254 305
#     4   9  16  28  48  74 104 138 173 207 250 304
#     4   9  17  28  42  72 106 137 169 202 252 301
#     4  10  18  30  49  73 102 134 166 205 256 308
#     4   9  19  32  48  73 103 132 169 212 255 298
#     4  10  19  32  54  83 111 136 164 206 264 320
#     4  10  20  36  55  79 104 132 169 214 260 304
#
# _framework density 17.430761
#
# number of rings (size 3 to 8) (size 9 to 14) (size 15 to 20)
#    0.000    2.500    1.250    1.500    0.000    5.000 
#    0.000    2.500    0.000    4.125    0.000    0.000 
#    0.000    0.000    0.000    0.000    0.000    0.000 
#
# Total GULP energy -793159.693109 kJ/mol
# GULP energy per Si atom -12393.120205 kJ/mol
# Density = 1.739109 g / cm^3
# Si number density = 17.430761 Si / 1000 Ang^3
#
#
#
# Elastic Constant Matrix: (Units=GPa)
#
#
# Indices 1 2 3 4 5 6 
#
# 1 95.4926 31.8427 25.3743 0.0000 0.0000 0.0000
# 2 31.8427 67.8763 24.6620 0.0000 0.0000 0.0000
# 3 25.3743 24.6620 75.8813 0.0000 0.0000 0.0000
# 4 0.0000 0.0000 0.0000 16.2091 0.0000 0.0000
# 5 0.0000 0.0000 0.0000 0.0000 20.5322 0.0000
# 6 0.0000 0.0000 0.0000 0.0000 0.0000 25.1189
#
#
#
# Elastic Compliance Matrix: (Units=1/GPa)
#
#
# Indices 1 2 3 4 5 6 
#
# 1 0.012869 -0.005073 -0.002655 0.000000 0.000000 0.000000
# 2 -0.005073 0.018705 -0.004383 0.000000 0.000000 0.000000
# 3 -0.002655 -0.004383 0.015491 0.000000 0.000000 0.000000
# 4 0.000000 0.000000 0.000000 0.061694 0.000000 0.000000
# 5 0.000000 0.000000 0.000000 0.000000 0.048704 0.000000
# 6 0.000000 0.000000 0.000000 0.000000 0.000000 0.039811
#
#
# Mechanical properties :
#
#
# Convention : Reuss Voigt Hill
#
# Bulk Modulus (GPa) = 43.77523 44.77869 44.27696
# Shear Modulus (GPa) = 21.82378 22.86346 22.34362
#
# Velocity S-wave (km/s) = 3.54224 3.62563 3.58418
# Velocity P-wave (km/s) = 6.47288 6.57816 6.52573
#
# Compressibility (1/GPa) = 0.02284397
#
# Stress axis : x y z
#
# Youngs Moduli (GPa) = 77.70662 53.46193 64.55490
#
# Poissons Ratio (x) = 0.27119 0.17137
# Poissons Ratio (y) = 0.39418 0.28294
# Poissons Ratio (z) = 0.20628 0.23432
#
# Static dielectric constant tensor:
#      x y z
#    x 3.085090 0.000000 0.000000 
#    y 0.000000 3.064920 0.000000 
#    z 0.000000 0.000000 3.563820 
# 
# 
# High freq. dielectric constant tensor:
#      x y z
#    x 1.657680 0.000000 0.000000 
#    y 0.000000 1.652670 0.000000 
#    z 0.000000 0.000000 1.674590 
# 
# From -- ./inp_files/18754.got.cif
#   From: 2010.03.12/outbox.cif.g09.slc.cpg/sg59_10_cif.got.tgz:18754.got - 2010.04.16 16:29:54.
