data_PCOD8239400
_publ_section_title
;
Structure prediction by ZEFSAII (Michael W. Deem and Ramdas Pophale) SiO2 
 PCOD8239400
Probable space group: P M M N
;
_chemical_formula_sum "Si O2"
_cell_formula_units_Z 48
_cell_length_a 14.245139
_cell_length_b 21.598925
_cell_length_c 9.327526
_cell_angle_alpha 90.000000
_cell_angle_beta 90.000000
_cell_angle_gamma 90.000000
_cell_volume 2869.890298
_symmetry_space_group_name_H-M "P M M N"
_symmetry_group_IT_number 59
_space_group.IT_coordinate_system_code '2'
_symmetry_cell_setting 'orthorhombic'
loop_
_space_group_symop_operation_xyz
x,y,z
1/2-x,1/2-y,z
1/2+x,-y,-z
-x,1/2+y,-z
-x,-y,-z
1/2+x,1/2+y,-z
1/2-x,y,z
x,1/2-y,z
loop_
_atom_site_type_symbol
_atom_site_label
_atom_site_fract_x
_atom_site_fract_y
_atom_site_fract_z
Si Si1 0.855666 0.952446 0.585205
Si Si2 0.641118 0.321571 0.454723
Si Si3 0.857018 0.525946 0.261477
Si Si4 0.641454 0.413627 0.702355
Si Si5 0.975428 0.099442 0.252047
Si Si6 0.997071 0.930056 0.053971
O O1 0.750000 0.937800 0.638428
O O2 0.863646 0.941984 0.415815
O O3 0.926711 0.906911 0.664021
O O4 0.882375 0.023203 0.619766
O O5 0.750000 0.334788 0.420901
O O6 0.621065 0.250000 0.483829
O O7 0.609913 0.358421 0.597130
O O8 0.581497 0.343152 0.317304
O O9 0.750000 0.512589 0.216889
O O10 0.912378 0.461654 0.264236
O O11 0.902338 0.574803 0.149084
O O12 0.750000 0.408072 0.743255
O O13 0.586093 0.411108 0.850897
O O14 0.001556 0.113949 0.085904
O O15 0.000000 0.000000 0.000000
#
# Coordination Sequence:
#
# PCOD8239400 Si02
#       6
#     8   8   8   8   8   8
#     4  10  18  29  50  76 101 133 168 208 258 304
#     4  10  21  36  55  75  96 134 183 218 244 286
#     4  10  18  28  44  70 102 135 162 197 248 308
#     4  10  18  32  50  72 105 137 169 210 253 300
#     4  11  19  32  48  73 105 133 166 205 258 305
#     4  10  20  29  43  74 104 138 159 198 253 325
#
# _framework density 16.725377000000002
#
# number of rings (size 3 to 8) (size 9 to 14) (size 15 to 20)
#    0.000    1.833    5.000    2.000    0.000    4.000 
#    0.000    0.833    0.000    2.500    0.000    0.000 
#    0.000    1.333    0.000    0.000    0.000    0.000 
#
# Total GULP energy -595145.792193 kJ/mol
# GULP energy per Si atom -12398.870671 kJ/mol
# Density = 1.668731 g / cm^3
# Si number density = 16.725377 Si / 1000 Ang^3
#
#
#
# Elastic Constant Matrix: (Units=GPa)
#
#
# Indices 1 2 3 4 5 6 
#
# 1 94.4021 27.3004 53.1244 0.0000 0.0000 0.0000
# 2 27.3004 52.0401 32.3222 0.0000 0.0000 0.0000
# 3 53.1244 32.3222 122.3757 0.0000 0.0000 0.0000
# 4 0.0000 0.0000 0.0000 14.5479 0.0000 0.0000
# 5 0.0000 0.0000 0.0000 0.0000 21.5905 0.0000
# 6 0.0000 0.0000 0.0000 0.0000 0.0000 17.4368
#
#
#
# Elastic Compliance Matrix: (Units=1/GPa)
#
#
# Indices 1 2 3 4 5 6 
#
# 1 0.014860 -0.004533 -0.005254 0.000000 0.000000 0.000000
# 2 -0.004533 0.024369 -0.004469 0.000000 0.000000 0.000000
# 3 -0.005254 -0.004469 0.011633 0.000000 0.000000 0.000000
# 4 0.000000 0.000000 0.000000 0.068738 0.000000 0.000000
# 5 0.000000 0.000000 0.000000 0.000000 0.046317 0.000000
# 6 0.000000 0.000000 0.000000 0.000000 0.000000 0.057350
#
#
# Mechanical properties :
#
#
# Convention : Reuss Voigt Hill
#
# Bulk Modulus (GPa) = 44.73927 54.92353 49.83140
# Shear Modulus (GPa) = 19.28799 21.11977 20.20388
#
# Velocity S-wave (km/s) = 3.39959 3.55736 3.47937
# Velocity P-wave (km/s) = 6.49746 7.05569 6.78232
#
# Compressibility (1/GPa) = 0.02235173
#
# Stress axis : x y z
#
# Youngs Moduli (GPa) = 67.29311 41.03510 85.96512
#
# Poissons Ratio (x) = 0.18600 0.45165
# Poissons Ratio (y) = 0.30501 0.38417
# Poissons Ratio (z) = 0.35355 0.18338
#
# Static dielectric constant tensor:
#      x y z
#    x 3.417660 0.000000 0.000000 
#    y 0.000000 2.719440 0.000000 
#    z 0.000000 0.000000 3.792600 
# 
# 
# High freq. dielectric constant tensor:
#      x y z
#    x 1.655820 0.000000 0.000000 
#    y 0.000000 1.581850 0.000000 
#    z 0.000000 0.000000 1.657680 
# 
# From -- ./inp_files/9189.got.cif
#   From: 2010.03.12/outbox.cif.g09.slc.cpg/sg59_5_cif.got.tgz:9189.got - 2010.04.16 16:29:54.
