data_PCOD8239535
_publ_section_title
;
Structure prediction by ZEFSAII (Michael W. Deem and Ramdas Pophale) SiO2 
 PCOD8239535
Probable space group: P M M N
;
_chemical_formula_sum "Si O2"
_cell_formula_units_Z 64
_cell_length_a 14.244847
_cell_length_b 10.158629
_cell_length_c 24.132825
_cell_angle_alpha 90.000000
_cell_angle_beta 90.000000
_cell_angle_gamma 90.000000
_cell_volume 3492.215636
_symmetry_space_group_name_H-M "P M M N"
_symmetry_group_IT_number 59
_space_group.IT_coordinate_system_code '2'
_symmetry_cell_setting 'orthorhombic'
loop_
_space_group_symop_operation_xyz
x,y,z
1/2-x,1/2-y,z
1/2+x,-y,-z
-x,1/2+y,-z
-x,-y,-z
1/2+x,1/2+y,-z
1/2-x,y,z
x,1/2-y,z
loop_
_atom_site_type_symbol
_atom_site_label
_atom_site_fract_x
_atom_site_fract_y
_atom_site_fract_z
Si Si1 0.143244 0.604706 0.729304
Si Si2 0.353571 0.472470 0.615405
Si Si3 0.025661 0.098878 0.923881
Si Si4 0.353509 0.594163 0.281328
Si Si5 0.143218 0.898369 0.497168
Si Si6 0.552915 0.104878 0.610216
Si Si7 0.481951 0.096845 0.795137
Si Si8 0.140984 0.598757 0.994953
O O1 0.250000 0.601937 0.749486
O O2 0.099919 0.750000 0.740996
O O3 0.137982 0.581713 0.663236
O O4 0.093958 0.491151 0.764162
O O5 0.250000 0.403414 0.619131
O O6 0.369092 0.532343 0.555351
O O7 0.441675 0.375764 0.621864
O O8 0.058167 0.250000 0.933473
O O9 0.016718 0.064905 0.859689
O O10 0.922982 0.075399 0.950703
O O11 0.104507 0.001091 0.947980
O O12 0.250000 0.533966 0.272541
O O13 0.349134 0.750000 0.287852
O O14 0.399775 0.532053 0.337082
O O15 0.415824 0.557728 0.228134
O O16 0.250000 0.906776 0.476503
O O17 0.109779 0.750000 0.507279
O O18 0.079865 0.966057 0.448174
O O19 0.597387 0.250000 0.605575
O O20 0.457986 0.250000 0.783418
O O21 0.250000 0.567881 0.009036
O O22 0.130531 0.750000 0.974179
#
# Coordination Sequence:
#
# PCOD8239535 Si02
#       8
#     8   8   8   8   8   8   8   8
#     4  10  21  36  53  73 100 139 182 218 258 313
#     4  10  19  31  47  67  93 127 168 211 256 311
#     4   9  19  34  53  79 111 142 175 214 258 307
#     4   9  17  30  49  73  99 128 165 209 258 312
#     4   9  17  29  46  68  92 118 156 210 263 312
#     4  10  18  29  46  70  97 124 159 207 265 319
#     4  10  20  35  54  79 108 138 174 218 264 304
#     4   9  18  34  56  81 110 143 177 213 253 299
#
# _framework density 18.326474999999999
#
# number of rings (size 3 to 8) (size 9 to 14) (size 15 to 20)
#    0.000    2.500    1.250    1.125    0.000    5.250 
#    0.000    6.250    0.000    0.375    0.000    1.750 
#    0.000    0.000    0.000    0.000    0.000    0.000 
#
# Total GULP energy -792987.391228 kJ/mol
# GULP energy per Si atom -12390.427988 kJ/mol
# Density = 1.828476 g / cm^3
# Si number density = 18.326475 Si / 1000 Ang^3
#
#
#
# Elastic Constant Matrix: (Units=GPa)
#
#
# Indices 1 2 3 4 5 6 
#
# 1 120.8566 37.9377 51.4288 0.0000 0.0000 0.0000
# 2 37.9377 60.9152 42.5156 0.0000 0.0000 0.0000
# 3 51.4288 42.5156 125.8915 0.0000 0.0000 0.0000
# 4 0.0000 0.0000 0.0000 17.0952 0.0000 0.0000
# 5 0.0000 0.0000 0.0000 0.0000 21.9054 0.0000
# 6 0.0000 0.0000 0.0000 0.0000 0.0000 21.4871
#
#
#
# Elastic Compliance Matrix: (Units=1/GPa)
#
#
# Indices 1 2 3 4 5 6 
#
# 1 0.011018 -0.004868 -0.002857 0.000000 0.000000 0.000000
# 2 -0.004868 0.023630 -0.005992 0.000000 0.000000 0.000000
# 3 -0.002857 -0.005992 0.011134 0.000000 0.000000 0.000000
# 4 0.000000 0.000000 0.000000 0.058496 0.000000 0.000000
# 5 0.000000 0.000000 0.000000 0.000000 0.045651 0.000000
# 6 0.000000 0.000000 0.000000 0.000000 0.000000 0.046539
#
#
# Mechanical properties :
#
#
# Convention : Reuss Voigt Hill
#
# Bulk Modulus (GPa) = 54.49969 63.49195 58.99582
# Shear Modulus (GPa) = 21.73747 23.81629 22.77688
#
# Velocity S-wave (km/s) = 3.44775 3.60885 3.52922
# Velocity P-wave (km/s) = 6.75663 7.21701 6.99061
#
# Compressibility (1/GPa) = 0.01834873
#
# Stress axis : x y z
#
# Youngs Moduli (GPa) = 90.75933 42.31947 89.81525
#
# Poissons Ratio (x) = 0.20601 0.25661
# Poissons Ratio (y) = 0.44181 0.53813
# Poissons Ratio (z) = 0.25931 0.25356
#
# Static dielectric constant tensor:
#      x y z
#    x 3.585860 0.000000 0.000000 
#    y 0.000000 3.118820 0.000000 
#    z 0.000000 0.000000 3.422140 
# 
# 
# High freq. dielectric constant tensor:
#      x y z
#    x 1.717400 0.000000 0.000000 
#    y 0.000000 1.673190 0.000000 
#    z 0.000000 0.000000 1.714850 
# 
# From -- ./inp_files/31986.got.cif
#   From: 2010.03.12/outbox.cif.g09.slc.cpg/sg59_16_cif.got.tgz:31986.got - 2010.04.16 16:29:54.
