data_PCOD8239328
_publ_section_title
;
Structure prediction by ZEFSAII (Michael W. Deem and Ramdas Pophale) SiO2 
 PCOD8239328
Probable space group: P M M N
;
_chemical_formula_sum "Si O2"
_cell_formula_units_Z 40
_cell_length_a 9.140649
_cell_length_b 21.200344
_cell_length_c 12.454153
_cell_angle_alpha 90.000000
_cell_angle_beta 90.000000
_cell_angle_gamma 90.000000
_cell_volume 2413.426833
_symmetry_space_group_name_H-M "P M M N"
_symmetry_group_IT_number 59
_space_group.IT_coordinate_system_code '2'
_symmetry_cell_setting 'orthorhombic'
loop_
_space_group_symop_operation_xyz
x,y,z
1/2-x,1/2-y,z
1/2+x,-y,-z
-x,1/2+y,-z
-x,-y,-z
1/2+x,1/2+y,-z
1/2-x,y,z
x,1/2-y,z
loop_
_atom_site_type_symbol
_atom_site_label
_atom_site_fract_x
_atom_site_fract_y
_atom_site_fract_z
Si Si1 0.919478 0.945788 0.639038
Si Si2 0.077220 0.680095 0.249435
Si Si3 0.581540 0.420147 0.918868
Si Si4 0.579914 0.087123 0.567355
Si Si5 0.581352 0.043494 0.151746
O O1 0.750000 0.928891 0.644519
O O2 0.989985 0.906141 0.542334
O O3 0.994491 0.924671 0.750232
O O4 0.948511 0.019910 0.622867
O O5 0.250000 0.685502 0.258589
O O6 0.006113 0.750000 0.249409
O O7 0.035212 0.645021 0.138410
O O8 0.019959 0.640373 0.351523
O O9 0.750000 0.437863 0.890611
O O10 0.479022 0.474432 0.873398
O O11 0.561253 0.412277 0.046866
O O12 0.750000 0.095815 0.540175
O O13 0.750000 0.036935 0.184520
#
# Coordination Sequence:
#
# PCOD8239328 Si02
#       5
#     8   8   8   8   8
#     4  10  18  29  46  67  95 124 151 191 236 278
#     4   9  16  29  50  71  93 121 152 191 233 272
#     4   9  17  30  45  68  96 121 154 190 230 280
#     4   9  17  29  45  68  94 119 153 190 229 279
#     4  10  18  27  45  69  96 125 152 191 235 277
#
# _framework density 16.573944000000001
#
# number of rings (size 3 to 8) (size 9 to 14) (size 15 to 20)
#    0.000    2.600    2.000    1.200    0.000    1.600 
#    0.000    0.000    0.000    3.600    0.000    5.600 
#    0.000    0.000    0.000    0.000    0.000    0.000 
#
# Total GULP energy -495941.762046 kJ/mol
# GULP energy per Si atom -12398.544051 kJ/mol
# Density = 1.653622 g / cm^3
# Si number density = 16.573944 Si / 1000 Ang^3
#
#
#
# Elastic Constant Matrix: (Units=GPa)
#
#
# Indices 1 2 3 4 5 6 
#
# 1 72.8828 23.9511 61.1406 0.0000 0.0000 0.0000
# 2 23.9511 89.3056 58.8475 0.0000 0.0000 0.0000
# 3 61.1406 58.8475 153.7507 0.0000 0.0000 0.0000
# 4 0.0000 0.0000 0.0000 22.4274 0.0000 0.0000
# 5 0.0000 0.0000 0.0000 0.0000 28.6924 0.0000
# 6 0.0000 0.0000 0.0000 0.0000 0.0000 12.1762
#
#
#
# Elastic Compliance Matrix: (Units=1/GPa)
#
#
# Indices 1 2 3 4 5 6 
#
# 1 0.020591 -0.000169 -0.008123 0.000000 0.000000 0.000000
# 2 -0.000169 0.014976 -0.005664 0.000000 0.000000 0.000000
# 3 -0.008123 -0.005664 0.011902 0.000000 0.000000 0.000000
# 4 0.000000 0.000000 0.000000 0.044588 0.000000 0.000000
# 5 0.000000 0.000000 0.000000 0.000000 0.034852 0.000000
# 6 0.000000 0.000000 0.000000 0.000000 0.000000 0.082128
#
#
# Mechanical properties :
#
#
# Convention : Reuss Voigt Hill
#
# Bulk Modulus (GPa) = 51.13951 67.09082 59.11517
# Shear Modulus (GPa) = 20.53643 24.12586 22.33115
#
# Velocity S-wave (km/s) = 3.52387 3.81944 3.67463
# Velocity P-wave (km/s) = 6.89052 7.74715 7.33136
#
# Compressibility (1/GPa) = 0.01955435
#
# Stress axis : x y z
#
# Youngs Moduli (GPa) = 48.56510 66.77568 84.01674
#
# Poissons Ratio (x) = 0.01132 0.68249
# Poissons Ratio (y) = 0.00823 0.47591
# Poissons Ratio (z) = 0.39451 0.37825
#
# Static dielectric constant tensor:
#      x y z
#    x 3.029250 0.000000 0.000000 
#    y 0.000000 2.975180 0.000000 
#    z 0.000000 0.000000 3.368480 
# 
# 
# High freq. dielectric constant tensor:
#      x y z
#    x 1.627120 0.000000 0.000000 
#    y 0.000000 1.590600 0.000000 
#    z 0.000000 0.000000 1.654380 
# 
# From -- ./inp_files/14043.got.cif
#   From: 2010.03.12/outbox.cif.g09.slc.cpg/sg59_8_cif.got.tgz:14043.got - 2010.04.16 16:29:54.
