data_PCOD8239598
_publ_section_title
;
Structure prediction by ZEFSAII (Michael W. Deem and Ramdas Pophale) SiO2 
 PCOD8239598
Probable space group: P M M N
;
_chemical_formula_sum "Si O2"
_cell_formula_units_Z 64
_cell_length_a 23.766156
_cell_length_b 9.030635
_cell_length_c 15.560028
_cell_angle_alpha 90.000000
_cell_angle_beta 90.000000
_cell_angle_gamma 90.000000
_cell_volume 3339.547361
_symmetry_space_group_name_H-M "P M M N"
_symmetry_group_IT_number 59
_space_group.IT_coordinate_system_code '2'
_symmetry_cell_setting 'orthorhombic'
loop_
_space_group_symop_operation_xyz
x,y,z
1/2-x,1/2-y,z
1/2+x,-y,-z
-x,1/2+y,-z
-x,-y,-z
1/2+x,1/2+y,-z
1/2-x,y,z
x,1/2-y,z
loop_
_atom_site_type_symbol
_atom_site_label
_atom_site_fract_x
_atom_site_fract_y
_atom_site_fract_z
Si Si1 0.377636 0.574529 0.129170
Si Si2 0.391837 0.416816 0.636149
Si Si3 0.115375 0.421306 0.449170
Si Si4 0.390329 0.575023 0.807602
Si Si5 0.686826 0.073773 0.039473
Si Si6 0.017636 0.075265 0.184184
Si Si7 0.022144 0.919697 0.357766
Si Si8 0.684945 0.578535 0.716487
O O1 0.383255 0.750000 0.130172
O O2 0.440045 0.504624 0.117792
O O3 0.348290 0.521533 0.216245
O O4 0.341094 0.518212 0.048634
O O5 0.378772 0.250000 0.665331
O O6 0.361117 0.455655 0.545691
O O7 0.370837 0.519415 0.713894
O O8 0.457663 0.439054 0.616342
O O9 0.096075 0.250000 0.444992
O O10 0.061296 0.525550 0.435135
O O11 0.163783 0.456024 0.379954
O O12 0.388618 0.750000 0.804772
O O13 0.348408 0.511243 0.879681
O O14 0.453541 0.521113 0.831085
O O15 0.750000 0.009985 0.044761
O O16 0.687438 0.250000 0.042004
O O17 0.023724 0.250000 0.174542
O O18 0.037721 0.025575 0.278268
O O19 0.035957 0.750000 0.333591
O O20 0.750000 0.534623 0.720298
O O21 0.675173 0.750000 0.740202
#
# Coordination Sequence:
#
# PCOD8239598 Si02
#       8
#     8   8   8   8   8   8   8   8
#     4  11  21  34  56  83 108 137 176 221 271 325
#     4   9  19  33  50  76 109 141 175 217 266 313
#     4  10  19  32  50  72 104 144 179 214 262 316
#     4   9  19  36  57  79 105 141 182 221 266 322
#     4   9  19  37  59  81 105 136 177 224 272 319
#     4  10  19  32  51  78 112 144 174 212 267 328
#     4  10  18  29  48  76 107 139 177 218 259 308
#     4  10  21  36  53  74 105 145 183 219 264 320
#
# _framework density 19.164273000000001
#
# number of rings (size 3 to 8) (size 9 to 14) (size 15 to 20)
#    0.000    2.250    1.250    1.875    0.000    2.750 
#    0.000    1.875    0.000    2.625    0.000    0.000 
#    0.000    0.000    0.000    0.000    0.000    0.000 
#
# Total GULP energy -793541.835792 kJ/mol
# GULP energy per Si atom -12399.091184 kJ/mol
# Density = 1.912065 g / cm^3
# Si number density = 19.164273 Si / 1000 Ang^3
#
#
#
# Elastic Constant Matrix: (Units=GPa)
#
#
# Indices 1 2 3 4 5 6 
#
# 1 89.2524 29.5580 71.2129 0.0000 0.0000 0.0000
# 2 29.5580 49.7295 32.9917 0.0000 0.0000 0.0000
# 3 71.2129 32.9917 134.1925 0.0000 0.0000 0.0000
# 4 0.0000 0.0000 0.0000 24.4325 0.0000 0.0000
# 5 0.0000 0.0000 0.0000 0.0000 26.6199 0.0000
# 6 0.0000 0.0000 0.0000 0.0000 0.0000 18.4947
#
#
#
# Elastic Compliance Matrix: (Units=1/GPa)
#
#
# Indices 1 2 3 4 5 6 
#
# 1 0.020845 -0.006035 -0.009578 0.000000 0.000000 0.000000
# 2 -0.006035 0.025775 -0.003134 0.000000 0.000000 0.000000
# 3 -0.009578 -0.003134 0.013305 0.000000 0.000000 0.000000
# 4 0.000000 0.000000 0.000000 0.040929 0.000000 0.000000
# 5 0.000000 0.000000 0.000000 0.000000 0.037566 0.000000
# 6 0.000000 0.000000 0.000000 0.000000 0.000000 0.054070
#
#
# Mechanical properties :
#
#
# Convention : Reuss Voigt Hill
#
# Bulk Modulus (GPa) = 44.58224 60.07775 52.33000
# Shear Modulus (GPa) = 21.05589 23.20353 22.12971
#
# Velocity S-wave (km/s) = 3.31827 3.48339 3.40183
# Velocity P-wave (km/s) = 6.16400 6.89895 6.54181
#
# Compressibility (1/GPa) = 0.02243045
#
# Stress axis : x y z
#
# Youngs Moduli (GPa) = 47.97238 38.79682 75.15692
#
# Poissons Ratio (x) = 0.23416 0.71988
# Poissons Ratio (y) = 0.28954 0.23555
# Poissons Ratio (z) = 0.45949 0.12159
#
# Static dielectric constant tensor:
#      x y z
#    x 3.599430 0.000000 0.000000 
#    y 0.000000 3.329930 0.000000 
#    z 0.000000 0.000000 3.586330 
# 
# 
# High freq. dielectric constant tensor:
#      x y z
#    x 1.733300 0.000000 0.000000 
#    y 0.000000 1.729740 0.000000 
#    z 0.000000 0.000000 1.746180 
# 
# From -- ./inp_files/21446.got.cif
#   From: 2010.03.12/outbox.cif.g09.slc.cpg/sg59_11_cif.got.tgz:21446.got - 2010.04.16 16:29:54.
