data_PCOD8239504
_publ_section_title
;
Structure prediction by ZEFSAII (Michael W. Deem and Ramdas Pophale) SiO2 
 PCOD8239504
Probable space group: P M M N
;
_chemical_formula_sum "Si O2"
_cell_formula_units_Z 64
_cell_length_a 9.194902
_cell_length_b 20.410641
_cell_length_c 20.443173
_cell_angle_alpha 90.000000
_cell_angle_beta 90.000000
_cell_angle_gamma 90.000000
_cell_volume 3836.648855
_symmetry_space_group_name_H-M "P M M N"
_symmetry_group_IT_number 59
_space_group.IT_coordinate_system_code '2'
_symmetry_cell_setting 'orthorhombic'
loop_
_space_group_symop_operation_xyz
x,y,z
1/2-x,1/2-y,z
1/2+x,-y,-z
-x,1/2+y,-z
-x,-y,-z
1/2+x,1/2+y,-z
1/2-x,y,z
x,1/2-y,z
loop_
_atom_site_type_symbol
_atom_site_label
_atom_site_fract_x
_atom_site_fract_y
_atom_site_fract_z
Si Si1 0.586921 0.992521 0.810083
Si Si2 0.084688 0.323602 0.467289
Si Si3 0.919724 0.551062 0.453306
Si Si4 0.422385 0.964342 0.940817
Si Si5 0.084730 0.010267 0.686681
Si Si6 0.085558 0.856784 0.661086
Si Si7 0.915467 0.320509 0.091781
Si Si8 0.910300 0.658465 0.782142
O O1 0.750000 0.020539 0.823981
O O2 0.511463 0.031364 0.749830
O O3 0.487104 0.995795 0.874674
O O4 0.598708 0.918899 0.786696
O O5 0.250000 0.334015 0.442752
O O6 0.061869 0.250000 0.494619
O O7 0.048438 0.374629 0.524858
O O8 0.977979 0.336586 0.407997
O O9 0.750000 0.532687 0.456159
O O10 0.974972 0.546579 0.378291
O O11 0.000000 0.500000 0.500000
O O12 0.250000 0.977158 0.942616
O O13 0.459836 0.886204 0.948051
O O14 0.500000 0.000000 0.000000
O O15 0.250000 0.030894 0.702625
O O16 0.075057 0.933918 0.671161
O O17 0.250000 0.831899 0.664093
O O18 0.997349 0.819778 0.717833
O O19 0.750000 0.330722 0.114971
O O20 0.931322 0.250000 0.052817
O O21 0.012309 0.311861 0.155266
O O22 0.750000 0.689025 0.777915
#
# Coordination Sequence:
#
# PCOD8239504 Si02
#       8
#     8   8   8   8   8   8   8   8
#     4   9  17  29  46  70  97 124 156 194 236 282
#     4  10  21  34  46  63  90 122 155 195 244 295
#     4  10  19  32  50  70  92 119 157 201 244 289
#     4  10  19  32  51  74 102 133 162 197 237 281
#     4   9  17  29  46  69  93 118 152 198 245 284
#     4  10  18  29  45  64  88 121 159 196 235 279
#     4   9  18  32  48  67  93 127 165 199 232 273
#     4   9  17  28  43  64  91 123 158 195 233 273
#
# _framework density 16.681225999999999
#
# number of rings (size 3 to 8) (size 9 to 14) (size 15 to 20)
#    0.000    2.500    1.250    1.500    0.000    5.500 
#    0.000    0.000    0.000    0.000    0.000    0.875 
#    0.000    3.000    0.000    0.000    0.000    0.000 
#
# Total GULP energy -793146.064243 kJ/mol
# GULP energy per Si atom -12392.907254 kJ/mol
# Density = 1.664326 g / cm^3
# Si number density = 16.681226 Si / 1000 Ang^3
#
#
#
# Elastic Constant Matrix: (Units=GPa)
#
#
# Indices 1 2 3 4 5 6 
#
# 1 101.3892 43.2677 61.6506 0.0000 0.0000 0.0000
# 2 43.2677 58.2390 51.2314 0.0000 0.0000 0.0000
# 3 61.6506 51.2314 120.5811 0.0000 0.0000 0.0000
# 4 0.0000 0.0000 0.0000 6.6295 0.0000 0.0000
# 5 0.0000 0.0000 0.0000 0.0000 30.8990 0.0000
# 6 0.0000 0.0000 0.0000 0.0000 0.0000 9.2708
#
#
#
# Elastic Compliance Matrix: (Units=1/GPa)
#
#
# Indices 1 2 3 4 5 6 
#
# 1 0.016161 -0.007566 -0.005049 0.000000 0.000000 0.000000
# 2 -0.007566 0.030960 -0.009286 0.000000 0.000000 0.000000
# 3 -0.005049 -0.009286 0.014820 0.000000 0.000000 0.000000
# 4 0.000000 0.000000 0.000000 0.150841 0.000000 0.000000
# 5 0.000000 0.000000 0.000000 0.000000 0.032363 0.000000
# 6 0.000000 0.000000 0.000000 0.000000 0.000000 0.107866
#
#
# Mechanical properties :
#
#
# Convention : Reuss Voigt Hill
#
# Bulk Modulus (GPa) = 55.12413 65.83428 60.47920
# Shear Modulus (GPa) = 12.41130 17.63050 15.02090
#
# Velocity S-wave (km/s) = 2.73065 3.25454 3.00403
# Velocity P-wave (km/s) = 6.56196 7.32629 6.95463
#
# Compressibility (1/GPa) = 0.01814088
#
# Stress axis : x y z
#
# Youngs Moduli (GPa) = 61.87550 32.29981 67.47816
#
# Poissons Ratio (x) = 0.24437 0.34067
# Poissons Ratio (y) = 0.46814 0.62658
# Poissons Ratio (z) = 0.31238 0.29993
#
# Static dielectric constant tensor:
#      x y z
#    x 3.473350 0.000000 0.000000 
#    y 0.000000 3.278540 0.000000 
#    z 0.000000 0.000000 3.075390 
# 
# 
# High freq. dielectric constant tensor:
#      x y z
#    x 1.655250 0.000000 0.000000 
#    y 0.000000 1.616560 0.000000 
#    z 0.000000 0.000000 1.622670 
# 
# From -- ./inp_files/29773.got.cif
#   From: 2010.03.12/outbox.cif.g09.slc.cpg/sg59_15_cif.got.tgz:29773.got - 2010.04.16 16:29:54.
