data_PCOD8239977
_publ_section_title
;
Structure prediction by ZEFSAII (Michael W. Deem and Ramdas Pophale) SiO2 
 PCOD8239977
Probable space group: P M M N
;
_chemical_formula_sum "Si O2"
_cell_formula_units_Z 52
_cell_length_a 9.301177
_cell_length_b 15.786880
_cell_length_c 19.087369
_cell_angle_alpha 90.000000
_cell_angle_beta 90.000000
_cell_angle_gamma 90.000000
_cell_volume 2802.723702
_symmetry_space_group_name_H-M "P M M N"
_symmetry_group_IT_number 59
_space_group.IT_coordinate_system_code '2'
_symmetry_cell_setting 'orthorhombic'
loop_
_space_group_symop_operation_xyz
x,y,z
1/2-x,1/2-y,z
1/2+x,-y,-z
-x,1/2+y,-z
-x,-y,-z
1/2+x,1/2+y,-z
1/2-x,y,z
x,1/2-y,z
loop_
_atom_site_type_symbol
_atom_site_label
_atom_site_fract_x
_atom_site_fract_y
_atom_site_fract_z
Si Si1 0.915935 0.750000 0.553323
Si Si2 0.988294 0.750000 0.711068
Si Si3 0.925624 0.425368 0.456152
Si Si4 0.915027 0.152427 0.916386
Si Si5 0.912201 0.108741 0.068091
Si Si6 0.411786 0.567286 0.700305
Si Si7 0.906687 0.750000 0.861559
Si Si8 0.412835 0.461629 0.827341
O O1 0.750000 0.750000 0.524888
O O2 0.903589 0.750000 0.637636
O O3 0.003579 0.833337 0.525853
O O4 0.883117 0.750000 0.777480
O O5 0.086566 0.833085 0.716981
O O6 0.750000 0.421402 0.465487
O O7 0.973225 0.449510 0.377069
O O8 0.000000 0.500000 0.500000
O O9 0.750000 0.134223 0.900229
O O10 0.949082 0.250000 0.928654
O O11 0.999156 0.122040 0.847124
O O12 0.964955 0.104966 0.987602
O O13 0.750000 0.145573 0.069700
O O14 0.011123 0.167064 0.115198
O O15 0.919262 0.017085 0.102329
O O16 0.250000 0.536557 0.702221
O O17 0.487326 0.510471 0.760998
O O18 0.750000 0.750000 0.896613
O O19 0.250000 0.435539 0.809992
#
# Coordination Sequence:
#
# PCOD8239977 Si02
#       8
#     4   4   8   8   8   8   4   8
#     4  10  20  35  56  85 119 152 186 224 273 332
#     4  10  18  32  50  78 117 146 173 210 265 326
#     4  10  20  36  59  87 118 152 189 228 273 329
#     4  10  21  37  54  71  97 136 178 222 274 325
#     4  10  20  36  54  71 100 140 176 211 265 329
#     4   9  18  32  55  83 110 144 182 215 258 320
#     4  12  22  29  46  79 111 136 170 216 263 310
#     4  10  20  34  55  80 102 132 176 222 265 314
#
# _framework density 18.553381000000002
#
# number of rings (size 3 to 8) (size 9 to 14) (size 15 to 20)
#    0.000    2.000    2.308    1.846    0.000    4.000 
#    0.000    1.538    1.692    0.000    0.000    0.000 
#    0.000    0.000    0.000    0.000    0.000    0.000 
#
# Total GULP energy -644306.196740 kJ/mol
# GULP energy per Si atom -12390.503783 kJ/mol
# Density = 1.851115 g / cm^3
# Si number density = 18.553381 Si / 1000 Ang^3
#
#
#
# Elastic Constant Matrix: (Units=GPa)
#
#
# Indices 1 2 3 4 5 6 
#
# 1 77.0570 41.3975 35.0088 0.0000 0.0000 0.0000
# 2 41.3975 67.8319 51.1973 0.0000 0.0000 0.0000
# 3 35.0088 51.1973 97.0592 0.0000 0.0000 0.0000
# 4 0.0000 0.0000 0.0000 36.2062 0.0000 0.0000
# 5 0.0000 0.0000 0.0000 0.0000 20.8663 0.0000
# 6 0.0000 0.0000 0.0000 0.0000 0.0000 19.7382
#
#
#
# Elastic Compliance Matrix: (Units=1/GPa)
#
#
# Indices 1 2 3 4 5 6 
#
# 1 0.019399 -0.010896 -0.001250 0.000000 0.000000 0.000000
# 2 -0.010896 0.030614 -0.012218 0.000000 0.000000 0.000000
# 3 -0.001250 -0.012218 0.017199 0.000000 0.000000 0.000000
# 4 0.000000 0.000000 0.000000 0.027620 0.000000 0.000000
# 5 0.000000 0.000000 0.000000 0.000000 0.047924 0.000000
# 6 0.000000 0.000000 0.000000 0.000000 0.000000 0.050663
#
#
# Mechanical properties :
#
#
# Convention : Reuss Voigt Hill
#
# Bulk Modulus (GPa) = 54.10125 55.23947 54.67036
# Shear Modulus (GPa) = 20.13636 22.98510 21.56073
#
# Velocity S-wave (km/s) = 3.29799 3.52357 3.41264
# Velocity P-wave (km/s) = 6.61252 6.81116 6.71258
#
# Compressibility (1/GPa) = 0.01848386
#
# Stress axis : x y z
#
# Youngs Moduli (GPa) = 51.54986 32.66490 58.14377
#
# Poissons Ratio (x) = 0.35591 0.07266
# Poissons Ratio (y) = 0.56167 0.71042
# Poissons Ratio (z) = 0.06442 0.39911
#
# Static dielectric constant tensor:
#      x y z
#    x 3.314560 0.000000 0.000000 
#    y 0.000000 3.306760 0.000000 
#    z 0.000000 0.000000 3.523600 
# 
# 
# High freq. dielectric constant tensor:
#      x y z
#    x 1.707910 0.000000 0.000000 
#    y 0.000000 1.710210 0.000000 
#    z 0.000000 0.000000 1.709850 
# 
# From -- ./inp_files/28949.got.cif
#   From: 2010.03.12/outbox.cif.g09.slc.cpg/sg59_15_cif.got.tgz:28949.got - 2010.04.16 16:29:54.
