data_PCOD8239048
_publ_section_title
;
Structure prediction by ZEFSAII (Michael W. Deem and Ramdas Pophale) SiO2 
 PCOD8239048
Probable space group: P M M N
;
_chemical_formula_sum "Si O2"
_cell_formula_units_Z 64
_cell_length_a 22.831904
_cell_length_b 9.064717
_cell_length_c 20.087404
_cell_angle_alpha 90.000000
_cell_angle_beta 90.000000
_cell_angle_gamma 90.000000
_cell_volume 4157.384513
_symmetry_space_group_name_H-M "P M M N"
_symmetry_group_IT_number 59
_space_group.IT_coordinate_system_code '2'
_symmetry_cell_setting 'orthorhombic'
loop_
_space_group_symop_operation_xyz
x,y,z
1/2-x,1/2-y,z
1/2+x,-y,-z
-x,1/2+y,-z
-x,-y,-z
1/2+x,1/2+y,-z
1/2-x,y,z
x,1/2-y,z
loop_
_atom_site_type_symbol
_atom_site_label
_atom_site_fract_x
_atom_site_fract_y
_atom_site_fract_z
Si Si1 0.527033 0.077827 0.710612
Si Si2 0.183808 0.424600 0.793490
Si Si3 0.554367 0.916873 0.581762
Si Si4 0.529939 0.924141 0.846512
Si Si5 0.894136 0.578928 0.327939
Si Si6 0.443736 0.579018 0.028535
Si Si7 0.418867 0.583832 0.543973
Si Si8 0.899051 0.082050 0.109563
O O1 0.541686 0.250000 0.716272
O O2 0.458295 0.049236 0.701208
O O3 0.563151 0.009934 0.649079
O O4 0.548107 0.993979 0.776441
O O5 0.250000 0.484710 0.793035
O O6 0.181791 0.250000 0.796642
O O7 0.151975 0.479905 0.726402
O O8 0.151064 0.482624 0.858673
O O9 0.576598 0.750000 0.592541
O O10 0.486994 0.917972 0.561118
O O11 0.592566 0.992388 0.523532
O O12 0.540170 0.750000 0.845226
O O13 0.462893 0.966235 0.863584
O O14 0.572697 0.996835 0.902502
O O15 0.885152 0.750000 0.344699
O O16 0.882933 0.489502 0.395715
O O17 0.457583 0.750000 0.042913
O O18 0.500000 0.500000 0.000000
O O19 0.394446 0.564028 0.970877
O O20 0.396251 0.750000 0.533539
O O21 0.887520 0.250000 0.130676
#
# Coordination Sequence:
#
# PCOD8239048 Si02
#       8
#     8   8   8   8   8   8   8   8
#     4  10  17  25  39  57  79 109 138 168 202 240
#     4  10  20  32  45  61  80 105 140 179 216 252
#     4   9  16  25  36  53  77 103 130 165 198 234
#     4  10  18  27  40  60  82 107 137 169 204 247
#     4   9  17  28  40  55  74 102 135 170 210 246
#     4   9  17  28  41  59  79 102 132 167 204 247
#     4   9  16  25  38  54  72  98 132 167 199 238
#     4   9  18  30  43  58  78 103 134 171 210 250
#
# _framework density 15.394294
#
# number of rings (size 3 to 8) (size 9 to 14) (size 15 to 20)
#    0.000    2.625    1.250    2.625    0.000    6.750 
#    0.000    0.000    0.000    0.000    0.000    0.000 
#    0.000    0.000    0.000    1.125    0.000   19.250 
#
# Total GULP energy -793422.142922 kJ/mol
# GULP energy per Si atom -12397.220983 kJ/mol
# Density = 1.535926 g / cm^3
# Si number density = 15.394294 Si / 1000 Ang^3
#
#
#
# Elastic Constant Matrix: (Units=GPa)
#
#
# Indices 1 2 3 4 5 6 
#
# 1 31.9396 19.6618 30.3190 0.0000 0.0000 0.0000
# 2 19.6618 97.8881 67.6105 0.0000 0.0000 0.0000
# 3 30.3190 67.6105 144.2721 0.0000 0.0000 0.0000
# 4 0.0000 0.0000 0.0000 35.5023 0.0000 0.0000
# 5 0.0000 0.0000 0.0000 0.0000 11.5526 0.0000
# 6 0.0000 0.0000 0.0000 0.0000 0.0000 11.5612
#
#
#
# Elastic Compliance Matrix: (Units=1/GPa)
#
#
# Indices 1 2 3 4 5 6 
#
# 1 0.039811 -0.003279 -0.006830 0.000000 0.000000 0.000000
# 2 -0.003279 0.015375 -0.006516 0.000000 0.000000 0.000000
# 3 -0.006830 -0.006516 0.011420 0.000000 0.000000 0.000000
# 4 0.000000 0.000000 0.000000 0.028167 0.000000 0.000000
# 5 0.000000 0.000000 0.000000 0.000000 0.086560 0.000000
# 6 0.000000 0.000000 0.000000 0.000000 0.000000 0.086496
#
#
# Mechanical properties :
#
#
# Convention : Reuss Voigt Hill
#
# Bulk Modulus (GPa) = 29.97938 56.58694 43.28316
# Shear Modulus (GPa) = 16.01545 22.15712 19.08629
#
# Velocity S-wave (km/s) = 3.22894 3.79794 3.52494
# Velocity P-wave (km/s) = 5.78084 7.48803 6.68912
#
# Compressibility (1/GPa) = 0.03335626
#
# Stress axis : x y z
#
# Youngs Moduli (GPa) = 25.11879 65.04054 87.56401
#
# Poissons Ratio (x) = 0.21329 0.59802
# Poissons Ratio (y) = 0.08237 0.57057
# Poissons Ratio (z) = 0.17155 0.42381
#
# Static dielectric constant tensor:
#      x y z
#    x 2.405670 0.000000 0.000000 
#    y 0.000000 3.084390 0.000000 
#    z 0.000000 0.000000 3.212050 
# 
# 
# High freq. dielectric constant tensor:
#      x y z
#    x 1.504900 0.000000 0.000000 
#    y 0.000000 1.605280 0.000000 
#    z 0.000000 0.000000 1.606310 
# 
# From -- ./inp_files/26562.got.cif
#   From: 2010.03.12/outbox.cif.g09.slc.cpg/sg59_14_cif.got.tgz:26562.got - 2010.04.16 16:29:54.
