data_PCOD8239117
_publ_section_title
;
Structure prediction by ZEFSAII (Michael W. Deem and Ramdas Pophale) SiO2 
 PCOD8239117
Probable space group: P M M N
;
_chemical_formula_sum "Si O2"
_cell_formula_units_Z 40
_cell_length_a 20.159698
_cell_length_b 12.941347
_cell_length_c 9.584602
_cell_angle_alpha 90.000000
_cell_angle_beta 90.000000
_cell_angle_gamma 90.000000
_cell_volume 2500.561773
_symmetry_space_group_name_H-M "P M M N"
_symmetry_group_IT_number 59
_space_group.IT_coordinate_system_code '2'
_symmetry_cell_setting 'orthorhombic'
loop_
_space_group_symop_operation_xyz
x,y,z
1/2-x,1/2-y,z
1/2+x,-y,-z
-x,1/2+y,-z
-x,-y,-z
1/2+x,1/2+y,-z
1/2-x,y,z
x,1/2-y,z
loop_
_atom_site_type_symbol
_atom_site_label
_atom_site_fract_x
_atom_site_fract_y
_atom_site_fract_z
Si Si1 0.325794 0.630335 0.655309
Si Si2 0.940740 0.444930 0.164533
Si Si3 0.467801 0.632071 0.133322
Si Si4 0.589066 0.074319 0.589607
Si Si5 0.029945 0.135500 0.397514
O O1 0.250000 0.596385 0.673448
O O2 0.336281 0.750000 0.694613
O O3 0.369901 0.559492 0.757717
O O4 0.346452 0.612810 0.493645
O O5 0.966638 0.563117 0.161777
O O6 0.993853 0.376264 0.248455
O O7 0.932610 0.400074 0.010302
O O8 0.491536 0.750000 0.128315
O O9 0.411475 0.615266 0.251843
O O10 0.522978 0.120432 0.520127
O O11 0.587940 0.949064 0.586446
O O12 0.061183 0.250000 0.407164
#
# Coordination Sequence:
#
# PCOD8239117 Si02
#       5
#     8   8   8   8   8
#     4  10  19  32  47  60  84 122 153 177 210 259
#     4   9  18  29  44  68  92 117 147 175 213 269
#     4  10  17  27  46  70  94 112 135 184 233 260
#     4   9  17  26  41  65  85 107 142 179 214 250
#     4   9  15  26  43  61  86 114 138 171 214 259
#
# _framework density 15.996404999999999
#
# number of rings (size 3 to 8) (size 9 to 14) (size 15 to 20)
#    0.000    2.600    0.000    6.000    0.000    0.000 
#    0.000    1.000    0.000    6.000    0.000    0.000 
#    0.000    9.600    0.000    0.000    0.000    0.000 
#
# Total GULP energy -495901.967935 kJ/mol
# GULP energy per Si atom -12397.549198 kJ/mol
# Density = 1.596000 g / cm^3
# Si number density = 15.996405 Si / 1000 Ang^3
#
#
#
# Elastic Constant Matrix: (Units=GPa)
#
#
# Indices 1 2 3 4 5 6 
#
# 1 79.3939 31.4696 31.7602 0.0000 0.0000 0.0000
# 2 31.4696 122.0322 28.0373 0.0000 0.0000 0.0000
# 3 31.7602 28.0373 117.5450 0.0000 0.0000 0.0000
# 4 0.0000 0.0000 0.0000 16.5794 0.0000 0.0000
# 5 0.0000 0.0000 0.0000 0.0000 13.7835 0.0000
# 6 0.0000 0.0000 0.0000 0.0000 0.0000 15.8834
#
#
#
# Elastic Compliance Matrix: (Units=1/GPa)
#
#
# Indices 1 2 3 4 5 6 
#
# 1 0.015183 -0.003145 -0.003352 0.000000 0.000000 0.000000
# 2 -0.003145 0.009321 -0.001373 0.000000 0.000000 0.000000
# 3 -0.003352 -0.001373 0.009741 0.000000 0.000000 0.000000
# 4 0.000000 0.000000 0.000000 0.060316 0.000000 0.000000
# 5 0.000000 0.000000 0.000000 0.000000 0.072551 0.000000
# 6 0.000000 0.000000 0.000000 0.000000 0.000000 0.062959
#
#
# Mechanical properties :
#
#
# Convention : Reuss Voigt Hill
#
# Bulk Modulus (GPa) = 54.04474 55.72281 54.88377
# Shear Modulus (GPa) = 19.84285 24.42953 22.13619
#
# Velocity S-wave (km/s) = 3.52583 3.91217 3.72401
# Velocity P-wave (km/s) = 7.10171 7.43753 7.27156
#
# Compressibility (1/GPa) = 0.01850319
#
# Stress axis : x y z
#
# Youngs Moduli (GPa) = 65.86265 107.28214 102.66158
#
# Poissons Ratio (x) = 0.33743 0.34414
# Poissons Ratio (y) = 0.20715 0.14101
# Poissons Ratio (z) = 0.22079 0.14735
#
# Static dielectric constant tensor:
#      x y z
#    x 2.593870 0.000000 0.000000 
#    y 0.000000 3.168550 0.000000 
#    z 0.000000 0.000000 3.314300 
# 
# 
# High freq. dielectric constant tensor:
#      x y z
#    x 1.553060 0.000000 0.000000 
#    y 0.000000 1.622230 0.000000 
#    z 0.000000 0.000000 1.630990 
# 
# From -- ./inp_files/11141.got.cif
#   From: 2010.03.12/outbox.cif.g09.slc.cpg/sg59_6_cif.got.tgz:11141.got - 2010.04.16 16:29:54.
