data_PCOD8239622
_publ_section_title
;
Structure prediction by ZEFSAII (Michael W. Deem and Ramdas Pophale) SiO2 
 PCOD8239622
Probable space group: P M M N
;
_chemical_formula_sum "Si O2"
_cell_formula_units_Z 64
_cell_length_a 9.104284
_cell_length_b 19.263319
_cell_length_c 19.857067
_cell_angle_alpha 90.000000
_cell_angle_beta 90.000000
_cell_angle_gamma 90.000000
_cell_volume 3482.507132
_symmetry_space_group_name_H-M "P M M N"
_symmetry_group_IT_number 59
_space_group.IT_coordinate_system_code '2'
_symmetry_cell_setting 'orthorhombic'
loop_
_space_group_symop_operation_xyz
x,y,z
1/2-x,1/2-y,z
1/2+x,-y,-z
-x,1/2+y,-z
-x,-y,-z
1/2+x,1/2+y,-z
1/2-x,y,z
x,1/2-y,z
loop_
_atom_site_type_symbol
_atom_site_label
_atom_site_fract_x
_atom_site_fract_y
_atom_site_fract_z
Si Si1 0.418723 0.936906 0.232428
Si Si2 0.581640 0.410343 0.033043
Si Si3 0.077568 0.571787 0.601668
Si Si4 0.909836 0.330207 0.159269
Si Si5 0.085434 0.095384 0.267617
Si Si6 0.075254 0.415748 0.631372
Si Si7 0.077446 0.669212 0.479469
Si Si8 0.078119 0.442519 0.904798
O O1 0.250000 0.910812 0.233057
O O2 0.506491 0.903637 0.294880
O O3 0.494958 0.916632 0.162162
O O4 0.428795 0.018785 0.239245
O O5 0.750000 0.415425 0.008440
O O6 0.549998 0.345803 0.081843
O O7 0.539485 0.478028 0.077228
O O8 0.479391 0.398117 0.968266
O O9 0.250000 0.576383 0.607909
O O10 0.027323 0.490677 0.599225
O O11 0.022894 0.617247 0.538447
O O12 0.012902 0.608436 0.667217
O O13 0.750000 0.365585 0.175487
O O14 0.894279 0.250000 0.168958
O O15 0.035733 0.354654 0.208632
O O16 0.250000 0.114057 0.288413
O O17 0.250000 0.410252 0.636571
O O18 0.012444 0.353668 0.586118
O O19 0.250000 0.659297 0.465793
O O20 0.042345 0.750000 0.496653
O O21 0.250000 0.430061 0.893846
#
# Coordination Sequence:
#
# PCOD8239622 Si02
#       8
#     8   8   8   8   8   8   8   8
#     4  10  19  32  52  77 106 136 167 210 263 315
#     4   9  18  31  47  71 101 132 168 210 255 304
#     4   9  19  35  55  78 107 142 179 218 262 317
#     4  10  20  34  51  69  97 140 180 210 246 302
#     4  10  20  32  49  75 105 134 169 213 259 304
#     4  10  20  34  55  81 108 139 176 222 270 315
#     4  10  21  37  56  78 106 140 178 219 265 322
#     4  10  18  29  50  76 102 130 163 212 263 305
#
# _framework density 18.377564
#
# number of rings (size 3 to 8) (size 9 to 14) (size 15 to 20)
#    0.000    2.250    1.250    1.875    0.000    4.000 
#    0.000    1.250    0.000    0.750    0.000    1.750 
#    0.000    0.000    0.000    0.000    0.000    0.000 
#
# Total GULP energy -793508.011384 kJ/mol
# GULP energy per Si atom -12398.562678 kJ/mol
# Density = 1.833574 g / cm^3
# Si number density = 18.377564 Si / 1000 Ang^3
#
#
#
# Elastic Constant Matrix: (Units=GPa)
#
#
# Indices 1 2 3 4 5 6 
#
# 1 53.2882 23.0980 44.3990 0.0000 0.0000 0.0000
# 2 23.0980 33.9875 20.2920 0.0000 0.0000 0.0000
# 3 44.3990 20.2920 110.8683 0.0000 0.0000 0.0000
# 4 0.0000 0.0000 0.0000 17.1987 0.0000 0.0000
# 5 0.0000 0.0000 0.0000 0.0000 31.9582 0.0000
# 6 0.0000 0.0000 0.0000 0.0000 0.0000 18.7626
#
#
#
# Elastic Compliance Matrix: (Units=1/GPa)
#
#
# Indices 1 2 3 4 5 6 
#
# 1 0.035583 -0.017597 -0.011029 0.000000 0.000000 0.000000
# 2 -0.017597 0.041735 -0.000592 0.000000 0.000000 0.000000
# 3 -0.011029 -0.000592 0.013545 0.000000 0.000000 0.000000
# 4 0.000000 0.000000 0.000000 0.058144 0.000000 0.000000
# 5 0.000000 0.000000 0.000000 0.000000 0.031291 0.000000
# 6 0.000000 0.000000 0.000000 0.000000 0.000000 0.053298
#
#
# Mechanical properties :
#
#
# Convention : Reuss Voigt Hill
#
# Bulk Modulus (GPa) = 30.83867 41.52468 36.18168
# Shear Modulus (GPa) = 16.51042 20.94090 18.72566
#
# Velocity S-wave (km/s) = 3.00059 3.37928 3.19555
# Velocity P-wave (km/s) = 5.36859 6.15390 5.77461
#
# Compressibility (1/GPa) = 0.03242682
#
# Stress axis : x y z
#
# Youngs Moduli (GPa) = 28.10364 23.96069 73.82992
#
# Poissons Ratio (x) = 0.42165 0.81426
# Poissons Ratio (y) = 0.49455 0.04367
# Poissons Ratio (z) = 0.30995 0.01417
#
# Static dielectric constant tensor:
#      x y z
#    x 3.495360 0.000000 0.000000 
#    y 0.000000 3.115090 0.000000 
#    z 0.000000 0.000000 3.479160 
# 
# 
# High freq. dielectric constant tensor:
#      x y z
#    x 1.717780 0.000000 0.000000 
#    y 0.000000 1.674530 0.000000 
#    z 0.000000 0.000000 1.720250 
# 
# From -- ./inp_files/26205.got.cif
#   From: 2010.03.12/outbox.cif.g09.slc.cpg/sg59_14_cif.got.tgz:26205.got - 2010.04.16 16:29:54.
