data_PCOD8239270
_publ_section_title
;
Structure prediction by ZEFSAII (Michael W. Deem and Ramdas Pophale) SiO2 
 PCOD8239270
Probable space group: P M M N
;
_chemical_formula_sum "Si O2"
_cell_formula_units_Z 56
_cell_length_a 9.476143
_cell_length_b 26.505147
_cell_length_c 14.342659
_cell_angle_alpha 90.000000
_cell_angle_beta 90.000000
_cell_angle_gamma 90.000000
_cell_volume 3602.396368
_symmetry_space_group_name_H-M "P M M N"
_symmetry_group_IT_number 59
_space_group.IT_coordinate_system_code '2'
_symmetry_cell_setting 'orthorhombic'
loop_
_space_group_symop_operation_xyz
x,y,z
1/2-x,1/2-y,z
1/2+x,-y,-z
-x,1/2+y,-z
-x,-y,-z
1/2+x,1/2+y,-z
1/2-x,y,z
x,1/2-y,z
loop_
_atom_site_type_symbol
_atom_site_label
_atom_site_fract_x
_atom_site_fract_y
_atom_site_fract_z
Si Si1 0.588924 0.941569 0.582201
Si Si2 0.908937 0.384489 0.971148
Si Si3 0.412134 0.429218 0.820042
Si Si4 0.414275 0.038751 0.621842
Si Si5 0.084660 0.691951 0.870758
Si Si6 0.090508 0.957126 0.866769
Si Si7 0.586221 0.620140 0.753155
O O1 0.750000 0.960525 0.590487
O O2 0.551921 0.930702 0.473469
O O3 0.567770 0.890359 0.642099
O O4 0.492213 0.985440 0.623263
O O5 0.750000 0.374172 0.938578
O O6 0.001695 0.387503 0.877766
O O7 0.961370 0.338380 0.036567
O O8 0.921624 0.436934 0.027690
O O9 0.250000 0.413886 0.829131
O O10 0.461557 0.428495 0.711602
O O11 0.442262 0.483874 0.864417
O O12 0.250000 0.025747 0.632303
O O13 0.250000 0.683874 0.850723
O O14 0.045116 0.750000 0.885060
O O15 0.998623 0.670395 0.782115
O O16 0.250000 0.946351 0.829323
O O17 0.975849 0.928668 0.804574
O O18 0.750000 0.626656 0.780227
#
# Coordination Sequence:
#
# PCOD8239270 Si02
#       7
#     8   8   8   8   8   8   8
#     4   9  17  28  41  62  89 118 150 183 218 250
#     4   9  18  29  43  62  85 111 142 181 222 264
#     4  10  18  27  41  61  87 121 155 183 210 249
#     4   9  17  28  42  59  86 123 157 183 207 245
#     4   9  19  36  53  67  85 111 143 179 224 278
#     4   9  17  29  41  58  86 122 156 179 207 253
#     4  10  18  27  44  69  93 115 144 184 225 262
#
# _framework density 15.545208000000001
#
# number of rings (size 3 to 8) (size 9 to 14) (size 15 to 20)
#    0.000    2.714    1.429    1.714    0.000    4.286 
#    0.000    0.000    0.000    0.000    0.000    1.000 
#    0.000    5.714    0.000    0.000    0.000    0.000 
#
# Total GULP energy -694113.217680 kJ/mol
# GULP energy per Si atom -12394.878887 kJ/mol
# Density = 1.550983 g / cm^3
# Si number density = 15.545208 Si / 1000 Ang^3
#
#
#
# Elastic Constant Matrix: (Units=GPa)
#
#
# Indices 1 2 3 4 5 6 
#
# 1 60.1674 34.5373 49.3354 0.0000 0.0000 0.0000
# 2 34.5373 67.8744 50.3579 0.0000 0.0000 0.0000
# 3 49.3354 50.3579 115.4994 0.0000 0.0000 0.0000
# 4 0.0000 0.0000 0.0000 14.9150 0.0000 0.0000
# 5 0.0000 0.0000 0.0000 0.0000 22.8511 0.0000
# 6 0.0000 0.0000 0.0000 0.0000 0.0000 18.8022
#
#
#
# Elastic Compliance Matrix: (Units=1/GPa)
#
#
# Indices 1 2 3 4 5 6 
#
# 1 0.028250 -0.008015 -0.008573 0.000000 0.000000 0.000000
# 2 -0.008015 0.024052 -0.007063 0.000000 0.000000 0.000000
# 3 -0.008573 -0.007063 0.015399 0.000000 0.000000 0.000000
# 4 0.000000 0.000000 0.000000 0.067047 0.000000 0.000000
# 5 0.000000 0.000000 0.000000 0.000000 0.043762 0.000000
# 6 0.000000 0.000000 0.000000 0.000000 0.000000 0.053185
#
#
# Mechanical properties :
#
#
# Convention : Reuss Voigt Hill
#
# Bulk Modulus (GPa) = 49.01856 56.88915 52.95386
# Shear Modulus (GPa) = 17.49504 18.60103 18.04803
#
# Velocity S-wave (km/s) = 3.35838 3.46291 3.41105
# Velocity P-wave (km/s) = 6.82932 7.25702 7.04642
#
# Compressibility (1/GPa) = 0.02040044
#
# Stress axis : x y z
#
# Youngs Moduli (GPa) = 35.39811 41.57735 64.93777
#
# Poissons Ratio (x) = 0.33322 0.55669
# Poissons Ratio (y) = 0.28370 0.45866
# Poissons Ratio (z) = 0.30345 0.29367
#
# Static dielectric constant tensor:
#      x y z
#    x 3.012080 0.000000 0.000000 
#    y 0.000000 2.654550 0.000000 
#    z 0.000000 0.000000 3.117110 
# 
# 
# High freq. dielectric constant tensor:
#      x y z
#    x 1.602460 0.000000 0.000000 
#    y 0.000000 1.547910 0.000000 
#    z 0.000000 0.000000 1.596640 
# 
# From -- ./inp_files/21765.got.cif
#   From: 2010.03.12/outbox.cif.g09.slc.cpg/sg59_11_cif.got.tgz:21765.got - 2010.04.16 16:29:54.
