data_PCOD8239512
_publ_section_title
;
Structure prediction by ZEFSAII (Michael W. Deem and Ramdas Pophale) SiO2 
 PCOD8239512
Probable space group: P M M N
;
_chemical_formula_sum "Si O2"
_cell_formula_units_Z 64
_cell_length_a 14.753000
_cell_length_b 18.664950
_cell_length_c 15.138486
_cell_angle_alpha 90.000000
_cell_angle_beta 90.000000
_cell_angle_gamma 90.000000
_cell_volume 4168.594170
_symmetry_space_group_name_H-M "P M M N"
_symmetry_group_IT_number 59
_space_group.IT_coordinate_system_code '2'
_symmetry_cell_setting 'orthorhombic'
loop_
_space_group_symop_operation_xyz
x,y,z
1/2-x,1/2-y,z
1/2+x,-y,-z
-x,1/2+y,-z
-x,-y,-z
1/2+x,1/2+y,-z
1/2-x,y,z
x,1/2-y,z
loop_
_atom_site_type_symbol
_atom_site_label
_atom_site_fract_x
_atom_site_fract_y
_atom_site_fract_z
Si Si1 0.642025 0.669439 0.700786
Si Si2 0.143743 0.087543 0.470725
Si Si3 0.647149 0.441325 0.802216
Si Si4 0.643034 0.592596 0.872517
Si Si5 0.853856 0.833596 0.048003
Si Si6 0.484991 0.166591 0.600873
Si Si7 0.647443 0.434972 0.597993
Si Si8 0.494421 0.168583 0.805084
O O1 0.750000 0.665553 0.703336
O O2 0.606481 0.750000 0.690691
O O3 0.605628 0.624705 0.617666
O O4 0.600726 0.637145 0.791003
O O5 0.250000 0.102369 0.482670
O O6 0.094092 0.122561 0.553727
O O7 0.123801 0.002532 0.464611
O O8 0.750000 0.418220 0.823450
O O9 0.617989 0.509503 0.860543
O O10 0.637384 0.461324 0.699040
O O11 0.582774 0.376632 0.829931
O O12 0.750000 0.604314 0.871364
O O13 0.605140 0.622242 0.965229
O O14 0.750000 0.854691 0.067359
O O15 0.862431 0.750000 0.025107
O O16 0.910264 0.855169 0.134537
O O17 0.486097 0.250000 0.572285
O O18 0.581963 0.131559 0.576402
O O19 0.464387 0.158006 0.704283
O O20 0.750000 0.408490 0.580406
O O21 0.522224 0.250000 0.823794
#
# Coordination Sequence:
#
# PCOD8239512 Si02
#       8
#     8   8   8   8   8   8   8   8
#     4   9  15  23  38  62  90 113 134 166 209 258
#     4  10  18  29  45  66  91 118 143 173 218 269
#     4   9  16  28  46  66  87 110 138 175 220 261
#     4   9  15  25  42  64  86 109 138 171 211 259
#     4   9  17  29  44  61  85 117 146 172 207 251
#     4  10  20  31  44  64  89 118 152 185 214 251
#     4   9  17  31  48  64  86 116 147 182 224 262
#     4   9  19  32  43  60  86 115 149 182 207 241
#
# _framework density 15.352899000000001
#
# number of rings (size 3 to 8) (size 9 to 14) (size 15 to 20)
#    0.000    2.750    1.250    1.125    0.000    3.750 
#    0.000    3.750    0.000    0.000    0.000    0.000 
#    0.000    0.000    0.000    3.625    0.000    0.250 
#
# Total GULP energy -793493.447310 kJ/mol
# GULP energy per Si atom -12398.335114 kJ/mol
# Density = 1.531795 g / cm^3
# Si number density = 15.352899 Si / 1000 Ang^3
#
#
#
# Elastic Constant Matrix: (Units=GPa)
#
#
# Indices 1 2 3 4 5 6 
#
# 1 63.6884 43.6026 39.7870 0.0000 0.0000 0.0000
# 2 43.6026 79.0118 45.5157 0.0000 0.0000 0.0000
# 3 39.7870 45.5157 73.5263 0.0000 0.0000 0.0000
# 4 0.0000 0.0000 0.0000 24.0748 0.0000 0.0000
# 5 0.0000 0.0000 0.0000 0.0000 17.5828 0.0000
# 6 0.0000 0.0000 0.0000 0.0000 0.0000 22.4843
#
#
#
# Elastic Compliance Matrix: (Units=1/GPa)
#
#
# Indices 1 2 3 4 5 6 
#
# 1 0.028508 -0.010640 -0.008840 0.000000 0.000000 0.000000
# 2 -0.010640 0.023642 -0.008878 0.000000 0.000000 0.000000
# 3 -0.008840 -0.008878 0.023880 0.000000 0.000000 0.000000
# 4 0.000000 0.000000 0.000000 0.041537 0.000000 0.000000
# 5 0.000000 0.000000 0.000000 0.000000 0.056874 0.000000
# 6 0.000000 0.000000 0.000000 0.000000 0.000000 0.044475
#
#
# Mechanical properties :
#
#
# Convention : Reuss Voigt Hill
#
# Bulk Modulus (GPa) = 51.77412 52.67081 52.22247
# Shear Modulus (GPa) = 17.72606 18.64980 18.18793
#
# Velocity S-wave (km/s) = 3.40159 3.48910 3.44562
# Velocity P-wave (km/s) = 7.01596 7.11428 7.06529
#
# Compressibility (1/GPa) = 0.01931467
#
# Stress axis : x y z
#
# Youngs Moduli (GPa) = 35.07766 42.29738 41.87608
#
# Poissons Ratio (x) = 0.45003 0.37019
# Poissons Ratio (y) = 0.37322 0.37177
# Poissons Ratio (z) = 0.31009 0.37551
#
# Static dielectric constant tensor:
#      x y z
#    x 2.711910 0.000000 0.000000 
#    y 0.000000 2.989540 0.000000 
#    z 0.000000 0.000000 2.966530 
# 
# 
# High freq. dielectric constant tensor:
#      x y z
#    x 1.556290 0.000000 0.000000 
#    y 0.000000 1.594260 0.000000 
#    z 0.000000 0.000000 1.581350 
# 
# From -- ./inp_files/23454.got.cif
#   From: 2010.03.12/outbox.cif.g09.slc.cpg/sg59_12_cif.got.tgz:23454.got - 2010.04.16 16:29:54.
