data_PCOD8239286
_publ_section_title
;
Structure prediction by ZEFSAII (Michael W. Deem and Ramdas Pophale) SiO2 
 PCOD8239286
Probable space group: P M M N
;
_chemical_formula_sum "Si O2"
_cell_formula_units_Z 64
_cell_length_a 9.532674
_cell_length_b 29.824319
_cell_length_c 14.942295
_cell_angle_alpha 90.000000
_cell_angle_beta 90.000000
_cell_angle_gamma 90.000000
_cell_volume 4248.176805
_symmetry_space_group_name_H-M "P M M N"
_symmetry_group_IT_number 59
_space_group.IT_coordinate_system_code '2'
_symmetry_cell_setting 'orthorhombic'
loop_
_space_group_symop_operation_xyz
x,y,z
1/2-x,1/2-y,z
1/2+x,-y,-z
-x,1/2+y,-z
-x,-y,-z
1/2+x,1/2+y,-z
1/2-x,y,z
x,1/2-y,z
loop_
_atom_site_type_symbol
_atom_site_label
_atom_site_fract_x
_atom_site_fract_y
_atom_site_fract_z
Si Si1 0.416287 0.299099 0.007569
Si Si2 0.583091 0.894821 0.053385
Si Si3 0.091208 0.536047 0.383907
Si Si4 0.583523 0.701409 0.791731
Si Si5 0.410031 0.437317 0.460713
Si Si6 0.415892 0.445052 0.125825
Si Si7 0.917539 0.887768 0.709311
Si Si8 0.415534 0.543034 0.177982
O O1 0.250000 0.299329 0.012184
O O2 0.466518 0.250000 0.969083
O O3 0.475881 0.305070 0.108004
O O4 0.464386 0.342308 0.950066
O O5 0.750000 0.899619 0.066365
O O6 0.502498 0.915998 0.136965
O O7 0.531221 0.920798 0.964213
O O8 0.250000 0.552566 0.394682
O O9 0.074394 0.485030 0.413377
O O10 0.042063 0.540472 0.281870
O O11 0.996900 0.567124 0.447819
O O12 0.750000 0.697932 0.796358
O O13 0.536698 0.750000 0.753774
O O14 0.526141 0.662535 0.727061
O O15 0.250000 0.426960 0.485857
O O16 0.471836 0.402098 0.388571
O O17 0.250000 0.441669 0.130657
O O18 0.478749 0.419690 0.212487
O O19 0.462835 0.496996 0.128879
O O20 0.750000 0.891337 0.709845
O O21 0.250000 0.551296 0.165868
#
# Coordination Sequence:
#
# PCOD8239286 Si02
#       8
#     8   8   8   8   8   8   8   8
#     4   8  13  22  37  59  85 108 132 167 208 243
#     4  10  18  27  42  63  84 110 142 173 202 237
#     4   9  17  29  42  57  78 106 138 171 205 240
#     4   8  12  18  32  57  86 110 132 162 198 240
#     4   9  16  26  43  62  79 103 135 169 205 242
#     4   9  15  25  39  57  83 115 144 165 192 239
#     4   9  13  21  38  59  83 111 138 161 196 247
#     4  10  19  30  42  56  82 117 146 171 204 243
#
# _framework density 15.065287
#
# number of rings (size 3 to 8) (size 9 to 14) (size 15 to 20)
#    0.000    3.000    2.500    1.125    0.000    0.500 
#    0.000    0.000    0.000    1.125    0.000    0.875 
#    0.000    5.500    0.000    0.000    0.000    0.000 
#
# Total GULP energy -793039.354438 kJ/mol
# GULP energy per Si atom -12391.239913 kJ/mol
# Density = 1.503100 g / cm^3
# Si number density = 15.065287 Si / 1000 Ang^3
#
#
#
# Elastic Constant Matrix: (Units=GPa)
#
#
# Indices 1 2 3 4 5 6 
#
# 1 24.3905 22.8087 29.2687 0.0000 0.0000 0.0000
# 2 22.8087 99.6223 44.1724 0.0000 0.0000 0.0000
# 3 29.2687 44.1724 85.9869 0.0000 0.0000 0.0000
# 4 0.0000 0.0000 0.0000 22.4409 0.0000 0.0000
# 5 0.0000 0.0000 0.0000 0.0000 19.3777 0.0000
# 6 0.0000 0.0000 0.0000 0.0000 0.0000 12.4630
#
#
#
# Elastic Compliance Matrix: (Units=1/GPa)
#
#
# Indices 1 2 3 4 5 6 
#
# 1 0.073301 -0.007406 -0.021146 0.000000 0.000000 0.000000
# 2 -0.007406 0.013747 -0.004541 0.000000 0.000000 0.000000
# 3 -0.021146 -0.004541 0.021160 0.000000 0.000000 0.000000
# 4 0.000000 0.000000 0.000000 0.044562 0.000000 0.000000
# 5 0.000000 0.000000 0.000000 0.000000 0.051606 0.000000
# 6 0.000000 0.000000 0.000000 0.000000 0.000000 0.080237
#
#
# Mechanical properties :
#
#
# Convention : Reuss Voigt Hill
#
# Bulk Modulus (GPa) = 23.79724 44.72215 34.25969
# Shear Modulus (GPa) = 13.70591 18.43964 16.07277
#
# Velocity S-wave (km/s) = 3.01951 3.50234 3.26985
# Velocity P-wave (km/s) = 5.29027 6.79008 6.08655
#
# Compressibility (1/GPa) = 0.04202168
#
# Stress axis : x y z
#
# Youngs Moduli (GPa) = 13.64242 72.74264 47.25846
#
# Poissons Ratio (x) = 0.53875 0.99932
# Poissons Ratio (y) = 0.10104 0.21460
# Poissons Ratio (z) = 0.28848 0.33033
#
# Static dielectric constant tensor:
#      x y z
#    x 2.486570 0.000000 0.000000 
#    y 0.000000 3.164420 0.000000 
#    z 0.000000 0.000000 2.883390 
# 
# 
# High freq. dielectric constant tensor:
#      x y z
#    x 1.526890 0.000000 0.000000 
#    y 0.000000 1.572720 0.000000 
#    z 0.000000 0.000000 1.562760 
# 
# From -- ./inp_files/21900.got.cif
#   From: 2010.03.12/outbox.cif.g09.slc.cpg/sg59_11_cif.got.tgz:21900.got - 2010.04.16 16:29:54.
