data_PCOD8239966
_publ_section_title
;
Structure prediction by ZEFSAII (Michael W. Deem and Ramdas Pophale) SiO2 
 PCOD8239966
Probable space group: P M M N
;
_chemical_formula_sum "Si O2"
_cell_formula_units_Z 40
_cell_length_a 8.963069
_cell_length_b 10.079378
_cell_length_c 24.032870
_cell_angle_alpha 90.000000
_cell_angle_beta 90.000000
_cell_angle_gamma 90.000000
_cell_volume 2171.181399
_symmetry_space_group_name_H-M "P M M N"
_symmetry_group_IT_number 59
_space_group.IT_coordinate_system_code '2'
_symmetry_cell_setting 'orthorhombic'
loop_
_space_group_symop_operation_xyz
x,y,z
1/2-x,1/2-y,z
1/2+x,-y,-z
-x,1/2+y,-z
-x,-y,-z
1/2+x,1/2+y,-z
1/2-x,y,z
x,1/2-y,z
loop_
_atom_site_type_symbol
_atom_site_label
_atom_site_fract_x
_atom_site_fract_y
_atom_site_fract_z
Si Si1 0.072970 0.479152 0.626316
Si Si2 0.923740 0.401849 0.159153
Si Si3 0.927385 0.899153 0.253586
Si Si4 0.426708 0.250000 0.545354
Si Si5 0.574780 0.598058 0.956721
Si Si6 0.426869 0.750000 0.574149
O O1 0.250000 0.472816 0.630075
O O2 0.005694 0.441257 0.686516
O O3 0.017025 0.377624 0.579438
O O4 0.016392 0.624019 0.608982
O O5 0.750000 0.428003 0.146990
O O6 0.950629 0.250000 0.178006
O O7 0.986083 0.498194 0.207289
O O8 0.014469 0.436942 0.104085
O O9 0.750000 0.905404 0.256055
O O10 0.980934 0.750000 0.238891
O O11 0.250000 0.250000 0.537089
O O12 0.503373 0.250000 0.486265
O O13 0.750000 0.574167 0.957446
O O14 0.534561 0.750000 0.972356
O O15 0.500000 0.500000 0.000000
O O16 0.250000 0.750000 0.567036
#
# Coordination Sequence:
#
# PCOD8239966 Si02
#       6
#     8   8   8   4   8   4
#     4   9  17  29  46  70  96 123 159 204 249 294
#     4   9  18  31  50  77 105 132 166 211 257 301
#     4   9  16  28  47  72  99 126 162 207 251 296
#     4  10  18  32  50  66  92 128 161 196 245 302
#     4  10  21  37  57  81 111 146 181 218 260 307
#     4  10  20  30  46  72  96 120 157 204 249 294
#
# _framework density 18.423148999999999
#
# number of rings (size 3 to 8) (size 9 to 14) (size 15 to 20)
#    0.000    2.600    1.000    1.200    1.400    2.000 
#    0.000    2.000    0.000    2.400    0.000    0.000 
#    0.000    0.000    0.000    0.000    0.000    0.000 
#
# Total GULP energy -495977.960457 kJ/mol
# GULP energy per Si atom -12399.449011 kJ/mol
# Density = 1.838122 g / cm^3
# Si number density = 18.423149 Si / 1000 Ang^3
#
#
#
# Elastic Constant Matrix: (Units=GPa)
#
#
# Indices 1 2 3 4 5 6 
#
# 1 33.1898 32.1861 38.8811 0.0000 0.0000 0.0000
# 2 32.1861 168.2825 103.0574 0.0000 0.0000 0.0000
# 3 38.8811 103.0574 158.6433 0.0000 0.0000 0.0000
# 4 0.0000 0.0000 0.0000 42.6411 0.0000 0.0000
# 5 0.0000 0.0000 0.0000 0.0000 26.4701 0.0000
# 6 0.0000 0.0000 0.0000 0.0000 0.0000 14.0842
#
#
#
# Elastic Compliance Matrix: (Units=1/GPa)
#
#
# Indices 1 2 3 4 5 6 
#
# 1 0.043128 -0.002949 -0.008654 0.000000 0.000000 0.000000
# 2 -0.002949 0.010070 -0.005819 0.000000 0.000000 0.000000
# 3 -0.008654 -0.005819 0.012205 0.000000 0.000000 0.000000
# 4 0.000000 0.000000 0.000000 0.023452 0.000000 0.000000
# 5 0.000000 0.000000 0.000000 0.000000 0.037778 0.000000
# 6 0.000000 0.000000 0.000000 0.000000 0.000000 0.071001
#
#
# Mechanical properties :
#
#
# Convention : Reuss Voigt Hill
#
# Bulk Modulus (GPa) = 32.72446 78.70718 55.71582
# Shear Modulus (GPa) = 20.60464 29.03849 24.82157
#
# Velocity S-wave (km/s) = 3.34789 3.97444 3.67454
# Velocity P-wave (km/s) = 5.72239 7.99226 6.95061
#
# Compressibility (1/GPa) = 0.03055819
#
# Stress axis : x y z
#
# Youngs Moduli (GPa) = 23.18692 99.30593 81.93644
#
# Poissons Ratio (x) = 0.29282 0.70912
# Poissons Ratio (y) = 0.06837 0.47678
# Poissons Ratio (z) = 0.20067 0.57785
#
# Static dielectric constant tensor:
#      x y z
#    x 2.952970 0.000000 0.000000 
#    y 0.000000 3.741610 0.000000 
#    z 0.000000 0.000000 3.541240 
# 
# 
# High freq. dielectric constant tensor:
#      x y z
#    x 1.666710 0.000000 0.000000 
#    y 0.000000 1.729860 0.000000 
#    z 0.000000 0.000000 1.723460 
# 
# From -- ./inp_files/32404.got.cif
#   From: 2010.03.12/outbox.cif.g09.slc.cpg/sg59_17_cif.got.tgz:32404.got - 2010.04.16 16:29:54.
