data_PCOD8239991
_publ_section_title
;
Structure prediction by ZEFSAII (Michael W. Deem and Ramdas Pophale) SiO2 
 PCOD8239991
Probable space group: P M M N
;
_chemical_formula_sum "Si O2"
_cell_formula_units_Z 48
_cell_length_a 8.693290
_cell_length_b 25.077066
_cell_length_c 12.499530
_cell_angle_alpha 90.000000
_cell_angle_beta 90.000000
_cell_angle_gamma 90.000000
_cell_volume 2724.925128
_symmetry_space_group_name_H-M "P M M N"
_symmetry_group_IT_number 59
_space_group.IT_coordinate_system_code '2'
_symmetry_cell_setting 'orthorhombic'
loop_
_space_group_symop_operation_xyz
x,y,z
1/2-x,1/2-y,z
1/2+x,-y,-z
-x,1/2+y,-z
-x,-y,-z
1/2+x,1/2+y,-z
1/2-x,y,z
x,1/2-y,z
loop_
_atom_site_type_symbol
_atom_site_label
_atom_site_fract_x
_atom_site_fract_y
_atom_site_fract_z
Si Si1 0.069946 0.811870 0.721988
Si Si2 0.569409 0.606433 0.880124
Si Si3 0.932583 0.999135 0.118474
Si Si4 0.419897 0.686808 0.484921
Si Si5 0.074294 0.312621 0.728479
Si Si6 0.430462 0.607999 0.113257
O O1 0.250000 0.822014 0.743277
O O2 0.029211 0.750000 0.737195
O O3 0.024811 0.832083 0.602413
O O4 0.967064 0.843754 0.805401
O O5 0.750000 0.598050 0.890945
O O6 0.494724 0.553203 0.826186
O O7 0.501908 0.618122 0.997035
O O8 0.750000 0.998615 0.119571
O O9 0.997019 0.944634 0.170939
O O10 0.000000 0.000000 0.000000
O O11 0.250000 0.663652 0.459822
O O12 0.409780 0.750000 0.488889
O O13 0.535267 0.667713 0.391991
O O14 0.250000 0.327252 0.752812
O O15 0.042554 0.250000 0.739899
O O16 0.965232 0.341315 0.813267
O O17 0.250000 0.600068 0.100008
#
# Coordination Sequence:
#
# PCOD8239991 Si02
#       6
#     8   8   8   8   8   8
#     4   9  18  33  52  74 101 133 168 204 244 291
#     4  11  21  33  50  74 103 132 165 203 246 294
#     4  10  18  32  52  72  96 126 164 204 243 289
#     4   8  15  30  51  72  95 127 167 205 240 285
#     4  10  20  33  50  74 103 132 164 203 246 292
#     4  11  21  34  52  73  99 131 167 204 246 294
#
# _framework density 17.615164
#
# number of rings (size 3 to 8) (size 9 to 14) (size 15 to 20)
#    0.000    2.167    0.000    8.000    0.000    2.667 
#    0.000    1.667    0.000    1.000    0.000    0.000 
#    0.000    0.000    0.000    0.000    0.000    0.000 
#
# Total GULP energy -595045.218430 kJ/mol
# GULP energy per Si atom -12396.775384 kJ/mol
# Density = 1.757507 g / cm^3
# Si number density = 17.615164 Si / 1000 Ang^3
#
#
#
# Elastic Constant Matrix: (Units=GPa)
#
#
# Indices 1 2 3 4 5 6 
#
# 1 136.2256 46.7366 42.1614 0.0000 0.0000 0.0000
# 2 46.7366 77.3604 44.8273 0.0000 0.0000 0.0000
# 3 42.1614 44.8273 85.6452 0.0000 0.0000 0.0000
# 4 0.0000 0.0000 0.0000 1.1596 0.0000 0.0000
# 5 0.0000 0.0000 0.0000 0.0000 26.1909 0.0000
# 6 0.0000 0.0000 0.0000 0.0000 0.0000 30.3923
#
#
#
# Elastic Compliance Matrix: (Units=1/GPa)
#
#
# Indices 1 2 3 4 5 6 
#
# 1 0.009599 -0.004393 -0.002426 0.000000 0.000000 0.000000
# 2 -0.004393 0.020565 -0.008601 0.000000 0.000000 0.000000
# 3 -0.002426 -0.008601 0.017372 0.000000 0.000000 0.000000
# 4 0.000000 0.000000 0.000000 0.862387 0.000000 0.000000
# 5 0.000000 0.000000 0.000000 0.000000 0.038181 0.000000
# 6 0.000000 0.000000 0.000000 0.000000 0.000000 0.032903
#
#
# Mechanical properties :
#
#
# Convention : Reuss Voigt Hill
#
# Bulk Modulus (GPa) = 59.89698 62.96464 61.43081
# Shear Modulus (GPa) = 4.91443 22.58229 13.74836
#
# Velocity S-wave (km/s) = 1.67211 3.58436 2.79675
# Velocity P-wave (km/s) = 6.14856 7.27684 6.73636
#
# Compressibility (1/GPa) = 0.01669533
#
# Stress axis : x y z
#
# Youngs Moduli (GPa) = 104.17930 48.62720 57.56391
#
# Poissons Ratio (x) = 0.21364 0.13964
# Poissons Ratio (y) = 0.45770 0.49510
# Poissons Ratio (z) = 0.25271 0.41824
#
# Static dielectric constant tensor:
#      x y z
#    x 3.342520 0.000000 0.000000 
#    y 0.000000 3.549670 0.000000 
#    z 0.000000 0.000000 3.197590 
# 
# 
# High freq. dielectric constant tensor:
#      x y z
#    x 1.692910 0.000000 0.000000 
#    y 0.000000 1.669770 0.000000 
#    z 0.000000 0.000000 1.659570 
# 
# From -- ./inp_files/14306.got.cif
#   From: 2010.03.12/outbox.cif.g09.slc.cpg/sg59_8_cif.got.tgz:14306.got - 2010.04.16 16:29:54.
