data_PCOD8239002
_publ_section_title
;
Structure prediction by ZEFSAII (Michael W. Deem and Ramdas Pophale) SiO2 
 PCOD8239002
Probable space group: P N N M
;
_chemical_formula_sum "Si O2"
_cell_formula_units_Z 56
_cell_length_a 21.000000
_cell_length_b 15.000000
_cell_length_c 9.000000
_cell_angle_alpha 90.000000
_cell_angle_beta 90.000000
_cell_angle_gamma 90.000000
_cell_volume 2835.000000
_symmetry_space_group_name_H-M "P N N M"
_symmetry_group_IT_number 58
_symmetry_cell_setting 'orthorhombic'
loop_
_space_group_symop_operation_xyz
x,y,z
-x,-y,z
1/2+x,1/2-y,1/2-z
1/2-x,1/2+y,1/2-z
-x,-y,-z
x,y,-z
1/2-x,1/2+y,1/2+z
1/2+x,1/2-y,1/2+z
loop_
_atom_site_type_symbol
_atom_site_label
_atom_site_fract_x
_atom_site_fract_y
_atom_site_fract_z
Si Si1 0.394775 0.747295 0.328179
Si Si2 0.552610 0.575105 0.834474
Si Si3 0.868175 0.949578 0.835290
Si Si4 0.227189 0.514383 0.333721
Si Si5 0.663354 0.812343 0.821770
Si Si6 0.036451 0.747695 0.172959
Si Si7 0.769574 0.684564 0.322378
O O1 0.374937 0.762958 0.500000
O O2 0.402740 0.642454 0.294642
O O3 0.464764 0.790888 0.295670
O O4 0.340296 0.783515 0.220254
O O5 0.500000 0.500000 0.832278
O O6 0.617175 0.527181 0.782202
O O7 0.534813 0.649186 0.716112
O O8 0.562255 0.615243 0.000000
O O9 0.793256 0.932452 0.829928
O O10 0.889134 0.981410 0.000000
O O11 0.204044 0.494483 0.500000
O O12 0.179080 0.587152 0.262975
O O13 0.232953 0.417107 0.258063
O O14 0.590573 0.798962 0.771358
O O15 0.712098 0.740345 0.751610
O O16 0.669072 0.805496 0.000000
O O17 0.053662 0.737636 0.000000
O O18 0.760272 0.690192 0.500000
#
# Coordination Sequence:
#
# PCOD8239002 Si02
#       7
#     8   8   8   8   8   8   8
#     4  10  21  38  60  84 116 160 199 242 298 356
#     4  11  22  33  50  83 120 151 191 240 294 355
#     4  10  18  35  59  80 111 156 196 236 297 363
#     4   9  20  38  60  85 115 151 195 243 298 359
#     4  11  22  41  64  88 121 159 200 249 305 359
#     4  11  23  39  58  84 119 160 204 246 304 363
#     4  11  22  38  63  93 121 155 201 251 299 359
#
# _framework density 19.753086
#
# number of rings (size 3 to 8) (size 9 to 14) (size 15 to 20)
#    0.000    1.571    2.857    2.571    0.000    3.429 
#    0.000    4.286    0.000    4.286    0.000    0.000 
#    0.000    0.000    0.000    0.000    0.000    0.000 
#
# Total GULP energy -693948.368529 kJ/mol
# GULP energy per Si atom -12391.935152 kJ/mol
# Density = 1.970813 g / cm^3
# Si number density = 19.753086 Si / 1000 Ang^3
#
#
#
# Elastic Constant Matrix: (Units=GPa)
#
#
# Indices 1 2 3 4 5 6 
#
# 1 102.5181 22.7155 29.2596 0.0000 0.0000 0.0000
# 2 22.7155 60.1270 22.3532 0.0000 0.0000 0.0000
# 3 29.2596 22.3532 68.4652 0.0000 0.0000 0.0000
# 4 0.0000 0.0000 0.0000 25.9866 0.0000 0.0000
# 5 0.0000 0.0000 0.0000 0.0000 35.3276 0.0000
# 6 0.0000 0.0000 0.0000 0.0000 0.0000 29.5576
#
#
#
# Elastic Compliance Matrix: (Units=1/GPa)
#
#
# Indices 1 2 3 4 5 6 
#
# 1 0.011529 -0.002873 -0.003989 0.000000 0.000000 0.000000
# 2 -0.002873 0.019645 -0.005186 0.000000 0.000000 0.000000
# 3 -0.003989 -0.005186 0.018004 0.000000 0.000000 0.000000
# 4 0.000000 0.000000 0.000000 0.038481 0.000000 0.000000
# 5 0.000000 0.000000 0.000000 0.000000 0.028306 0.000000
# 6 0.000000 0.000000 0.000000 0.000000 0.000000 0.033832
#
#
# Mechanical properties :
#
#
# Convention : Reuss Voigt Hill
#
# Bulk Modulus (GPa) = 39.86927 42.19634 41.03280
# Shear Modulus (GPa) = 27.43401 28.62649 28.03025
#
# Velocity S-wave (km/s) = 3.73077 3.81099 3.77109
# Velocity P-wave (km/s) = 6.22782 6.38538 6.30709
#
# Compressibility (1/GPa) = 0.02508197
#
# Stress axis : x y z
#
# Youngs Moduli (GPa) = 86.73414 50.90418 55.54286
#
# Poissons Ratio (x) = 0.14623 0.22158
# Poissons Ratio (y) = 0.24915 0.28805
# Poissons Ratio (z) = 0.34602 0.26400
#
# Static dielectric constant tensor:
#      x y z
#    x 3.717570 0.000000 0.000000 
#    y 0.000000 3.627640 0.000000 
#    z 0.000000 0.000000 3.628150 
# 
# 
# High freq. dielectric constant tensor:
#      x y z
#    x 1.780500 0.000000 0.000000 
#    y 0.000000 1.755670 0.000000 
#    z 0.000000 0.000000 1.762270 
# 
# From -- ./inp_files/6260.got.cif
#   From: 2010.06.25/outbox.ucp.g09.slc.cvg/sg58_4_cif.got.tgz:6260.got - 2010.06.28 15:54:47.
