data_PCOD8239010
_publ_section_title
;
Structure prediction by ZEFSAII (Michael W. Deem and Ramdas Pophale) SiO2 
 PCOD8239010
Probable space group: P N N M
;
_chemical_formula_sum "Si O2"
_cell_formula_units_Z 56
_cell_length_a 15.000000
_cell_length_b 21.000000
_cell_length_c 9.000000
_cell_angle_alpha 90.000000
_cell_angle_beta 90.000000
_cell_angle_gamma 90.000000
_cell_volume 2835.000000
_symmetry_space_group_name_H-M "P N N M"
_symmetry_group_IT_number 58
_symmetry_cell_setting 'orthorhombic'
loop_
_space_group_symop_operation_xyz
x,y,z
-x,-y,z
1/2+x,1/2-y,1/2-z
1/2-x,1/2+y,1/2-z
-x,-y,-z
x,y,-z
1/2-x,1/2+y,1/2+z
1/2+x,1/2-y,1/2+z
loop_
_atom_site_type_symbol
_atom_site_label
_atom_site_fract_x
_atom_site_fract_y
_atom_site_fract_z
Si Si1 0.741799 0.263619 0.829863
Si Si2 0.056013 0.692337 0.170369
Si Si3 0.935260 0.442827 0.674107
Si Si4 0.780015 0.137497 0.671095
Si Si5 0.755156 0.000656 0.174069
Si Si6 0.981295 0.182253 0.329321
Si Si7 0.136304 0.122543 0.823928
O O1 0.842619 0.286332 0.819681
O O2 0.725738 0.193840 0.755153
O O3 0.688846 0.318452 0.746008
O O4 0.709753 0.258471 0.000000
O O5 0.040990 0.622410 0.240335
O O6 0.002426 0.747104 0.260110
O O7 0.022666 0.690430 0.000000
O O8 0.944749 0.427921 0.500000
O O9 0.837228 0.466708 0.715571
O O10 0.000000 0.500000 0.724015
O O11 0.748734 0.135295 0.500000
O O12 0.765047 0.067492 0.740470
O O13 0.882097 0.156823 0.684998
O O14 0.828651 0.947877 0.222340
O O15 0.761022 0.016494 0.000000
O O16 0.012458 0.185294 0.500000
O O17 0.036534 0.129291 0.237961
O O18 0.140897 0.129687 0.000000
#
# Coordination Sequence:
#
# PCOD8239010 Si02
#       7
#     8   8   8   8   8   8   8
#     4  10  20  36  60  85 113 153 197 244 299 357
#     4  10  20  36  59  85 114 149 192 243 294 347
#     4  10  21  38  60  85 117 158 198 239 295 359
#     4  10  22  39  60  85 118 159 201 248 298 353
#     4  10  22  39  59  85 119 159 199 246 304 360
#     4  10  22  39  59  85 117 155 198 246 298 353
#     4  11  22  37  60  88 118 154 200 248 299 358
#
# _framework density 19.753086
#
# number of rings (size 3 to 8) (size 9 to 14) (size 15 to 20)
#    0.000    1.857    1.429    2.143    0.000    6.571 
#    0.000    7.143    0.000    0.000    0.000    0.000 
#    0.000    0.000    0.000    0.000    0.000    0.000 
#
# Total GULP energy -694286.638670 kJ/mol
# GULP energy per Si atom -12397.975691 kJ/mol
# Density = 1.970813 g / cm^3
# Si number density = 19.753086 Si / 1000 Ang^3
#
#
#
# Elastic Constant Matrix: (Units=GPa)
#
#
# Indices 1 2 3 4 5 6 
#
# 1 25.4106 12.5056 17.1179 0.0000 0.0000 0.0000
# 2 12.5056 170.8099 64.5689 0.0000 0.0000 0.0000
# 3 17.1179 64.5689 126.8163 0.0000 0.0000 0.0000
# 4 0.0000 0.0000 0.0000 49.6258 0.0000 0.0000
# 5 0.0000 0.0000 0.0000 0.0000 28.6184 0.0000
# 6 0.0000 0.0000 0.0000 0.0000 0.0000 36.0201
#
#
#
# Elastic Compliance Matrix: (Units=1/GPa)
#
#
# Indices 1 2 3 4 5 6 
#
# 1 0.043486 -0.001195 -0.005261 0.000000 0.000000 0.000000
# 2 -0.001195 0.007283 -0.003547 0.000000 0.000000 0.000000
# 3 -0.005261 -0.003547 0.010401 0.000000 0.000000 0.000000
# 4 0.000000 0.000000 0.000000 0.020151 0.000000 0.000000
# 5 0.000000 0.000000 0.000000 0.000000 0.034943 0.000000
# 6 0.000000 0.000000 0.000000 0.000000 0.000000 0.027762
#
#
# Mechanical properties :
#
#
# Convention : Reuss Voigt Hill
#
# Bulk Modulus (GPa) = 24.29301 56.82462 40.55882
# Shear Modulus (GPa) = 28.12889 38.10913 33.11901
#
# Velocity S-wave (km/s) = 3.77772 4.39712 4.09913
# Velocity P-wave (km/s) = 5.59940 7.38982 6.55602
#
# Compressibility (1/GPa) = 0.04116410
#
# Stress axis : x y z
#
# Youngs Moduli (GPa) = 22.99590 137.31264 96.14059
#
# Poissons Ratio (x) = 0.16407 0.50584
# Poissons Ratio (y) = 0.02748 0.34098
# Poissons Ratio (z) = 0.12099 0.48701
#
# Static dielectric constant tensor:
#      x y z
#    x 3.696140 0.000000 0.000000 
#    y 0.000000 3.948630 0.000000 
#    z 0.000000 0.000000 3.836960 
# 
# 
# High freq. dielectric constant tensor:
#      x y z
#    x 1.765080 0.000000 0.000000 
#    y 0.000000 1.799420 0.000000 
#    z 0.000000 0.000000 1.783170 
# 
# From -- ./inp_files/6449.got.cif
#   From: 2010.06.25/outbox.ucp.g09.slc.cvg/sg58_4_cif.got.tgz:6449.got - 2010.06.28 15:54:47.
