data_PCOD8239227
_publ_section_title
;
Structure prediction by ZEFSAII (Michael W. Deem and Ramdas Pophale) SiO2 
 PCOD8239227
Probable space group: P M M N
;
_chemical_formula_sum "Si O2"
_cell_formula_units_Z 56
_cell_length_a 9.446467
_cell_length_b 28.392857
_cell_length_c 13.516812
_cell_angle_alpha 90.000000
_cell_angle_beta 90.000000
_cell_angle_gamma 90.000000
_cell_volume 3625.373704
_symmetry_space_group_name_H-M "P M M N"
_symmetry_group_IT_number 59
_space_group.IT_coordinate_system_code '2'
_symmetry_cell_setting 'orthorhombic'
loop_
_space_group_symop_operation_xyz
x,y,z
1/2-x,1/2-y,z
1/2+x,-y,-z
-x,1/2+y,-z
-x,-y,-z
1/2+x,1/2+y,-z
1/2-x,y,z
x,1/2-y,z
loop_
_atom_site_type_symbol
_atom_site_label
_atom_site_fract_x
_atom_site_fract_y
_atom_site_fract_z
Si Si1 0.084569 0.948110 0.381928
Si Si2 0.413624 0.398819 0.785235
Si Si3 0.916163 0.699613 0.270493
Si Si4 0.585446 0.470188 0.301562
Si Si5 0.410929 0.613852 0.571653
Si Si6 0.588207 0.513276 0.094668
Si Si7 0.414761 0.303640 0.506868
O O1 0.250000 0.955298 0.360401
O O2 0.056476 0.924053 0.486694
O O3 0.018007 0.914358 0.300221
O O4 0.006819 0.998481 0.377010
O O5 0.250000 0.403886 0.749846
O O6 0.451393 0.343485 0.804455
O O7 0.437167 0.431154 0.881779
O O8 0.750000 0.705880 0.281399
O O9 0.979401 0.750000 0.231899
O O10 0.973168 0.688870 0.381318
O O11 0.750000 0.483786 0.317687
O O12 0.560072 0.414930 0.326107
O O13 0.540850 0.481537 0.188517
O O14 0.250000 0.631519 0.565881
O O15 0.506976 0.660202 0.566345
O O16 0.750000 0.503223 0.068471
O O17 0.500000 0.500000 0.000000
O O18 0.250000 0.315445 0.500003
O O19 0.444972 0.250000 0.472572
#
# Coordination Sequence:
#
# PCOD8239227 Si02
#       7
#     8   8   8   8   8   8   8
#     4  10  18  26  39  63  90 115 144 177 212 244
#     4   9  16  28  45  63  86 118 147 172 210 263
#     4   8  13  23  41  63  85 112 146 176 200 241
#     4   9  19  33  45  60  84 115 148 176 210 263
#     4  10  19  29  42  62  89 118 148 180 213 249
#     4   9  18  31  47  64  83 109 141 180 223 264
#     4   9  17  28  43  63  87 119 155 182 208 247
#
# _framework density 15.446683999999999
#
# number of rings (size 3 to 8) (size 9 to 14) (size 15 to 20)
#    0.000    2.857    1.429    2.571    0.000    3.714 
#    0.000    0.000    0.000    0.429    0.000    1.000 
#    0.000    3.429    0.000    0.000    0.000    0.000 
#
# Total GULP energy -693861.044426 kJ/mol
# GULP energy per Si atom -12390.375793 kJ/mol
# Density = 1.541153 g / cm^3
# Si number density = 15.446684 Si / 1000 Ang^3
#
#
#
# Elastic Constant Matrix: (Units=GPa)
#
#
# Indices 1 2 3 4 5 6 
#
# 1 56.0772 44.4004 31.4531 0.0000 0.0000 0.0000
# 2 44.4004 133.7112 50.5233 0.0000 0.0000 0.0000
# 3 31.4531 50.5233 63.0130 0.0000 0.0000 0.0000
# 4 0.0000 0.0000 0.0000 15.9047 0.0000 0.0000
# 5 0.0000 0.0000 0.0000 0.0000 20.2745 0.0000
# 6 0.0000 0.0000 0.0000 0.0000 0.0000 24.2031
#
#
#
# Elastic Compliance Matrix: (Units=1/GPa)
#
#
# Indices 1 2 3 4 5 6 
#
# 1 0.027450 -0.005649 -0.009172 0.000000 0.000000 0.000000
# 2 -0.005649 0.011892 -0.006715 0.000000 0.000000 0.000000
# 3 -0.009172 -0.006715 0.025832 0.000000 0.000000 0.000000
# 4 0.000000 0.000000 0.000000 0.062874 0.000000 0.000000
# 5 0.000000 0.000000 0.000000 0.000000 0.049323 0.000000
# 6 0.000000 0.000000 0.000000 0.000000 0.000000 0.041317
#
#
# Mechanical properties :
#
#
# Convention : Reuss Voigt Hill
#
# Bulk Modulus (GPa) = 45.24661 56.17279 50.70970
# Shear Modulus (GPa) = 18.57845 20.50477 19.54161
#
# Velocity S-wave (km/s) = 3.47183 3.64738 3.56068
# Velocity P-wave (km/s) = 6.73997 7.36087 7.05725
#
# Compressibility (1/GPa) = 0.02210110
#
# Stress axis : x y z
#
# Youngs Moduli (GPa) = 36.42960 84.08969 38.71155
#
# Poissons Ratio (x) = 0.47506 0.35507
# Poissons Ratio (y) = 0.20581 0.25995
# Poissons Ratio (z) = 0.33414 0.56466
#
# Static dielectric constant tensor:
#      x y z
#    x 2.853180 0.000000 0.000000 
#    y 0.000000 3.264830 0.000000 
#    z 0.000000 0.000000 2.633930 
# 
# 
# High freq. dielectric constant tensor:
#      x y z
#    x 1.582920 0.000000 0.000000 
#    y 0.000000 1.599710 0.000000 
#    z 0.000000 0.000000 1.543710 
# 
# From -- ./inp_files/21743.got.cif
#   From: 2010.03.12/outbox.cif.g09.slc.cpg/sg59_11_cif.got.tgz:21743.got - 2010.04.16 16:29:54.
