data_PCOD8239348
_publ_section_title
;
Structure prediction by ZEFSAII (Michael W. Deem and Ramdas Pophale) SiO2 
 PCOD8239348
Probable space group: P M M N
;
_chemical_formula_sum "Si O2"
_cell_formula_units_Z 64
_cell_length_a 9.558183
_cell_length_b 28.519333
_cell_length_c 15.654722
_cell_angle_alpha 90.000000
_cell_angle_beta 90.000000
_cell_angle_gamma 90.000000
_cell_volume 4267.367694
_symmetry_space_group_name_H-M "P M M N"
_symmetry_group_IT_number 59
_space_group.IT_coordinate_system_code '2'
_symmetry_cell_setting 'orthorhombic'
loop_
_space_group_symop_operation_xyz
x,y,z
1/2-x,1/2-y,z
1/2+x,-y,-z
-x,1/2+y,-z
-x,-y,-z
1/2+x,1/2+y,-z
1/2-x,y,z
x,1/2-y,z
loop_
_atom_site_type_symbol
_atom_site_label
_atom_site_fract_x
_atom_site_fract_y
_atom_site_fract_z
Si Si1 0.086599 0.148056 0.160267
Si Si2 0.583852 0.697828 0.671347
Si Si3 0.089474 0.447527 0.081459
Si Si4 0.094018 0.194186 0.514970
Si Si5 0.912455 0.304980 0.672111
Si Si6 0.913588 0.353649 0.840367
Si Si7 0.911555 0.448568 0.915076
Si Si8 0.088025 0.805121 0.988307
O O1 0.250000 0.160257 0.148339
O O2 0.032308 0.163084 0.253994
O O3 0.059431 0.092189 0.152127
O O4 0.001571 0.176871 0.090691
O O5 0.750000 0.700786 0.668938
O O6 0.522781 0.750000 0.689040
O O7 0.534858 0.678481 0.578354
O O8 0.250000 0.445948 0.051443
O O9 0.053115 0.499159 0.119723
O O10 0.997287 0.436516 0.999415
O O11 0.250000 0.174043 0.531121
O O12 0.098986 0.250000 0.515547
O O13 0.992179 0.175449 0.588884
O O14 0.750000 0.316541 0.658626
O O15 0.937792 0.250000 0.686185
O O16 0.978111 0.331715 0.754202
O O17 0.750000 0.342930 0.837060
O O18 0.947442 0.409480 0.843607
O O19 0.972801 0.328684 0.925369
O O20 0.750000 0.444320 0.941427
O O21 0.250000 0.818878 0.973474
O O22 0.068712 0.750000 0.997510
#
# Coordination Sequence:
#
# PCOD8239348 Si02
#       8
#     8   8   8   8   8   8   8   8
#     4  10  18  28  42  61  84 108 136 169 205 241
#     4   8  14  25  41  58  78 107 136 159 193 244
#     4   9  17  27  41  62  82 101 133 177 209 233
#     4   8  14  26  42  58  76 100 131 164 198 238
#     4   9  16  26  41  60  80 102 131 167 203 237
#     4   9  16  27  42  58  78 109 140 163 195 243
#     4   9  16  28  44  58  77 107 139 168 203 243
#     4  10  19  29  40  56  81 113 145 168 189 230
#
# _framework density 14.997536
#
# number of rings (size 3 to 8) (size 9 to 14) (size 15 to 20)
#    0.000    3.000    1.250    1.500    0.000    2.250 
#    0.000    1.875    0.000    3.750    0.000    0.875 
#    0.000    0.000    0.000    0.000    0.000    0.000 
#
# Total GULP energy -793173.067729 kJ/mol
# GULP energy per Si atom -12393.329183 kJ/mol
# Density = 1.496340 g / cm^3
# Si number density = 14.997536 Si / 1000 Ang^3
#
#
#
# Elastic Constant Matrix: (Units=GPa)
#
#
# Indices 1 2 3 4 5 6 
#
# 1 35.5886 25.9507 39.2301 0.0000 0.0000 0.0000
# 2 25.9507 83.0728 58.9902 0.0000 0.0000 0.0000
# 3 39.2301 58.9902 140.7350 0.0000 0.0000 0.0000
# 4 0.0000 0.0000 0.0000 13.0391 0.0000 0.0000
# 5 0.0000 0.0000 0.0000 0.0000 21.5835 0.0000
# 6 0.0000 0.0000 0.0000 0.0000 0.0000 14.4684
#
#
#
# Elastic Compliance Matrix: (Units=1/GPa)
#
#
# Indices 1 2 3 4 5 6 
#
# 1 0.043283 -0.007053 -0.009109 0.000000 0.000000 0.000000
# 2 -0.007053 0.018288 -0.005700 0.000000 0.000000 0.000000
# 3 -0.009109 -0.005700 0.012034 0.000000 0.000000 0.000000
# 4 0.000000 0.000000 0.000000 0.076693 0.000000 0.000000
# 5 0.000000 0.000000 0.000000 0.000000 0.046332 0.000000
# 6 0.000000 0.000000 0.000000 0.000000 0.000000 0.069116
#
#
# Mechanical properties :
#
#
# Convention : Reuss Voigt Hill
#
# Bulk Modulus (GPa) = 33.46491 56.41537 44.94014
# Shear Modulus (GPa) = 15.65298 18.83321 17.24310
#
# Velocity S-wave (km/s) = 3.23415 3.54751 3.39444
# Velocity P-wave (km/s) = 6.02564 7.38091 6.73744
#
# Compressibility (1/GPa) = 0.02988205
#
# Stress axis : x y z
#
# Youngs Moduli (GPa) = 23.10403 54.68028 83.09953
#
# Poissons Ratio (x) = 0.38563 0.75695
# Poissons Ratio (y) = 0.16294 0.47364
# Poissons Ratio (z) = 0.21045 0.31166
#
# Static dielectric constant tensor:
#      x y z
#    x 3.126380 0.000000 0.000000 
#    y 0.000000 2.976010 0.000000 
#    z 0.000000 0.000000 3.092770 
# 
# 
# High freq. dielectric constant tensor:
#      x y z
#    x 1.553640 0.000000 0.000000 
#    y 0.000000 1.561220 0.000000 
#    z 0.000000 0.000000 1.563240 
# 
# From -- ./inp_files/19001.got.cif
#   From: 2010.03.12/outbox.cif.g09.slc.cpg/sg59_10_cif.got.tgz:19001.got - 2010.04.16 16:29:54.
