data_PCOD8239691
_publ_section_title
;
Structure prediction by ZEFSAII (Michael W. Deem and Ramdas Pophale) SiO2 
 PCOD8239691
Probable space group: P M M N
;
_chemical_formula_sum "Si O2"
_cell_formula_units_Z 48
_cell_length_a 13.720081
_cell_length_b 14.181997
_cell_length_c 14.421184
_cell_angle_alpha 90.000000
_cell_angle_beta 90.000000
_cell_angle_gamma 90.000000
_cell_volume 2806.047269
_symmetry_space_group_name_H-M "P M M N"
_symmetry_group_IT_number 59
_space_group.IT_coordinate_system_code '2'
_symmetry_cell_setting 'orthorhombic'
loop_
_space_group_symop_operation_xyz
x,y,z
1/2-x,1/2-y,z
1/2+x,-y,-z
-x,1/2+y,-z
-x,-y,-z
1/2+x,1/2+y,-z
1/2-x,y,z
x,1/2-y,z
loop_
_atom_site_type_symbol
_atom_site_label
_atom_site_fract_x
_atom_site_fract_y
_atom_site_fract_z
Si Si1 0.361074 0.479156 0.805527
Si Si2 0.519832 0.361692 0.522517
Si Si3 0.357492 0.638529 0.298498
Si Si4 0.134766 0.496048 0.589737
Si Si5 0.138053 0.643167 0.939124
Si Si6 0.971044 0.138353 0.878269
O O1 0.250000 0.449110 0.820754
O O2 0.387074 0.479917 0.697617
O O3 0.382239 0.582464 0.847432
O O4 0.421777 0.402630 0.862856
O O5 0.508350 0.250000 0.507462
O O6 0.575747 0.390543 0.615904
O O7 0.583040 0.405426 0.438550
O O8 0.413081 0.410019 0.530696
O O9 0.250000 0.594554 0.312343
O O10 0.350104 0.750000 0.292111
O O11 0.402128 0.598237 0.203389
O O12 0.250000 0.500244 0.568809
O O13 0.250000 0.636090 0.971709
O O14 0.110340 0.750000 0.913243
O O15 0.072163 0.605161 0.023576
O O16 0.978149 0.250000 0.873316
#
# Coordination Sequence:
#
# PCOD8239691 Si02
#       6
#     8   8   8   8   8   8
#     4  10  20  33  49  72 102 133 164 199 244 299
#     4  10  20  35  53  75 102 133 170 212 255 301
#     4   9  16  27  46  71  96 122 156 200 248 292
#     4  10  21  35  52  76 105 136 171 209 253 308
#     4   9  18  32  50  72  98 129 166 206 245 286
#     4  10  18  30  48  72 100 130 163 201 245 293
#
# _framework density 17.105913000000001
#
# number of rings (size 3 to 8) (size 9 to 14) (size 15 to 20)
#    0.000    2.333    1.667    1.500    0.000    4.333 
#    0.000    3.333    0.000    0.000    0.000    0.000 
#    0.000    0.000    0.000    0.000    0.000    0.000 
#
# Total GULP energy -595134.884366 kJ/mol
# GULP energy per Si atom -12398.643424 kJ/mol
# Density = 1.706698 g / cm^3
# Si number density = 17.105913 Si / 1000 Ang^3
#
#
#
# Elastic Constant Matrix: (Units=GPa)
#
#
# Indices 1 2 3 4 5 6 
#
# 1 99.0345 38.2011 37.7091 0.0000 0.0000 0.0000
# 2 38.2011 65.1452 20.8475 0.0000 0.0000 0.0000
# 3 37.7091 20.8475 46.7499 0.0000 0.0000 0.0000
# 4 0.0000 0.0000 0.0000 23.4629 0.0000 0.0000
# 5 0.0000 0.0000 0.0000 0.0000 28.5824 0.0000
# 6 0.0000 0.0000 0.0000 0.0000 0.0000 24.2442
#
#
#
# Elastic Compliance Matrix: (Units=1/GPa)
#
#
# Indices 1 2 3 4 5 6 
#
# 1 0.016548 -0.006337 -0.010522 0.000000 0.000000 0.000000
# 2 -0.006337 0.020332 -0.003956 0.000000 0.000000 0.000000
# 3 -0.010522 -0.003956 0.031642 0.000000 0.000000 0.000000
# 4 0.000000 0.000000 0.000000 0.042621 0.000000 0.000000
# 5 0.000000 0.000000 0.000000 0.000000 0.034987 0.000000
# 6 0.000000 0.000000 0.000000 0.000000 0.000000 0.041247
#
#
# Mechanical properties :
#
#
# Convention : Reuss Voigt Hill
#
# Bulk Modulus (GPa) = 37.18437 44.93833 41.06135
# Shear Modulus (GPa) = 21.01108 22.86936 21.94022
#
# Velocity S-wave (km/s) = 3.50850 3.66037 3.58524
# Velocity P-wave (km/s) = 6.18043 6.64771 6.41832
#
# Compressibility (1/GPa) = 0.02689302
#
# Stress axis : x y z
#
# Youngs Moduli (GPa) = 60.42912 49.18361 31.60372
#
# Poissons Ratio (x) = 0.31166 0.33255
# Poissons Ratio (y) = 0.38292 0.12501
# Poissons Ratio (z) = 0.63586 0.19455
#
# Static dielectric constant tensor:
#      x y z
#    x 3.312560 0.000000 0.000000 
#    y 0.000000 3.005980 0.000000 
#    z 0.000000 0.000000 3.244560 
# 
# 
# High freq. dielectric constant tensor:
#      x y z
#    x 1.665990 0.000000 0.000000 
#    y 0.000000 1.638760 0.000000 
#    z 0.000000 0.000000 1.661350 
# 
# From -- ./inp_files/16797.got.cif
#   From: 2010.03.12/outbox.cif.g09.slc.cpg/sg59_9_cif.got.tgz:16797.got - 2010.04.16 16:29:54.
