data_PCOD8239484
_publ_section_title
;
Structure prediction by ZEFSAII (Michael W. Deem and Ramdas Pophale) SiO2 
 PCOD8239484
Probable space group: P M M N
;
_chemical_formula_sum "Si O2"
_cell_formula_units_Z 64
_cell_length_a 24.099715
_cell_length_b 12.247301
_cell_length_c 13.107770
_cell_angle_alpha 90.000000
_cell_angle_beta 90.000000
_cell_angle_gamma 90.000000
_cell_volume 3868.843039
_symmetry_space_group_name_H-M "P M M N"
_symmetry_group_IT_number 59
_space_group.IT_coordinate_system_code '2'
_symmetry_cell_setting 'orthorhombic'
loop_
_space_group_symop_operation_xyz
x,y,z
1/2-x,1/2-y,z
1/2+x,-y,-z
-x,1/2+y,-z
-x,-y,-z
1/2+x,1/2+y,-z
1/2-x,y,z
x,1/2-y,z
loop_
_atom_site_type_symbol
_atom_site_label
_atom_site_fract_x
_atom_site_fract_y
_atom_site_fract_z
Si Si1 0.080807 0.990945 0.980186
Si Si2 0.586910 0.626105 0.216144
Si Si3 0.986157 0.625790 0.871459
Si Si4 0.311722 0.625795 0.531087
Si Si5 0.010191 0.972063 0.659197
Si Si6 0.687219 0.377190 0.065191
Si Si7 0.431697 0.876291 0.464124
Si Si8 0.811202 0.996754 0.264660
O O1 0.142764 0.945409 0.001377
O O2 0.043209 0.893219 0.934302
O O3 0.077459 0.089366 0.899572
O O4 0.059148 0.039320 0.086833
O O5 0.569414 0.750000 0.225705
O O6 0.551568 0.561432 0.297980
O O7 0.650693 0.608021 0.246493
O O8 0.967068 0.750000 0.889155
O O9 0.991637 0.607449 0.750388
O O10 0.250000 0.604054 0.480758
O O11 0.313843 0.750000 0.570831
O O12 0.364638 0.605010 0.457832
O O13 0.320572 0.546600 0.625298
O O14 0.042251 0.899797 0.575458
O O15 0.957420 0.037499 0.614920
O O16 0.750000 0.408465 0.031496
O O17 0.676568 0.250000 0.049835
O O18 0.676287 0.407315 0.183203
O O19 0.445241 0.750000 0.435880
O O20 0.750000 0.950121 0.250777
#
# Coordination Sequence:
#
# PCOD8239484 Si02
#       8
#     8   8   8   8   8   8   8   8
#     4   9  19  31  47  73  97 123 158 197 235 276
#     4  10  18  29  43  63  94 130 159 193 232 275
#     4  10  19  33  51  70  95 127 161 196 233 279
#     4   9  16  27  46  70  93 118 148 188 239 285
#     4  10  20  32  47  70  93 122 161 193 237 280
#     4   9  16  27  45  69  98 127 154 190 236 282
#     4  10  19  32  49  70  96 122 152 194 238 284
#     4   9  16  26  40  64  94 125 159 191 224 278
#
# _framework density 16.542413
#
# number of rings (size 3 to 8) (size 9 to 14) (size 15 to 20)
#    0.000    2.500    1.250    1.875    0.000    1.750 
#    0.000    1.875    0.000    1.875    0.000    1.750 
#    0.000    0.000    0.000    0.000    0.000    0.000 
#
# Total GULP energy -793214.490693 kJ/mol
# GULP energy per Si atom -12393.976417 kJ/mol
# Density = 1.650476 g / cm^3
# Si number density = 16.542413 Si / 1000 Ang^3
#
#
#
# Elastic Constant Matrix: (Units=GPa)
#
#
# Indices 1 2 3 4 5 6 
#
# 1 105.9636 27.6890 24.7367 0.0000 0.0000 0.0000
# 2 27.6890 69.6633 15.5199 0.0000 0.0000 0.0000
# 3 24.7367 15.5199 50.1823 0.0000 0.0000 0.0000
# 4 0.0000 0.0000 0.0000 11.8846 0.0000 0.0000
# 5 0.0000 0.0000 0.0000 0.0000 20.5114 0.0000
# 6 0.0000 0.0000 0.0000 0.0000 0.0000 22.3455
#
#
#
# Elastic Compliance Matrix: (Units=1/GPa)
#
#
# Indices 1 2 3 4 5 6 
#
# 1 0.011418 -0.003528 -0.004538 0.000000 0.000000 0.000000
# 2 -0.003528 0.016507 -0.003366 0.000000 0.000000 0.000000
# 3 -0.004538 -0.003366 0.023205 0.000000 0.000000 0.000000
# 4 0.000000 0.000000 0.000000 0.084142 0.000000 0.000000
# 5 0.000000 0.000000 0.000000 0.000000 0.048753 0.000000
# 6 0.000000 0.000000 0.000000 0.000000 0.000000 0.044752
#
#
# Mechanical properties :
#
#
# Convention : Reuss Voigt Hill
#
# Bulk Modulus (GPa) = 35.37613 40.18894 37.78253
# Shear Modulus (GPa) = 19.15249 21.47254 20.31251
#
# Velocity S-wave (km/s) = 3.40631 3.60673 3.50795
# Velocity P-wave (km/s) = 6.07471 6.45692 6.26873
#
# Compressibility (1/GPa) = 0.02826765
#
# Stress axis : x y z
#
# Youngs Moduli (GPa) = 87.57927 60.58111 43.09390
#
# Poissons Ratio (x) = 0.21370 0.19554
# Poissons Ratio (y) = 0.30894 0.14506
# Poissons Ratio (z) = 0.39739 0.20393
#
# Static dielectric constant tensor:
#      x y z
#    x 3.427790 0.000000 0.000000 
#    y 0.000000 2.948100 0.000000 
#    z 0.000000 0.000000 2.849160 
# 
# 
# High freq. dielectric constant tensor:
#      x y z
#    x 1.646190 0.000000 0.000000 
#    y 0.000000 1.630250 0.000000 
#    z 0.000000 0.000000 1.603810 
# 
# From -- ./inp_files/18776.got.cif
#   From: 2010.03.12/outbox.cif.g09.slc.cpg/sg59_10_cif.got.tgz:18776.got - 2010.04.16 16:29:54.
