data_PCOD8239091
_publ_section_title
;
Structure prediction by ZEFSAII (Michael W. Deem and Ramdas Pophale) SiO2 
 PCOD8239091
Probable space group: P M M N
;
_chemical_formula_sum "Si O2"
_cell_formula_units_Z 56
_cell_length_a 8.939779
_cell_length_b 26.820861
_cell_length_c 14.622133
_cell_angle_alpha 90.000000
_cell_angle_beta 90.000000
_cell_angle_gamma 90.000000
_cell_volume 3505.986407
_symmetry_space_group_name_H-M "P M M N"
_symmetry_group_IT_number 59
_space_group.IT_coordinate_system_code '2'
_symmetry_cell_setting 'orthorhombic'
loop_
_space_group_symop_operation_xyz
x,y,z
1/2-x,1/2-y,z
1/2+x,-y,-z
-x,1/2+y,-z
-x,-y,-z
1/2+x,1/2+y,-z
1/2-x,y,z
x,1/2-y,z
loop_
_atom_site_type_symbol
_atom_site_label
_atom_site_fract_x
_atom_site_fract_y
_atom_site_fract_z
Si Si1 0.573391 0.194911 0.124939
Si Si2 0.072933 0.885113 0.730752
Si Si3 0.425476 0.544565 0.386962
Si Si4 0.575394 0.436888 0.811726
Si Si5 0.573531 0.112279 0.988137
Si Si6 0.575911 0.569126 0.568337
Si Si7 0.426733 0.043843 0.127906
O O1 0.750000 0.200197 0.120714
O O2 0.499101 0.250000 0.123516
O O3 0.526995 0.166500 0.218336
O O4 0.519082 0.163908 0.035049
O O5 0.250000 0.890945 0.727004
O O6 0.005520 0.888307 0.628880
O O7 0.002811 0.930425 0.785840
O O8 0.250000 0.554806 0.400191
O O9 0.492442 0.565996 0.290672
O O10 0.513340 0.573585 0.465887
O O11 0.458689 0.485542 0.390901
O O12 0.750000 0.440148 0.793666
O O13 0.525946 0.486230 0.866220
O O14 0.535387 0.390049 0.878880
O O15 0.750000 0.104857 0.004588
O O16 0.490243 0.065924 0.034264
O O17 0.750000 0.581089 0.567246
O O18 0.250000 0.052272 0.133312
#
# Coordination Sequence:
#
# PCOD8239091 Si02
#       7
#     8   8   8   8   8   8   8
#     4   8  15  28  45  66  88 108 137 179 221 260
#     4  10  18  28  45  65  85 114 148 178 216 266
#     4   9  17  29  42  58  85 120 151 178 209 249
#     4   9  16  27  41  59  85 116 148 179 210 248
#     4   9  17  28  43  62  83 112 146 176 212 258
#     4  10  18  29  43  62  87 115 146 183 217 249
#     4  10  17  27  40  58  87 117 143 177 214 247
#
# _framework density 15.97268
#
# number of rings (size 3 to 8) (size 9 to 14) (size 15 to 20)
#    0.000    2.714    1.429    2.571    0.000    0.571 
#    0.000    1.429    0.000   10.714    0.000    1.000 
#    0.000    5.714    0.000    0.000    0.000    0.000 
#
# Total GULP energy -693907.603848 kJ/mol
# GULP energy per Si atom -12391.207212 kJ/mol
# Density = 1.593633 g / cm^3
# Si number density = 15.972680 Si / 1000 Ang^3
#
#
#
# Elastic Constant Matrix: (Units=GPa)
#
#
# Indices 1 2 3 4 5 6 
#
# 1 137.0815 98.7211 283.8261 0.0000 0.0000 0.0000
# 2 98.7211 143.8358 270.3164 0.0000 0.0000 0.0000
# 3 283.8261 270.3164 833.3340 0.0000 0.0000 0.0000
# 4 0.0000 0.0000 0.0000 17.0774 0.0000 0.0000
# 5 0.0000 0.0000 0.0000 0.0000 21.5553 0.0000
# 6 0.0000 0.0000 0.0000 0.0000 0.0000 11.4000
#
#
#
# Elastic Compliance Matrix: (Units=1/GPa)
#
#
# Indices 1 2 3 4 5 6 
#
# 1 0.025237 -0.002991 -0.007625 0.000000 0.000000 0.000000
# 2 -0.002991 0.018164 -0.004873 0.000000 0.000000 0.000000
# 3 -0.007625 -0.004873 0.005378 0.000000 0.000000 0.000000
# 4 0.000000 0.000000 0.000000 0.058557 0.000000 0.000000
# 5 0.000000 0.000000 0.000000 0.000000 0.046392 0.000000
# 6 0.000000 0.000000 0.000000 0.000000 0.000000 0.087719
#
#
# Mechanical properties :
#
#
# Convention : Reuss Voigt Hill
#
# Bulk Modulus (GPa) = 56.18001 268.88649 162.53325
# Shear Modulus (GPa) = 17.96243 40.76574 29.36409
#
# Velocity S-wave (km/s) = 3.35710 5.05743 4.29230
# Velocity P-wave (km/s) = 7.09054 14.24115 11.24914
#
# Compressibility (1/GPa) = 0.01779992
#
# Stress axis : x y z
#
# Youngs Moduli (GPa) = 39.62443 55.05526 185.94411
#
# Poissons Ratio (x) = 0.16464 1.41790
# Poissons Ratio (y) = 0.11850 0.90617
# Poissons Ratio (z) = 0.30215 0.26830
#
# Static dielectric constant tensor:
#      x y z
#    x 2.880540 0.000000 0.000000 
#    y 0.000000 2.897600 0.000000 
#    z 0.000000 0.000000 3.326440 
# 
# 
# High freq. dielectric constant tensor:
#      x y z
#    x 1.598150 0.000000 0.000000 
#    y 0.000000 1.566650 0.000000 
#    z 0.000000 0.000000 1.622880 
# 
# From -- ./inp_files/21710.got.cif
#   From: 2010.03.12/outbox.cif.g09.slc.cpg/sg59_11_cif.got.tgz:21710.got - 2010.04.16 16:29:54.
