data_PCOD8239760
_publ_section_title
;
Structure prediction by ZEFSAII (Michael W. Deem and Ramdas Pophale) SiO2 
 PCOD8239760
Probable space group: P M M N
;
_chemical_formula_sum "Si O2"
_cell_formula_units_Z 64
_cell_length_a 8.976481
_cell_length_b 20.078614
_cell_length_c 20.019784
_cell_angle_alpha 90.000000
_cell_angle_beta 90.000000
_cell_angle_gamma 90.000000
_cell_volume 3608.271717
_symmetry_space_group_name_H-M "P M M N"
_symmetry_group_IT_number 59
_space_group.IT_coordinate_system_code '2'
_symmetry_cell_setting 'orthorhombic'
loop_
_space_group_symop_operation_xyz
x,y,z
1/2-x,1/2-y,z
1/2+x,-y,-z
-x,1/2+y,-z
-x,-y,-z
1/2+x,1/2+y,-z
1/2-x,y,z
x,1/2-y,z
loop_
_atom_site_type_symbol
_atom_site_label
_atom_site_fract_x
_atom_site_fract_y
_atom_site_fract_z
Si Si1 0.576267 0.431362 0.480946
Si Si2 0.927129 0.176402 0.584303
Si Si3 0.425902 0.431632 0.976949
Si Si4 0.424689 0.915599 0.300493
Si Si5 0.920511 0.452036 0.334295
Si Si6 0.075545 0.586360 0.810022
Si Si7 0.077076 0.173879 0.089227
Si Si8 0.926776 0.050488 0.844359
O O1 0.500000 0.500000 0.500000
O O2 0.750000 0.440316 0.495803
O O3 0.510665 0.371148 0.525529
O O4 0.546527 0.412599 0.403075
O O5 0.750000 0.180179 0.579973
O O6 0.996627 0.250000 0.575902
O O7 0.977305 0.148342 0.656954
O O8 0.250000 0.442013 0.971716
O O9 0.493649 0.411441 0.905128
O O10 0.500000 0.500000 0.000000
O O11 0.468306 0.371876 0.026610
O O12 0.250000 0.923581 0.303747
O O13 0.474803 0.910384 0.223158
O O14 0.486147 0.980862 0.335961
O O15 0.750000 0.474618 0.330653
O O16 0.959134 0.407174 0.269363
O O17 0.250000 0.575698 0.823794
O O18 0.018280 0.653077 0.845824
O O19 0.984861 0.525073 0.841522
O O20 0.250000 0.165190 0.106908
O O21 0.038436 0.250000 0.071132
O O22 0.750000 0.049034 0.855385
#
# Coordination Sequence:
#
# PCOD8239760 Si02
#       8
#     8   8   8   8   8   8   8   8
#     4  10  18  30  50  75 102 134 172 214 258 304
#     4   9  17  30  49  73 101 135 175 214 256 308
#     4  11  21  34  55  80 106 136 172 216 259 308
#     4   9  17  30  49  73  98 130 171 210 251 301
#     4   9  18  30  47  75 105 128 162 213 262 301
#     4  10  19  32  51  76 104 134 170 214 261 309
#     4  10  22  39  56  75 103 140 177 213 259 314
#     4  10  19  31  50  77 106 132 167 214 260 306
#
# _framework density 17.737024000000002
#
# number of rings (size 3 to 8) (size 9 to 14) (size 15 to 20)
#    0.000    2.250    2.500    1.125    0.000    1.750 
#    0.000    1.250    0.000    4.500    0.000    0.000 
#    0.000    0.000    0.000    0.000    0.000    0.000 
#
# Total GULP energy -793425.295827 kJ/mol
# GULP energy per Si atom -12397.270247 kJ/mol
# Density = 1.769665 g / cm^3
# Si number density = 17.737024 Si / 1000 Ang^3
#
#
#
# Elastic Constant Matrix: (Units=GPa)
#
#
# Indices 1 2 3 4 5 6 
#
# 1 39.5803 31.1483 38.5548 0.0000 0.0000 0.0000
# 2 31.1483 126.8310 78.8755 0.0000 0.0000 0.0000
# 3 38.5548 78.8755 150.6585 0.0000 0.0000 0.0000
# 4 0.0000 0.0000 0.0000 27.0444 0.0000 0.0000
# 5 0.0000 0.0000 0.0000 0.0000 23.1675 0.0000
# 6 0.0000 0.0000 0.0000 0.0000 0.0000 18.6172
#
#
#
# Elastic Compliance Matrix: (Units=1/GPa)
#
#
# Indices 1 2 3 4 5 6 
#
# 1 0.035325 -0.004528 -0.006670 0.000000 0.000000 0.000000
# 2 -0.004528 0.012271 -0.005266 0.000000 0.000000 0.000000
# 3 -0.006670 -0.005266 0.011101 0.000000 0.000000 0.000000
# 4 0.000000 0.000000 0.000000 0.036976 0.000000 0.000000
# 5 0.000000 0.000000 0.000000 0.000000 0.043164 0.000000
# 6 0.000000 0.000000 0.000000 0.000000 0.000000 0.053714
#
#
# Mechanical properties :
#
#
# Convention : Reuss Voigt Hill
#
# Bulk Modulus (GPa) = 38.80281 68.24745 53.52513
# Shear Modulus (GPa) = 21.36135 24.99857 23.17996
#
# Velocity S-wave (km/s) = 3.47412 3.75827 3.61899
# Velocity P-wave (km/s) = 6.16579 7.57586 6.90690
#
# Compressibility (1/GPa) = 0.02577133
#
# Stress axis : x y z
#
# Youngs Moduli (GPa) = 28.30861 81.49165 90.08059
#
# Poissons Ratio (x) = 0.36896 0.60080
# Poissons Ratio (y) = 0.12817 0.47434
# Poissons Ratio (z) = 0.18881 0.42912
#
# Static dielectric constant tensor:
#      x y z
#    x 3.210130 0.000000 0.000000 
#    y 0.000000 3.210830 0.000000 
#    z 0.000000 0.000000 3.843710 
# 
# 
# High freq. dielectric constant tensor:
#      x y z
#    x 1.676860 0.000000 0.000000 
#    y 0.000000 1.653330 0.000000 
#    z 0.000000 0.000000 1.705990 
# 
# From -- ./inp_files/29419.got.cif
#   From: 2010.03.12/outbox.cif.g09.slc.cpg/sg59_15_cif.got.tgz:29419.got - 2010.04.16 16:29:54.
