data_PCOD8239394
_publ_section_title
;
Structure prediction by ZEFSAII (Michael W. Deem and Ramdas Pophale) SiO2 
 PCOD8239394
Probable space group: P M M N
;
_chemical_formula_sum "Si O2"
_cell_formula_units_Z 64
_cell_length_a 9.087706
_cell_length_b 22.980965
_cell_length_c 17.304340
_cell_angle_alpha 90.000000
_cell_angle_beta 90.000000
_cell_angle_gamma 90.000000
_cell_volume 3613.911970
_symmetry_space_group_name_H-M "P M M N"
_symmetry_group_IT_number 59
_space_group.IT_coordinate_system_code '2'
_symmetry_cell_setting 'orthorhombic'
loop_
_space_group_symop_operation_xyz
x,y,z
1/2-x,1/2-y,z
1/2+x,-y,-z
-x,1/2+y,-z
-x,-y,-z
1/2+x,1/2+y,-z
1/2-x,y,z
x,1/2-y,z
loop_
_atom_site_type_symbol
_atom_site_label
_atom_site_fract_x
_atom_site_fract_y
_atom_site_fract_z
Si Si1 0.583956 0.088027 0.817452
Si Si2 0.421850 0.816170 0.555855
Si Si3 0.417740 0.816090 0.291860
Si Si4 0.921734 0.992184 0.080601
Si Si5 0.916618 0.524978 0.310929
Si Si6 0.079370 0.184239 0.282617
Si Si7 0.418570 0.118689 0.575828
Si Si8 0.417330 0.918551 0.783749
O O1 0.750000 0.072155 0.842008
O O2 0.567991 0.155614 0.793806
O O3 0.543191 0.054012 0.739506
O O4 0.475227 0.070123 0.886448
O O5 0.250000 0.827106 0.565727
O O6 0.453102 0.750000 0.525959
O O7 0.495641 0.826257 0.637872
O O8 0.483654 0.864582 0.497542
O O9 0.250000 0.823884 0.323268
O O10 0.461022 0.750000 0.280382
O O11 0.532936 0.842874 0.351505
O O12 0.750000 0.990164 0.066123
O O13 0.965306 0.042339 0.142434
O O14 0.000000 0.000000 0.000000
O O15 0.750000 0.541862 0.282267
O O16 0.936602 0.549926 0.398783
O O17 0.934366 0.455478 0.297005
O O18 0.250000 0.172240 0.296933
O O19 0.052584 0.250000 0.252167
O O20 0.018589 0.138706 0.219422
O O21 0.250000 0.132842 0.555409
O O22 0.250000 0.897797 0.794300
#
# Coordination Sequence:
#
# PCOD8239394 Si02
#       8
#     8   8   8   8   8   8   8   8
#     4   9  16  27  45  68  95 127 162 197 232 274
#     4  10  20  33  48  66  92 128 169 213 258 301
#     4   9  17  28  42  63  93 130 169 203 236 280
#     4  10  20  34  54  80 106 128 153 189 232 280
#     4   8  16  30  46  67  97 130 162 199 243 289
#     4  10  21  36  54  76  99 124 160 206 251 294
#     4  10  18  28  44  67  96 128 165 211 256 293
#     4   9  18  34  55  77 101 129 161 196 237 290
#
# _framework density 17.709340000000001
#
# number of rings (size 3 to 8) (size 9 to 14) (size 15 to 20)
#    0.000    2.625    0.000    3.000    0.000    6.750 
#    0.000    0.625    0.000    0.750    0.000    1.750 
#    0.000    0.000    0.000    0.000    0.000    0.000 
#
# Total GULP energy -793045.635672 kJ/mol
# GULP energy per Si atom -12391.338057 kJ/mol
# Density = 1.766903 g / cm^3
# Si number density = 17.709340 Si / 1000 Ang^3
#
#
#
# Elastic Constant Matrix: (Units=GPa)
#
#
# Indices 1 2 3 4 5 6 
#
# 1 92.8438 42.9620 41.4349 0.0000 0.0000 0.0000
# 2 42.9620 80.0872 32.5785 0.0000 0.0000 0.0000
# 3 41.4349 32.5785 67.2162 0.0000 0.0000 0.0000
# 4 0.0000 0.0000 0.0000 20.3507 0.0000 0.0000
# 5 0.0000 0.0000 0.0000 0.0000 31.1283 0.0000
# 6 0.0000 0.0000 0.0000 0.0000 0.0000 26.7980
#
#
#
# Elastic Compliance Matrix: (Units=1/GPa)
#
#
# Indices 1 2 3 4 5 6 
#
# 1 0.016903 -0.006015 -0.007505 0.000000 0.000000 0.000000
# 2 -0.006015 0.017693 -0.004868 0.000000 0.000000 0.000000
# 3 -0.007505 -0.004868 0.021863 0.000000 0.000000 0.000000
# 4 0.000000 0.000000 0.000000 0.049138 0.000000 0.000000
# 5 0.000000 0.000000 0.000000 0.000000 0.032125 0.000000
# 6 0.000000 0.000000 0.000000 0.000000 0.000000 0.037316
#
#
# Mechanical properties :
#
#
# Convention : Reuss Voigt Hill
#
# Bulk Modulus (GPa) = 50.80045 52.67755 51.73900
# Shear Modulus (GPa) = 22.89641 23.86685 23.38163
#
# Velocity S-wave (km/s) = 3.59959 3.67508 3.63753
# Velocity P-wave (km/s) = 6.78410 6.91509 6.84991
#
# Compressibility (1/GPa) = 0.01968486
#
# Stress axis : x y z
#
# Youngs Moduli (GPa) = 59.16027 56.51916 45.73967
#
# Poissons Ratio (x) = 0.33995 0.34326
# Poissons Ratio (y) = 0.35584 0.22265
# Poissons Ratio (z) = 0.44397 0.27512
#
# Static dielectric constant tensor:
#      x y z
#    x 3.384280 0.000000 0.000000 
#    y 0.000000 3.440100 0.000000 
#    z 0.000000 0.000000 3.045130 
# 
# 
# High freq. dielectric constant tensor:
#      x y z
#    x 1.698670 0.000000 0.000000 
#    y 0.000000 1.675770 0.000000 
#    z 0.000000 0.000000 1.649710 
# 
# From -- ./inp_files/26161.got.cif
#   From: 2010.03.12/outbox.cif.g09.slc.cpg/sg59_14_cif.got.tgz:26161.got - 2010.04.16 16:29:54.
