data_PCOD8239625
_publ_section_title
;
Structure prediction by ZEFSAII (Michael W. Deem and Ramdas Pophale) SiO2 
 PCOD8239625
Probable space group: P M M N
;
_chemical_formula_sum "Si O2"
_cell_formula_units_Z 64
_cell_length_a 13.946782
_cell_length_b 9.242010
_cell_length_c 26.113343
_cell_angle_alpha 90.000000
_cell_angle_beta 90.000000
_cell_angle_gamma 90.000000
_cell_volume 3365.913260
_symmetry_space_group_name_H-M "P M M N"
_symmetry_group_IT_number 59
_space_group.IT_coordinate_system_code '2'
_symmetry_cell_setting 'orthorhombic'
loop_
_space_group_symop_operation_xyz
x,y,z
1/2-x,1/2-y,z
1/2+x,-y,-z
-x,1/2+y,-z
-x,-y,-z
1/2+x,1/2+y,-z
1/2-x,y,z
x,1/2-y,z
loop_
_atom_site_type_symbol
_atom_site_label
_atom_site_fract_x
_atom_site_fract_y
_atom_site_fract_z
Si Si1 0.855894 0.921902 0.471007
Si Si2 0.357998 0.916165 0.118253
Si Si3 0.547487 0.582438 0.171397
Si Si4 0.364130 0.413588 0.018274
Si Si5 0.639016 0.917967 0.585201
Si Si6 0.472535 0.078182 0.625715
Si Si7 0.863757 0.413172 0.078865
Si Si8 0.641718 0.921703 0.275856
O O1 0.750000 0.983541 0.459770
O O2 0.852168 0.750000 0.469528
O O3 0.888657 0.971512 0.527667
O O4 0.924359 0.980768 0.426506
O O5 0.250000 0.960534 0.135760
O O6 0.358639 0.750000 0.099750
O O7 0.432430 0.939921 0.165000
O O8 0.396207 0.013162 0.071406
O O9 0.575463 0.750000 0.164026
O O10 0.605780 0.492227 0.130265
O O11 0.579849 0.526377 0.227072
O O12 0.250000 0.415781 0.015094
O O13 0.403564 0.250000 0.016217
O O14 0.407373 0.503346 0.970455
O O15 0.750000 0.948630 0.596262
O O16 0.614986 0.750000 0.591938
O O17 0.578372 0.009084 0.626529
O O18 0.481361 0.250000 0.627487
O O19 0.411142 0.019354 0.673543
O O20 0.750000 0.413079 0.076035
O O21 0.904073 0.250000 0.078542
O O22 0.750000 0.984661 0.273107
O O23 0.646374 0.750000 0.278082
#
# Coordination Sequence:
#
# PCOD8239625 Si02
#       8
#     8   8   8   8   8   8   8   8
#     4   8  14  26  46  72 101 134 170 205 247 303
#     4   9  18  33  51  71  97 127 160 200 243 286
#     4  10  20  34  53  74  96 129 169 203 241 291
#     4   9  17  30  50  75 101 130 163 198 239 291
#     4   9  18  32  48  68 100 140 173 202 245 301
#     4  10  18  29  50  77 100 127 168 214 254 291
#     4  10  20  33  50  74 104 134 163 200 247 294
#     4   9  18  33  53  77 103 128 158 201 250 297
#
# _framework density 19.014154999999999
#
# number of rings (size 3 to 8) (size 9 to 14) (size 15 to 20)
#    0.000    2.750    0.000    2.625    0.000    5.500 
#    0.000    1.250    0.000    5.250    0.000    1.750 
#    0.000    0.000    0.000    0.000    0.000    0.000 
#
# Total GULP energy -793456.871951 kJ/mol
# GULP energy per Si atom -12397.763624 kJ/mol
# Density = 1.897088 g / cm^3
# Si number density = 19.014155 Si / 1000 Ang^3
#
#
#
# Elastic Constant Matrix: (Units=GPa)
#
#
# Indices 1 2 3 4 5 6 
#
# 1 92.2618 37.4820 77.3671 0.0000 0.0000 0.0000
# 2 37.4820 61.7731 41.1398 0.0000 0.0000 0.0000
# 3 77.3671 41.1398 122.6447 0.0000 0.0000 0.0000
# 4 0.0000 0.0000 0.0000 20.0058 0.0000 0.0000
# 5 0.0000 0.0000 0.0000 0.0000 33.6162 0.0000
# 6 0.0000 0.0000 0.0000 0.0000 0.0000 22.9285
#
#
#
# Elastic Compliance Matrix: (Units=1/GPa)
#
#
# Indices 1 2 3 4 5 6 
#
# 1 0.024579 -0.005907 -0.013523 0.000000 0.000000 0.000000
# 2 -0.005907 0.022265 -0.003742 0.000000 0.000000 0.000000
# 3 -0.013523 -0.003742 0.017940 0.000000 0.000000 0.000000
# 4 0.000000 0.000000 0.000000 0.049985 0.000000 0.000000
# 5 0.000000 0.000000 0.000000 0.000000 0.029748 0.000000
# 6 0.000000 0.000000 0.000000 0.000000 0.000000 0.043614
#
#
# Mechanical properties :
#
#
# Convention : Reuss Voigt Hill
#
# Bulk Modulus (GPa) = 54.23603 65.40637 59.82120
# Shear Modulus (GPa) = 20.77957 23.35615 22.06786
#
# Velocity S-wave (km/s) = 3.30941 3.50859 3.41046
# Velocity P-wave (km/s) = 6.57182 7.13352 6.85842
#
# Compressibility (1/GPa) = 0.01843793
#
# Stress axis : x y z
#
# Youngs Moduli (GPa) = 40.68567 44.91397 55.74263
#
# Poissons Ratio (x) = 0.26532 0.75382
# Poissons Ratio (y) = 0.24035 0.20859
# Poissons Ratio (z) = 0.55020 0.16807
#
# Static dielectric constant tensor:
#      x y z
#    x 3.578270 0.000000 0.000000 
#    y 0.000000 3.240450 0.000000 
#    z 0.000000 0.000000 3.475120 
# 
# 
# High freq. dielectric constant tensor:
#      x y z
#    x 1.749910 0.000000 0.000000 
#    y 0.000000 1.709450 0.000000 
#    z 0.000000 0.000000 1.723100 
# 
# From -- ./inp_files/32202.got.cif
#   From: 2010.03.12/outbox.cif.g09.slc.cpg/sg59_17_cif.got.tgz:32202.got - 2010.04.16 16:29:54.
