data_PCOD8239200
_publ_section_title
;
Structure prediction by ZEFSAII (Michael W. Deem and Ramdas Pophale) SiO2 
 PCOD8239200
Probable space group: P M M N
;
_chemical_formula_sum "Si O2"
_cell_formula_units_Z 64
_cell_length_a 17.849306
_cell_length_b 15.104189
_cell_length_c 12.631457
_cell_angle_alpha 90.000000
_cell_angle_beta 90.000000
_cell_angle_gamma 90.000000
_cell_volume 3405.431856
_symmetry_space_group_name_H-M "P M M N"
_symmetry_group_IT_number 59
_space_group.IT_coordinate_system_code '2'
_symmetry_cell_setting 'orthorhombic'
loop_
_space_group_symop_operation_xyz
x,y,z
1/2-x,1/2-y,z
1/2+x,-y,-z
-x,1/2+y,-z
-x,-y,-z
1/2+x,1/2+y,-z
1/2-x,y,z
x,1/2-y,z
loop_
_atom_site_type_symbol
_atom_site_label
_atom_site_fract_x
_atom_site_fract_y
_atom_site_fract_z
Si Si1 0.834103 0.501089 0.361767
Si Si2 0.516184 0.124190 0.211638
Si Si3 0.166740 0.984916 0.065955
Si Si4 0.670134 0.102958 0.158073
Si Si5 0.080752 0.153015 0.021616
Si Si6 0.558732 0.350858 0.436087
Si Si7 0.516608 0.072399 0.837691
Si Si8 0.456277 0.148349 0.630497
O O1 0.750000 0.515238 0.407389
O O2 0.830660 0.481763 0.236610
O O3 0.871411 0.417076 0.421779
O O4 0.881475 0.590233 0.378002
O O5 0.598937 0.164856 0.184923
O O6 0.501503 0.142725 0.335413
O O7 0.523205 0.019737 0.188905
O O8 0.454327 0.168417 0.138253
O O9 0.250000 0.981386 0.117465
O O10 0.105621 0.945245 0.147477
O O11 0.164009 0.927133 0.961807
O O12 0.150105 0.086802 0.033671
O O13 0.750000 0.153713 0.173519
O O14 0.107478 0.250000 0.980887
O O15 0.017644 0.111876 0.945347
O O16 0.587992 0.250000 0.449461
O O17 0.512319 0.381515 0.537989
O O18 0.501325 0.138072 0.740743
O O19 0.431663 0.250000 0.617831
#
# Coordination Sequence:
#
# PCOD8239200 Si02
#       8
#     8   8   8   8   8   8   8   8
#     4  10  20  35  58  86 115 145 181 235 293 339
#     4  10  17  33  54  78 105 140 186 230 275 327
#     4  10  19  33  53  75 106 148 187 224 273 331
#     4   9  15  28  51  76 105 137 174 224 276 324
#     4  11  20  31  51  81 112 141 183 234 280 331
#     4  10  21  36  58  84 109 146 193 235 278 330
#     4  11  19  34  55  81 110 148 191 230 275 336
#     4  11  22  37  59  84 114 151 190 232 279 343
#
# _framework density 18.793505
#
# number of rings (size 3 to 8) (size 9 to 14) (size 15 to 20)
#    0.000    1.750    5.000    1.875    0.000    0.750 
#    0.000    0.625    0.000    7.875    0.000    1.750 
#    0.000    0.000    0.000    0.000    0.000    0.000 
#
# Total GULP energy -793101.274829 kJ/mol
# GULP energy per Si atom -12392.207419 kJ/mol
# Density = 1.875073 g / cm^3
# Si number density = 18.793505 Si / 1000 Ang^3
#
#
#
# Elastic Constant Matrix: (Units=GPa)
#
#
# Indices 1 2 3 4 5 6 
#
# 1 125.2137 27.8080 40.2103 0.0000 0.0000 0.0000
# 2 27.8080 85.4974 14.3757 0.0000 0.0000 0.0000
# 3 40.2103 14.3757 81.8124 0.0000 0.0000 0.0000
# 4 0.0000 0.0000 0.0000 16.6888 0.0000 0.0000
# 5 0.0000 0.0000 0.0000 0.0000 20.0899 0.0000
# 6 0.0000 0.0000 0.0000 0.0000 0.0000 1.5639
#
#
#
# Elastic Compliance Matrix: (Units=1/GPa)
#
#
# Indices 1 2 3 4 5 6 
#
# 1 0.009974 -0.002493 -0.004464 0.000000 0.000000 0.000000
# 2 -0.002493 0.012676 -0.001002 0.000000 0.000000 0.000000
# 3 -0.004464 -0.001002 0.014593 0.000000 0.000000 0.000000
# 4 0.000000 0.000000 0.000000 0.059921 0.000000 0.000000
# 5 0.000000 0.000000 0.000000 0.000000 0.049776 0.000000
# 6 0.000000 0.000000 0.000000 0.000000 0.000000 0.639414
#
#
# Mechanical properties :
#
#
# Convention : Reuss Voigt Hill
#
# Bulk Modulus (GPa) = 46.89495 50.81239 48.85367
# Shear Modulus (GPa) = 6.17758 21.67716 13.92737
#
# Velocity S-wave (km/s) = 1.81500 3.39992 2.72522
# Velocity P-wave (km/s) = 5.42210 6.51985 5.99615
#
# Compressibility (1/GPa) = 0.02132426
#
# Stress axis : x y z
#
# Youngs Moduli (GPa) = 100.26510 78.89132 68.52571
#
# Poissons Ratio (x) = 0.19670 0.30589
# Poissons Ratio (y) = 0.24999 0.06865
# Poissons Ratio (z) = 0.44757 0.07904
#
# Static dielectric constant tensor:
#      x y z
#    x 3.623760 0.000000 0.000000 
#    y 0.000000 3.395910 0.000000 
#    z 0.000000 0.000000 3.429250 
# 
# 
# High freq. dielectric constant tensor:
#      x y z
#    x 1.719070 0.000000 0.000000 
#    y 0.000000 1.725710 0.000000 
#    z 0.000000 0.000000 1.720350 
# 
# From -- ./inp_files/17818.got.cif
#   From: 2010.03.12/outbox.cif.g09.slc.cpg/sg59_9_cif.got.tgz:17818.got - 2010.04.16 16:29:54.
