data_PCOD8239971
_publ_section_title
;
Structure prediction by ZEFSAII (Michael W. Deem and Ramdas Pophale) SiO2 
 PCOD8239971
Probable space group: P M M N
;
_chemical_formula_sum "Si O2"
_cell_formula_units_Z 48
_cell_length_a 9.833087
_cell_length_b 8.704686
_cell_length_c 29.105480
_cell_angle_alpha 90.000000
_cell_angle_beta 90.000000
_cell_angle_gamma 90.000000
_cell_volume 2491.252556
_symmetry_space_group_name_H-M "P M M N"
_symmetry_group_IT_number 59
_space_group.IT_coordinate_system_code '2'
_symmetry_cell_setting 'orthorhombic'
loop_
_space_group_symop_operation_xyz
x,y,z
1/2-x,1/2-y,z
1/2+x,-y,-z
-x,1/2+y,-z
-x,-y,-z
1/2+x,1/2+y,-z
1/2-x,y,z
x,1/2-y,z
loop_
_atom_site_type_symbol
_atom_site_label
_atom_site_fract_x
_atom_site_fract_y
_atom_site_fract_z
Si Si1 0.023622 0.067400 0.106318
Si Si2 0.597919 0.567226 0.793792
Si Si3 0.593671 0.928000 0.538594
Si Si4 0.250000 0.568017 0.936776
Si Si5 0.904523 0.430973 0.636665
Si Si6 0.905632 0.432491 0.286852
Si Si7 0.750000 0.931559 0.962813
O O1 0.030697 0.250000 0.109460
O O2 0.064013 0.998693 0.155889
O O3 0.121410 0.009240 0.065990
O O4 0.876465 0.005996 0.092292
O O5 0.750000 0.513431 0.779435
O O6 0.591318 0.750000 0.795247
O O7 0.487129 0.503748 0.757626
O O8 0.750000 0.949479 0.523663
O O9 0.557514 0.750000 0.545757
O O10 0.500000 0.000000 0.500000
O O11 0.562658 0.017753 0.585249
O O12 0.250000 0.750000 0.939907
O O13 0.250000 0.507369 0.987981
O O14 0.750000 0.480978 0.650155
O O15 0.921842 0.250000 0.640703
O O16 0.015468 0.511245 0.668446
O O17 0.750000 0.494741 0.286122
O O18 0.905037 0.250000 0.286918
O O19 0.750000 0.750000 0.969258
#
# Coordination Sequence:
#
# PCOD8239971 Si02
#       7
#     8   8   8   4   8   8   4
#     4   9  17  29  47  72  98 127 164 208 255 305
#     4   9  16  29  50  75 101 130 169 216 263 313
#     4  10  21  37  59  87 118 153 193 236 281 327
#     4  10  20  30  46  72 100 126 158 208 261 300
#     4  10  21  38  59  81 109 149 193 231 272 326
#     4  10  21  34  53  83 112 138 173 223 279 330
#     4  10  18  32  50  68  94 130 170 202 243 310
#
# _framework density 19.267416999999998
#
# number of rings (size 3 to 8) (size 9 to 14) (size 15 to 20)
#    0.000    2.333    0.833    2.000    1.167    3.667 
#    0.000    0.000    0.000    2.000    0.000    0.000 
#    0.000    0.000    0.000    0.000    0.000    0.000 
#
# Total GULP energy -595124.079106 kJ/mol
# GULP energy per Si atom -12398.418315 kJ/mol
# Density = 1.922356 g / cm^3
# Si number density = 19.267417 Si / 1000 Ang^3
#
#
#
# Elastic Constant Matrix: (Units=GPa)
#
#
# Indices 1 2 3 4 5 6 
#
# 1 173.9671 18.2970 82.3879 0.0000 0.0000 0.0000
# 2 18.2970 11.4571 5.2515 0.0000 0.0000 0.0000
# 3 82.3879 5.2515 119.6984 0.0000 0.0000 0.0000
# 4 0.0000 0.0000 0.0000 25.4604 0.0000 0.0000
# 5 0.0000 0.0000 0.0000 0.0000 41.3290 0.0000
# 6 0.0000 0.0000 0.0000 0.0000 0.0000 17.8631
#
#
#
# Elastic Compliance Matrix: (Units=1/GPa)
#
#
# Indices 1 2 3 4 5 6 
#
# 1 0.010198 -0.013337 -0.006434 0.000000 0.000000 0.000000
# 2 -0.013337 0.106515 0.004507 0.000000 0.000000 0.000000
# 3 -0.006434 0.004507 0.012585 0.000000 0.000000 0.000000
# 4 0.000000 0.000000 0.000000 0.039277 0.000000 0.000000
# 5 0.000000 0.000000 0.000000 0.000000 0.024196 0.000000
# 6 0.000000 0.000000 0.000000 0.000000 0.000000 0.055981
#
#
# Mechanical properties :
#
#
# Convention : Reuss Voigt Hill
#
# Bulk Modulus (GPa) = 10.12456 57.44394 33.78425
# Shear Modulus (GPa) = 16.01512 30.20959 23.11235
#
# Velocity S-wave (km/s) = 2.88619 3.96398 3.46722
# Velocity P-wave (km/s) = 4.04635 7.12949 5.79666
#
# Compressibility (1/GPa) = 0.09876974
#
# Stress axis : x y z
#
# Youngs Moduli (GPa) = 98.05791 9.38831 79.45838
#
# Poissons Ratio (x) = 0.12521 0.51125
# Poissons Ratio (y) = 1.30781 -0.35810
# Poissons Ratio (z) = 0.63092 -0.04231
#
# Static dielectric constant tensor:
#      x y z
#    x 3.871450 0.000000 0.000000 
#    y 0.000000 3.154380 0.000000 
#    z 0.000000 0.000000 3.616650 
# 
# 
# High freq. dielectric constant tensor:
#      x y z
#    x 1.763240 0.000000 0.000000 
#    y 0.000000 1.709730 0.000000 
#    z 0.000000 0.000000 1.761200 
# 
# From -- ./inp_files/33086.got.cif
#   From: 2010.03.12/outbox.cif.g09.slc.cpg/sg59_17_cif.got.tgz:33086.got - 2010.04.16 16:29:54.
