data_PCOD8239678
_publ_section_title
;
Structure prediction by ZEFSAII (Michael W. Deem and Ramdas Pophale) SiO2 
 PCOD8239678
Probable space group: P M M N
;
_chemical_formula_sum "Si O2"
_cell_formula_units_Z 56
_cell_length_a 20.393555
_cell_length_b 8.740327
_cell_length_c 18.095374
_cell_angle_alpha 90.000000
_cell_angle_beta 90.000000
_cell_angle_gamma 90.000000
_cell_volume 3225.434175
_symmetry_space_group_name_H-M "P M M N"
_symmetry_group_IT_number 59
_space_group.IT_coordinate_system_code '2'
_symmetry_cell_setting 'orthorhombic'
loop_
_space_group_symop_operation_xyz
x,y,z
1/2-x,1/2-y,z
1/2+x,-y,-z
-x,1/2+y,-z
-x,-y,-z
1/2+x,1/2+y,-z
1/2-x,y,z
x,1/2-y,z
loop_
_atom_site_type_symbol
_atom_site_label
_atom_site_fract_x
_atom_site_fract_y
_atom_site_fract_z
Si Si1 0.824095 0.573606 0.925362
Si Si2 0.429477 0.566780 0.516097
Si Si3 0.465250 0.568880 0.812821
Si Si4 0.893785 0.067956 0.794999
Si Si5 0.097140 0.580423 0.362502
Si Si6 0.442201 0.421212 0.662815
Si Si7 0.563868 0.569102 0.037885
O O1 0.750000 0.542296 0.951772
O O2 0.835427 0.750000 0.904679
O O3 0.836826 0.474956 0.851669
O O4 0.872361 0.522824 0.990656
O O5 0.500000 0.500000 0.500000
O O6 0.432643 0.750000 0.519586
O O7 0.385815 0.510842 0.444093
O O8 0.403369 0.500769 0.594094
O O9 0.466682 0.750000 0.815051
O O10 0.538919 0.507321 0.821918
O O11 0.429427 0.514497 0.737955
O O12 0.424333 0.503659 0.881723
O O13 0.904479 0.250000 0.790996
O O14 0.874671 0.001755 0.712407
O O15 0.125982 0.750000 0.363552
O O16 0.018873 0.580821 0.353794
O O17 0.414694 0.250000 0.672379
O O18 0.555218 0.750000 0.044609
O O19 0.500000 0.500000 0.000000
#
# Coordination Sequence:
#
# PCOD8239678 Si02
#       7
#     8   8   8   8   8   8   8
#     4  10  22  38  53  71  98 131 165 203 251 303
#     4   9  14  22  35  53  82 120 157 191 234 284
#     4  11  20  30  46  69  95 125 162 202 246 297
#     4  10  18  30  48  69  94 124 162 203 243 289
#     4   7  13  23  36  56  83 116 152 190 229 274
#     4   9  16  26  38  57  87 120 156 197 240 285
#     4  11  21  34  53  74  98 127 163 207 252 301
#
# _framework density 17.362003000000001
#
# number of rings (size 3 to 8) (size 9 to 14) (size 15 to 20)
#    0.000    2.429    1.429    4.714    0.000    0.857 
#    0.000    2.143    0.000    0.000    0.000    0.000 
#    0.000    1.143    0.000    8.286    0.000    6.857 
#
# Total GULP energy -693737.885320 kJ/mol
# GULP energy per Si atom -12388.176524 kJ/mol
# Density = 1.732249 g / cm^3
# Si number density = 17.362003 Si / 1000 Ang^3
#
#
#
# Elastic Constant Matrix: (Units=GPa)
#
#
# Indices 1 2 3 4 5 6 
#
# 1 53.2774 24.6005 48.2409 0.0000 0.0000 0.0000
# 2 24.6005 94.8230 55.6469 0.0000 0.0000 0.0000
# 3 48.2409 55.6469 181.0682 0.0000 0.0000 0.0000
# 4 0.0000 0.0000 0.0000 33.0136 0.0000 0.0000
# 5 0.0000 0.0000 0.0000 0.0000 12.6051 0.0000
# 6 0.0000 0.0000 0.0000 0.0000 0.0000 12.0686
#
#
#
# Elastic Compliance Matrix: (Units=1/GPa)
#
#
# Indices 1 2 3 4 5 6 
#
# 1 0.025513 -0.003209 -0.005811 0.000000 0.000000 0.000000
# 2 -0.003209 0.013270 -0.003223 0.000000 0.000000 0.000000
# 3 -0.005811 -0.003223 0.008062 0.000000 0.000000 0.000000
# 4 0.000000 0.000000 0.000000 0.030291 0.000000 0.000000
# 5 0.000000 0.000000 0.000000 0.000000 0.079333 0.000000
# 6 0.000000 0.000000 0.000000 0.000000 0.000000 0.082859
#
#
# Mechanical properties :
#
#
# Convention : Reuss Voigt Hill
#
# Bulk Modulus (GPa) = 44.72615 65.12726 54.92670
# Shear Modulus (GPa) = 18.43201 24.91615 21.67408
#
# Velocity S-wave (km/s) = 3.26180 3.79238 3.53705
# Velocity P-wave (km/s) = 6.32476 7.53452 6.95599
#
# Compressibility (1/GPa) = 0.02235829
#
# Stress axis : x y z
#
# Youngs Moduli (GPa) = 39.19553 75.35769 124.04427
#
# Poissons Ratio (x) = 0.24180 0.72084
# Poissons Ratio (y) = 0.12577 0.39984
# Poissons Ratio (z) = 0.22777 0.24290
#
# Static dielectric constant tensor:
#      x y z
#    x 2.730540 0.000000 0.000000 
#    y 0.000000 3.301960 0.000000 
#    z 0.000000 0.000000 4.149740 
# 
# 
# High freq. dielectric constant tensor:
#      x y z
#    x 1.586510 0.000000 0.000000 
#    y 0.000000 1.670650 0.000000 
#    z 0.000000 0.000000 1.703130 
# 
# From -- ./inp_files/28074.got.cif
#   From: 2010.03.12/outbox.cif.g09.slc.cpg/sg59_15_cif.got.tgz:28074.got - 2010.04.16 16:29:54.
