data_PCOD8239187
_publ_section_title
;
Structure prediction by ZEFSAII (Michael W. Deem and Ramdas Pophale) SiO2 
 PCOD8239187
Probable space group: P M M N
;
_chemical_formula_sum "Si O2"
_cell_formula_units_Z 64
_cell_length_a 19.701301
_cell_length_b 17.799872
_cell_length_c 11.962969
_cell_angle_alpha 90.000000
_cell_angle_beta 90.000000
_cell_angle_gamma 90.000000
_cell_volume 4195.181578
_symmetry_space_group_name_H-M "P M M N"
_symmetry_group_IT_number 59
_space_group.IT_coordinate_system_code '2'
_symmetry_cell_setting 'orthorhombic'
loop_
_space_group_symop_operation_xyz
x,y,z
1/2-x,1/2-y,z
1/2+x,-y,-z
-x,1/2+y,-z
-x,-y,-z
1/2+x,1/2+y,-z
1/2-x,y,z
x,1/2-y,z
loop_
_atom_site_type_symbol
_atom_site_label
_atom_site_fract_x
_atom_site_fract_y
_atom_site_fract_z
Si Si1 0.444829 0.555531 0.044706
Si Si2 0.462068 0.390739 0.344891
Si Si3 0.924598 0.449316 0.710288
Si Si4 0.059899 0.838629 0.843717
Si Si5 0.825759 0.339036 0.322005
Si Si6 0.427130 0.838189 0.488886
Si Si7 0.825470 0.980843 0.861477
Si Si8 0.826160 0.835516 0.737214
O O1 0.441425 0.629181 0.968578
O O2 0.500000 0.500000 0.000000
O O3 0.461741 0.576965 0.174055
O O4 0.373552 0.509520 0.038435
O O5 0.463874 0.481455 0.348695
O O6 0.495133 0.365290 0.227489
O O7 0.502430 0.358522 0.450440
O O8 0.385266 0.357713 0.351076
O O9 0.920988 0.378846 0.629219
O O10 0.849460 0.479241 0.744934
O O11 0.057405 0.750000 0.853701
O O12 0.129325 0.865961 0.783307
O O13 0.750000 0.374480 0.316805
O O14 0.820991 0.250000 0.320795
O O15 0.863735 0.364659 0.435217
O O16 0.425237 0.750000 0.465819
O O17 0.750000 0.006592 0.890402
O O18 0.831792 0.890715 0.844775
O O19 0.750000 0.845131 0.683972
O O20 0.836631 0.750000 0.778243
#
# Coordination Sequence:
#
# PCOD8239187 Si02
#       8
#     8   8   8   8   8   8   8   8
#     4  10  18  32  47  67  92 125 154 191 236 282
#     4  10  17  31  48  69  91 121 155 195 235 280
#     4   9  19  30  48  65  95 125 158 188 235 286
#     4  10  18  29  49  69  89 117 157 200 233 269
#     4   8  16  30  46  66  91 119 153 194 231 265
#     4  10  19  30  47  71  95 123 158 196 235 279
#     4   8  17  30  44  65  93 124 151 184 229 279
#     4   9  15  25  44  68  91 113 143 188 237 278
#
# _framework density 15.255598000000001
#
# number of rings (size 3 to 8) (size 9 to 14) (size 15 to 20)
#    0.750    2.000    1.250    2.250    0.000    1.500 
#    0.000    0.000    0.000    0.750    0.000    0.000 
#    0.000    0.000    0.000    5.625    0.000    0.000 
#
# Total GULP energy -792925.090342 kJ/mol
# GULP energy per Si atom -12389.454537 kJ/mol
# Density = 1.522088 g / cm^3
# Si number density = 15.255598 Si / 1000 Ang^3
#
#
#
# Elastic Constant Matrix: (Units=GPa)
#
#
# Indices 1 2 3 4 5 6 
#
# 1 102.5383 27.4440 22.5425 0.0000 0.0000 0.0000
# 2 27.4440 79.0991 39.8827 0.0000 0.0000 0.0000
# 3 22.5425 39.8827 68.0194 0.0000 0.0000 0.0000
# 4 0.0000 0.0000 0.0000 27.2570 0.0000 0.0000
# 5 0.0000 0.0000 0.0000 0.0000 15.0425 0.0000
# 6 0.0000 0.0000 0.0000 0.0000 0.0000 17.3886
#
#
#
# Elastic Compliance Matrix: (Units=1/GPa)
#
#
# Indices 1 2 3 4 5 6 
#
# 1 0.010937 -0.002793 -0.001987 0.000000 0.000000 0.000000
# 2 -0.002793 0.018662 -0.010017 0.000000 0.000000 0.000000
# 3 -0.001987 -0.010017 0.021233 0.000000 0.000000 0.000000
# 4 0.000000 0.000000 0.000000 0.036688 0.000000 0.000000
# 5 0.000000 0.000000 0.000000 0.000000 0.066479 0.000000
# 6 0.000000 0.000000 0.000000 0.000000 0.000000 0.057509
#
#
# Mechanical properties :
#
#
# Convention : Reuss Voigt Hill
#
# Bulk Modulus (GPa) = 47.08300 47.71057 47.39679
# Shear Modulus (GPa) = 20.14668 22.59013 21.36840
#
# Velocity S-wave (km/s) = 3.63796 3.85226 3.74664
# Velocity P-wave (km/s) = 6.96966 7.15043 7.06062
#
# Compressibility (1/GPa) = 0.02123909
#
# Stress axis : x y z
#
# Youngs Moduli (GPa) = 91.43480 53.58520 47.09540
#
# Poissons Ratio (x) = 0.14965 0.09358
# Poissons Ratio (y) = 0.25535 0.47174
# Poissons Ratio (z) = 0.18169 0.53675
#
# Static dielectric constant tensor:
#      x y z
#    x 3.153780 0.000000 0.000000 
#    y 0.000000 2.881880 0.000000 
#    z 0.000000 0.000000 4.354690 
# 
# 
# High freq. dielectric constant tensor:
#      x y z
#    x 1.591110 0.000000 0.000000 
#    y 0.000000 1.577990 0.000000 
#    z 0.000000 0.000000 1.553690 
# 
# From -- ./inp_files/18463.got.cif
#   From: 2010.03.12/outbox.cif.g09.slc.cpg/sg59_10_cif.got.tgz:18463.got - 2010.04.16 16:29:54.
