data_PCOD8239274
_publ_section_title
;
Structure prediction by ZEFSAII (Michael W. Deem and Ramdas Pophale) SiO2 
 PCOD8239274
Probable space group: P M M N
;
_chemical_formula_sum "Si O2"
_cell_formula_units_Z 56
_cell_length_a 9.043908
_cell_length_b 21.711017
_cell_length_c 17.532000
_cell_angle_alpha 90.000000
_cell_angle_beta 90.000000
_cell_angle_gamma 90.000000
_cell_volume 3442.450984
_symmetry_space_group_name_H-M "P M M N"
_symmetry_group_IT_number 59
_space_group.IT_coordinate_system_code '2'
_symmetry_cell_setting 'orthorhombic'
loop_
_space_group_symop_operation_xyz
x,y,z
1/2-x,1/2-y,z
1/2+x,-y,-z
-x,1/2+y,-z
-x,-y,-z
1/2+x,1/2+y,-z
1/2-x,y,z
x,1/2-y,z
loop_
_atom_site_type_symbol
_atom_site_label
_atom_site_fract_x
_atom_site_fract_y
_atom_site_fract_z
Si Si1 0.922191 0.045294 0.605889
Si Si2 0.920192 0.821508 0.667293
Si Si3 0.420755 0.413591 0.462969
Si Si4 0.923708 0.966061 0.239982
Si Si5 0.423109 0.894032 0.796032
Si Si6 0.916996 0.059865 0.909059
Si Si7 0.916787 0.583814 0.945461
O O1 0.750000 0.057165 0.618794
O O2 0.980531 0.089854 0.538972
O O3 0.007994 0.061593 0.683105
O O4 0.957457 0.974954 0.584392
O O5 0.750000 0.836131 0.687972
O O6 0.948470 0.750000 0.653147
O O7 0.964507 0.855828 0.589325
O O8 0.021601 0.843694 0.736323
O O9 0.250000 0.412503 0.487702
O O10 0.750000 0.954385 0.238737
O O11 0.995290 0.929461 0.169429
O O12 0.963004 0.038304 0.235070
O O13 0.250000 0.886393 0.809125
O O14 0.502425 0.881136 0.876479
O O15 0.750000 0.084325 0.900113
O O16 0.917710 0.988490 0.930080
O O17 0.997442 0.098155 0.975968
O O18 0.750000 0.608812 0.952384
#
# Coordination Sequence:
#
# PCOD8239274 Si02
#       7
#     8   8   8   8   8   8   8
#     4  10  18  28  45  65  87 116 149 186 227 274
#     4  10  20  34  50  66  87 117 153 191 231 274
#     4   9  18  31  45  63  87 114 147 186 229 275
#     4  10  18  27  41  62  89 119 150 183 222 269
#     4  10  19  29  43  62  86 116 151 187 225 266
#     4   9  16  25  38  58  85 115 147 180 215 255
#     4   9  16  26  40  57  82 115 149 181 214 256
#
# _framework density 16.267478000000001
#
# number of rings (size 3 to 8) (size 9 to 14) (size 15 to 20)
#    0.000    2.429    1.429    2.143    0.000    6.000 
#    0.000    0.000    0.000    0.000    0.000    0.000 
#    0.000    1.143    0.000    6.857    0.000    5.286 
#
# Total GULP energy -694508.576301 kJ/mol
# GULP energy per Si atom -12401.938863 kJ/mol
# Density = 1.623045 g / cm^3
# Si number density = 16.267478 Si / 1000 Ang^3
#
#
#
# Elastic Constant Matrix: (Units=GPa)
#
#
# Indices 1 2 3 4 5 6 
#
# 1 108.7212 23.8497 77.3786 0.0000 0.0000 0.0000
# 2 23.8497 40.9617 34.0239 0.0000 0.0000 0.0000
# 3 77.3786 34.0239 152.1212 0.0000 0.0000 0.0000
# 4 0.0000 0.0000 0.0000 13.8308 0.0000 0.0000
# 5 0.0000 0.0000 0.0000 0.0000 38.0028 0.0000
# 6 0.0000 0.0000 0.0000 0.0000 0.0000 13.5029
#
#
#
# Elastic Compliance Matrix: (Units=1/GPa)
#
#
# Indices 1 2 3 4 5 6 
#
# 1 0.014689 -0.002882 -0.006827 0.000000 0.000000 0.000000
# 2 -0.002882 0.030549 -0.005367 0.000000 0.000000 0.000000
# 3 -0.006827 -0.005367 0.011247 0.000000 0.000000 0.000000
# 4 0.000000 0.000000 0.000000 0.072303 0.000000 0.000000
# 5 0.000000 0.000000 0.000000 0.000000 0.026314 0.000000
# 6 0.000000 0.000000 0.000000 0.000000 0.000000 0.074058
#
#
# Mechanical properties :
#
#
# Convention : Reuss Voigt Hill
#
# Bulk Modulus (GPa) = 37.97507 63.58984 50.78246
# Shear Modulus (GPa) = 18.65058 24.17076 21.41067
#
# Velocity S-wave (km/s) = 3.38967 3.85883 3.63183
# Velocity P-wave (km/s) = 6.22211 7.68304 6.99084
#
# Compressibility (1/GPa) = 0.02633306
#
# Stress axis : x y z
#
# Youngs Moduli (GPa) = 68.07787 32.73463 88.91370
#
# Poissons Ratio (x) = 0.09433 0.60704
# Poissons Ratio (y) = 0.19618 0.47718
# Poissons Ratio (z) = 0.46479 0.17568
#
# Static dielectric constant tensor:
#      x y z
#    x 3.186850 0.000000 0.000000 
#    y 0.000000 2.521480 0.000000 
#    z 0.000000 0.000000 3.192090 
# 
# 
# High freq. dielectric constant tensor:
#      x y z
#    x 1.641290 0.000000 0.000000 
#    y 0.000000 1.550560 0.000000 
#    z 0.000000 0.000000 1.638810 
# 
# From -- ./inp_files/26081.got.cif
#   From: 2010.03.12/outbox.cif.g09.slc.cpg/sg59_14_cif.got.tgz:26081.got - 2010.04.16 16:29:54.
