data_PCOD8239850
_publ_section_title
;
Structure prediction by ZEFSAII (Michael W. Deem and Ramdas Pophale) SiO2 
 PCOD8239850
Probable space group: P M M N
;
_chemical_formula_sum "Si O2"
_cell_formula_units_Z 56
_cell_length_a 9.336316
_cell_length_b 21.376425
_cell_length_c 16.770754
_cell_angle_alpha 90.000000
_cell_angle_beta 90.000000
_cell_angle_gamma 90.000000
_cell_volume 3347.057756
_symmetry_space_group_name_H-M "P M M N"
_symmetry_group_IT_number 59
_space_group.IT_coordinate_system_code '2'
_symmetry_cell_setting 'orthorhombic'
loop_
_space_group_symop_operation_xyz
x,y,z
1/2-x,1/2-y,z
1/2+x,-y,-z
-x,1/2+y,-z
-x,-y,-z
1/2+x,1/2+y,-z
1/2-x,y,z
x,1/2-y,z
loop_
_atom_site_type_symbol
_atom_site_label
_atom_site_fract_x
_atom_site_fract_y
_atom_site_fract_z
Si Si1 0.419232 0.941487 0.039015
Si Si2 0.916093 0.020636 0.618837
Si Si3 0.915494 0.089546 0.464181
Si Si4 0.582826 0.875134 0.801644
Si Si5 0.581765 0.014477 0.794543
Si Si6 0.582958 0.179716 0.057869
Si Si7 0.413860 0.178800 0.369124
O O1 0.250000 0.952506 0.027498
O O2 0.461375 0.939296 0.133273
O O3 0.468434 0.874420 0.003689
O O4 0.500000 0.000000 0.000000
O O5 0.750000 0.999125 0.620202
O O6 0.936857 0.079044 0.559081
O O7 0.971236 0.039362 0.707842
O O8 0.008133 0.963359 0.587515
O O9 0.750000 0.089779 0.440639
O O10 0.987086 0.155302 0.441626
O O11 0.750000 0.868087 0.821636
O O12 0.498837 0.828195 0.859035
O O13 0.550292 0.858991 0.710535
O O14 0.522402 0.945231 0.814713
O O15 0.750000 0.007472 0.788968
O O16 0.750000 0.171905 0.075070
O O17 0.550368 0.250000 0.024410
O O18 0.250000 0.169740 0.394969
O O19 0.451660 0.250000 0.352090
#
# Coordination Sequence:
#
# PCOD8239850 Si02
#       7
#     8   8   8   8   8   8   8
#     4  10  19  32  50  71  95 125 162 200 240 286
#     4   9  17  32  50  68  93 124 155 191 235 284
#     4  10  19  29  47  72  96 122 154 195 237 275
#     4  10  18  31  51  72  94 126 166 197 229 282
#     4   9  16  29  51  72  93 122 157 200 237 273
#     4  10  21  34  47  68 101 133 157 194 247 296
#     4  10  20  33  48  66  94 132 164 190 228 285
#
# _framework density 16.731113000000001
#
# number of rings (size 3 to 8) (size 9 to 14) (size 15 to 20)
#    0.000    2.286    2.857    0.857    0.000    2.286 
#    0.000    0.714    0.000    0.857    0.000    4.000 
#    0.000    0.000    0.000    0.000    0.000    0.000 
#
# Total GULP energy -694115.889572 kJ/mol
# GULP energy per Si atom -12394.926600 kJ/mol
# Density = 1.669303 g / cm^3
# Si number density = 16.731113 Si / 1000 Ang^3
#
#
#
# Elastic Constant Matrix: (Units=GPa)
#
#
# Indices 1 2 3 4 5 6 
#
# 1 47.8032 32.9884 38.1851 0.0000 0.0000 0.0000
# 2 32.9884 91.9650 48.7341 0.0000 0.0000 0.0000
# 3 38.1851 48.7341 110.1521 0.0000 0.0000 0.0000
# 4 0.0000 0.0000 0.0000 25.3206 0.0000 0.0000
# 5 0.0000 0.0000 0.0000 0.0000 22.0895 0.0000
# 6 0.0000 0.0000 0.0000 0.0000 0.0000 23.5198
#
#
#
# Elastic Compliance Matrix: (Units=1/GPa)
#
#
# Indices 1 2 3 4 5 6 
#
# 1 0.032376 -0.007401 -0.007949 0.000000 0.000000 0.000000
# 2 -0.007401 0.015896 -0.004467 0.000000 0.000000 0.000000
# 3 -0.007949 -0.004467 0.013810 0.000000 0.000000 0.000000
# 4 0.000000 0.000000 0.000000 0.039494 0.000000 0.000000
# 5 0.000000 0.000000 0.000000 0.000000 0.045270 0.000000
# 6 0.000000 0.000000 0.000000 0.000000 0.000000 0.042517
#
#
# Mechanical properties :
#
#
# Convention : Reuss Voigt Hill
#
# Bulk Modulus (GPa) = 44.54776 54.41506 49.48141
# Shear Modulus (GPa) = 21.14338 22.85347 21.99842
#
# Velocity S-wave (km/s) = 3.55874 3.69985 3.62998
# Velocity P-wave (km/s) = 6.60073 7.13062 6.87079
#
# Compressibility (1/GPa) = 0.02244782
#
# Stress axis : x y z
#
# Youngs Moduli (GPa) = 30.88685 62.91014 72.40994
#
# Poissons Ratio (x) = 0.46561 0.57559
# Poissons Ratio (y) = 0.22860 0.32345
# Poissons Ratio (z) = 0.24552 0.28102
#
# Static dielectric constant tensor:
#      x y z
#    x 3.103910 0.000000 0.000000 
#    y 0.000000 3.160700 0.000000 
#    z 0.000000 0.000000 3.447720 
# 
# 
# High freq. dielectric constant tensor:
#      x y z
#    x 1.631690 0.000000 0.000000 
#    y 0.000000 1.626990 0.000000 
#    z 0.000000 0.000000 1.645410 
# 
# From -- ./inp_files/26004.got.cif
#   From: 2010.03.12/outbox.cif.g09.slc.cpg/sg59_14_cif.got.tgz:26004.got - 2010.04.16 16:29:54.
