data_PCOD8239067
_publ_section_title
;
Structure prediction by ZEFSAII (Michael W. Deem and Ramdas Pophale) SiO2 
 PCOD8239067
Probable space group: P M M N
;
_chemical_formula_sum "Si O2"
_cell_formula_units_Z 64
_cell_length_a 8.894059
_cell_length_b 23.032859
_cell_length_c 20.265782
_cell_angle_alpha 90.000000
_cell_angle_beta 90.000000
_cell_angle_gamma 90.000000
_cell_volume 4151.559071
_symmetry_space_group_name_H-M "P M M N"
_symmetry_group_IT_number 59
_space_group.IT_coordinate_system_code '2'
_symmetry_cell_setting 'orthorhombic'
loop_
_space_group_symop_operation_xyz
x,y,z
1/2-x,1/2-y,z
1/2+x,-y,-z
-x,1/2+y,-z
-x,-y,-z
1/2+x,1/2+y,-z
1/2-x,y,z
x,1/2-y,z
loop_
_atom_site_type_symbol
_atom_site_label
_atom_site_fract_x
_atom_site_fract_y
_atom_site_fract_z
Si Si1 0.080729 0.918950 0.956437
Si Si2 0.071523 0.816121 0.716701
Si Si3 0.573054 0.058027 0.527177
Si Si4 0.928461 0.529942 0.346981
Si Si5 0.425817 0.596077 0.609456
Si Si6 0.573008 0.022148 0.788422
Si Si7 0.572952 0.608011 0.826204
Si Si8 0.580665 0.947239 0.082410
O O1 0.250000 0.894751 0.960973
O O2 0.992205 0.884560 0.899653
O O3 0.081561 0.986635 0.940438
O O4 0.998313 0.908217 0.026233
O O5 0.250000 0.821160 0.723285
O O6 0.019265 0.750000 0.708266
O O7 0.008470 0.850962 0.652626
O O8 0.998371 0.841806 0.782223
O O9 0.750000 0.049435 0.538084
O O10 0.540955 0.105512 0.468990
O O11 0.500000 0.000000 0.500000
O O12 0.494026 0.073852 0.596789
O O13 0.750000 0.534808 0.346126
O O14 0.990057 0.465373 0.364236
O O15 0.994196 0.548028 0.276435
O O16 0.250000 0.593010 0.621711
O O17 0.750000 0.030720 0.783458
O O18 0.528353 0.954580 0.796336
O O19 0.512245 0.059170 0.850050
O O20 0.750000 0.615941 0.829597
O O21 0.750000 0.924641 0.093391
#
# Coordination Sequence:
#
# PCOD8239067 Si02
#       8
#     8   8   8   8   8   8   8   8
#     4   9  16  26  40  55  74 101 134 168 199 237
#     4  10  19  31  46  61  78 104 139 175 212 252
#     4   9  16  26  39  56  77 100 130 165 201 244
#     4  10  17  26  40  57  79 105 134 168 204 244
#     4   8  15  27  41  56  75 100 130 168 207 243
#     4  10  18  26  38  57  80 108 138 167 200 241
#     4  10  19  29  41  57  77 103 135 172 210 246
#     4   9  16  25  37  55  78 104 132 165 199 233
#
# _framework density 15.415895000000001
#
# number of rings (size 3 to 8) (size 9 to 14) (size 15 to 20)
#    0.000    2.625    1.250    3.000    0.000    4.250 
#    0.000    0.625    0.000    0.000    0.000    0.000 
#    0.000    0.000    0.000    1.125    0.000   20.750 
#
# Total GULP energy -793273.163297 kJ/mol
# GULP energy per Si atom -12394.893177 kJ/mol
# Density = 1.538081 g / cm^3
# Si number density = 15.415895 Si / 1000 Ang^3
#
#
#
# Elastic Constant Matrix: (Units=GPa)
#
#
# Indices 1 2 3 4 5 6 
#
# 1 77.9883 17.2683 55.1930 0.0000 0.0000 0.0000
# 2 17.2683 36.0260 37.2314 0.0000 0.0000 0.0000
# 3 55.1930 37.2314 157.2017 0.0000 0.0000 0.0000
# 4 0.0000 0.0000 0.0000 13.9363 0.0000 0.0000
# 5 0.0000 0.0000 0.0000 0.0000 31.8650 0.0000
# 6 0.0000 0.0000 0.0000 0.0000 0.0000 10.6964
#
#
#
# Elastic Compliance Matrix: (Units=1/GPa)
#
#
# Indices 1 2 3 4 5 6 
#
# 1 0.017252 -0.002661 -0.005427 0.000000 0.000000 0.000000
# 2 -0.002661 0.037164 -0.007868 0.000000 0.000000 0.000000
# 3 -0.005427 -0.007868 0.010130 0.000000 0.000000 0.000000
# 4 0.000000 0.000000 0.000000 0.071755 0.000000 0.000000
# 5 0.000000 0.000000 0.000000 0.000000 0.031382 0.000000
# 6 0.000000 0.000000 0.000000 0.000000 0.000000 0.093489
#
#
# Mechanical properties :
#
#
# Convention : Reuss Voigt Hill
#
# Bulk Modulus (GPa) = 30.64172 54.51127 42.57649
# Shear Modulus (GPa) = 16.44939 22.06778 19.25858
#
# Velocity S-wave (km/s) = 3.27010 3.78761 3.53833
# Velocity P-wave (km/s) = 5.84619 7.38683 6.66120
#
# Compressibility (1/GPa) = 0.03263525
#
# Stress axis : x y z
#
# Youngs Moduli (GPa) = 57.96301 26.90774 98.71643
#
# Poissons Ratio (x) = 0.07160 0.53574
# Poissons Ratio (y) = 0.15423 0.77667
# Poissons Ratio (z) = 0.31457 0.21170
#
# Static dielectric constant tensor:
#      x y z
#    x 3.010180 0.000000 0.000000 
#    y 0.000000 2.481990 0.000000 
#    z 0.000000 0.000000 3.325480 
# 
# 
# High freq. dielectric constant tensor:
#      x y z
#    x 1.599430 0.000000 0.000000 
#    y 0.000000 1.505630 0.000000 
#    z 0.000000 0.000000 1.610110 
# 
# From -- ./inp_files/29663.got.cif
#   From: 2010.03.12/outbox.cif.g09.slc.cpg/sg59_15_cif.got.tgz:29663.got - 2010.04.16 16:29:54.
