data_PCOD8239362
_publ_section_title
;
Structure prediction by ZEFSAII (Michael W. Deem and Ramdas Pophale) SiO2 
 PCOD8239362
Probable space group: P M M N
;
_chemical_formula_sum "Si O2"
_cell_formula_units_Z 56
_cell_length_a 28.637982
_cell_length_b 9.562706
_cell_length_c 11.892347
_cell_angle_alpha 90.000000
_cell_angle_beta 90.000000
_cell_angle_gamma 90.000000
_cell_volume 3256.797743
_symmetry_space_group_name_H-M "P M M N"
_symmetry_group_IT_number 59
_space_group.IT_coordinate_system_code '2'
_symmetry_cell_setting 'orthorhombic'
loop_
_space_group_symop_operation_xyz
x,y,z
1/2-x,1/2-y,z
1/2+x,-y,-z
-x,1/2+y,-z
-x,-y,-z
1/2+x,1/2+y,-z
1/2-x,y,z
x,1/2-y,z
loop_
_atom_site_type_symbol
_atom_site_label
_atom_site_fract_x
_atom_site_fract_y
_atom_site_fract_z
Si Si1 0.882297 0.907934 0.092778
Si Si2 0.611251 0.587758 0.552320
Si Si3 0.020348 0.085062 0.321455
Si Si4 0.927359 0.914229 0.318711
Si Si5 0.966089 0.595044 0.931840
Si Si6 0.302275 0.416711 0.306855
Si Si7 0.698011 0.583584 0.945936
O O1 0.871437 0.750000 0.130560
O O2 0.904782 0.978958 0.203995
O O3 0.835387 0.980940 0.043799
O O4 0.915348 0.913457 0.985006
O O5 0.611938 0.750000 0.583733
O O6 0.562675 0.527744 0.601698
O O7 0.610570 0.563110 0.417982
O O8 0.658174 0.521146 0.608069
O O9 0.010458 0.250000 0.339728
O O10 0.036962 0.048003 0.196299
O O11 0.973965 0.998331 0.350149
O O12 0.940373 0.750000 0.305464
O O13 0.986989 0.750000 0.940180
O O14 0.000000 0.500000 0.000000
O O15 0.250000 0.469547 0.341406
O O16 0.302097 0.250000 0.310192
O O17 0.314191 0.469057 0.180200
O O18 0.750000 0.536741 0.978200
O O19 0.692461 0.750000 0.946911
#
# Coordination Sequence:
#
# PCOD8239362 Si02
#       7
#     8   8   8   8   8   8   8
#     4   9  16  26  39  57  84 115 141 171 216 261
#     4   9  17  28  41  60  85 115 150 180 215 258
#     4  10  19  30  45  63  85 116 152 186 212 248
#     4  10  19  30  43  60  89 123 146 175 218 259
#     4  10  18  28  43  62  85 112 142 177 215 255
#     4   8  13  23  40  60  82 109 142 179 216 257
#     4   8  13  22  38  59  82 110 143 176 213 260
#
# _framework density 17.194804000000001
#
# number of rings (size 3 to 8) (size 9 to 14) (size 15 to 20)
#    0.000    2.857    1.429    2.143    0.000    3.429 
#    0.000    0.714    0.000    4.286    0.000    0.000 
#    0.000    5.714    0.000   15.714    0.000   14.286 
#
# Total GULP energy -693840.000288 kJ/mol
# GULP energy per Si atom -12390.000005 kJ/mol
# Density = 1.715567 g / cm^3
# Si number density = 17.194804 Si / 1000 Ang^3
#
#
#
# Elastic Constant Matrix: (Units=GPa)
#
#
# Indices 1 2 3 4 5 6 
#
# 1 123.7682 16.3602 57.5883 0.0000 0.0000 0.0000
# 2 16.3602 17.2501 12.3093 0.0000 0.0000 0.0000
# 3 57.5883 12.3093 93.2671 0.0000 0.0000 0.0000
# 4 0.0000 0.0000 0.0000 12.7101 0.0000 0.0000
# 5 0.0000 0.0000 0.0000 0.0000 30.8572 0.0000
# 6 0.0000 0.0000 0.0000 0.0000 0.0000 12.9331
#
#
#
# Elastic Compliance Matrix: (Units=1/GPa)
#
#
# Indices 1 2 3 4 5 6 
#
# 1 0.012005 -0.006730 -0.006524 0.000000 0.000000 0.000000
# 2 -0.006730 0.067771 -0.004789 0.000000 0.000000 0.000000
# 3 -0.006524 -0.004789 0.015382 0.000000 0.000000 0.000000
# 4 0.000000 0.000000 0.000000 0.078678 0.000000 0.000000
# 5 0.000000 0.000000 0.000000 0.000000 0.032407 0.000000
# 6 0.000000 0.000000 0.000000 0.000000 0.000000 0.077321
#
#
# Mechanical properties :
#
#
# Convention : Reuss Voigt Hill
#
# Bulk Modulus (GPa) = 16.92854 45.20012 31.06433
# Shear Modulus (GPa) = 14.73445 21.16859 17.95152
#
# Velocity S-wave (km/s) = 2.93048 3.51252 3.23462
# Velocity P-wave (km/s) = 4.61702 6.54175 5.66177
#
# Compressibility (1/GPa) = 0.05907183
#
# Stress axis : x y z
#
# Youngs Moduli (GPa) = 83.29912 14.75560 65.00944
#
# Poissons Ratio (x) = 0.09931 0.42414
# Poissons Ratio (y) = 0.56061 0.31132
# Poissons Ratio (z) = 0.54347 0.07066
#
# Static dielectric constant tensor:
#      x y z
#    x 3.651880 0.000000 0.000000 
#    y 0.000000 2.651910 0.000000 
#    z 0.000000 0.000000 3.359450 
# 
# 
# High freq. dielectric constant tensor:
#      x y z
#    x 1.666230 0.000000 0.000000 
#    y 0.000000 1.590760 0.000000 
#    z 0.000000 0.000000 1.673980 
# 
# From -- ./inp_files/16276.got.cif
#   From: 2010.03.12/outbox.cif.g09.slc.cpg/sg59_9_cif.got.tgz:16276.got - 2010.04.16 16:29:54.
