data_PCOD8239102
_publ_section_title
;
Structure prediction by ZEFSAII (Michael W. Deem and Ramdas Pophale) SiO2 
 PCOD8239102
Probable space group: P M M N
;
_chemical_formula_sum "Si O2"
_cell_formula_units_Z 48
_cell_length_a 9.453105
_cell_length_b 12.671371
_cell_length_c 23.890357
_cell_angle_alpha 90.000000
_cell_angle_beta 90.000000
_cell_angle_gamma 90.000000
_cell_volume 2861.677758
_symmetry_space_group_name_H-M "P M M N"
_symmetry_group_IT_number 59
_space_group.IT_coordinate_system_code '2'
_symmetry_cell_setting 'orthorhombic'
loop_
_space_group_symop_operation_xyz
x,y,z
1/2-x,1/2-y,z
1/2+x,-y,-z
-x,1/2+y,-z
-x,-y,-z
1/2+x,1/2+y,-z
1/2-x,y,z
x,1/2-y,z
loop_
_atom_site_type_symbol
_atom_site_label
_atom_site_fract_x
_atom_site_fract_y
_atom_site_fract_z
Si Si1 0.416595 0.078577 0.133977
Si Si2 0.917878 0.750000 0.779991
Si Si3 0.914567 0.937860 0.577556
Si Si4 0.417197 0.865175 0.093355
Si Si5 0.586316 0.869309 0.452294
Si Si6 0.405258 0.628293 0.972527
Si Si7 0.418684 0.250000 0.345225
O O1 0.250000 0.095970 0.127049
O O2 0.471426 0.145019 0.187407
O O3 0.486842 0.120951 0.077982
O O4 0.456228 0.953656 0.140272
O O5 0.750000 0.750000 0.775456
O O6 0.981769 0.750000 0.717591
O O7 0.750000 0.962069 0.586044
O O8 0.945563 0.885909 0.517654
O O9 0.972462 0.855586 0.623690
O O10 0.996462 0.048545 0.584621
O O11 0.250000 0.853084 0.089815
O O12 0.484707 0.750000 0.108417
O O13 0.467915 0.913868 0.032702
O O14 0.750000 0.889348 0.439240
O O15 0.542346 0.750000 0.436155
O O16 0.250000 0.578332 0.957933
O O17 0.381807 0.750000 0.986839
O O18 0.250000 0.250000 0.346732
#
# Coordination Sequence:
#
# PCOD8239102 Si02
#       7
#     8   4   8   8   8   8   4
#     4  10  17  27  43  62  84 106 139 181 212 247
#     4   9  18  28  43  67  87 111 145 184 223 246
#     4   9  16  27  45  65  88 123 158 183 214 263
#     4   8  15  26  40  59  82 110 138 166 210 267
#     4   9  16  27  43  67  96 121 147 180 226 272
#     4   9  16  26  40  58  83 112 136 163 213 270
#     4   9  16  30  47  63  91 125 153 182 221 266
#
# _framework density 16.773377
#
# number of rings (size 3 to 8) (size 9 to 14) (size 15 to 20)
#    0.000    3.000    1.667    1.500    0.000    0.333 
#    0.000    0.417    0.000    3.500    0.000    4.667 
#    0.000    0.000    0.000    0.000    0.000    0.000 
#
# Total GULP energy -594676.266293 kJ/mol
# GULP energy per Si atom -12389.088881 kJ/mol
# Density = 1.673520 g / cm^3
# Si number density = 16.773377 Si / 1000 Ang^3
#
#
#
# Elastic Constant Matrix: (Units=GPa)
#
#
# Indices 1 2 3 4 5 6 
#
# 1 30.1025 30.1423 22.7598 0.0000 0.0000 0.0000
# 2 30.1423 141.9216 71.8954 0.0000 0.0000 0.0000
# 3 22.7598 71.8954 92.8980 0.0000 0.0000 0.0000
# 4 0.0000 0.0000 0.0000 22.4470 0.0000 0.0000
# 5 0.0000 0.0000 0.0000 0.0000 12.9177 0.0000
# 6 0.0000 0.0000 0.0000 0.0000 0.0000 19.0033
#
#
#
# Elastic Compliance Matrix: (Units=1/GPa)
#
#
# Indices 1 2 3 4 5 6 
#
# 1 0.044039 -0.006395 -0.005841 0.000000 0.000000 0.000000
# 2 -0.006395 0.012519 -0.008122 0.000000 0.000000 0.000000
# 3 -0.005841 -0.008122 0.018481 0.000000 0.000000 0.000000
# 4 0.000000 0.000000 0.000000 0.044549 0.000000 0.000000
# 5 0.000000 0.000000 0.000000 0.000000 0.077413 0.000000
# 6 0.000000 0.000000 0.000000 0.000000 0.000000 0.052622
#
#
# Mechanical properties :
#
#
# Convention : Reuss Voigt Hill
#
# Bulk Modulus (GPa) = 29.13358 57.16857 43.15107
# Shear Modulus (GPa) = 16.56845 20.21524 18.39185
#
# Velocity S-wave (km/s) = 3.14631 3.47536 3.31492
# Velocity P-wave (km/s) = 5.53224 7.08951 6.35873
#
# Compressibility (1/GPa) = 0.03432466
#
# Stress axis : x y z
#
# Youngs Moduli (GPa) = 22.70733 79.88108 54.10973
#
# Poissons Ratio (x) = 0.51080 0.31603
# Poissons Ratio (y) = 0.14520 0.43946
# Poissons Ratio (z) = 0.13262 0.64877
#
# Static dielectric constant tensor:
#      x y z
#    x 2.836740 0.000000 0.000000 
#    y 0.000000 3.570830 0.000000 
#    z 0.000000 0.000000 2.987140 
# 
# 
# High freq. dielectric constant tensor:
#      x y z
#    x 1.611320 0.000000 0.000000 
#    y 0.000000 1.664620 0.000000 
#    z 0.000000 0.000000 1.604510 
# 
# From -- ./inp_files/31891.got.cif
#   From: 2010.03.12/outbox.cif.g09.slc.cpg/sg59_16_cif.got.tgz:31891.got - 2010.04.16 16:29:54.
