data_PCOD8239237
_publ_section_title
;
Structure prediction by ZEFSAII (Michael W. Deem and Ramdas Pophale) SiO2 
 PCOD8239237
Probable space group: P M M N
;
_chemical_formula_sum "Si O2"
_cell_formula_units_Z 40
_cell_length_a 9.097201
_cell_length_b 24.542536
_cell_length_c 10.266422
_cell_angle_alpha 90.000000
_cell_angle_beta 90.000000
_cell_angle_gamma 90.000000
_cell_volume 2292.167440
_symmetry_space_group_name_H-M "P M M N"
_symmetry_group_IT_number 59
_space_group.IT_coordinate_system_code '2'
_symmetry_cell_setting 'orthorhombic'
loop_
_space_group_symop_operation_xyz
x,y,z
1/2-x,1/2-y,z
1/2+x,-y,-z
-x,1/2+y,-z
-x,-y,-z
1/2+x,1/2+y,-z
1/2-x,y,z
x,1/2-y,z
loop_
_atom_site_type_symbol
_atom_site_label
_atom_site_fract_x
_atom_site_fract_y
_atom_site_fract_z
Si Si1 0.416459 0.750000 0.492715
Si Si2 0.421030 0.857791 0.219775
Si Si3 0.577091 0.474200 0.876885
Si Si4 0.422920 0.032747 0.386085
Si Si5 0.923040 0.750000 0.228137
Si Si6 0.416259 0.867337 0.524661
O O1 0.250000 0.750000 0.430901
O O2 0.536841 0.750000 0.379943
O O3 0.435640 0.805063 0.577246
O O4 0.250000 0.845556 0.199878
O O5 0.470666 0.911118 0.139390
O O6 0.510153 0.805399 0.165674
O O7 0.454891 0.869066 0.371592
O O8 0.750000 0.478657 0.896303
O O9 0.526545 0.508074 0.750890
O O10 0.500000 0.500000 0.000000
O O11 0.250000 0.028099 0.405192
O O12 0.473251 0.095541 0.393024
O O13 0.500000 0.000000 0.500000
O O14 0.750000 0.750000 0.206769
O O15 0.250000 0.888254 0.546647
#
# Coordination Sequence:
#
# PCOD8239237 Si02
#       6
#     4   8   8   8   4   8
#     4   8  16  30  46  67 104 141 166 204 260 312
#     4   9  17  33  51  70 103 140 170 207 258 314
#     4  10  22  38  54  75 105 140 178 217 261 312
#     4  11  21  34  52  77 106 136 171 213 257 309
#     4  10  18  26  44  77 104 127 170 218 256 300
#     4   9  16  30  51  75 102 135 173 213 256 305
#
# _framework density 17.450733
#
# number of rings (size 3 to 8) (size 9 to 14) (size 15 to 20)
#    0.000    2.400    2.000    2.700    0.000    5.600 
#    0.000    0.000    0.000    1.200    0.000    4.200 
#    0.000    0.000    0.000    0.000    0.000    0.000 
#
# Total GULP energy -495840.818674 kJ/mol
# GULP energy per Si atom -12396.020467 kJ/mol
# Density = 1.741101 g / cm^3
# Si number density = 17.450733 Si / 1000 Ang^3
#
#
#
# Elastic Constant Matrix: (Units=GPa)
#
#
# Indices 1 2 3 4 5 6 
#
# 1 74.0836 63.9175 43.4882 0.0000 0.0000 0.0000
# 2 63.9175 178.0851 63.5378 0.0000 0.0000 0.0000
# 3 43.4882 63.5378 82.6228 0.0000 0.0000 0.0000
# 4 0.0000 0.0000 0.0000 21.1198 0.0000 0.0000
# 5 0.0000 0.0000 0.0000 0.0000 24.1562 0.0000
# 6 0.0000 0.0000 0.0000 0.0000 0.0000 35.0805
#
#
#
# Elastic Compliance Matrix: (Units=1/GPa)
#
#
# Indices 1 2 3 4 5 6 
#
# 1 0.022724 -0.005359 -0.007839 0.000000 0.000000 0.000000
# 2 -0.005359 0.009002 -0.004102 0.000000 0.000000 0.000000
# 3 -0.007839 -0.004102 0.019384 0.000000 0.000000 0.000000
# 4 0.000000 0.000000 0.000000 0.047349 0.000000 0.000000
# 5 0.000000 0.000000 0.000000 0.000000 0.041397 0.000000
# 6 0.000000 0.000000 0.000000 0.000000 0.000000 0.028506
#
#
# Mechanical properties :
#
#
# Convention : Reuss Voigt Hill
#
# Bulk Modulus (GPa) = 60.57338 75.18652 67.87995
# Shear Modulus (GPa) = 23.98470 26.99450 25.48960
#
# Velocity S-wave (km/s) = 3.71134 3.93733 3.82601
# Velocity P-wave (km/s) = 7.29053 7.99053 7.64855
#
# Compressibility (1/GPa) = 0.01650890
#
# Stress axis : x y z
#
# Youngs Moduli (GPa) = 44.00701 111.08291 51.58858
#
# Poissons Ratio (x) = 0.59528 0.40443
# Poissons Ratio (y) = 0.23583 0.21163
# Poissons Ratio (z) = 0.34499 0.45569
#
# Static dielectric constant tensor:
#      x y z
#    x 3.508340 0.000000 0.000000 
#    y 0.000000 4.045730 0.000000 
#    z 0.000000 0.000000 2.894770 
# 
# 
# High freq. dielectric constant tensor:
#      x y z
#    x 1.669760 0.000000 0.000000 
#    y 0.000000 1.701660 0.000000 
#    z 0.000000 0.000000 1.615700 
# 
# From -- ./inp_files/5918.got.cif
#   From: 2010.03.12/outbox.cif.g09.slc.cpg/sg59_3_cif.got.tgz:5918.got - 2010.04.16 16:29:54.
