data_PCOD8239566
_publ_section_title
;
Structure prediction by ZEFSAII (Michael W. Deem and Ramdas Pophale) SiO2 
 PCOD8239566
Probable space group: P M M N
;
_chemical_formula_sum "Si O2"
_cell_formula_units_Z 56
_cell_length_a 9.476621
_cell_length_b 22.507051
_cell_length_c 14.962055
_cell_angle_alpha 90.000000
_cell_angle_beta 90.000000
_cell_angle_gamma 90.000000
_cell_volume 3191.268563
_symmetry_space_group_name_H-M "P M M N"
_symmetry_group_IT_number 59
_space_group.IT_coordinate_system_code '2'
_symmetry_cell_setting 'orthorhombic'
loop_
_space_group_symop_operation_xyz
x,y,z
1/2-x,1/2-y,z
1/2+x,-y,-z
-x,1/2+y,-z
-x,-y,-z
1/2+x,1/2+y,-z
1/2-x,y,z
x,1/2-y,z
loop_
_atom_site_type_symbol
_atom_site_label
_atom_site_fract_x
_atom_site_fract_y
_atom_site_fract_z
Si Si1 0.916571 0.684052 0.199278
Si Si2 0.084867 0.944072 0.898354
Si Si3 0.415021 0.079649 0.929085
Si Si4 0.416259 0.910832 0.707288
Si Si5 0.911899 0.182941 0.433803
Si Si6 0.586934 0.848270 0.393340
Si Si7 0.589145 0.984644 0.414821
O O1 0.750000 0.675590 0.203578
O O2 0.957770 0.750000 0.162700
O O3 0.976147 0.631543 0.135846
O O4 0.972887 0.678841 0.300992
O O5 0.250000 0.932819 0.915724
O O6 0.028422 0.910670 0.809146
O O7 0.056804 0.014727 0.886958
O O8 0.997767 0.914957 0.978187
O O9 0.250000 0.089408 0.948297
O O10 0.250000 0.903759 0.711395
O O11 0.477979 0.858021 0.645049
O O12 0.461113 0.973804 0.665927
O O13 0.750000 0.164659 0.453749
O O14 0.922179 0.250000 0.398809
O O15 0.998220 0.176774 0.524719
O O16 0.750000 0.831008 0.409743
O O17 0.566312 0.918187 0.383175
O O18 0.750000 0.997934 0.440497
O O19 0.500000 0.000000 0.500000
#
# Coordination Sequence:
#
# PCOD8239566 Si02
#       7
#     8   8   8   8   8   8   8
#     4   9  17  30  49  72  98 129 162 195 236 290
#     4   9  17  31  52  73  94 123 156 195 243 287
#     4   9  17  31  51  74  96 120 155 197 240 289
#     4   9  17  31  49  68  94 127 161 193 231 285
#     4  10  20  33  48  66  93 131 168 198 232 278
#     4  10  19  31  50  74  97 125 163 201 238 283
#     4  10  18  29  47  71  97 125 157 196 240 280
#
# _framework density 17.547881
#
# number of rings (size 3 to 8) (size 9 to 14) (size 15 to 20)
#    0.000    2.571    1.429    1.286    0.000    4.286 
#    0.000    2.857    0.000    5.571    0.000    0.000 
#    0.000    0.000    0.000    0.000    0.000    0.000 
#
# Total GULP energy -694162.616098 kJ/mol
# GULP energy per Si atom -12395.761002 kJ/mol
# Density = 1.750794 g / cm^3
# Si number density = 17.547881 Si / 1000 Ang^3
#
#
#
# Elastic Constant Matrix: (Units=GPa)
#
#
# Indices 1 2 3 4 5 6 
#
# 1 35.5240 24.2056 36.7655 0.0000 0.0000 0.0000
# 2 24.2056 101.8167 59.7258 0.0000 0.0000 0.0000
# 3 36.7655 59.7258 145.7390 0.0000 0.0000 0.0000
# 4 0.0000 0.0000 0.0000 24.7338 0.0000 0.0000
# 5 0.0000 0.0000 0.0000 0.0000 27.9625 0.0000
# 6 0.0000 0.0000 0.0000 0.0000 0.0000 17.1546
#
#
#
# Elastic Compliance Matrix: (Units=1/GPa)
#
#
# Indices 1 2 3 4 5 6 
#
# 1 0.039731 -0.004695 -0.008099 0.000000 0.000000 0.000000
# 2 -0.004695 0.013485 -0.004342 0.000000 0.000000 0.000000
# 3 -0.008099 -0.004342 0.010684 0.000000 0.000000 0.000000
# 4 0.000000 0.000000 0.000000 0.040430 0.000000 0.000000
# 5 0.000000 0.000000 0.000000 0.000000 0.035762 0.000000
# 6 0.000000 0.000000 0.000000 0.000000 0.000000 0.058293
#
#
# Mechanical properties :
#
#
# Convention : Reuss Voigt Hill
#
# Bulk Modulus (GPa) = 33.75114 58.27485 46.01299
# Shear Modulus (GPa) = 20.61576 24.79570 22.70573
#
# Velocity S-wave (km/s) = 3.43130 3.76311 3.60103
# Velocity P-wave (km/s) = 5.91387 7.22236 6.60062
#
# Compressibility (1/GPa) = 0.02962863
#
# Stress axis : x y z
#
# Youngs Moduli (GPa) = 25.16931 74.15870 93.59743
#
# Poissons Ratio (x) = 0.34815 0.75804
# Poissons Ratio (y) = 0.11816 0.40639
# Poissons Ratio (z) = 0.20385 0.32199
#
# Static dielectric constant tensor:
#      x y z
#    x 2.967250 0.000000 0.000000 
#    y 0.000000 3.444700 0.000000 
#    z 0.000000 0.000000 2.966330 
# 
# 
# High freq. dielectric constant tensor:
#      x y z
#    x 1.640870 0.000000 0.000000 
#    y 0.000000 1.684510 0.000000 
#    z 0.000000 0.000000 1.679360 
# 
# From -- ./inp_files/16182.got.cif
#   From: 2010.03.12/outbox.cif.g09.slc.cpg/sg59_9_cif.got.tgz:16182.got - 2010.04.16 16:29:54.
