data_PCOD8239141
_publ_section_title
;
Structure prediction by ZEFSAII (Michael W. Deem and Ramdas Pophale) SiO2 
 PCOD8239141
Probable space group: P M M N
;
_chemical_formula_sum "Si O2"
_cell_formula_units_Z 64
_cell_length_a 23.408337
_cell_length_b 9.102414
_cell_length_c 18.958464
_cell_angle_alpha 90.000000
_cell_angle_beta 90.000000
_cell_angle_gamma 90.000000
_cell_volume 4039.524940
_symmetry_space_group_name_H-M "P M M N"
_symmetry_group_IT_number 59
_space_group.IT_coordinate_system_code '2'
_symmetry_cell_setting 'orthorhombic'
loop_
_space_group_symop_operation_xyz
x,y,z
1/2-x,1/2-y,z
1/2+x,-y,-z
-x,1/2+y,-z
-x,-y,-z
1/2+x,1/2+y,-z
1/2-x,y,z
x,1/2-y,z
loop_
_atom_site_type_symbol
_atom_site_label
_atom_site_fract_x
_atom_site_fract_y
_atom_site_fract_z
Si Si1 0.183827 0.078563 0.901412
Si Si2 0.313588 0.074827 0.609783
Si Si3 0.914370 0.922418 0.485956
Si Si4 0.995479 0.576778 0.241774
Si Si5 0.412494 0.577832 0.983490
Si Si6 0.024229 0.422096 0.104159
Si Si7 0.975498 0.079204 0.601833
Si Si8 0.134080 0.076013 0.753695
O O1 0.250000 0.047334 0.916472
O O2 0.168739 0.250000 0.910076
O O3 0.168838 0.024860 0.822490
O O4 0.147465 0.985946 0.957082
O O5 0.250000 0.015773 0.594327
O O6 0.314694 0.250000 0.613714
O O7 0.354825 0.020419 0.546911
O O8 0.334966 0.010064 0.684687
O O9 0.913197 0.750000 0.497956
O O10 0.963845 0.968551 0.431118
O O11 0.924179 0.996223 0.562017
O O12 0.997407 0.750000 0.225949
O O13 0.029789 0.490315 0.181787
O O14 0.930599 0.517788 0.242858
O O15 0.025342 0.538020 0.315886
O O16 0.406472 0.750000 0.997731
O O17 0.427900 0.498499 0.056375
O O18 0.461205 0.543226 0.925836
O O19 0.036924 0.250000 0.106603
O O20 0.965443 0.250000 0.590522
O O21 0.133139 0.250000 0.747349
#
# Coordination Sequence:
#
# PCOD8239141 Si02
#       8
#     8   8   8   8   8   8   8   8
#     4  10  19  30  47  70  95 126 162 195 227 265
#     4   9  15  24  41  65  91 120 157 195 226 261
#     4   9  16  27  42  63  88 117 152 191 230 266
#     4  10  17  28  47  68  92 122 153 187 230 280
#     4  10  20  33  48  67  92 125 158 191 232 276
#     4  10  20  32  48  69  93 120 154 194 236 280
#     4   9  17  28  43  63  88 119 152 186 228 275
#     4   9  15  25  41  64  94 124 155 189 221 261
#
# _framework density 15.843446999999999
#
# number of rings (size 3 to 8) (size 9 to 14) (size 15 to 20)
#    0.000    2.500    2.500    1.125    0.000    3.250 
#    0.000    0.000    0.000    1.125    0.000    0.875 
#    0.000    3.000    0.000    0.000    0.000    0.000 
#
# Total GULP energy -793596.529435 kJ/mol
# GULP energy per Si atom -12399.945772 kJ/mol
# Density = 1.580739 g / cm^3
# Si number density = 15.843447 Si / 1000 Ang^3
#
#
#
# Elastic Constant Matrix: (Units=GPa)
#
#
# Indices 1 2 3 4 5 6 
#
# 1 97.0521 35.6430 68.0320 0.0000 0.0000 0.0000
# 2 35.6430 48.9590 49.8643 0.0000 0.0000 0.0000
# 3 68.0320 49.8643 127.8685 0.0000 0.0000 0.0000
# 4 0.0000 0.0000 0.0000 26.2149 0.0000 0.0000
# 5 0.0000 0.0000 0.0000 0.0000 26.4299 0.0000
# 6 0.0000 0.0000 0.0000 0.0000 0.0000 19.3974
#
#
#
# Elastic Compliance Matrix: (Units=1/GPa)
#
#
# Indices 1 2 3 4 5 6 
#
# 1 0.017229 -0.005320 -0.007092 0.000000 0.000000 0.000000
# 2 -0.005320 0.035525 -0.011023 0.000000 0.000000 0.000000
# 3 -0.007092 -0.011023 0.015893 0.000000 0.000000 0.000000
# 4 0.000000 0.000000 0.000000 0.038146 0.000000 0.000000
# 5 0.000000 0.000000 0.000000 0.000000 0.037836 0.000000
# 6 0.000000 0.000000 0.000000 0.000000 0.000000 0.051553
#
#
# Mechanical properties :
#
#
# Convention : Reuss Voigt Hill
#
# Bulk Modulus (GPa) = 45.92106 64.55090 55.23598
# Shear Modulus (GPa) = 19.97517 22.43114 21.20315
#
# Velocity S-wave (km/s) = 3.55460 3.76679 3.66224
# Velocity P-wave (km/s) = 6.77452 7.72979 7.26787
#
# Compressibility (1/GPa) = 0.02177650
#
# Stress axis : x y z
#
# Youngs Moduli (GPa) = 58.04208 28.14908 62.92273
#
# Poissons Ratio (x) = 0.14975 0.44625
# Poissons Ratio (y) = 0.30877 0.69361
# Poissons Ratio (z) = 0.41164 0.31029
#
# Static dielectric constant tensor:
#      x y z
#    x 2.924240 0.000000 0.000000 
#    y 0.000000 2.762380 0.000000 
#    z 0.000000 0.000000 3.038710 
# 
# 
# High freq. dielectric constant tensor:
#      x y z
#    x 1.585330 0.000000 0.000000 
#    y 0.000000 1.586390 0.000000 
#    z 0.000000 0.000000 1.605720 
# 
# From -- ./inp_files/26548.got.cif
#   From: 2010.03.12/outbox.cif.g09.slc.cpg/sg59_14_cif.got.tgz:26548.got - 2010.04.16 16:29:54.
