data_PCOD8239420
_publ_section_title
;
Structure prediction by ZEFSAII (Michael W. Deem and Ramdas Pophale) SiO2 
 PCOD8239420
Probable space group: P M M N
;
_chemical_formula_sum "Si O2"
_cell_formula_units_Z 64
_cell_length_a 19.480441
_cell_length_b 9.192117
_cell_length_c 19.951379
_cell_angle_alpha 90.000000
_cell_angle_beta 90.000000
_cell_angle_gamma 90.000000
_cell_volume 3572.623466
_symmetry_space_group_name_H-M "P M M N"
_symmetry_group_IT_number 59
_space_group.IT_coordinate_system_code '2'
_symmetry_cell_setting 'orthorhombic'
loop_
_space_group_symop_operation_xyz
x,y,z
1/2-x,1/2-y,z
1/2+x,-y,-z
-x,1/2+y,-z
-x,-y,-z
1/2+x,1/2+y,-z
1/2-x,y,z
x,1/2-y,z
loop_
_atom_site_type_symbol
_atom_site_label
_atom_site_fract_x
_atom_site_fract_y
_atom_site_fract_z
Si Si1 0.030110 0.419565 0.340158
Si Si2 0.933424 0.580942 0.807748
Si Si3 0.085722 0.919181 0.852693
Si Si4 0.671279 0.578717 0.036077
Si Si5 0.066778 0.083779 0.480118
Si Si6 0.326254 0.914866 0.727851
Si Si7 0.608029 0.919818 0.381448
Si Si8 0.829134 0.418637 0.898625
O O1 0.009727 0.250000 0.334971
O O2 0.062386 0.468886 0.269852
O O3 0.085119 0.448510 0.401684
O O4 0.961975 0.508908 0.355239
O O5 0.912900 0.750000 0.813316
O O6 0.874555 0.482038 0.838926
O O7 0.004703 0.552207 0.846753
O O8 0.102168 0.750000 0.866885
O O9 0.120258 0.969778 0.783340
O O10 0.117574 0.016013 0.911029
O O11 0.750000 0.543178 0.057108
O O12 0.659525 0.750000 0.029308
O O13 0.653229 0.505783 0.965701
O O14 0.045689 0.250000 0.486696
O O15 0.122624 0.048450 0.538588
O O16 0.000000 0.000000 0.500000
O O17 0.250000 0.930003 0.757936
O O18 0.343042 0.750000 0.707488
O O19 0.330298 0.011710 0.660923
O O20 0.604264 0.750000 0.366565
O O21 0.750000 0.439878 0.878300
O O22 0.846885 0.250000 0.910307
#
# Coordination Sequence:
#
# PCOD8239420 Si02
#       8
#     8   8   8   8   8   8   8   8
#     4   9  16  31  51  72 102 136 171 209 255 310
#     4  10  20  34  56  82 107 136 171 216 263 307
#     4  10  20  35  54  78 106 137 175 216 260 308
#     4  10  21  37  57  80 106 138 177 217 255 301
#     4   8  15  26  44  69  96 129 166 207 253 300
#     4  10  20  34  51  70  99 144 188 219 255 310
#     4  10  18  28  45  72 103 132 170 219 265 304
#     4  10  22  40  60  80 103 134 170 209 260 319
#
# _framework density 17.914006000000001
#
# number of rings (size 3 to 8) (size 9 to 14) (size 15 to 20)
#    0.000    2.375    1.250    1.500    0.000    4.750 
#    0.000    0.000    0.000    0.750    0.000    5.250 
#    0.000    0.000    0.000    0.000    0.000    0.000 
#
# Total GULP energy -793143.669936 kJ/mol
# GULP energy per Si atom -12392.869843 kJ/mol
# Density = 1.787323 g / cm^3
# Si number density = 17.914006 Si / 1000 Ang^3
#
#
#
# Elastic Constant Matrix: (Units=GPa)
#
#
# Indices 1 2 3 4 5 6 
#
# 1 63.9279 34.5545 51.4328 0.0000 0.0000 0.0000
# 2 34.5545 74.4475 59.5420 0.0000 0.0000 0.0000
# 3 51.4328 59.5420 136.8061 0.0000 0.0000 0.0000
# 4 0.0000 0.0000 0.0000 30.3556 0.0000 0.0000
# 5 0.0000 0.0000 0.0000 0.0000 21.9113 0.0000
# 6 0.0000 0.0000 0.0000 0.0000 0.0000 27.1821
#
#
#
# Elastic Compliance Matrix: (Units=1/GPa)
#
#
# Indices 1 2 3 4 5 6 
#
# 1 0.024073 -0.006036 -0.006423 0.000000 0.000000 0.000000
# 2 -0.006036 0.022118 -0.007357 0.000000 0.000000 0.000000
# 3 -0.006423 -0.007357 0.012926 0.000000 0.000000 0.000000
# 4 0.000000 0.000000 0.000000 0.032943 0.000000 0.000000
# 5 0.000000 0.000000 0.000000 0.000000 0.045639 0.000000
# 6 0.000000 0.000000 0.000000 0.000000 0.000000 0.036789
#
#
# Mechanical properties :
#
#
# Convention : Reuss Voigt Hill
#
# Bulk Modulus (GPa) = 51.32268 62.91556 57.11912
# Shear Modulus (GPa) = 22.66383 24.53329 23.59856
#
# Velocity S-wave (km/s) = 3.56075 3.70469 3.63343
# Velocity P-wave (km/s) = 6.75403 7.31415 7.03966
#
# Compressibility (1/GPa) = 0.01948456
#
# Stress axis : x y z
#
# Youngs Moduli (GPa) = 41.54012 45.21194 77.36061
#
# Poissons Ratio (x) = 0.27291 0.49691
# Poissons Ratio (y) = 0.25074 0.56915
# Poissons Ratio (z) = 0.26682 0.33263
#
# Static dielectric constant tensor:
#      x y z
#    x 3.047420 0.000000 0.000000 
#    y 0.000000 3.259680 0.000000 
#    z 0.000000 0.000000 3.777190 
# 
# 
# High freq. dielectric constant tensor:
#      x y z
#    x 1.659760 0.000000 0.000000 
#    y 0.000000 1.696530 0.000000 
#    z 0.000000 0.000000 1.706830 
# 
# From -- ./inp_files/28267.got.cif
#   From: 2010.03.12/outbox.cif.g09.slc.cpg/sg59_15_cif.got.tgz:28267.got - 2010.04.16 16:29:54.
