data_PCOD8239985
_publ_section_title
;
Structure prediction by ZEFSAII (Michael W. Deem and Ramdas Pophale) SiO2 
 PCOD8239985
Probable space group: P M M N
;
_chemical_formula_sum "Si O2"
_cell_formula_units_Z 52
_cell_length_a 9.480134
_cell_length_b 16.072602
_cell_length_c 18.646024
_cell_angle_alpha 90.000000
_cell_angle_beta 90.000000
_cell_angle_gamma 90.000000
_cell_volume 2841.102521
_symmetry_space_group_name_H-M "P M M N"
_symmetry_group_IT_number 59
_space_group.IT_coordinate_system_code '2'
_symmetry_cell_setting 'orthorhombic'
loop_
_space_group_symop_operation_xyz
x,y,z
1/2-x,1/2-y,z
1/2+x,-y,-z
-x,1/2+y,-z
-x,-y,-z
1/2+x,1/2+y,-z
1/2-x,y,z
x,1/2-y,z
loop_
_atom_site_type_symbol
_atom_site_label
_atom_site_fract_x
_atom_site_fract_y
_atom_site_fract_z
Si Si1 0.091218 0.887544 0.935103
Si Si2 0.090498 0.929439 0.690391
Si Si3 0.091428 0.467967 0.829078
Si Si4 0.092735 0.250000 0.135493
Si Si5 0.586803 0.155115 0.906643
Si Si6 0.503351 0.750000 0.709008
Si Si7 0.078744 0.433695 0.450441
Si Si8 0.594653 0.750000 0.552737
O O1 0.250000 0.851214 0.927028
O O2 0.984921 0.831320 0.891352
O O3 0.081294 0.978686 0.901775
O O4 0.050121 0.890474 0.018631
O O5 0.250000 0.954591 0.667131
O O6 0.094738 0.831613 0.708853
O O7 0.976867 0.951747 0.629459
O O8 0.040187 0.979916 0.760351
O O9 0.250000 0.436872 0.816322
O O10 0.994525 0.387553 0.840693
O O11 0.250000 0.250000 0.104239
O O12 0.101698 0.250000 0.221450
O O13 0.750000 0.148457 0.887751
O O14 0.536706 0.250000 0.913160
O O15 0.602237 0.750000 0.639029
O O16 0.250000 0.442486 0.453265
O O17 0.027554 0.338832 0.472857
O O18 0.000000 0.500000 0.500000
O O19 0.750000 0.750000 0.520752
#
# Coordination Sequence:
#
# PCOD8239985 Si02
#       8
#     8   8   8   4   8   4   8   4
#     4  10  20  37  54  72 105 143 178 219 278 334
#     4  10  20  34  56  84 112 147 183 216 266 324
#     4  10  21  35  55  80 106 138 178 226 274 328
#     4  12  22  29  48  81 111 140 178 222 267 320
#     4  10  21  37  56  73  98 139 183 230 282 331
#     4  10  18  32  51  79 117 145 175 213 261 325
#     4  10  20  36  59  86 119 152 183 223 268 321
#     4   8  17  33  53  80 114 147 177 215 264 315
#
# _framework density 18.302754
#
# number of rings (size 3 to 8) (size 9 to 14) (size 15 to 20)
#    0.000    2.000    2.308    1.615    0.000    3.385 
#    0.000    1.154    1.692    0.000    0.000    0.000 
#    0.000    0.000    0.000    0.000    0.000    0.000 
#
# Total GULP energy -644485.869194 kJ/mol
# GULP energy per Si atom -12393.959023 kJ/mol
# Density = 1.826110 g / cm^3
# Si number density = 18.302754 Si / 1000 Ang^3
#
#
#
# Elastic Constant Matrix: (Units=GPa)
#
#
# Indices 1 2 3 4 5 6 
#
# 1 84.2957 48.7604 42.5866 0.0000 0.0000 0.0000
# 2 48.7604 96.7314 61.0994 0.0000 0.0000 0.0000
# 3 42.5866 61.0994 87.3329 0.0000 0.0000 0.0000
# 4 0.0000 0.0000 0.0000 33.2372 0.0000 0.0000
# 5 0.0000 0.0000 0.0000 0.0000 28.3088 0.0000
# 6 0.0000 0.0000 0.0000 0.0000 0.0000 17.6751
#
#
#
# Elastic Compliance Matrix: (Units=1/GPa)
#
#
# Indices 1 2 3 4 5 6 
#
# 1 0.017585 -0.006178 -0.004253 0.000000 0.000000 0.000000
# 2 -0.006178 0.020694 -0.011465 0.000000 0.000000 0.000000
# 3 -0.004253 -0.011465 0.021546 0.000000 0.000000 0.000000
# 4 0.000000 0.000000 0.000000 0.030087 0.000000 0.000000
# 5 0.000000 0.000000 0.000000 0.000000 0.035325 0.000000
# 6 0.000000 0.000000 0.000000 0.000000 0.000000 0.056577
#
#
# Mechanical properties :
#
#
# Convention : Reuss Voigt Hill
#
# Bulk Modulus (GPa) = 62.37356 63.69476 63.03416
# Shear Modulus (GPa) = 21.64972 23.57178 22.61075
#
# Velocity S-wave (km/s) = 3.44301 3.59260 3.51860
# Velocity P-wave (km/s) = 7.06814 7.21701 7.14296
#
# Compressibility (1/GPa) = 0.01603243
#
# Stress axis : x y z
#
# Youngs Moduli (GPa) = 56.86579 48.32306 46.41322
#
# Poissons Ratio (x) = 0.29854 0.19739
# Poissons Ratio (y) = 0.35132 0.53214
# Poissons Ratio (z) = 0.24185 0.55404
#
# Static dielectric constant tensor:
#      x y z
#    x 3.284310 0.000000 0.000000 
#    y 0.000000 3.389600 0.000000 
#    z 0.000000 0.000000 3.198940 
# 
# 
# High freq. dielectric constant tensor:
#      x y z
#    x 1.704650 0.000000 0.000000 
#    y 0.000000 1.705860 0.000000 
#    z 0.000000 0.000000 1.689870 
# 
# From -- ./inp_files/28934.got.cif
#   From: 2010.03.12/outbox.cif.g09.slc.cpg/sg59_15_cif.got.tgz:28934.got - 2010.04.16 16:29:54.
