data_PCOD8239355
_publ_section_title
;
Structure prediction by ZEFSAII (Michael W. Deem and Ramdas Pophale) SiO2 
 PCOD8239355
Probable space group: P M M N
;
_chemical_formula_sum "Si O2"
_cell_formula_units_Z 64
_cell_length_a 8.924938
_cell_length_b 18.543808
_cell_length_c 26.382207
_cell_angle_alpha 90.000000
_cell_angle_beta 90.000000
_cell_angle_gamma 90.000000
_cell_volume 4366.316905
_symmetry_space_group_name_H-M "P M M N"
_symmetry_group_IT_number 59
_space_group.IT_coordinate_system_code '2'
_symmetry_cell_setting 'orthorhombic'
loop_
_space_group_symop_operation_xyz
x,y,z
1/2-x,1/2-y,z
1/2+x,-y,-z
-x,1/2+y,-z
-x,-y,-z
1/2+x,1/2+y,-z
1/2-x,y,z
x,1/2-y,z
loop_
_atom_site_type_symbol
_atom_site_label
_atom_site_fract_x
_atom_site_fract_y
_atom_site_fract_z
Si Si1 0.573634 0.966120 0.950929
Si Si2 0.424392 0.094070 0.600882
Si Si3 0.427582 0.084868 0.896193
Si Si4 0.927292 0.668012 0.501266
Si Si5 0.075388 0.542429 0.545266
Si Si6 0.577108 0.666227 0.298771
Si Si7 0.075127 0.833492 0.194594
Si Si8 0.925960 0.829427 0.005483
O O1 0.750000 0.981420 0.950249
O O2 0.540322 0.879915 0.956172
O O3 0.496977 0.003936 0.902256
O O4 0.500000 0.000000 0.000000
O O5 0.250000 0.112780 0.602698
O O6 0.489771 0.138061 0.552586
O O7 0.492756 0.121675 0.653869
O O8 0.452004 0.007518 0.595120
O O9 0.250000 0.078199 0.895634
O O10 0.483139 0.118044 0.844080
O O11 0.487320 0.134604 0.942591
O O12 0.750000 0.659757 0.504559
O O13 0.979510 0.750000 0.508041
O O14 0.999319 0.621469 0.547579
O O15 0.250000 0.551489 0.534490
O O16 0.000000 0.500000 0.500000
O O17 0.750000 0.646177 0.287593
O O18 0.561073 0.750000 0.312235
O O19 0.478240 0.644859 0.250530
O O20 0.250000 0.849836 0.189174
O O21 0.038022 0.750000 0.183688
O O22 0.750000 0.821178 0.012393
O O23 0.999158 0.750000 0.997692
#
# Coordination Sequence:
#
# PCOD8239355 Si02
#       8
#     8   8   8   8   8   8   8   8
#     4   9  16  26  40  58  81 107 135 169 204 238
#     4   8  14  25  41  58  76 103 137 168 197 232
#     4  10  18  28  43  59  78 108 142 170 197 234
#     4   9  16  26  40  58  81 108 137 168 201 237
#     4   9  16  26  39  56  79 105 134 167 201 238
#     4   9  16  27  43  59  75 100 135 168 196 232
#     4  10  20  31  41  57  82 106 130 166 207 240
#     4   8  14  24  39  59  80 103 133 165 194 228
#
# _framework density 14.657662999999999
#
# number of rings (size 3 to 8) (size 9 to 14) (size 15 to 20)
#    0.000    3.000    0.000    3.750    0.000    3.000 
#    0.000    3.125    0.000   10.500    0.000    0.000 
#    0.000    1.000    0.000    7.250    0.000    3.750 
#
# Total GULP energy -792984.311699 kJ/mol
# GULP energy per Si atom -12390.379870 kJ/mol
# Density = 1.462430 g / cm^3
# Si number density = 14.657663 Si / 1000 Ang^3
#
#
#
# Elastic Constant Matrix: (Units=GPa)
#
#
# Indices 1 2 3 4 5 6 
#
# 1 52.1396 35.5235 27.3320 0.0000 0.0000 0.0000
# 2 35.5235 113.7287 53.0344 0.0000 0.0000 0.0000
# 3 27.3320 53.0344 72.2545 0.0000 0.0000 0.0000
# 4 0.0000 0.0000 0.0000 26.6438 0.0000 0.0000
# 5 0.0000 0.0000 0.0000 0.0000 18.2874 0.0000
# 6 0.0000 0.0000 0.0000 0.0000 0.0000 21.4183
#
#
#
# Elastic Compliance Matrix: (Units=1/GPa)
#
#
# Indices 1 2 3 4 5 6 
#
# 1 0.025904 -0.005354 -0.005869 0.000000 0.000000 0.000000
# 2 -0.005354 0.014475 -0.008599 0.000000 0.000000 0.000000
# 3 -0.005869 -0.008599 0.022372 0.000000 0.000000 0.000000
# 4 0.000000 0.000000 0.000000 0.037532 0.000000 0.000000
# 5 0.000000 0.000000 0.000000 0.000000 0.054682 0.000000
# 6 0.000000 0.000000 0.000000 0.000000 0.000000 0.046689
#
#
# Mechanical properties :
#
#
# Convention : Reuss Voigt Hill
#
# Bulk Modulus (GPa) = 43.27868 52.21140 47.74504
# Shear Modulus (GPa) = 20.08019 21.41877 20.74948
#
# Velocity S-wave (km/s) = 3.70529 3.82680 3.76654
# Velocity P-wave (km/s) = 6.92069 7.43127 7.18052
#
# Compressibility (1/GPa) = 0.02310607
#
# Stress axis : x y z
#
# Youngs Moduli (GPa) = 38.60454 69.08233 44.69899
#
# Poissons Ratio (x) = 0.36990 0.26232
# Poissons Ratio (y) = 0.20671 0.38439
# Poissons Ratio (z) = 0.22655 0.59407
#
# Static dielectric constant tensor:
#      x y z
#    x 2.844540 0.000000 0.000000 
#    y 0.000000 3.287570 0.000000 
#    z 0.000000 0.000000 2.764030 
# 
# 
# High freq. dielectric constant tensor:
#      x y z
#    x 1.553620 0.000000 0.000000 
#    y 0.000000 1.555220 0.000000 
#    z 0.000000 0.000000 1.525350 
# 
# From -- ./inp_files/31709.got.cif
#   From: 2010.03.12/outbox.cif.g09.slc.cpg/sg59_16_cif.got.tgz:31709.got - 2010.04.16 16:29:54.
