data_PCOD8239358
_publ_section_title
;
Structure prediction by ZEFSAII (Michael W. Deem and Ramdas Pophale) SiO2 
 PCOD8239358
Probable space group: P M M N
;
_chemical_formula_sum "Si O2"
_cell_formula_units_Z 64
_cell_length_a 8.962307
_cell_length_b 18.501755
_cell_length_c 25.995491
_cell_angle_alpha 90.000000
_cell_angle_beta 90.000000
_cell_angle_gamma 90.000000
_cell_volume 4310.530942
_symmetry_space_group_name_H-M "P M M N"
_symmetry_group_IT_number 59
_space_group.IT_coordinate_system_code '2'
_symmetry_cell_setting 'orthorhombic'
loop_
_space_group_symop_operation_xyz
x,y,z
1/2-x,1/2-y,z
1/2+x,-y,-z
-x,1/2+y,-z
-x,-y,-z
1/2+x,1/2+y,-z
1/2-x,y,z
x,1/2-y,z
loop_
_atom_site_type_symbol
_atom_site_label
_atom_site_fract_x
_atom_site_fract_y
_atom_site_fract_z
Si Si1 0.074309 0.466364 0.950238
Si Si2 0.921422 0.542090 0.454793
Si Si3 0.575053 0.331753 0.503156
Si Si4 0.427058 0.084553 0.105639
Si Si5 0.574949 0.829517 0.994193
Si Si6 0.420756 0.594396 0.604183
Si Si7 0.577408 0.832957 0.696705
Si Si8 0.575886 0.333731 0.197559
O O1 0.250000 0.482252 0.949581
O O2 0.042223 0.379902 0.955613
O O3 0.996959 0.503628 0.900774
O O4 0.000000 0.500000 0.000000
O O5 0.750000 0.552321 0.469204
O O6 0.938755 0.492497 0.403779
O O7 0.000000 0.500000 0.500000
O O8 0.996901 0.621309 0.451394
O O9 0.750000 0.336984 0.512129
O O10 0.516786 0.250000 0.507529
O O11 0.531726 0.362484 0.447147
O O12 0.250000 0.077787 0.106714
O O13 0.483919 0.117786 0.158334
O O14 0.486063 0.134283 0.058438
O O15 0.750000 0.821022 0.986924
O O16 0.501660 0.750000 0.002074
O O17 0.250000 0.613829 0.618376
O O18 0.529597 0.616778 0.649710
O O19 0.750000 0.846532 0.709732
O O20 0.547770 0.750000 0.681226
O O21 0.479281 0.854584 0.745784
O O22 0.750000 0.351293 0.192928
O O23 0.541616 0.250000 0.185819
#
# Coordination Sequence:
#
# PCOD8239358 Si02
#       8
#     8   8   8   8   8   8   8   8
#     4   9  16  26  40  58  81 108 139 174 209 247
#     4   9  17  28  41  58  81 109 140 173 208 246
#     4   9  17  28  42  61  85 112 141 173 209 248
#     4  10  18  28  43  60  82 112 142 172 206 246
#     4   8  14  24  39  59  81 107 138 170 204 240
#     4   9  17  29  43  58  80 111 142 171 206 245
#     4  10  20  31  43  61  83 107 138 174 208 243
#     4  10  20  32  45  61  82 108 138 173 210 245
#
# _framework density 14.847358
#
# number of rings (size 3 to 8) (size 9 to 14) (size 15 to 20)
#    0.000    2.750    0.000    4.125    0.000    5.250 
#    0.000    0.000    0.000    7.500    0.000    0.000 
#    0.000    1.000    0.000    5.250    0.000    4.250 
#
# Total GULP energy -793163.672948 kJ/mol
# GULP energy per Si atom -12393.182390 kJ/mol
# Density = 1.481357 g / cm^3
# Si number density = 14.847358 Si / 1000 Ang^3
#
#
#
# Elastic Constant Matrix: (Units=GPa)
#
#
# Indices 1 2 3 4 5 6 
#
# 1 66.9819 38.3208 30.6266 0.0000 0.0000 0.0000
# 2 38.3208 108.4837 43.5401 0.0000 0.0000 0.0000
# 3 30.6266 43.5401 57.6194 0.0000 0.0000 0.0000
# 4 0.0000 0.0000 0.0000 24.2790 0.0000 0.0000
# 5 0.0000 0.0000 0.0000 0.0000 24.6863 0.0000
# 6 0.0000 0.0000 0.0000 0.0000 0.0000 23.0537
#
#
#
# Elastic Compliance Matrix: (Units=1/GPa)
#
#
# Indices 1 2 3 4 5 6 
#
# 1 0.020984 -0.004214 -0.007970 0.000000 0.000000 0.000000
# 2 -0.004214 0.014077 -0.008397 0.000000 0.000000 0.000000
# 3 -0.007970 -0.008397 0.027937 0.000000 0.000000 0.000000
# 4 0.000000 0.000000 0.000000 0.041188 0.000000 0.000000
# 5 0.000000 0.000000 0.000000 0.000000 0.040508 0.000000
# 6 0.000000 0.000000 0.000000 0.000000 0.000000 0.043377
#
#
# Mechanical properties :
#
#
# Convention : Reuss Voigt Hill
#
# Bulk Modulus (GPa) = 45.79540 50.89555 48.34548
# Shear Modulus (GPa) = 21.14068 22.44364 21.79216
#
# Velocity S-wave (km/s) = 3.77751 3.89218 3.83527
# Velocity P-wave (km/s) = 7.06663 7.38596 7.22806
#
# Compressibility (1/GPa) = 0.02183626
#
# Stress axis : x y z
#
# Youngs Moduli (GPa) = 47.65500 71.03912 35.79512
#
# Poissons Ratio (x) = 0.29935 0.28527
# Poissons Ratio (y) = 0.20081 0.30058
# Poissons Ratio (z) = 0.37979 0.59654
#
# Static dielectric constant tensor:
#      x y z
#    x 2.959120 0.000000 0.000000 
#    y 0.000000 3.327760 0.000000 
#    z 0.000000 0.000000 2.655520 
# 
# 
# High freq. dielectric constant tensor:
#      x y z
#    x 1.574710 0.000000 0.000000 
#    y 0.000000 1.562640 0.000000 
#    z 0.000000 0.000000 1.529240 
# 
# From -- ./inp_files/31771.got.cif
#   From: 2010.03.12/outbox.cif.g09.slc.cpg/sg59_16_cif.got.tgz:31771.got - 2010.04.16 16:29:54.
