data_PCOD8239239
_publ_section_title
;
Structure prediction by ZEFSAII (Michael W. Deem and Ramdas Pophale) SiO2 
 PCOD8239239
Probable space group: P M M N
;
_chemical_formula_sum "Si O2"
_cell_formula_units_Z 64
_cell_length_a 26.605727
_cell_length_b 9.170096
_cell_length_c 16.958089
_cell_angle_alpha 90.000000
_cell_angle_beta 90.000000
_cell_angle_gamma 90.000000
_cell_volume 4137.384880
_symmetry_space_group_name_H-M "P M M N"
_symmetry_group_IT_number 59
_space_group.IT_coordinate_system_code '2'
_symmetry_cell_setting 'orthorhombic'
loop_
_space_group_symop_operation_xyz
x,y,z
1/2-x,1/2-y,z
1/2+x,-y,-z
-x,1/2+y,-z
-x,-y,-z
1/2+x,1/2+y,-z
1/2-x,y,z
x,1/2-y,z
loop_
_atom_site_type_symbol
_atom_site_label
_atom_site_fract_x
_atom_site_fract_y
_atom_site_fract_z
Si Si1 0.892519 0.919372 0.016867
Si Si2 0.870304 0.417246 0.778334
Si Si3 0.192651 0.420489 0.099584
Si Si4 0.052376 0.919605 0.504666
Si Si5 0.462280 0.916045 0.677670
Si Si6 0.923328 0.923583 0.642048
Si Si7 0.458630 0.584922 0.097794
Si Si8 0.060915 0.080067 0.827402
O O1 0.900778 0.750000 0.002492
O O2 0.893404 0.953698 0.111055
O O3 0.840347 0.970435 0.976565
O O4 0.940858 0.994045 0.977482
O O5 0.857584 0.250000 0.756170
O O6 0.822968 0.488836 0.823150
O O7 0.881872 0.510921 0.700604
O O8 0.918243 0.427412 0.833502
O O9 0.250000 0.456671 0.078483
O O10 0.184738 0.250000 0.117844
O O11 0.046971 0.750000 0.480781
O O12 0.069251 0.933771 0.596150
O O13 0.088872 0.003007 0.443350
O O14 0.000000 0.000000 0.500000
O O15 0.463765 0.750000 0.705010
O O16 0.520174 0.970028 0.668460
O O17 0.431219 0.002861 0.743783
O O18 0.917607 0.750000 0.635983
O O19 0.466168 0.750000 0.069420
O O20 0.510133 0.520243 0.132077
O O21 0.056129 0.250000 0.809188
#
# Coordination Sequence:
#
# PCOD8239239 Si02
#       8
#     8   8   8   8   8   8   8   8
#     4   9  18  29  42  60  79 106 142 177 213 256
#     4  10  18  28  44  65  87 111 142 179 215 257
#     4   9  18  33  49  63  84 112 141 178 222 263
#     4   9  17  28  40  57  81 112 149 182 211 246
#     4   9  18  28  39  57  82 115 149 177 209 247
#     4  10  18  28  42  61  84 113 148 179 210 253
#     4   9  17  27  38  56  81 110 139 171 212 251
#     4  10  18  27  39  57  83 111 143 178 212 252
#
# _framework density 15.468707999999999
#
# number of rings (size 3 to 8) (size 9 to 14) (size 15 to 20)
#    0.000    2.625    1.250    2.250    0.000    4.250 
#    0.000    0.000    0.000    0.000    0.000    0.000 
#    0.000    1.000    0.000    9.250    0.000    2.500 
#
# Total GULP energy -793227.941865 kJ/mol
# GULP energy per Si atom -12394.186592 kJ/mol
# Density = 1.543350 g / cm^3
# Si number density = 15.468708 Si / 1000 Ang^3
#
#
#
# Elastic Constant Matrix: (Units=GPa)
#
#
# Indices 1 2 3 4 5 6 
#
# 1 47.7663 21.6845 33.6896 0.0000 0.0000 0.0000
# 2 21.6845 70.6753 52.9826 0.0000 0.0000 0.0000
# 3 33.6896 52.9826 116.1299 0.0000 0.0000 0.0000
# 4 0.0000 0.0000 0.0000 30.4091 0.0000 0.0000
# 5 0.0000 0.0000 0.0000 0.0000 13.9967 0.0000
# 6 0.0000 0.0000 0.0000 0.0000 0.0000 14.3770
#
#
#
# Elastic Compliance Matrix: (Units=1/GPa)
#
#
# Indices 1 2 3 4 5 6 
#
# 1 0.026928 -0.003656 -0.006144 0.000000 0.000000 0.000000
# 2 -0.003656 0.022001 -0.008977 0.000000 0.000000 0.000000
# 3 -0.006144 -0.008977 0.014489 0.000000 0.000000 0.000000
# 4 0.000000 0.000000 0.000000 0.032885 0.000000 0.000000
# 5 0.000000 0.000000 0.000000 0.000000 0.071446 0.000000
# 6 0.000000 0.000000 0.000000 0.000000 0.000000 0.069556
#
#
# Mechanical properties :
#
#
# Convention : Reuss Voigt Hill
#
# Bulk Modulus (GPa) = 38.66369 50.14277 44.40323
# Shear Modulus (GPa) = 17.63798 20.17087 18.90443
#
# Velocity S-wave (km/s) = 3.38040 3.61498 3.49966
# Velocity P-wave (km/s) = 6.34706 7.06471 6.71548
#
# Compressibility (1/GPa) = 0.02586406
#
# Stress axis : x y z
#
# Youngs Moduli (GPa) = 37.13553 45.45337 69.01826
#
# Poissons Ratio (x) = 0.16619 0.42404
# Poissons Ratio (y) = 0.13578 0.61956
# Poissons Ratio (z) = 0.22816 0.40802
#
# Static dielectric constant tensor:
#      x y z
#    x 2.589670 0.000000 0.000000 
#    y 0.000000 3.064860 0.000000 
#    z 0.000000 0.000000 1.752800 
# 
# 
# High freq. dielectric constant tensor:
#      x y z
#    x 1.532840 0.000000 0.000000 
#    y 0.000000 1.601490 0.000000 
#    z 0.000000 0.000000 1.597300 
# 
# From -- ./inp_files/25071.got.cif
#   From: 2010.03.12/outbox.cif.g09.slc.cpg/sg59_13_cif.got.tgz:25071.got - 2010.04.16 16:29:54.
