data_PCOD8239501
_publ_section_title
;
Structure prediction by ZEFSAII (Michael W. Deem and Ramdas Pophale) SiO2 
 PCOD8239501
Probable space group: P M M N
;
_chemical_formula_sum "Si O2"
_cell_formula_units_Z 64
_cell_length_a 20.034672
_cell_length_b 9.272117
_cell_length_c 20.635874
_cell_angle_alpha 90.000000
_cell_angle_beta 90.000000
_cell_angle_gamma 90.000000
_cell_volume 3833.398842
_symmetry_space_group_name_H-M "P M M N"
_symmetry_group_IT_number 59
_space_group.IT_coordinate_system_code '2'
_symmetry_cell_setting 'orthorhombic'
loop_
_space_group_symop_operation_xyz
x,y,z
1/2-x,1/2-y,z
1/2+x,-y,-z
-x,1/2+y,-z
-x,-y,-z
1/2+x,1/2+y,-z
1/2-x,y,z
x,1/2-y,z
loop_
_atom_site_type_symbol
_atom_site_label
_atom_site_fract_x
_atom_site_fract_y
_atom_site_fract_z
Si Si1 0.826150 0.585144 0.928361
Si Si2 0.100693 0.414034 0.313056
Si Si3 0.562507 0.918679 0.029077
Si Si4 0.555369 0.083718 0.429390
Si Si5 0.942978 0.409078 0.291032
Si Si6 0.386737 0.580027 0.187844
Si Si7 0.579058 0.084174 0.567294
Si Si8 0.959485 0.583329 0.171608
O O1 0.750000 0.566348 0.950543
O O2 0.841424 0.750000 0.907377
O O3 0.839960 0.480348 0.868544
O O4 0.871083 0.540747 0.989815
O O5 0.126882 0.250000 0.311940
O O6 0.134653 0.502528 0.254609
O O7 0.121188 0.488020 0.381718
O O8 0.021430 0.423666 0.305763
O O9 0.545667 0.750000 0.026143
O O10 0.573222 0.966461 0.103803
O O11 0.500000 0.000000 0.000000
O O12 0.527044 0.250000 0.428126
O O13 0.593219 0.055609 0.360221
O O14 0.604368 0.066760 0.492149
O O15 0.497494 0.965678 0.434553
O O16 0.924624 0.250000 0.267113
O O17 0.921175 0.510921 0.232046
O O18 0.375518 0.750000 0.195071
O O19 0.462691 0.540425 0.169751
O O20 0.582842 0.250000 0.590235
O O21 0.950138 0.750000 0.183741
#
# Coordination Sequence:
#
# PCOD8239501 Si02
#       8
#     8   8   8   8   8   8   8   8
#     4  10  21  35  50  68  91 120 150 182 227 280
#     4   9  16  25  36  52  76 105 139 177 216 259
#     4  10  19  32  49  68  90 115 148 187 227 272
#     4   8  14  22  30  43  68 102 138 173 213 259
#     4   8  14  23  34  50  73 104 138 172 212 258
#     4  10  18  29  45  64  85 110 143 183 224 264
#     4   9  14  20  31  47  68  98 138 179 213 252
#     4   9  17  27  40  61  84 106 138 181 222 260
#
# _framework density 16.695367000000001
#
# number of rings (size 3 to 8) (size 9 to 14) (size 15 to 20)
#    0.000    2.875    1.250    1.875    0.000    4.750 
#    0.000    0.000    0.000    0.000    0.000    0.000 
#    0.000    0.000    0.000    1.125    0.000   21.500 
#
# Total GULP energy -793015.400938 kJ/mol
# GULP energy per Si atom -12390.865640 kJ/mol
# Density = 1.665737 g / cm^3
# Si number density = 16.695367 Si / 1000 Ang^3
#
#
#
# Elastic Constant Matrix: (Units=GPa)
#
#
# Indices 1 2 3 4 5 6 
#
# 1 34.5210 23.8779 36.4734 0.0000 0.0000 0.0000
# 2 23.8779 81.2544 65.7345 0.0000 0.0000 0.0000
# 3 36.4734 65.7345 176.4295 0.0000 0.0000 0.0000
# 4 0.0000 0.0000 0.0000 33.0102 0.0000 0.0000
# 5 0.0000 0.0000 0.0000 0.0000 9.2157 0.0000
# 6 0.0000 0.0000 0.0000 0.0000 0.0000 9.3801
#
#
#
# Elastic Compliance Matrix: (Units=1/GPa)
#
#
# Indices 1 2 3 4 5 6 
#
# 1 0.039815 -0.007217 -0.005542 0.000000 0.000000 0.000000
# 2 -0.007217 0.018925 -0.005559 0.000000 0.000000 0.000000
# 3 -0.005542 -0.005559 0.008885 0.000000 0.000000 0.000000
# 4 0.000000 0.000000 0.000000 0.030294 0.000000 0.000000
# 5 0.000000 0.000000 0.000000 0.000000 0.108511 0.000000
# 6 0.000000 0.000000 0.000000 0.000000 0.000000 0.106608
#
#
# Mechanical properties :
#
#
# Convention : Reuss Voigt Hill
#
# Bulk Modulus (GPa) = 32.26942 60.48627 46.37784
# Shear Modulus (GPa) = 13.88872 21.39581 17.64226
#
# Velocity S-wave (km/s) = 2.88738 3.58375 3.25424
# Velocity P-wave (km/s) = 5.52144 7.30974 6.47760
#
# Compressibility (1/GPa) = 0.03098909
#
# Stress axis : x y z
#
# Youngs Moduli (GPa) = 25.11598 52.83957 112.54889
#
# Poissons Ratio (x) = 0.38133 0.62377
# Poissons Ratio (y) = 0.18125 0.62569
# Poissons Ratio (z) = 0.13920 0.29375
#
# Static dielectric constant tensor:
#      x y z
#    x 2.463510 0.000000 0.000000 
#    y 0.000000 3.209020 0.000000 
#    z 0.000000 0.000000 3.762340 
# 
# 
# High freq. dielectric constant tensor:
#      x y z
#    x 1.549510 0.000000 0.000000 
#    y 0.000000 1.652030 0.000000 
#    z 0.000000 0.000000 1.670730 
# 
# From -- ./inp_files/30916.got.cif
#   From: 2010.03.12/outbox.cif.g09.slc.cpg/sg59_16_cif.got.tgz:30916.got - 2010.04.16 16:29:54.
