data_PCOD8239857
_publ_section_title
;
Structure prediction by ZEFSAII (Michael W. Deem and Ramdas Pophale) SiO2 
 PCOD8239857
Probable space group: P M M N
;
_chemical_formula_sum "Si O2"
_cell_formula_units_Z 64
_cell_length_a 8.550923
_cell_length_b 19.199172
_cell_length_c 21.394322
_cell_angle_alpha 90.000000
_cell_angle_beta 90.000000
_cell_angle_gamma 90.000000
_cell_volume 3512.319566
_symmetry_space_group_name_H-M "P M M N"
_symmetry_group_IT_number 59
_space_group.IT_coordinate_system_code '2'
_symmetry_cell_setting 'orthorhombic'
loop_
_space_group_symop_operation_xyz
x,y,z
1/2-x,1/2-y,z
1/2+x,-y,-z
-x,1/2+y,-z
-x,-y,-z
1/2+x,1/2+y,-z
1/2-x,y,z
x,1/2-y,z
loop_
_atom_site_type_symbol
_atom_site_label
_atom_site_fract_x
_atom_site_fract_y
_atom_site_fract_z
Si Si1 0.433210 0.008665 0.689768
Si Si2 0.930683 0.057339 0.806356
Si Si3 0.564673 0.675597 0.608492
Si Si4 0.430394 0.583483 0.856388
Si Si5 0.436310 0.026677 0.435034
Si Si6 0.430343 0.369456 0.261137
Si Si7 0.929602 0.669638 0.107305
Si Si8 0.567515 0.829090 0.963719
O O1 0.250000 0.990407 0.690230
O O2 0.490014 0.023350 0.618798
O O3 0.543480 0.947262 0.714463
O O4 0.471437 0.068347 0.741064
O O5 0.750000 0.053734 0.789135
O O6 0.960236 0.123973 0.849212
O O7 0.976555 0.987790 0.844579
O O8 0.750000 0.670118 0.605610
O O9 0.508195 0.750000 0.578433
O O10 0.499835 0.606618 0.573835
O O11 0.513082 0.679034 0.681576
O O12 0.250000 0.564218 0.853592
O O13 0.471587 0.640878 0.802567
O O14 0.470762 0.616128 0.923044
O O15 0.250000 0.022225 0.432987
O O16 0.500000 0.000000 0.500000
O O17 0.250000 0.356499 0.244696
O O18 0.750000 0.649735 0.119830
O O19 0.960265 0.750000 0.123335
O O20 0.972095 0.654463 0.035428
O O21 0.750000 0.839138 0.950105
O O22 0.517404 0.750000 0.947540
#
# Coordination Sequence:
#
# PCOD8239857 Si02
#       8
#     8   8   8   8   8   8   8   8
#     4  10  18  31  51  74 101 129 161 202 246 293
#     4  11  21  34  54  78 104 133 167 210 257 305
#     4   8  15  28  47  71  97 128 167 206 241 284
#     4  11  21  32  48  72 103 136 171 211 254 301
#     4  10  19  32  52  77 105 137 172 208 247 297
#     4   9  16  28  46  68  96 129 164 201 243 293
#     4   9  19  37  58  77  98 127 166 212 264 321
#     4   9  19  36  54  70  94 131 171 211 258 314
#
# _framework density 18.221575000000001
#
# number of rings (size 3 to 8) (size 9 to 14) (size 15 to 20)
#    0.000    2.375    0.000    7.125    0.000    2.000 
#    0.000    2.500    0.000   13.875    0.000    1.750 
#    0.000    0.000    0.000    0.000    0.000    0.000 
#
# Total GULP energy -793071.807877 kJ/mol
# GULP energy per Si atom -12391.746998 kJ/mol
# Density = 1.818010 g / cm^3
# Si number density = 18.221575 Si / 1000 Ang^3
#
#
#
# Elastic Constant Matrix: (Units=GPa)
#
#
# Indices 1 2 3 4 5 6 
#
# 1 75.4906 26.5503 37.4271 0.0000 0.0000 0.0000
# 2 26.5503 74.9516 54.8925 0.0000 0.0000 0.0000
# 3 37.4271 54.8925 122.2732 0.0000 0.0000 0.0000
# 4 0.0000 0.0000 0.0000 20.5057 0.0000 0.0000
# 5 0.0000 0.0000 0.0000 0.0000 31.3833 0.0000
# 6 0.0000 0.0000 0.0000 0.0000 0.0000 20.2205
#
#
#
# Elastic Compliance Matrix: (Units=1/GPa)
#
#
# Indices 1 2 3 4 5 6 
#
# 1 0.016091 -0.003118 -0.003526 0.000000 0.000000 0.000000
# 2 -0.003118 0.020481 -0.008240 0.000000 0.000000 0.000000
# 3 -0.003526 -0.008240 0.012957 0.000000 0.000000 0.000000
# 4 0.000000 0.000000 0.000000 0.048767 0.000000 0.000000
# 5 0.000000 0.000000 0.000000 0.000000 0.031864 0.000000
# 6 0.000000 0.000000 0.000000 0.000000 0.000000 0.049455
#
#
# Mechanical properties :
#
#
# Convention : Reuss Voigt Hill
#
# Bulk Modulus (GPa) = 50.60312 56.71724 53.66018
# Shear Modulus (GPa) = 23.15129 24.67828 23.91478
#
# Velocity S-wave (km/s) = 3.56833 3.68413 3.62670
# Velocity P-wave (km/s) = 6.69392 7.02076 6.85929
#
# Compressibility (1/GPa) = 0.01976163
#
# Stress axis : x y z
#
# Youngs Moduli (GPa) = 62.14555 48.82463 77.17826
#
# Poissons Ratio (x) = 0.15223 0.27211
# Poissons Ratio (y) = 0.19376 0.63598
# Poissons Ratio (z) = 0.21911 0.40234
#
# Static dielectric constant tensor:
#      x y z
#    x 3.222690 0.000000 0.000000 
#    y 0.000000 3.377960 0.000000 
#    z 0.000000 0.000000 3.643660 
# 
# 
# High freq. dielectric constant tensor:
#      x y z
#    x 1.701330 0.000000 0.000000 
#    y 0.000000 1.679510 0.000000 
#    z 0.000000 0.000000 1.703880 
# 
# From -- ./inp_files/29655.got.cif
#   From: 2010.03.12/outbox.cif.g09.slc.cpg/sg59_15_cif.got.tgz:29655.got - 2010.04.16 16:29:54.
