data_PCOD8239523
_publ_section_title
;
Structure prediction by ZEFSAII (Michael W. Deem and Ramdas Pophale) SiO2 
 PCOD8239523
Probable space group: P M M N
;
_chemical_formula_sum "Si O2"
_cell_formula_units_Z 64
_cell_length_a 8.852072
_cell_length_b 28.522461
_cell_length_c 15.822353
_cell_angle_alpha 90.000000
_cell_angle_beta 90.000000
_cell_angle_gamma 90.000000
_cell_volume 3994.873228
_symmetry_space_group_name_H-M "P M M N"
_symmetry_group_IT_number 59
_space_group.IT_coordinate_system_code '2'
_symmetry_cell_setting 'orthorhombic'
loop_
_space_group_symop_operation_xyz
x,y,z
1/2-x,1/2-y,z
1/2+x,-y,-z
-x,1/2+y,-z
-x,-y,-z
1/2+x,1/2+y,-z
1/2-x,y,z
x,1/2-y,z
loop_
_atom_site_type_symbol
_atom_site_label
_atom_site_fract_x
_atom_site_fract_y
_atom_site_fract_z
Si Si1 0.569750 0.302561 0.321644
Si Si2 0.928534 0.360510 0.841814
Si Si3 0.425716 0.850324 0.846471
Si Si4 0.569204 0.197341 0.683321
Si Si5 0.927345 0.695875 0.005566
Si Si6 0.415700 0.805723 0.497851
Si Si7 0.076794 0.552551 0.922193
Si Si8 0.924322 0.948601 0.098148
O O1 0.750000 0.302603 0.329293
O O2 0.512415 0.250000 0.301085
O O3 0.514817 0.336602 0.246757
O O4 0.502571 0.320163 0.413273
O O5 0.750000 0.357481 0.845496
O O6 0.992260 0.336593 0.756608
O O7 0.980197 0.414675 0.841011
O O8 0.991535 0.334480 0.923467
O O9 0.250000 0.837224 0.857775
O O10 0.518996 0.820879 0.914095
O O11 0.452397 0.906027 0.855595
O O12 0.750000 0.196657 0.678907
O O13 0.513059 0.250000 0.704144
O O14 0.503149 0.180279 0.591251
O O15 0.750000 0.687898 0.013294
O O16 0.971894 0.750000 0.017868
O O17 0.250000 0.829089 0.497190
O O18 0.399122 0.750000 0.498310
O O19 0.250000 0.552921 0.955075
O O20 0.041062 0.502720 0.877569
O O21 0.967949 0.560702 0.001130
O O22 0.750000 0.935950 0.109581
#
# Coordination Sequence:
#
# PCOD8239523 Si02
#       8
#     8   8   8   8   8   8   8   8
#     4   8  13  21  37  63  91 114 136 168 212 258
#     4  11  20  30  45  65  86 112 149 185 220 259
#     4  10  18  29  46  67  88 112 145 180 215 257
#     4   8  14  24  39  60  86 114 142 175 215 257
#     4  11  23  34  42  58  88 123 152 175 207 254
#     4   7  10  19  35  57  86 113 135 167 214 258
#     4   9  18  31  46  64  84 111 146 185 222 260
#     4  10  19  31  46  62  84 112 145 184 227 266
#
# _framework density 16.020534000000001
#
# number of rings (size 3 to 8) (size 9 to 14) (size 15 to 20)
#    0.000    2.750    1.250    3.375    0.000    2.500 
#    0.000    0.000    0.000    0.000    0.000    2.625 
#    0.000    8.000    0.000    0.000    0.000    0.000 
#
# Total GULP energy -793030.595169 kJ/mol
# GULP energy per Si atom -12391.103050 kJ/mol
# Density = 1.598407 g / cm^3
# Si number density = 16.020534 Si / 1000 Ang^3
#
#
#
# Elastic Constant Matrix: (Units=GPa)
#
#
# Indices 1 2 3 4 5 6 
#
# 1 32.8033 22.1164 18.8224 0.0000 0.0000 0.0000
# 2 22.1164 91.5759 51.7063 0.0000 0.0000 0.0000
# 3 18.8224 51.7063 125.4149 0.0000 0.0000 0.0000
# 4 0.0000 0.0000 0.0000 12.5684 0.0000 0.0000
# 5 0.0000 0.0000 0.0000 0.0000 2.9927 0.0000
# 6 0.0000 0.0000 0.0000 0.0000 0.0000 19.1060
#
#
#
# Elastic Compliance Matrix: (Units=1/GPa)
#
#
# Indices 1 2 3 4 5 6 
#
# 1 0.036976 -0.007555 -0.002434 0.000000 0.000000 0.000000
# 2 -0.007555 0.015777 -0.005371 0.000000 0.000000 0.000000
# 3 -0.002434 -0.005371 0.010553 0.000000 0.000000 0.000000
# 4 0.000000 0.000000 0.000000 0.079565 0.000000 0.000000
# 5 0.000000 0.000000 0.000000 0.000000 0.334151 0.000000
# 6 0.000000 0.000000 0.000000 0.000000 0.000000 0.052340
#
#
# Mechanical properties :
#
#
# Convention : Reuss Voigt Hill
#
# Bulk Modulus (GPa) = 30.68915 48.34270 39.51593
# Shear Modulus (GPa) = 8.75744 17.41002 13.08373
#
# Velocity S-wave (km/s) = 2.34057 3.30014 2.86087
# Velocity P-wave (km/s) = 5.14801 6.69045 5.96926
#
# Compressibility (1/GPa) = 0.03258480
#
# Stress axis : x y z
#
# Youngs Moduli (GPa) = 27.04492 63.38334 94.75880
#
# Poissons Ratio (x) = 0.47889 0.23068
# Poissons Ratio (y) = 0.20434 0.50892
# Poissons Ratio (z) = 0.06584 0.34041
#
# Static dielectric constant tensor:
#      x y z
#    x 2.773310 0.000000 0.000000 
#    y 0.000000 3.113100 0.000000 
#    z 0.000000 0.000000 3.373260 
# 
# 
# High freq. dielectric constant tensor:
#      x y z
#    x 1.585700 0.000000 0.000000 
#    y 0.000000 1.599490 0.000000 
#    z 0.000000 0.000000 1.610330 
# 
# From -- ./inp_files/21960.got.cif
#   From: 2010.03.12/outbox.cif.g09.slc.cpg/sg59_11_cif.got.tgz:21960.got - 2010.04.16 16:29:54.
