data_PCOD8239862
_publ_section_title
;
Structure prediction by ZEFSAII (Michael W. Deem and Ramdas Pophale) SiO2 
 PCOD8239862
Probable space group: P M M N
;
_chemical_formula_sum "Si O2"
_cell_formula_units_Z 56
_cell_length_a 18.850938
_cell_length_b 17.798281
_cell_length_c 9.479566
_cell_angle_alpha 90.000000
_cell_angle_beta 90.000000
_cell_angle_gamma 90.000000
_cell_volume 3180.529872
_symmetry_space_group_name_H-M "P M M N"
_symmetry_group_IT_number 59
_space_group.IT_coordinate_system_code '2'
_symmetry_cell_setting 'orthorhombic'
loop_
_space_group_symop_operation_xyz
x,y,z
1/2-x,1/2-y,z
1/2+x,-y,-z
-x,1/2+y,-z
-x,-y,-z
1/2+x,1/2+y,-z
1/2-x,y,z
x,1/2-y,z
loop_
_atom_site_type_symbol
_atom_site_label
_atom_site_fract_x
_atom_site_fract_y
_atom_site_fract_z
Si Si1 0.327284 0.335144 0.983578
Si Si2 0.575716 0.941225 0.874971
Si Si3 0.831884 0.504195 0.385543
Si Si4 0.333889 0.168105 0.666498
Si Si5 0.085365 0.558437 0.878784
Si Si6 0.669319 0.457869 0.692726
Si Si7 0.831984 0.335864 0.918187
O O1 0.250000 0.376188 0.992701
O O2 0.315904 0.250000 0.024450
O O3 0.359642 0.343672 0.827060
O O4 0.381472 0.365346 0.099495
O O5 0.495091 0.920584 0.838752
O O6 0.611483 0.983128 0.744805
O O7 0.584989 0.987977 0.018012
O O8 0.750000 0.506732 0.338196
O O9 0.857885 0.591432 0.414608
O O10 0.874921 0.463190 0.263679
O O11 0.841839 0.453245 0.524739
O O12 0.250000 0.175747 0.663329
O O13 0.364328 0.250000 0.609605
O O14 0.122629 0.628779 0.954833
O O15 0.750000 0.484745 0.726328
O O16 0.654824 0.378049 0.768832
O O17 0.750000 0.341575 0.962670
O O18 0.855968 0.250000 0.896543
#
# Coordination Sequence:
#
# PCOD8239862 Si02
#       7
#     8   8   8   8   8   8   8
#     4   9  16  27  47  72  95 126 166 206 248 291
#     4  10  19  32  47  72 103 133 165 203 252 307
#     4  10  18  31  51  75 102 133 174 220 253 297
#     4   8  14  25  44  70  97 127 162 201 245 287
#     4  10  20  31  50  75  98 130 170 207 258 305
#     4   9  19  33  52  75 100 135 173 207 260 314
#     4   9  18  35  56  75  97 127 168 220 269 311
#
# _framework density 17.607129
#
# number of rings (size 3 to 8) (size 9 to 14) (size 15 to 20)
#    0.000    2.714    1.429    1.714    0.000    2.286 
#    0.000    1.429    0.000    5.143    0.000    0.000 
#    0.000    0.000    0.000    0.000    0.000    0.000 
#
# Total GULP energy -693904.934599 kJ/mol
# GULP energy per Si atom -12391.159546 kJ/mol
# Density = 1.756705 g / cm^3
# Si number density = 17.607129 Si / 1000 Ang^3
#
#
#
# Elastic Constant Matrix: (Units=GPa)
#
#
# Indices 1 2 3 4 5 6 
#
# 1 90.2271 42.1730 48.3867 0.0000 0.0000 0.0000
# 2 42.1730 105.9537 49.2874 0.0000 0.0000 0.0000
# 3 48.3867 49.2874 89.3377 0.0000 0.0000 0.0000
# 4 0.0000 0.0000 0.0000 19.2447 0.0000 0.0000
# 5 0.0000 0.0000 0.0000 0.0000 18.2161 0.0000
# 6 0.0000 0.0000 0.0000 0.0000 0.0000 10.9021
#
#
#
# Elastic Compliance Matrix: (Units=1/GPa)
#
#
# Indices 1 2 3 4 5 6 
#
# 1 0.016399 -0.003223 -0.007104 0.000000 0.000000 0.000000
# 2 -0.003223 0.013330 -0.005609 0.000000 0.000000 0.000000
# 3 -0.007104 -0.005609 0.018135 0.000000 0.000000 0.000000
# 4 0.000000 0.000000 0.000000 0.051962 0.000000 0.000000
# 5 0.000000 0.000000 0.000000 0.000000 0.054896 0.000000
# 6 0.000000 0.000000 0.000000 0.000000 0.000000 0.091725
#
#
# Mechanical properties :
#
#
# Convention : Reuss Voigt Hill
#
# Bulk Modulus (GPa) = 62.52472 62.80140 62.66306
# Shear Modulus (GPa) = 17.62732 19.38402 18.50567
#
# Velocity S-wave (km/s) = 3.16752 3.32161 3.24548
# Velocity P-wave (km/s) = 6.99755 7.10327 7.05061
#
# Compressibility (1/GPa) = 0.01599367
#
# Stress axis : x y z
#
# Youngs Moduli (GPa) = 60.97838 75.01978 55.14071
#
# Poissons Ratio (x) = 0.24177 0.39173
# Poissons Ratio (y) = 0.19652 0.30926
# Poissons Ratio (z) = 0.43320 0.42075
#
# Static dielectric constant tensor:
#      x y z
#    x 3.278510 0.000000 0.000000 
#    y 0.000000 3.368310 0.000000 
#    z 0.000000 0.000000 3.044090 
# 
# 
# High freq. dielectric constant tensor:
#      x y z
#    x 1.664930 0.000000 0.000000 
#    y 0.000000 1.675020 0.000000 
#    z 0.000000 0.000000 1.658600 
# 
# From -- ./inp_files/11530.got.cif
#   From: 2010.03.12/outbox.cif.g09.slc.cpg/sg59_6_cif.got.tgz:11530.got - 2010.04.16 16:29:54.
