data_PCOD8239653
_publ_section_title
;
Structure prediction by ZEFSAII (Michael W. Deem and Ramdas Pophale) SiO2 
 PCOD8239653
Probable space group: P M M N
;
_chemical_formula_sum "Si O2"
_cell_formula_units_Z 64
_cell_length_a 26.058145
_cell_length_b 16.474270
_cell_length_c 10.071950
_cell_angle_alpha 90.000000
_cell_angle_beta 90.000000
_cell_angle_gamma 90.000000
_cell_volume 4323.776502
_symmetry_space_group_name_H-M "P M M N"
_symmetry_group_IT_number 59
_space_group.IT_coordinate_system_code '2'
_symmetry_cell_setting 'orthorhombic'
loop_
_space_group_symop_operation_xyz
x,y,z
1/2-x,1/2-y,z
1/2+x,-y,-z
-x,1/2+y,-z
-x,-y,-z
1/2+x,1/2+y,-z
1/2-x,y,z
x,1/2-y,z
loop_
_atom_site_type_symbol
_atom_site_label
_atom_site_fract_x
_atom_site_fract_y
_atom_site_fract_z
Si Si1 0.523702 0.842843 0.966869
Si Si2 0.032528 0.913557 0.200395
Si Si3 0.809996 0.436256 0.894086
Si Si4 0.128925 0.843430 0.323825
Si Si5 0.306056 0.845345 0.843322
Si Si6 0.885971 0.155594 0.376864
Si Si7 0.543410 0.451808 0.225332
Si Si8 0.099594 0.023534 0.010363
O O1 0.530634 0.750000 0.925253
O O2 0.500242 0.849313 0.114844
O O3 0.579940 0.884774 0.967588
O O4 0.486582 0.886432 0.863093
O O5 0.069132 0.865409 0.301008
O O6 0.994752 0.976796 0.276065
O O7 0.067019 0.963446 0.100033
O O8 0.750000 0.456986 0.877382
O O9 0.831458 0.399632 0.756731
O O10 0.822441 0.371472 0.009155
O O11 0.840978 0.517071 0.941581
O O12 0.138820 0.750000 0.284860
O O13 0.138951 0.858377 0.479335
O O14 0.250000 0.882219 0.809744
O O15 0.303747 0.750000 0.844144
O O16 0.345043 0.874558 0.731581
O O17 0.901707 0.250000 0.358160
O O18 0.934753 0.096920 0.352499
O O19 0.589363 0.494050 0.140634
#
# Coordination Sequence:
#
# PCOD8239653 Si02
#       8
#     8   8   8   8   8   8   8   8
#     4   9  15  24  43  65  85 110 136 169 211 249
#     4   8  16  27  41  59  83 113 143 171 199 241
#     4  10  18  30  47  61  77 108 142 174 207 245
#     4  10  20  30  39  59  88 113 141 173 208 246
#     4   9  17  28  42  59  76 102 142 176 205 245
#     4  10  19  28  40  59  86 115 139 174 215 242
#     4   9  15  27  42  60  84 110 146 173 200 244
#     4   8  15  27  41  63  85 103 136 179 206 241
#
# _framework density 14.801875000000001
#
# number of rings (size 3 to 8) (size 9 to 14) (size 15 to 20)
#    0.000    2.875    1.250    2.625    0.000    1.750 
#    0.000    1.250    0.000    0.375    0.000    0.000 
#    0.000    0.000    0.000    0.000    2.000    0.000 
#
# Total GULP energy -793061.082888 kJ/mol
# GULP energy per Si atom -12391.579420 kJ/mol
# Density = 1.476818 g / cm^3
# Si number density = 14.801875 Si / 1000 Ang^3
#
#
#
# Elastic Constant Matrix: (Units=GPa)
#
#
# Indices 1 2 3 4 5 6 
#
# 1 87.2480 28.6702 27.5038 0.0000 0.0000 0.0000
# 2 28.6702 54.9677 11.5178 0.0000 0.0000 0.0000
# 3 27.5038 11.5178 56.3477 0.0000 0.0000 0.0000
# 4 0.0000 0.0000 0.0000 16.9156 0.0000 0.0000
# 5 0.0000 0.0000 0.0000 0.0000 15.0455 0.0000
# 6 0.0000 0.0000 0.0000 0.0000 0.0000 18.8397
#
#
#
# Elastic Compliance Matrix: (Units=1/GPa)
#
#
# Indices 1 2 3 4 5 6 
#
# 1 0.015692 -0.006874 -0.006254 0.000000 0.000000 0.000000
# 2 -0.006874 0.022018 -0.001145 0.000000 0.000000 0.000000
# 3 -0.006254 -0.001145 0.021034 0.000000 0.000000 0.000000
# 4 0.000000 0.000000 0.000000 0.059117 0.000000 0.000000
# 5 0.000000 0.000000 0.000000 0.000000 0.066465 0.000000
# 6 0.000000 0.000000 0.000000 0.000000 0.000000 0.053079
#
#
# Mechanical properties :
#
#
# Convention : Reuss Voigt Hill
#
# Bulk Modulus (GPa) = 33.11662 37.10522 35.11092
# Shear Modulus (GPa) = 18.11475 18.88494 18.49984
#
# Velocity S-wave (km/s) = 3.50210 3.57578 3.53913
# Velocity P-wave (km/s) = 6.22694 6.49389 6.36181
#
# Compressibility (1/GPa) = 0.03019632
#
# Stress axis : x y z
#
# Youngs Moduli (GPa) = 63.72647 45.41758 47.54244
#
# Poissons Ratio (x) = 0.31221 0.29735
# Poissons Ratio (y) = 0.43807 0.05445
# Poissons Ratio (z) = 0.39857 0.05201
#
# Static dielectric constant tensor:
#      x y z
#    x 3.151760 0.000000 0.000000 
#    y 0.000000 2.764740 0.000000 
#    z 0.000000 0.000000 2.740060 
# 
# 
# High freq. dielectric constant tensor:
#      x y z
#    x 1.558590 0.000000 0.000000 
#    y 0.000000 1.541230 0.000000 
#    z 0.000000 0.000000 1.553390 
# 
# From -- ./inp_files/12714.got.cif
#   From: 2010.03.12/outbox.cif.g09.slc.cpg/sg59_7_cif.got.tgz:12714.got - 2010.04.16 16:29:54.
