data_PCOD8239086
_publ_section_title
;
Structure prediction by ZEFSAII (Michael W. Deem and Ramdas Pophale) SiO2 
 PCOD8239086
Probable space group: P M M N
;
_chemical_formula_sum "Si O2"
_cell_formula_units_Z 48
_cell_length_a 20.990955
_cell_length_b 9.364010
_cell_length_c 14.879784
_cell_angle_alpha 90.000000
_cell_angle_beta 90.000000
_cell_angle_gamma 90.000000
_cell_volume 2924.763090
_symmetry_space_group_name_H-M "P M M N"
_symmetry_group_IT_number 59
_space_group.IT_coordinate_system_code '2'
_symmetry_cell_setting 'orthorhombic'
loop_
_space_group_symop_operation_xyz
x,y,z
1/2-x,1/2-y,z
1/2+x,-y,-z
-x,1/2+y,-z
-x,-y,-z
1/2+x,1/2+y,-z
1/2-x,y,z
x,1/2-y,z
loop_
_atom_site_type_symbol
_atom_site_label
_atom_site_fract_x
_atom_site_fract_y
_atom_site_fract_z
Si Si1 0.819631 0.915774 0.876164
Si Si2 0.182420 0.584391 0.493622
Si Si3 0.646554 0.414890 0.705955
Si Si4 0.025439 0.411572 0.271838
Si Si5 0.550495 0.415928 0.440621
Si Si6 0.542638 0.586168 0.931279
O O1 0.750000 0.939725 0.924645
O O2 0.829255 0.750000 0.852168
O O3 0.882291 0.964064 0.933320
O O4 0.816459 0.001612 0.783566
O O5 0.250000 0.518058 0.528683
O O6 0.181411 0.750000 0.518211
O O7 0.183071 0.563219 0.386713
O O8 0.120473 0.515644 0.541173
O O9 0.642151 0.250000 0.733954
O O10 0.576181 0.476328 0.691573
O O11 0.051999 0.250000 0.282619
O O12 0.963043 0.432352 0.333875
O O13 0.011726 0.440497 0.166893
O O14 0.500000 0.500000 0.500000
O O15 0.547941 0.250000 0.470592
O O16 0.538212 0.750000 0.960231
O O17 0.500000 0.500000 0.000000
#
# Coordination Sequence:
#
# PCOD8239086 Si02
#       6
#     8   8   8   8   8   8
#     4   9  18  32  48  67  95 127 155 185 230 290
#     4   9  17  27  40  63  94 124 154 190 230 269
#     4  10  17  26  43  68  96 123 153 189 228 274
#     4   9  18  31  47  67  93 123 157 194 234 281
#     4  10  18  30  48  67  91 124 160 195 227 272
#     4   9  18  32  49  70  93 120 154 194 239 283
#
# _framework density 16.411584999999999
#
# number of rings (size 3 to 8) (size 9 to 14) (size 15 to 20)
#    0.000    2.667    1.667    2.000    0.000    3.667 
#    0.000    0.000    0.000    2.500    0.000    2.333 
#    0.000    0.000    0.000    0.000    0.000    0.000 
#
# Total GULP energy -594634.516822 kJ/mol
# GULP energy per Si atom -12388.219100 kJ/mol
# Density = 1.637423 g / cm^3
# Si number density = 16.411585 Si / 1000 Ang^3
#
#
#
# Elastic Constant Matrix: (Units=GPa)
#
#
# Indices 1 2 3 4 5 6 
#
# 1 167.7455 37.3109 65.7794 0.0000 0.0000 0.0000
# 2 37.3109 44.4589 26.5280 0.0000 0.0000 0.0000
# 3 65.7794 26.5280 67.4434 0.0000 0.0000 0.0000
# 4 0.0000 0.0000 0.0000 21.6866 0.0000 0.0000
# 5 0.0000 0.0000 0.0000 0.0000 17.3932 0.0000
# 6 0.0000 0.0000 0.0000 0.0000 0.0000 19.1323
#
#
#
# Elastic Compliance Matrix: (Units=1/GPa)
#
#
# Indices 1 2 3 4 5 6 
#
# 1 0.010026 -0.003370 -0.008453 0.000000 0.000000 0.000000
# 2 -0.003370 0.030524 -0.008719 0.000000 0.000000 0.000000
# 3 -0.008453 -0.008719 0.026501 0.000000 0.000000 0.000000
# 4 0.000000 0.000000 0.000000 0.046111 0.000000 0.000000
# 5 0.000000 0.000000 0.000000 0.000000 0.057494 0.000000
# 6 0.000000 0.000000 0.000000 0.000000 0.000000 0.052268
#
#
# Mechanical properties :
#
#
# Convention : Reuss Voigt Hill
#
# Bulk Modulus (GPa) = 38.51143 59.87605 49.19374
# Shear Modulus (GPa) = 18.33772 21.64438 19.99105
#
# Velocity S-wave (km/s) = 3.34633 3.63553 3.49392
# Velocity P-wave (km/s) = 6.20060 7.36112 6.80564
#
# Compressibility (1/GPa) = 0.02596632
#
# Stress axis : x y z
#
# Youngs Moduli (GPa) = 99.74440 32.76158 37.73459
#
# Poissons Ratio (x) = 0.11041 0.31896
# Poissons Ratio (y) = 0.33615 0.32901
# Poissons Ratio (z) = 0.84311 0.28565
#
# Static dielectric constant tensor:
#      x y z
#    x 3.414110 0.000000 0.000000 
#    y 0.000000 3.022850 0.000000 
#    z 0.000000 0.000000 2.892780 
# 
# 
# High freq. dielectric constant tensor:
#      x y z
#    x 1.638800 0.000000 0.000000 
#    y 0.000000 1.619270 0.000000 
#    z 0.000000 0.000000 1.597840 
# 
# From -- ./inp_files/20689.got.cif
#   From: 2010.03.12/outbox.cif.g09.slc.cpg/sg59_11_cif.got.tgz:20689.got - 2010.04.16 16:29:54.
