data_PCOD8239247
_publ_section_title
;
Structure prediction by ZEFSAII (Michael W. Deem and Ramdas Pophale) SiO2 
 PCOD8239247
Probable space group: P M M N
;
_chemical_formula_sum "Si O2"
_cell_formula_units_Z 64
_cell_length_a 9.166421
_cell_length_b 25.054588
_cell_length_c 18.485847
_cell_angle_alpha 90.000000
_cell_angle_beta 90.000000
_cell_angle_gamma 90.000000
_cell_volume 4245.476289
_symmetry_space_group_name_H-M "P M M N"
_symmetry_group_IT_number 59
_space_group.IT_coordinate_system_code '2'
_symmetry_cell_setting 'orthorhombic'
loop_
_space_group_symop_operation_xyz
x,y,z
1/2-x,1/2-y,z
1/2+x,-y,-z
-x,1/2+y,-z
-x,-y,-z
1/2+x,1/2+y,-z
1/2-x,y,z
x,1/2-y,z
loop_
_atom_site_type_symbol
_atom_site_label
_atom_site_fract_x
_atom_site_fract_y
_atom_site_fract_z
Si Si1 0.919104 0.511200 0.395635
Si Si2 0.421466 0.399187 0.182323
Si Si3 0.578067 0.811244 0.552273
Si Si4 0.912350 0.927066 0.969586
Si Si5 0.921046 0.085382 0.495502
Si Si6 0.077077 0.192299 0.284508
Si Si7 0.085200 0.956001 0.099041
Si Si8 0.920853 0.504734 0.228089
O O1 0.750000 0.523741 0.411589
O O2 0.955978 0.451311 0.424773
O O3 0.956075 0.517113 0.311257
O O4 0.017770 0.554975 0.434652
O O5 0.250000 0.411384 0.196239
O O6 0.447801 0.387019 0.096863
O O7 0.483087 0.349154 0.226434
O O8 0.516468 0.447288 0.210965
O O9 0.750000 0.819738 0.542146
O O10 0.536840 0.750000 0.529631
O O11 0.494180 0.856051 0.506424
O O12 0.527922 0.822058 0.634529
O O13 0.750000 0.918604 0.999890
O O14 0.926772 0.984902 0.932851
O O15 0.018962 0.917190 0.037295
O O16 0.750000 0.094058 0.505339
O O17 0.250000 0.193839 0.282285
O O18 0.013299 0.250000 0.262977
O O19 0.250000 0.938321 0.114340
O O20 0.996979 0.952097 0.174626
O O21 0.750000 0.505437 0.211987
#
# Coordination Sequence:
#
# PCOD8239247 Si02
#       8
#     8   8   8   8   8   8   8   8
#     4   9  19  32  43  59  84 113 141 169 209 257
#     4   9  16  25  39  58  79 105 137 170 199 233
#     4   9  17  29  45  63  84 112 142 172 209 250
#     4   8  14  23  34  51  75 102 130 158 192 229
#     4  10  19  30  45  63  83 109 141 176 209 245
#     4   8  14  25  41  60  80 104 136 170 201 233
#     4   9  16  25  37  53  74 100 130 162 192 226
#     4  10  18  27  40  57  79 106 134 165 201 242
#
# _framework density 15.074868
#
# number of rings (size 3 to 8) (size 9 to 14) (size 15 to 20)
#    0.000    3.000    0.000    3.375    0.000    4.750 
#    0.000    0.000    0.000    1.125    0.000    0.000 
#    0.000    1.000    0.000    7.750    0.000    2.250 
#
# Total GULP energy -793105.417794 kJ/mol
# GULP energy per Si atom -12392.272153 kJ/mol
# Density = 1.504056 g / cm^3
# Si number density = 15.074868 Si / 1000 Ang^3
#
#
#
# Elastic Constant Matrix: (Units=GPa)
#
#
# Indices 1 2 3 4 5 6 
#
# 1 80.8006 38.0088 54.2551 0.0000 0.0000 0.0000
# 2 38.0088 71.7140 40.8184 0.0000 0.0000 0.0000
# 3 54.2551 40.8184 96.6029 0.0000 0.0000 0.0000
# 4 0.0000 0.0000 0.0000 21.1147 0.0000 0.0000
# 5 0.0000 0.0000 0.0000 0.0000 23.2813 0.0000
# 6 0.0000 0.0000 0.0000 0.0000 0.0000 16.6431
#
#
#
# Elastic Compliance Matrix: (Units=1/GPa)
#
#
# Indices 1 2 3 4 5 6 
#
# 1 0.021668 -0.006001 -0.009634 0.000000 0.000000 0.000000
# 2 -0.006001 0.020022 -0.005090 0.000000 0.000000 0.000000
# 3 -0.009634 -0.005090 0.017913 0.000000 0.000000 0.000000
# 4 0.000000 0.000000 0.000000 0.047360 0.000000 0.000000
# 5 0.000000 0.000000 0.000000 0.000000 0.042953 0.000000
# 6 0.000000 0.000000 0.000000 0.000000 0.000000 0.060085
#
#
# Mechanical properties :
#
#
# Convention : Reuss Voigt Hill
#
# Bulk Modulus (GPa) = 55.08448 57.25356 56.16902
# Shear Modulus (GPa) = 19.41750 19.94351 19.68051
#
# Velocity S-wave (km/s) = 3.59286 3.64120 3.61711
# Velocity P-wave (km/s) = 7.33700 7.46591 7.40173
#
# Compressibility (1/GPa) = 0.01815393
#
# Stress axis : x y z
#
# Youngs Moduli (GPa) = 46.15206 49.94596 55.82592
#
# Poissons Ratio (x) = 0.29970 0.53781
# Poissons Ratio (y) = 0.27694 0.28414
# Poissons Ratio (z) = 0.44461 0.25421
#
# Static dielectric constant tensor:
#      x y z
#    x 2.874170 0.000000 0.000000 
#    y 0.000000 2.867760 0.000000 
#    z 0.000000 0.000000 3.071860 
# 
# 
# High freq. dielectric constant tensor:
#      x y z
#    x 1.575870 0.000000 0.000000 
#    y 0.000000 1.534790 0.000000 
#    z 0.000000 0.000000 1.574370 
# 
# From -- ./inp_files/26489.got.cif
#   From: 2010.03.12/outbox.cif.g09.slc.cpg/sg59_14_cif.got.tgz:26489.got - 2010.04.16 16:29:54.
