data_PCOD8239668
_publ_section_title
;
Structure prediction by ZEFSAII (Michael W. Deem and Ramdas Pophale) SiO2 
 PCOD8239668
Probable space group: P M M N
;
_chemical_formula_sum "Si O2"
_cell_formula_units_Z 64
_cell_length_a 13.317495
_cell_length_b 22.265966
_cell_length_c 12.931235
_cell_angle_alpha 90.000000
_cell_angle_beta 90.000000
_cell_angle_gamma 90.000000
_cell_volume 3834.458910
_symmetry_space_group_name_H-M "P M M N"
_symmetry_group_IT_number 59
_space_group.IT_coordinate_system_code '2'
_symmetry_cell_setting 'orthorhombic'
loop_
_space_group_symop_operation_xyz
x,y,z
1/2-x,1/2-y,z
1/2+x,-y,-z
-x,1/2+y,-z
-x,-y,-z
1/2+x,1/2+y,-z
1/2-x,y,z
x,1/2-y,z
loop_
_atom_site_type_symbol
_atom_site_label
_atom_site_fract_x
_atom_site_fract_y
_atom_site_fract_z
Si Si1 0.030552 0.428622 0.375636
Si Si2 0.365199 0.184858 0.892414
Si Si3 0.043226 0.182366 0.679513
Si Si4 0.639312 0.467822 0.510879
Si Si5 0.638442 0.101670 0.722106
Si Si6 0.040381 0.495591 0.162031
Si Si7 0.868462 0.679647 0.535221
Si Si8 0.369243 0.443081 0.960272
O O1 0.095849 0.468107 0.455201
O O2 0.030295 0.450565 0.257949
O O3 0.074185 0.360622 0.378732
O O4 0.917614 0.434271 0.417747
O O5 0.250000 0.189613 0.921608
O O6 0.416060 0.250000 0.923535
O O7 0.374746 0.175114 0.769387
O O8 0.408458 0.126131 0.950254
O O9 0.017180 0.250000 0.653315
O O10 0.090633 0.154849 0.575236
O O11 0.939428 0.155537 0.720397
O O12 0.750000 0.479503 0.467935
O O13 0.639421 0.425122 0.608735
O O14 0.750000 0.124489 0.752534
O O15 0.603553 0.053656 0.806506
O O16 0.930316 0.514972 0.120457
O O17 0.105860 0.462134 0.076130
O O18 0.750000 0.668473 0.541821
O O19 0.892760 0.750000 0.554099
O O20 0.250000 0.449130 0.936946
#
# Coordination Sequence:
#
# PCOD8239668 Si02
#       8
#     8   8   8   8   8   8   8   8
#     4  10  19  33  50  72 103 133 169 209 249 296
#     4   9  17  30  51  77 102 128 161 205 254 301
#     4  10  18  30  47  72 103 131 165 206 248 295
#     4   9  18  30  48  73 101 132 164 201 245 295
#     4  10  18  31  48  70 101 133 163 200 248 299
#     4  10  21  35  51  74 102 131 166 210 263 303
#     4  10  20  33  50  73 103 138 172 207 252 306
#     4  10  20  35  54  75 100 131 169 210 259 313
#
# _framework density 16.690752
#
# number of rings (size 3 to 8) (size 9 to 14) (size 15 to 20)
#    0.000    2.250    2.500    1.125    0.000    3.750 
#    0.000    0.625    0.000    1.875    0.000    0.000 
#    0.000    1.250    0.000    0.000    0.000    0.000 
#
# Total GULP energy -793175.505525 kJ/mol
# GULP energy per Si atom -12393.367274 kJ/mol
# Density = 1.665276 g / cm^3
# Si number density = 16.690752 Si / 1000 Ang^3
#
#
#
# Elastic Constant Matrix: (Units=GPa)
#
#
# Indices 1 2 3 4 5 6 
#
# 1 90.8984 38.7782 38.5304 0.0000 0.0000 0.0000
# 2 38.7782 84.8781 42.3052 0.0000 0.0000 0.0000
# 3 38.5304 42.3052 80.5377 0.0000 0.0000 0.0000
# 4 0.0000 0.0000 0.0000 20.2222 0.0000 0.0000
# 5 0.0000 0.0000 0.0000 0.0000 19.0258 0.0000
# 6 0.0000 0.0000 0.0000 0.0000 0.0000 23.7709
#
#
#
# Elastic Compliance Matrix: (Units=1/GPa)
#
#
# Indices 1 2 3 4 5 6 
#
# 1 0.014930 -0.004418 -0.004822 0.000000 0.000000 0.000000
# 2 -0.004418 0.017267 -0.006957 0.000000 0.000000 0.000000
# 3 -0.004822 -0.006957 0.018378 0.000000 0.000000 0.000000
# 4 0.000000 0.000000 0.000000 0.049450 0.000000 0.000000
# 5 0.000000 0.000000 0.000000 0.000000 0.052560 0.000000
# 6 0.000000 0.000000 0.000000 0.000000 0.000000 0.042068
#
#
# Mechanical properties :
#
#
# Convention : Reuss Voigt Hill
#
# Bulk Modulus (GPa) = 54.99967 55.06019 55.02993
# Shear Modulus (GPa) = 21.44930 21.71715 21.58323
#
# Velocity S-wave (km/s) = 3.58872 3.61106 3.59991
# Velocity P-wave (km/s) = 7.08489 7.10256 7.09373
#
# Compressibility (1/GPa) = 0.01818193
#
# Stress axis : x y z
#
# Youngs Moduli (GPa) = 66.97961 57.91297 54.41318
#
# Poissons Ratio (x) = 0.25583 0.26239
# Poissons Ratio (y) = 0.29588 0.37854
# Poissons Ratio (z) = 0.32299 0.40289
#
# Static dielectric constant tensor:
#      x y z
#    x 3.266930 0.000000 0.000000 
#    y 0.000000 3.275020 0.000000 
#    z 0.000000 0.000000 2.983280 
# 
# 
# High freq. dielectric constant tensor:
#      x y z
#    x 1.641460 0.000000 0.000000 
#    y 0.000000 1.642540 0.000000 
#    z 0.000000 0.000000 1.624880 
# 
# From -- ./inp_files/16266.got.cif
#   From: 2010.03.12/outbox.cif.g09.slc.cpg/sg59_9_cif.got.tgz:16266.got - 2010.04.16 16:29:54.
