data_PCOD8239336
_publ_section_title
;
Structure prediction by ZEFSAII (Michael W. Deem and Ramdas Pophale) SiO2 
 PCOD8239336
Probable space group: P M M N
;
_chemical_formula_sum "Si O2"
_cell_formula_units_Z 64
_cell_length_a 26.353817
_cell_length_b 8.626314
_cell_length_c 18.711725
_cell_angle_alpha 90.000000
_cell_angle_beta 90.000000
_cell_angle_gamma 90.000000
_cell_volume 4253.854338
_symmetry_space_group_name_H-M "P M M N"
_symmetry_group_IT_number 59
_space_group.IT_coordinate_system_code '2'
_symmetry_cell_setting 'orthorhombic'
loop_
_space_group_symop_operation_xyz
x,y,z
1/2-x,1/2-y,z
1/2+x,-y,-z
-x,1/2+y,-z
-x,-y,-z
1/2+x,1/2+y,-z
1/2-x,y,z
x,1/2-y,z
loop_
_atom_site_type_symbol
_atom_site_label
_atom_site_fract_x
_atom_site_fract_y
_atom_site_fract_z
Si Si1 0.006249 0.566839 0.174908
Si Si2 0.951549 0.433976 0.459542
Si Si3 0.308372 0.569693 0.335609
Si Si4 0.005095 0.934310 0.334913
Si Si5 0.953090 0.932056 0.041054
Si Si6 0.600657 0.931958 0.907507
Si Si7 0.399126 0.067818 0.416341
Si Si8 0.307119 0.069860 0.185014
O O1 0.008120 0.750000 0.180731
O O2 0.999252 0.499815 0.254432
O O3 0.958383 0.511552 0.123966
O O4 0.059378 0.513905 0.141938
O O5 0.949850 0.250000 0.461527
O O6 0.957099 0.494225 0.378270
O O7 0.903201 0.503167 0.502086
O O8 0.000000 0.500000 0.500000
O O9 0.250000 0.525775 0.351508
O O10 0.318957 0.750000 0.348055
O O11 0.342972 0.471084 0.389036
O O12 0.322285 0.528718 0.254226
O O13 0.002524 0.750000 0.339350
O O14 0.059221 0.988203 0.365527
O O15 0.958759 0.750000 0.041928
O O16 0.904083 0.979929 0.992521
O O17 0.000000 0.000000 0.000000
O O18 0.591409 0.750000 0.899010
O O19 0.656456 0.979376 0.880348
O O20 0.408684 0.250000 0.415779
O O21 0.250000 0.032142 0.160081
O O22 0.313447 0.250000 0.205046
#
# Coordination Sequence:
#
# PCOD8239336 Si02
#       8
#     8   8   8   8   8   8   8   8
#     4   9  17  26  38  55  77 103 130 162 195 232
#     4  10  18  29  43  59  80 105 133 165 199 236
#     4  10  20  32  44  59  80 106 136 169 201 232
#     4  10  18  28  41  59  82 107 136 167 200 239
#     4   8  14  25  37  52  73  98 128 159 193 230
#     4   9  16  25  39  55  74 102 133 163 194 231
#     4  11  20  30  44  60  80 107 136 164 198 238
#     4   9  17  28  40  56  78 103 132 165 198 230
#
# _framework density 15.045178
#
# number of rings (size 3 to 8) (size 9 to 14) (size 15 to 20)
#    0.000    2.500    0.000    5.250    0.000    4.250 
#    0.000    0.000    0.000    0.000    0.000    0.000 
#    0.000    1.000    0.000    7.000    0.000    1.375 
#
# Total GULP energy -792887.932413 kJ/mol
# GULP energy per Si atom -12388.873944 kJ/mol
# Density = 1.501093 g / cm^3
# Si number density = 15.045178 Si / 1000 Ang^3
#
#
#
# Elastic Constant Matrix: (Units=GPa)
#
#
# Indices 1 2 3 4 5 6 
#
# 1 67.5651 16.0870 54.6432 0.0000 0.0000 0.0000
# 2 16.0870 49.5365 24.9454 0.0000 0.0000 0.0000
# 3 54.6432 24.9454 123.7186 0.0000 0.0000 0.0000
# 4 0.0000 0.0000 0.0000 17.1322 0.0000 0.0000
# 5 0.0000 0.0000 0.0000 0.0000 28.3520 0.0000
# 6 0.0000 0.0000 0.0000 0.0000 0.0000 17.7397
#
#
#
# Elastic Compliance Matrix: (Units=1/GPa)
#
#
# Indices 1 2 3 4 5 6 
#
# 1 0.023335 -0.002658 -0.009771 0.000000 0.000000 0.000000
# 2 -0.002658 0.022771 -0.003417 0.000000 0.000000 0.000000
# 3 -0.009771 -0.003417 0.013087 0.000000 0.000000 0.000000
# 4 0.000000 0.000000 0.000000 0.058370 0.000000 0.000000
# 5 0.000000 0.000000 0.000000 0.000000 0.035271 0.000000
# 6 0.000000 0.000000 0.000000 0.000000 0.000000 0.056371
#
#
# Mechanical properties :
#
#
# Convention : Reuss Voigt Hill
#
# Bulk Modulus (GPa) = 36.36109 48.01905 42.19007
# Shear Modulus (GPa) = 19.99483 22.32109 21.15796
#
# Velocity S-wave (km/s) = 3.64948 3.85594 3.75413
# Velocity P-wave (km/s) = 6.47910 7.19793 6.84795
#
# Compressibility (1/GPa) = 0.02750192
#
# Stress axis : x y z
#
# Youngs Moduli (GPa) = 42.85322 43.91506 76.40932
#
# Poissons Ratio (x) = 0.11672 0.74658
# Poissons Ratio (y) = 0.11390 0.26113
# Poissons Ratio (z) = 0.41871 0.15008
#
# Static dielectric constant tensor:
#      x y z
#    x 2.880130 0.000000 0.000000 
#    y 0.000000 3.019300 0.000000 
#    z 0.000000 0.000000 3.542230 
# 
# 
# High freq. dielectric constant tensor:
#      x y z
#    x 1.538620 0.000000 0.000000 
#    y 0.000000 1.585490 0.000000 
#    z 0.000000 0.000000 1.573630 
# 
# From -- ./inp_files/31051.got.cif
#   From: 2010.03.12/outbox.cif.g09.slc.cpg/sg59_16_cif.got.tgz:31051.got - 2010.04.16 16:29:54.
