data_PCOD8239068
_publ_section_title
;
Structure prediction by ZEFSAII (Michael W. Deem and Ramdas Pophale) SiO2 
 PCOD8239068
Probable space group: P M M N
;
_chemical_formula_sum "Si O2"
_cell_formula_units_Z 64
_cell_length_a 9.027477
_cell_length_b 28.693993
_cell_length_c 15.914967
_cell_angle_alpha 90.000000
_cell_angle_beta 90.000000
_cell_angle_gamma 90.000000
_cell_volume 4122.523321
_symmetry_space_group_name_H-M "P M M N"
_symmetry_group_IT_number 59
_space_group.IT_coordinate_system_code '2'
_symmetry_cell_setting 'orthorhombic'
loop_
_space_group_symop_operation_xyz
x,y,z
1/2-x,1/2-y,z
1/2+x,-y,-z
-x,1/2+y,-z
-x,-y,-z
1/2+x,1/2+y,-z
1/2-x,y,z
x,1/2-y,z
loop_
_atom_site_type_symbol
_atom_site_label
_atom_site_fract_x
_atom_site_fract_y
_atom_site_fract_z
Si Si1 0.572569 0.302654 0.322002
Si Si2 0.925886 0.361302 0.838834
Si Si3 0.423915 0.855225 0.838209
Si Si4 0.572640 0.197626 0.682277
Si Si5 0.073514 0.697424 0.001708
Si Si6 0.412223 0.805295 0.498039
Si Si7 0.078907 0.551078 0.917841
Si Si8 0.922048 0.946599 0.092294
O O1 0.750000 0.304631 0.326905
O O2 0.521424 0.250000 0.301235
O O3 0.507499 0.336188 0.249093
O O4 0.507597 0.319412 0.413631
O O5 0.750000 0.365085 0.838734
O O6 0.985609 0.337158 0.753903
O O7 0.993322 0.413070 0.843057
O O8 0.983740 0.331106 0.917664
O O9 0.250000 0.845909 0.835693
O O10 0.489664 0.826999 0.917671
O O11 0.459569 0.910227 0.847499
O O12 0.750000 0.197514 0.678505
O O13 0.517807 0.250000 0.703653
O O14 0.508097 0.180970 0.590499
O O15 0.250000 0.697548 0.001373
O O16 0.011858 0.750000 0.006459
O O17 0.250000 0.828751 0.497617
O O18 0.394451 0.750000 0.498719
O O19 0.250000 0.555631 0.946709
O O20 0.046956 0.500032 0.879746
O O21 0.979454 0.561392 0.998343
O O22 0.750000 0.934506 0.094577
#
# Coordination Sequence:
#
# PCOD8239068 Si02
#       8
#     8   8   8   8   8   8   8   8
#     4   8  12  17  28  50  80 107 124 146 189 237
#     4  10  17  26  40  58  79 103 133 162 190 226
#     4   9  14  21  34  53  76 100 127 157 189 228
#     4   8  13  21  35  55  77 103 134 163 189 223
#     4   9  15  21  32  52  76 100 127 157 183 214
#     4   7  10  17  28  46  76 106 126 150 189 230
#     4   9  17  30  44  58  75  99 132 169 200 228
#     4  10  19  29  42  57  76 101 131 166 204 237
#
# _framework density 15.524473
#
# number of rings (size 3 to 8) (size 9 to 14) (size 15 to 20)
#    0.000    3.250    1.250    2.625    0.000    3.500 
#    0.000    0.000    0.000    1.500    0.000    0.875 
#    0.000    1.000    0.000    3.375    0.000    2.500 
#
# Total GULP energy -792853.044010 kJ/mol
# GULP energy per Si atom -12388.328813 kJ/mol
# Density = 1.548914 g / cm^3
# Si number density = 15.524473 Si / 1000 Ang^3
#
#
#
# Elastic Constant Matrix: (Units=GPa)
#
#
# Indices 1 2 3 4 5 6 
#
# 1 13.4783 16.4320 14.9547 0.0000 0.0000 0.0000
# 2 16.4320 109.1949 72.7771 0.0000 0.0000 0.0000
# 3 14.9547 72.7771 153.4172 0.0000 0.0000 0.0000
# 4 0.0000 0.0000 0.0000 15.7182 0.0000 0.0000
# 5 0.0000 0.0000 0.0000 0.0000 5.0629 0.0000
# 6 0.0000 0.0000 0.0000 0.0000 0.0000 15.3007
#
#
#
# Elastic Compliance Matrix: (Units=1/GPa)
#
#
# Indices 1 2 3 4 5 6 
#
# 1 0.092142 -0.011523 -0.003516 0.000000 0.000000 0.000000
# 2 -0.011523 0.014833 -0.005913 0.000000 0.000000 0.000000
# 3 -0.003516 -0.005913 0.009666 0.000000 0.000000 0.000000
# 4 0.000000 0.000000 0.000000 0.063620 0.000000 0.000000
# 5 0.000000 0.000000 0.000000 0.000000 0.197517 0.000000
# 6 0.000000 0.000000 0.000000 0.000000 0.000000 0.065356
#
#
# Mechanical properties :
#
#
# Convention : Reuss Voigt Hill
#
# Bulk Modulus (GPa) = 13.38016 53.82422 33.60219
# Shear Modulus (GPa) = 9.80489 18.67814 14.24152
#
# Velocity S-wave (km/s) = 2.51585 3.47240 3.03208
# Velocity P-wave (km/s) = 4.13240 7.12899 5.82663
#
# Compressibility (1/GPa) = 0.07473752
#
# Stress axis : x y z
#
# Youngs Moduli (GPa) = 10.85287 67.41747 103.45619
#
# Poissons Ratio (x) = 0.77683 0.36372
# Poissons Ratio (y) = 0.12505 0.61175
# Poissons Ratio (z) = 0.03816 0.39865
#
# Static dielectric constant tensor:
#      x y z
#    x 2.426830 0.000000 0.000000 
#    y 0.000000 2.995930 0.000000 
#    z 0.000000 0.000000 3.350230 
# 
# 
# High freq. dielectric constant tensor:
#      x y z
#    x 1.533950 0.000000 0.000000 
#    y 0.000000 1.580600 0.000000 
#    z 0.000000 0.000000 1.594050 
# 
# From -- ./inp_files/21959.got.cif
#   From: 2010.03.12/outbox.cif.g09.slc.cpg/sg59_11_cif.got.tgz:21959.got - 2010.04.16 16:29:54.
