data_PCOD8239851
_publ_section_title
;
Structure prediction by ZEFSAII (Michael W. Deem and Ramdas Pophale) SiO2 
 PCOD8239851
Probable space group: P M M N
;
_chemical_formula_sum "Si O2"
_cell_formula_units_Z 64
_cell_length_a 9.630339
_cell_length_b 19.921089
_cell_length_c 20.024592
_cell_angle_alpha 90.000000
_cell_angle_beta 90.000000
_cell_angle_gamma 90.000000
_cell_volume 3841.654704
_symmetry_space_group_name_H-M "P M M N"
_symmetry_group_IT_number 59
_space_group.IT_coordinate_system_code '2'
_symmetry_cell_setting 'orthorhombic'
loop_
_space_group_symop_operation_xyz
x,y,z
1/2-x,1/2-y,z
1/2+x,-y,-z
-x,1/2+y,-z
-x,-y,-z
1/2+x,1/2+y,-z
1/2-x,y,z
x,1/2-y,z
loop_
_atom_site_type_symbol
_atom_site_label
_atom_site_fract_x
_atom_site_fract_y
_atom_site_fract_z
Si Si1 0.090926 0.420705 0.940440
Si Si2 0.590342 0.547766 0.915113
Si Si3 0.412594 0.576236 0.268728
Si Si4 0.912184 0.929558 0.770117
Si Si5 0.411337 0.172806 0.822233
Si Si6 0.089443 0.090673 0.459372
Si Si7 0.415248 0.324731 0.334796
Si Si8 0.908431 0.440160 0.578685
O O1 0.250000 0.443384 0.932215
O O2 0.059847 0.354458 0.897290
O O3 0.998059 0.480438 0.912975
O O4 0.057221 0.407451 0.019129
O O5 0.750000 0.524590 0.914464
O O6 0.557360 0.589434 0.847619
O O7 0.250000 0.583559 0.251203
O O8 0.471439 0.503549 0.246232
O O9 0.497295 0.633778 0.231476
O O10 0.439725 0.585808 0.347249
O O11 0.750000 0.932066 0.753469
O O12 0.979662 0.872198 0.723374
O O13 0.250000 0.164085 0.803278
O O14 0.456955 0.250000 0.821575
O O15 0.250000 0.098337 0.478143
O O16 0.041034 0.147083 0.407018
O O17 0.003609 0.100847 0.527222
O O18 0.058334 0.019224 0.425030
O O19 0.250000 0.323297 0.328890
O O20 0.477005 0.250000 0.326410
O O21 0.750000 0.426528 0.558581
#
# Coordination Sequence:
#
# PCOD8239851 Si02
#       8
#     8   8   8   8   8   8   8   8
#     4   9  17  29  45  68  94 122 155 191 234 281
#     4   9  16  27  47  71  94 119 153 196 235 271
#     4  10  18  31  51  72  95 124 161 204 242 280
#     4   9  15  26  45  70  97 123 154 198 240 273
#     4  10  21  35  48  66  98 133 161 196 244 294
#     4   9  16  28  46  69  95 122 154 191 229 280
#     4   9  16  27  45  70  99 128 156 189 235 287
#     4   9  17  29  47  70  94 119 151 197 244 275
#
# _framework density 16.659489000000001
#
# number of rings (size 3 to 8) (size 9 to 14) (size 15 to 20)
#    0.000    2.750    2.500    0.000    0.000    0.750 
#    0.000    1.250    0.000    7.125    0.000    0.000 
#    0.000    1.000    0.000    0.000    0.000    0.000 
#
# Total GULP energy -793343.273267 kJ/mol
# GULP energy per Si atom -12395.988645 kJ/mol
# Density = 1.662157 g / cm^3
# Si number density = 16.659489 Si / 1000 Ang^3
#
#
#
# Elastic Constant Matrix: (Units=GPa)
#
#
# Indices 1 2 3 4 5 6 
#
# 1 41.4726 37.7270 47.6612 0.0000 0.0000 0.0000
# 2 37.7270 117.8122 77.6594 0.0000 0.0000 0.0000
# 3 47.6612 77.6594 139.7796 0.0000 0.0000 0.0000
# 4 0.0000 0.0000 0.0000 25.8528 0.0000 0.0000
# 5 0.0000 0.0000 0.0000 0.0000 24.2008 0.0000
# 6 0.0000 0.0000 0.0000 0.0000 0.0000 16.6312
#
#
#
# Elastic Compliance Matrix: (Units=1/GPa)
#
#
# Indices 1 2 3 4 5 6 
#
# 1 0.042504 -0.006403 -0.010936 0.000000 0.000000 0.000000
# 2 -0.006403 0.014357 -0.005794 0.000000 0.000000 0.000000
# 3 -0.010936 -0.005794 0.014102 0.000000 0.000000 0.000000
# 4 0.000000 0.000000 0.000000 0.038681 0.000000 0.000000
# 5 0.000000 0.000000 0.000000 0.000000 0.041321 0.000000
# 6 0.000000 0.000000 0.000000 0.000000 0.000000 0.060128
#
#
# Mechanical properties :
#
#
# Convention : Reuss Voigt Hill
#
# Bulk Modulus (GPa) = 40.48646 69.46219 54.97432
# Shear Modulus (GPa) = 18.82601 22.40472 20.61537
#
# Velocity S-wave (km/s) = 3.36526 3.67122 3.52156
# Velocity P-wave (km/s) = 6.28133 7.73021 7.04313
#
# Compressibility (1/GPa) = 0.02469962
#
# Stress axis : x y z
#
# Youngs Moduli (GPa) = 23.52710 69.65023 70.91298
#
# Poissons Ratio (x) = 0.44594 0.77548
# Poissons Ratio (y) = 0.15063 0.41085
# Poissons Ratio (z) = 0.25728 0.40353
#
# Static dielectric constant tensor:
#      x y z
#    x 2.918370 0.000000 0.000000 
#    y 0.000000 3.035640 0.000000 
#    z 0.000000 0.000000 3.369010 
# 
# 
# High freq. dielectric constant tensor:
#      x y z
#    x 1.613390 0.000000 0.000000 
#    y 0.000000 1.614350 0.000000 
#    z 0.000000 0.000000 1.658650 
# 
# From -- ./inp_files/29790.got.cif
#   From: 2010.03.12/outbox.cif.g09.slc.cpg/sg59_15_cif.got.tgz:29790.got - 2010.04.16 16:29:54.
