data_PCOD8239830
_publ_section_title
;
Structure prediction by ZEFSAII (Michael W. Deem and Ramdas Pophale) SiO2 
 PCOD8239830
Probable space group: P M M N
;
_chemical_formula_sum "Si O2"
_cell_formula_units_Z 64
_cell_length_a 9.049541
_cell_length_b 20.093190
_cell_length_c 20.099047
_cell_angle_alpha 90.000000
_cell_angle_beta 90.000000
_cell_angle_gamma 90.000000
_cell_volume 3654.693061
_symmetry_space_group_name_H-M "P M M N"
_symmetry_group_IT_number 59
_space_group.IT_coordinate_system_code '2'
_symmetry_cell_setting 'orthorhombic'
loop_
_space_group_symop_operation_xyz
x,y,z
1/2-x,1/2-y,z
1/2+x,-y,-z
-x,1/2+y,-z
-x,-y,-z
1/2+x,1/2+y,-z
1/2-x,y,z
x,1/2-y,z
loop_
_atom_site_type_symbol
_atom_site_label
_atom_site_fract_x
_atom_site_fract_y
_atom_site_fract_z
Si Si1 0.079389 0.089702 0.956772
Si Si2 0.576667 0.586515 0.555519
Si Si3 0.574751 0.676084 0.165720
Si Si4 0.577831 0.567010 0.267377
Si Si5 0.919872 0.952535 0.414460
Si Si6 0.420960 0.940944 0.912957
Si Si7 0.074378 0.432319 0.222641
Si Si8 0.925421 0.823754 0.671217
O O1 0.250000 0.097166 0.977593
O O2 0.027732 0.146621 0.905686
O O3 0.052715 0.019608 0.920350
O O4 0.980056 0.097285 0.022113
O O5 0.750000 0.580519 0.565049
O O6 0.533111 0.594125 0.477315
O O7 0.512536 0.519514 0.586409
O O8 0.518946 0.648671 0.599252
O O9 0.750000 0.679287 0.170150
O O10 0.506420 0.750000 0.173432
O O11 0.515334 0.629025 0.224970
O O12 0.750000 0.553704 0.250786
O O13 0.554149 0.585844 0.345044
O O14 0.488853 0.501315 0.249419
O O15 0.750000 0.973552 0.422546
O O16 0.250000 0.923516 0.903273
O O17 0.511812 0.915163 0.849905
O O18 0.250000 0.437634 0.219505
O O19 0.020106 0.372877 0.270641
O O20 0.750000 0.819513 0.672455
O O21 0.993480 0.750000 0.681554
#
# Coordination Sequence:
#
# PCOD8239830 Si02
#       8
#     8   8   8   8   8   8   8   8
#     4   9  17  31  50  74  98 126 163 200 239 292
#     4   9  16  29  47  70  96 127 165 202 245 295
#     4   9  17  31  51  73 100 134 167 200 244 298
#     4  10  18  31  49  74 104 132 164 207 253 294
#     4   9  17  27  46  73 101 126 157 204 251 290
#     4  10  19  32  51  75 101 127 157 205 255 288
#     4  11  20  31  51  76  98 129 171 210 250 298
#     4   9  18  32  49  70  99 133 170 212 253 296
#
# _framework density 17.51173
#
# number of rings (size 3 to 8) (size 9 to 14) (size 15 to 20)
#    0.000    2.500    2.500    0.750    0.000    0.500 
#    0.000    1.250    0.000   12.375    0.000    0.000 
#    0.000    3.000    0.000    0.000    0.000    0.000 
#
# Total GULP energy -793374.997304 kJ/mol
# GULP energy per Si atom -12396.484333 kJ/mol
# Density = 1.747187 g / cm^3
# Si number density = 17.511730 Si / 1000 Ang^3
#
#
#
# Elastic Constant Matrix: (Units=GPa)
#
#
# Indices 1 2 3 4 5 6 
#
# 1 41.3860 28.1146 38.0175 0.0000 0.0000 0.0000
# 2 28.1146 131.2783 83.9668 0.0000 0.0000 0.0000
# 3 38.0175 83.9668 149.8271 0.0000 0.0000 0.0000
# 4 0.0000 0.0000 0.0000 27.0721 0.0000 0.0000
# 5 0.0000 0.0000 0.0000 0.0000 23.2287 0.0000
# 6 0.0000 0.0000 0.0000 0.0000 0.0000 16.3716
#
#
#
# Elastic Compliance Matrix: (Units=1/GPa)
#
#
# Indices 1 2 3 4 5 6 
#
# 1 0.032063 -0.002592 -0.006683 0.000000 0.000000 0.000000
# 2 -0.002592 0.012083 -0.006114 0.000000 0.000000 0.000000
# 3 -0.006683 -0.006114 0.011797 0.000000 0.000000 0.000000
# 4 0.000000 0.000000 0.000000 0.036938 0.000000 0.000000
# 5 0.000000 0.000000 0.000000 0.000000 0.043050 0.000000
# 6 0.000000 0.000000 0.000000 0.000000 0.000000 0.061081
#
#
# Mechanical properties :
#
#
# Convention : Reuss Voigt Hill
#
# Bulk Modulus (GPa) = 39.73890 69.18769 54.46330
# Shear Modulus (GPa) = 21.17045 24.82731 22.99888
#
# Velocity S-wave (km/s) = 3.48074 3.76939 3.62794
# Velocity P-wave (km/s) = 6.23667 7.65111 6.97981
#
# Compressibility (1/GPa) = 0.02516426
#
# Stress axis : x y z
#
# Youngs Moduli (GPa) = 31.18896 82.76065 84.77075
#
# Poissons Ratio (x) = 0.21452 0.56652
# Poissons Ratio (y) = 0.08084 0.51828
# Poissons Ratio (z) = 0.20844 0.50599
#
# Static dielectric constant tensor:
#      x y z
#    x 3.055960 0.000000 0.000000 
#    y 0.000000 3.300220 0.000000 
#    z 0.000000 0.000000 3.604660 
# 
# 
# High freq. dielectric constant tensor:
#      x y z
#    x 1.652370 0.000000 0.000000 
#    y 0.000000 1.648220 0.000000 
#    z 0.000000 0.000000 1.696450 
# 
# From -- ./inp_files/29688.got.cif
#   From: 2010.03.12/outbox.cif.g09.slc.cpg/sg59_15_cif.got.tgz:29688.got - 2010.04.16 16:29:54.
