data_PCOD8239228
_publ_section_title
;
Structure prediction by ZEFSAII (Michael W. Deem and Ramdas Pophale) SiO2 
 PCOD8239228
Probable space group: P M M N
;
_chemical_formula_sum "Si O2"
_cell_formula_units_Z 64
_cell_length_a 9.370104
_cell_length_b 21.563476
_cell_length_c 20.297604
_cell_angle_alpha 90.000000
_cell_angle_beta 90.000000
_cell_angle_gamma 90.000000
_cell_volume 4101.171742
_symmetry_space_group_name_H-M "P M M N"
_symmetry_group_IT_number 59
_space_group.IT_coordinate_system_code '2'
_symmetry_cell_setting 'orthorhombic'
loop_
_space_group_symop_operation_xyz
x,y,z
1/2-x,1/2-y,z
1/2+x,-y,-z
-x,1/2+y,-z
-x,-y,-z
1/2+x,1/2+y,-z
1/2-x,y,z
x,1/2-y,z
loop_
_atom_site_type_symbol
_atom_site_label
_atom_site_fract_x
_atom_site_fract_y
_atom_site_fract_z
Si Si1 0.415978 0.909148 0.534790
Si Si2 0.907778 0.408498 0.123589
Si Si3 0.586966 0.953574 0.417945
Si Si4 0.084551 0.401045 0.245177
Si Si5 0.586191 0.821900 0.629282
Si Si6 0.908422 0.556516 0.135071
Si Si7 0.417004 0.937583 0.015670
Si Si8 0.415565 0.023789 0.726414
O O1 0.250000 0.894732 0.526948
O O2 0.485047 0.910819 0.461992
O O3 0.486119 0.854679 0.576419
O O4 0.445961 0.973901 0.571097
O O5 0.750000 0.384364 0.142343
O O6 0.913299 0.482585 0.128228
O O7 0.019437 0.379030 0.174838
O O8 0.941318 0.391184 0.046758
O O9 0.750000 0.938596 0.437046
O O10 0.555371 0.938968 0.341199
O O11 0.250000 0.415281 0.234264
O O12 0.057539 0.346593 0.297218
O O13 0.011148 0.462674 0.272422
O O14 0.750000 0.834092 0.609161
O O15 0.547289 0.750000 0.629061
O O16 0.750000 0.581803 0.119409
O O17 0.950661 0.569431 0.211678
O O18 0.017685 0.589634 0.083997
O O19 0.250000 0.951744 0.025526
O O20 0.500000 0.000000 0.000000
O O21 0.250000 0.002324 0.729900
#
# Coordination Sequence:
#
# PCOD8239228 Si02
#       8
#     8   8   8   8   8   8   8   8
#     4  10  19  30  46  66  83 104 138 176 210 250
#     4   8  15  25  35  47  69 100 129 162 201 236
#     4   9  17  29  45  62  85 112 135 168 212 255
#     4  10  18  26  40  59  75  97 135 175 206 241
#     4  10  21  35  47  60  83 112 139 172 216 261
#     4   8  14  22  33  49  71  99 130 161 192 229
#     4   9  15  22  31  45  67  97 130 160 192 228
#     4   9  16  27  40  56  80 109 135 163 205 248
#
# _framework density 15.605297
#
# number of rings (size 3 to 8) (size 9 to 14) (size 15 to 20)
#    0.000    2.875    1.250    2.625    0.000    6.750 
#    0.000    0.000    0.000    0.000    0.000    0.000 
#    0.000    0.000    0.000    1.125    0.000   18.625 
#
# Total GULP energy -793122.928487 kJ/mol
# GULP energy per Si atom -12392.545758 kJ/mol
# Density = 1.556978 g / cm^3
# Si number density = 15.605297 Si / 1000 Ang^3
#
#
#
# Elastic Constant Matrix: (Units=GPa)
#
#
# Indices 1 2 3 4 5 6 
#
# 1 108.4773 34.0866 78.8885 0.0000 0.0000 0.0000
# 2 34.0866 33.2583 31.7532 0.0000 0.0000 0.0000
# 3 78.8885 31.7532 155.2712 0.0000 0.0000 0.0000
# 4 0.0000 0.0000 0.0000 10.2946 0.0000 0.0000
# 5 0.0000 0.0000 0.0000 0.0000 31.5600 0.0000
# 6 0.0000 0.0000 0.0000 0.0000 0.0000 12.6874
#
#
#
# Elastic Compliance Matrix: (Units=1/GPa)
#
#
# Indices 1 2 3 4 5 6 
#
# 1 0.017745 -0.011904 -0.006582 0.000000 0.000000 0.000000
# 2 -0.011904 0.045347 -0.003226 0.000000 0.000000 0.000000
# 3 -0.006582 -0.003226 0.010444 0.000000 0.000000 0.000000
# 4 0.000000 0.000000 0.000000 0.097138 0.000000 0.000000
# 5 0.000000 0.000000 0.000000 0.000000 0.031686 0.000000
# 6 0.000000 0.000000 0.000000 0.000000 0.000000 0.078819
#
#
# Mechanical properties :
#
#
# Convention : Reuss Voigt Hill
#
# Bulk Modulus (GPa) = 33.20618 65.16262 49.18440
# Shear Modulus (GPa) = 14.94146 21.06029 18.00088
#
# Velocity S-wave (km/s) = 3.09764 3.67762 3.40002
# Velocity P-wave (km/s) = 5.84113 7.73825 6.85563
#
# Compressibility (1/GPa) = 0.03011487
#
# Stress axis : x y z
#
# Youngs Moduli (GPa) = 56.35307 22.05195 95.74963
#
# Poissons Ratio (x) = 0.26250 0.63018
# Poissons Ratio (y) = 0.67080 0.30887
# Poissons Ratio (z) = 0.37089 0.07114
#
# Static dielectric constant tensor:
#      x y z
#    x 3.147140 0.000000 0.000000 
#    y 0.000000 2.319650 0.000000 
#    z 0.000000 0.000000 3.755360 
# 
# 
# High freq. dielectric constant tensor:
#      x y z
#    x 1.609160 0.000000 0.000000 
#    y 0.000000 1.509090 0.000000 
#    z 0.000000 0.000000 1.622280 
# 
# From -- ./inp_files/29780.got.cif
#   From: 2010.03.12/outbox.cif.g09.slc.cpg/sg59_15_cif.got.tgz:29780.got - 2010.04.16 16:29:54.
