data_PCOD8239869
_publ_section_title
;
Structure prediction by ZEFSAII (Michael W. Deem and Ramdas Pophale) SiO2 
 PCOD8239869
Probable space group: P M M N
;
_chemical_formula_sum "Si O2"
_cell_formula_units_Z 40
_cell_length_a 24.549097
_cell_length_b 9.015825
_cell_length_c 10.203644
_cell_angle_alpha 90.000000
_cell_angle_beta 90.000000
_cell_angle_gamma 90.000000
_cell_volume 2258.376225
_symmetry_space_group_name_H-M "P M M N"
_symmetry_group_IT_number 59
_space_group.IT_coordinate_system_code '2'
_symmetry_cell_setting 'orthorhombic'
loop_
_space_group_symop_operation_xyz
x,y,z
1/2-x,1/2-y,z
1/2+x,-y,-z
-x,1/2+y,-z
-x,-y,-z
1/2+x,1/2+y,-z
1/2-x,y,z
x,1/2-y,z
loop_
_atom_site_type_symbol
_atom_site_label
_atom_site_fract_x
_atom_site_fract_y
_atom_site_fract_z
Si Si1 0.464798 0.574659 0.888110
Si Si2 0.857920 0.922967 0.722610
Si Si3 0.750000 0.083783 0.715471
Si Si4 0.750000 0.418604 0.027122
Si Si5 0.641292 0.924465 0.028281
Si Si6 0.526342 0.576289 0.623876
O O1 0.462904 0.750000 0.912506
O O2 0.404844 0.505850 0.888247
O O3 0.491181 0.533552 0.749917
O O4 0.500000 0.500000 0.000000
O O5 0.847441 0.750000 0.703906
O O6 0.911303 0.977785 0.644342
O O7 0.804858 0.004682 0.664228
O O8 0.867715 0.959198 0.875187
O O9 0.750000 0.250000 0.660465
O O10 0.750000 0.079043 0.871175
O O11 0.750000 0.250000 0.080055
O O12 0.802307 0.506700 0.079635
O O13 0.640353 0.750000 0.056759
O O14 0.500000 0.500000 0.500000
O O15 0.525792 0.750000 0.599802
#
# Coordination Sequence:
#
# PCOD8239869 Si02
#       6
#     8   8   4   4   8   8
#     4  11  21  35  54  79 108 139 178 222 267 318
#     4   9  17  32  50  72 105 139 171 212 261 314
#     4   9  17  27  45  76 103 130 173 216 258 308
#     4   9  17  29  45  74 109 140 173 216 268 318
#     4  10  18  31  51  77 107 140 177 219 268 320
#     4  10  22  38  54  77 108 143 181 220 267 320
#
# _framework density 17.711841
#
# number of rings (size 3 to 8) (size 9 to 14) (size 15 to 20)
#    0.000    2.200    2.000    1.800    0.000    5.600 
#    0.000    0.000    0.000    1.200    0.000    5.600 
#    0.000    0.000    0.000    0.000    0.000    0.000 
#
# Total GULP energy -496028.132201 kJ/mol
# GULP energy per Si atom -12400.703305 kJ/mol
# Density = 1.767153 g / cm^3
# Si number density = 17.711841 Si / 1000 Ang^3
#
#
#
# Elastic Constant Matrix: (Units=GPa)
#
#
# Indices 1 2 3 4 5 6 
#
# 1 199.8713 79.2394 66.1757 0.0000 0.0000 0.0000
# 2 79.2394 96.5029 51.5981 0.0000 0.0000 0.0000
# 3 66.1757 51.5981 73.1980 0.0000 0.0000 0.0000
# 4 0.0000 0.0000 0.0000 24.0192 0.0000 0.0000
# 5 0.0000 0.0000 0.0000 0.0000 20.9088 0.0000
# 6 0.0000 0.0000 0.0000 0.0000 0.0000 40.0981
#
#
#
# Elastic Compliance Matrix: (Units=1/GPa)
#
#
# Indices 1 2 3 4 5 6 
#
# 1 0.008171 -0.004429 -0.004265 0.000000 0.000000 0.000000
# 2 -0.004429 0.019031 -0.009411 0.000000 0.000000 0.000000
# 3 -0.004265 -0.009411 0.024152 0.000000 0.000000 0.000000
# 4 0.000000 0.000000 0.000000 0.041633 0.000000 0.000000
# 5 0.000000 0.000000 0.000000 0.000000 0.047827 0.000000
# 6 0.000000 0.000000 0.000000 0.000000 0.000000 0.024939
#
#
# Mechanical properties :
#
#
# Convention : Reuss Voigt Hill
#
# Bulk Modulus (GPa) = 66.03634 84.84431 75.44032
# Shear Modulus (GPa) = 24.15324 28.50914 26.33119
#
# Velocity S-wave (km/s) = 3.69681 4.01635 3.85988
# Velocity P-wave (km/s) = 7.45564 8.33754 7.90889
#
# Compressibility (1/GPa) = 0.01514318
#
# Stress axis : x y z
#
# Youngs Moduli (GPa) = 122.37937 52.54611 41.40488
#
# Poissons Ratio (x) = 0.23272 0.17661
# Poissons Ratio (y) = 0.54201 0.38966
# Poissons Ratio (z) = 0.52200 0.49452
#
# Static dielectric constant tensor:
#      x y z
#    x 3.333160 0.000000 0.000000 
#    y 0.000000 3.356700 0.000000 
#    z 0.000000 0.000000 2.596750 
# 
# 
# High freq. dielectric constant tensor:
#      x y z
#    x 1.707810 0.000000 0.000000 
#    y 0.000000 1.693940 0.000000 
#    z 0.000000 0.000000 1.632410 
# 
# From -- ./inp_files/12402.got.cif
#   From: 2010.03.12/outbox.cif.g09.slc.cpg/sg59_7_cif.got.tgz:12402.got - 2010.04.16 16:29:54.
