data_PCOD8239572
_publ_section_title
;
Structure prediction by ZEFSAII (Michael W. Deem and Ramdas Pophale) SiO2 
 PCOD8239572
Probable space group: P M M N
;
_chemical_formula_sum "Si O2"
_cell_formula_units_Z 64
_cell_length_a 19.024085
_cell_length_b 9.152102
_cell_length_c 19.865134
_cell_angle_alpha 90.000000
_cell_angle_beta 90.000000
_cell_angle_gamma 90.000000
_cell_volume 3458.725759
_symmetry_space_group_name_H-M "P M M N"
_symmetry_group_IT_number 59
_space_group.IT_coordinate_system_code '2'
_symmetry_cell_setting 'orthorhombic'
loop_
_space_group_symop_operation_xyz
x,y,z
1/2-x,1/2-y,z
1/2+x,-y,-z
-x,1/2+y,-z
-x,-y,-z
1/2+x,1/2+y,-z
1/2-x,y,z
x,1/2-y,z
loop_
_atom_site_type_symbol
_atom_site_label
_atom_site_fract_x
_atom_site_fract_y
_atom_site_fract_z
Si Si1 0.828043 0.923958 0.713646
Si Si2 0.330648 0.578927 0.037696
Si Si3 0.172430 0.923730 0.886115
Si Si4 0.406155 0.077013 0.155226
Si Si5 0.946182 0.423805 0.211807
Si Si6 0.916922 0.923218 0.590123
Si Si7 0.431980 0.923152 0.635172
Si Si8 0.668435 0.922876 0.460959
O O1 0.750000 0.984285 0.700917
O O2 0.829987 0.750000 0.710600
O O3 0.853028 0.976393 0.786771
O O4 0.878402 0.988754 0.655874
O O5 0.250000 0.538160 0.054677
O O6 0.343130 0.750000 0.047190
O O7 0.384011 0.493733 0.085253
O O8 0.348797 0.529248 0.961632
O O9 0.250000 0.984294 0.868363
O O10 0.173201 0.750000 0.882679
O O11 0.118227 0.988619 0.831750
O O12 0.404909 0.250000 0.146267
O O13 0.482889 0.020103 0.176665
O O14 0.945837 0.250000 0.212240
O O15 0.940843 0.479544 0.288395
O O16 0.911215 0.750000 0.592045
O O17 0.876769 0.982629 0.524291
O O18 0.998689 0.970759 0.592591
O O19 0.420861 0.750000 0.632641
O O20 0.363282 0.000623 0.604989
O O21 0.750000 0.967647 0.469752
O O22 0.660963 0.750000 0.453156
#
# Coordination Sequence:
#
# PCOD8239572 Si02
#       8
#     8   8   8   8   8   8   8   8
#     4   9  15  24  43  70  97 127 162 196 233 281
#     4   9  18  32  48  67  95 131 168 203 239 286
#     4   8  15  29  48  68  92 128 170 204 239 288
#     4  10  18  29  47  74 103 127 156 200 249 293
#     4   9  17  30  49  74 102 127 159 205 248 289
#     4   9  16  30  50  72  98 129 164 201 240 288
#     4  10  19  33  54  77 101 128 162 208 254 291
#     4  10  21  35  51  73 101 133 168 203 242 295
#
# _framework density 18.503924000000001
#
# number of rings (size 3 to 8) (size 9 to 14) (size 15 to 20)
#    0.000    2.750    1.250    1.875    0.000    3.500 
#    0.000    1.875    0.000    1.500    0.000    0.000 
#    0.000    0.000    0.000    0.000    0.000    0.000 
#
# Total GULP energy -793411.002066 kJ/mol
# GULP energy per Si atom -12397.046907 kJ/mol
# Density = 1.846181 g / cm^3
# Si number density = 18.503924 Si / 1000 Ang^3
#
#
#
# Elastic Constant Matrix: (Units=GPa)
#
#
# Indices 1 2 3 4 5 6 
#
# 1 131.7700 26.2731 82.2520 0.0000 0.0000 0.0000
# 2 26.2731 17.5702 25.0671 0.0000 0.0000 0.0000
# 3 82.2520 25.0671 131.5345 0.0000 0.0000 0.0000
# 4 0.0000 0.0000 0.0000 20.5699 0.0000 0.0000
# 5 0.0000 0.0000 0.0000 0.0000 43.5375 0.0000
# 6 0.0000 0.0000 0.0000 0.0000 0.0000 19.0573
#
#
#
# Elastic Compliance Matrix: (Units=1/GPa)
#
#
# Indices 1 2 3 4 5 6 
#
# 1 0.013975 -0.011577 -0.006533 0.000000 0.000000 0.000000
# 2 -0.011577 0.087758 -0.009485 0.000000 0.000000 0.000000
# 3 -0.006533 -0.009485 0.013495 0.000000 0.000000 0.000000
# 4 0.000000 0.000000 0.000000 0.048615 0.000000 0.000000
# 5 0.000000 0.000000 0.000000 0.000000 0.022969 0.000000
# 6 0.000000 0.000000 0.000000 0.000000 0.000000 0.052473
#
#
# Mechanical properties :
#
#
# Convention : Reuss Voigt Hill
#
# Bulk Modulus (GPa) = 16.65593 60.89545 38.77569
# Shear Modulus (GPa) = 15.89890 26.45177 21.17533
#
# Velocity S-wave (km/s) = 2.93442 3.78500 3.38652
# Velocity P-wave (km/s) = 4.52791 7.21683 6.02431
#
# Compressibility (1/GPa) = 0.06003867
#
# Stress axis : x y z
#
# Youngs Moduli (GPa) = 71.55604 11.39500 74.10055
#
# Poissons Ratio (x) = 0.13192 0.48407
# Poissons Ratio (y) = 0.82842 0.70283
# Poissons Ratio (z) = 0.46745 0.10808
#
# Static dielectric constant tensor:
#      x y z
#    x 3.652470 0.000000 0.000000 
#    y 0.000000 2.771520 0.000000 
#    z 0.000000 0.000000 3.560060 
# 
# 
# High freq. dielectric constant tensor:
#      x y z
#    x 1.729010 0.000000 0.000000 
#    y 0.000000 1.652290 0.000000 
#    z 0.000000 0.000000 1.728590 
# 
# From -- ./inp_files/28168.got.cif
#   From: 2010.03.12/outbox.cif.g09.slc.cpg/sg59_15_cif.got.tgz:28168.got - 2010.04.16 16:29:54.
