data_PCOD8239112
_publ_section_title
;
Structure prediction by ZEFSAII (Michael W. Deem and Ramdas Pophale) SiO2 
 PCOD8239112
Probable space group: P M M N
;
_chemical_formula_sum "Si O2"
_cell_formula_units_Z 64
_cell_length_a 8.281290
_cell_length_b 28.442476
_cell_length_c 14.818421
_cell_angle_alpha 90.000000
_cell_angle_beta 90.000000
_cell_angle_gamma 90.000000
_cell_volume 3490.336692
_symmetry_space_group_name_H-M "P M M N"
_symmetry_group_IT_number 59
_space_group.IT_coordinate_system_code '2'
_symmetry_cell_setting 'orthorhombic'
loop_
_space_group_symop_operation_xyz
x,y,z
1/2-x,1/2-y,z
1/2+x,-y,-z
-x,1/2+y,-z
-x,-y,-z
1/2+x,1/2+y,-z
1/2-x,y,z
x,1/2-y,z
loop_
_atom_site_type_symbol
_atom_site_label
_atom_site_fract_x
_atom_site_fract_y
_atom_site_fract_z
Si Si1 0.438524 0.968453 0.839526
Si Si2 0.558293 0.072834 0.648778
Si Si3 0.942401 0.302174 0.145545
Si Si4 0.558457 0.070442 0.848160
Si Si5 0.440826 0.613057 0.970685
Si Si6 0.936723 0.966838 0.646389
Si Si7 0.057738 0.802430 0.651710
Si Si8 0.562607 0.115277 0.470076
O O1 0.250000 0.962275 0.818574
O O2 0.497774 0.933199 0.917435
O O3 0.538529 0.954500 0.751001
O O4 0.475169 0.021145 0.871582
O O5 0.750000 0.072627 0.644331
O O6 0.501924 0.088929 0.749130
O O7 0.488186 0.107570 0.571065
O O8 0.498422 0.019751 0.629342
O O9 0.750000 0.303655 0.144797
O O10 0.002370 0.250000 0.117543
O O11 0.016035 0.340028 0.075016
O O12 0.003298 0.314123 0.246968
O O13 0.750000 0.062036 0.849470
O O14 0.504252 0.107973 0.924578
O O15 0.250000 0.617277 0.966060
O O16 0.750000 0.960914 0.620759
O O17 0.041839 0.932352 0.585711
O O18 0.250000 0.805431 0.650530
O O19 0.000967 0.750000 0.623446
O O20 0.981304 0.840289 0.581539
O O21 0.750000 0.126184 0.480079
#
# Coordination Sequence:
#
# PCOD8239112 Si02
#       8
#     8   8   8   8   8   8   8   8
#     4  10  18  28  43  64  87 112 146 179 208 248
#     4   8  16  28  41  58  82 114 144 172 207 247
#     4   8  13  22  36  57  84 108 132 166 209 255
#     4   9  17  30  43  58  86 117 142 172 215 255
#     4   9  16  25  41  62  83 111 143 175 210 250
#     4  10  19  30  42  61  90 117 140 170 216 261
#     4   8  14  24  40  63  87 107 132 173 218 253
#     4  10  17  27  45  64  82 109 147 180 206 246
#
# _framework density 18.336338000000001
#
# number of rings (size 3 to 8) (size 9 to 14) (size 15 to 20)
#    0.000    3.000    0.000    3.750    0.000    2.000 
#    0.000    3.125    0.000    1.125    0.000    5.250 
#    0.000    4.000    0.000    0.375    0.000    2.375 
#
# Total GULP energy -793077.289578 kJ/mol
# GULP energy per Si atom -12391.832650 kJ/mol
# Density = 1.829460 g / cm^3
# Si number density = 18.336338 Si / 1000 Ang^3
#
#
#
# Elastic Constant Matrix: (Units=GPa)
#
#
# Indices 1 2 3 4 5 6 
#
# 1 9.5622 4.4794 -1.8257 0.0000 0.0000 0.0000
# 2 4.4794 123.5048 106.4265 0.0000 0.0000 0.0000
# 3 -1.8257 106.4265 161.2484 0.0000 0.0000 0.0000
# 4 0.0000 0.0000 0.0000 34.0533 0.0000 0.0000
# 5 0.0000 0.0000 0.0000 0.0000 12.4219 0.0000
# 6 0.0000 0.0000 0.0000 0.0000 0.0000 12.5546
#
#
#
# Elastic Compliance Matrix: (Units=1/GPa)
#
#
# Indices 1 2 3 4 5 6 
#
# 1 0.111921 -0.011945 0.009151 0.000000 0.000000 0.000000
# 2 -0.011945 0.020050 -0.013369 0.000000 0.000000 0.000000
# 3 0.009151 -0.013369 0.015129 0.000000 0.000000 0.000000
# 4 0.000000 0.000000 0.000000 0.029366 0.000000 0.000000
# 5 0.000000 0.000000 0.000000 0.000000 0.080503 0.000000
# 6 0.000000 0.000000 0.000000 0.000000 0.000000 0.079652
#
#
# Mechanical properties :
#
#
# Convention : Reuss Voigt Hill
#
# Bulk Modulus (GPa) = 8.71268 56.94175 32.82722
# Shear Modulus (GPa) = 12.27885 24.15498 18.21691
#
# Velocity S-wave (km/s) = 2.59056 3.63344 3.15538
# Velocity P-wave (km/s) = 3.70269 6.98026 5.58721
#
# Compressibility (1/GPa) = 0.11477519
#
# Stress axis : x y z
#
# Youngs Moduli (GPa) = 8.93484 49.87507 66.09941
#
# Poissons Ratio (x) = 0.59576 -0.60488
# Poissons Ratio (y) = 0.10673 0.88366
# Poissons Ratio (z) = -0.08176 0.66676
#
# Static dielectric constant tensor:
#      x y z
#    x 2.899010 0.000000 0.000000 
#    y 0.000000 3.550400 0.000000 
#    z 0.000000 0.000000 3.821350 
# 
# 
# High freq. dielectric constant tensor:
#      x y z
#    x 1.663980 0.000000 0.000000 
#    y 0.000000 1.690280 0.000000 
#    z 0.000000 0.000000 1.715370 
# 
# From -- ./inp_files/21874.got.cif
#   From: 2010.03.12/outbox.cif.g09.slc.cpg/sg59_11_cif.got.tgz:21874.got - 2010.04.16 16:29:54.
