data_PCOD8239049
_publ_section_title
;
Structure prediction by ZEFSAII (Michael W. Deem and Ramdas Pophale) SiO2 
 PCOD8239049
Probable space group: P M M N
;
_chemical_formula_sum "Si O2"
_cell_formula_units_Z 64
_cell_length_a 31.366215
_cell_length_b 13.751107
_cell_length_c 10.337487
_cell_angle_alpha 90.000000
_cell_angle_beta 90.000000
_cell_angle_gamma 90.000000
_cell_volume 4458.766740
_symmetry_space_group_name_H-M "P M M N"
_symmetry_group_IT_number 59
_space_group.IT_coordinate_system_code '2'
_symmetry_cell_setting 'orthorhombic'
loop_
_space_group_symop_operation_xyz
x,y,z
1/2-x,1/2-y,z
1/2+x,-y,-z
-x,1/2+y,-z
-x,-y,-z
1/2+x,1/2+y,-z
1/2-x,y,z
x,1/2-y,z
loop_
_atom_site_type_symbol
_atom_site_label
_atom_site_fract_x
_atom_site_fract_y
_atom_site_fract_z
Si Si1 0.433536 0.953117 0.153335
Si Si2 0.798236 0.134639 0.500030
Si Si3 0.066452 0.953117 0.846611
Si Si4 0.297219 0.865367 0.999934
Si Si5 0.651161 0.134462 0.752444
Si Si6 0.848857 0.365539 0.247650
Si Si7 0.979160 0.643333 0.847216
Si Si8 0.520828 0.856667 0.152800
O O1 0.394383 0.917385 0.239755
O O2 0.474147 0.890292 0.198835
O O3 0.442782 0.065639 0.191082
O O4 0.424311 0.940020 0.999970
O O5 0.750000 0.091740 0.500000
O O6 0.795182 0.250000 0.500021
O O7 0.824014 0.098602 0.625314
O O8 0.824034 0.098599 0.374785
O O9 0.105598 0.917383 0.760162
O O10 0.025837 0.890291 0.801144
O O11 0.057203 0.065639 0.808872
O O12 0.250000 0.910674 0.999907
O O13 0.294565 0.750000 0.999924
O O14 0.321325 0.902290 0.873252
O O15 0.321308 0.902283 0.126652
O O16 0.644291 0.250000 0.753919
O O17 0.855724 0.250000 0.246173
O O18 0.968453 0.750000 0.788368
O O19 0.980994 0.648353 0.000007
O O20 0.531530 0.750000 0.211656
#
# Coordination Sequence:
#
# PCOD8239049 Si02
#       8
#     8   8   8   8   8   8   8   8
#     4   9  15  23  37  60  83 105 136 167 195 231
#     4   9  18  30  40  53  79 113 139 159 194 246
#     4   9  15  23  37  60  83 105 136 167 195 231
#     4   9  16  24  36  55  77 101 127 161 204 236
#     4  10  17  25  39  57  80 107 135 166 195 233
#     4  10  17  25  39  57  80 107 135 166 195 233
#     4   8  14  23  36  55  84 113 133 160 198 236
#     4   8  14  23  36  55  84 113 133 160 198 236
#
# _framework density 14.353745999999999
#
# number of rings (size 3 to 8) (size 9 to 14) (size 15 to 20)
#    0.000    3.000    1.250    3.000    0.000    4.000 
#    0.000    0.000    0.000    3.000    0.000    2.625 
#    0.000    6.000    0.000    0.000    0.000    0.000 
#
# Total GULP energy -793200.577030 kJ/mol
# GULP energy per Si atom -12393.759016 kJ/mol
# Density = 1.432108 g / cm^3
# Si number density = 14.353746 Si / 1000 Ang^3
#
#
#
# Elastic Constant Matrix: (Units=GPa)
#
#
# Indices 1 2 3 4 5 6 
#
# 1 120.9472 39.3543 50.3943 0.0000 0.0000 0.0000
# 2 39.3543 74.0710 19.9150 0.0000 0.0000 0.0000
# 3 50.3943 19.9150 82.1724 0.0000 0.0000 0.0000
# 4 0.0000 0.0000 0.0000 7.0455 0.0000 0.0000
# 5 0.0000 0.0000 0.0000 0.0000 23.6746 0.0000
# 6 0.0000 0.0000 0.0000 0.0000 0.0000 19.1778
#
#
#
# Elastic Compliance Matrix: (Units=1/GPa)
#
#
# Indices 1 2 3 4 5 6 
#
# 1 0.012594 -0.004936 -0.006527 0.000000 0.000000 0.000000
# 2 -0.004936 0.016376 -0.000942 0.000000 0.000000 0.000000
# 3 -0.006527 -0.000942 0.016401 0.000000 0.000000 0.000000
# 4 0.000000 0.000000 0.000000 0.141934 0.000000 0.000000
# 5 0.000000 0.000000 0.000000 0.000000 0.042239 0.000000
# 6 0.000000 0.000000 0.000000 0.000000 0.000000 0.052144
#
#
# Mechanical properties :
#
#
# Convention : Reuss Voigt Hill
#
# Bulk Modulus (GPa) = 48.63620 55.16866 51.90243
# Shear Modulus (GPa) = 15.95652 21.14803 18.55227
#
# Velocity S-wave (km/s) = 3.33778 3.84258 3.59904
# Velocity P-wave (km/s) = 6.98655 7.62927 7.31497
#
# Compressibility (1/GPa) = 0.02056082
#
# Stress axis : x y z
#
# Youngs Moduli (GPa) = 79.40345 61.06342 60.97296
#
# Poissons Ratio (x) = 0.30143 0.39798
# Poissons Ratio (y) = 0.39196 0.05741
# Poissons Ratio (z) = 0.51828 0.05750
#
# Static dielectric constant tensor:
#      x y z
#    x 2.852590 0.000000 0.000000 
#    y 0.000000 2.947460 0.000000 
#    z 0.000000 0.000000 2.590090 
# 
# 
# High freq. dielectric constant tensor:
#      x y z
#    x 1.553620 0.000000 0.000000 
#    y 0.000000 1.510090 0.000000 
#    z 0.000000 0.000000 1.519150 
# 
# From -- ./inp_files/9735.got.cif
#   From: 2010.03.12/outbox.cif.g09.slc.cpg/sg59_5_cif.got.tgz:9735.got - 2010.04.16 16:29:54.
