data_PCOD8239507
_publ_section_title
;
Structure prediction by ZEFSAII (Michael W. Deem and Ramdas Pophale) SiO2 
 PCOD8239507
Probable space group: P M M N
;
_chemical_formula_sum "Si O2"
_cell_formula_units_Z 64
_cell_length_a 30.205140
_cell_length_b 8.721331
_cell_length_c 14.998991
_cell_angle_alpha 90.000000
_cell_angle_beta 90.000000
_cell_angle_gamma 90.000000
_cell_volume 3951.169558
_symmetry_space_group_name_H-M "P M M N"
_symmetry_group_IT_number 59
_space_group.IT_coordinate_system_code '2'
_symmetry_cell_setting 'orthorhombic'
loop_
_space_group_symop_operation_xyz
x,y,z
1/2-x,1/2-y,z
1/2+x,-y,-z
-x,1/2+y,-z
-x,-y,-z
1/2+x,1/2+y,-z
1/2-x,y,z
x,1/2-y,z
loop_
_atom_site_type_symbol
_atom_site_label
_atom_site_fract_x
_atom_site_fract_y
_atom_site_fract_z
Si Si1 0.944958 0.073176 0.443440
Si Si2 0.393400 0.932144 0.043875
Si Si3 0.969460 0.074257 0.633345
Si Si4 0.702495 0.432456 0.211929
Si Si5 0.054357 0.932404 0.870273
Si Si6 0.201493 0.931959 0.990310
Si Si7 0.614499 0.069964 0.288675
Si Si8 0.542264 0.570029 0.819650
O O1 0.959283 0.250000 0.426488
O O2 0.936709 0.044724 0.548721
O O3 0.900138 0.033280 0.389692
O O4 0.981959 0.963111 0.402927
O O5 0.393852 0.750000 0.042096
O O6 0.342126 0.992581 0.043039
O O7 0.416062 0.990761 0.133632
O O8 0.421382 0.995436 0.958975
O O9 0.967777 0.250000 0.665020
O O10 0.955423 0.967589 0.714874
O O11 0.750000 0.492544 0.248016
O O12 0.701931 0.250000 0.213813
O O13 0.663208 0.501777 0.272724
O O14 0.695508 0.488516 0.110890
O O15 0.054390 0.750000 0.869871
O O16 0.079855 0.997599 0.783444
O O17 0.003611 0.991700 0.863480
O O18 0.250000 0.990978 0.027040
O O19 0.201798 0.750000 0.993798
O O20 0.617024 0.250000 0.271265
O O21 0.546528 0.750000 0.832144
#
# Coordination Sequence:
#
# PCOD8239507 Si02
#       8
#     8   8   8   8   8   8   8   8
#     4   9  17  29  46  64  86 115 143 175 222 267
#     4  10  18  29  45  65  87 115 149 182 213 255
#     4  10  19  30  44  64  85 110 148 189 221 255
#     4   8  12  18  33  60  90 115 139 169 205 253
#     4   9  16  26  41  60  85 119 150 173 205 252
#     4   8  13  22  38  62  89 112 136 172 216 256
#     4   9  13  22  40  61  87 118 144 166 207 261
#     4  11  21  32  44  59  86 122 154 184 220 259
#
# _framework density 16.197735999999999
#
# number of rings (size 3 to 8) (size 9 to 14) (size 15 to 20)
#    0.000    2.750    2.500    1.875    0.000    0.500 
#    0.000    0.625    0.000    0.375    0.000    0.875 
#    0.000    5.500    0.000    0.000    0.000    0.000 
#
# Total GULP energy -792958.551132 kJ/mol
# GULP energy per Si atom -12389.977361 kJ/mol
# Density = 1.616087 g / cm^3
# Si number density = 16.197736 Si / 1000 Ang^3
#
#
#
# Elastic Constant Matrix: (Units=GPa)
#
#
# Indices 1 2 3 4 5 6 
#
# 1 144.7745 13.1101 56.6889 0.0000 0.0000 0.0000
# 2 13.1101 12.3409 7.3808 0.0000 0.0000 0.0000
# 3 56.6889 7.3808 82.1607 0.0000 0.0000 0.0000
# 4 0.0000 0.0000 0.0000 16.2186 0.0000 0.0000
# 5 0.0000 0.0000 0.0000 0.0000 24.3436 0.0000
# 6 0.0000 0.0000 0.0000 0.0000 0.0000 12.1667
#
#
#
# Elastic Compliance Matrix: (Units=1/GPa)
#
#
# Indices 1 2 3 4 5 6 
#
# 1 0.009984 -0.006855 -0.006273 0.000000 0.000000 0.000000
# 2 -0.006855 0.090338 -0.003386 0.000000 0.000000 0.000000
# 3 -0.006273 -0.003386 0.016804 0.000000 0.000000 0.000000
# 4 0.000000 0.000000 0.000000 0.061658 0.000000 0.000000
# 5 0.000000 0.000000 0.000000 0.000000 0.041079 0.000000
# 6 0.000000 0.000000 0.000000 0.000000 0.000000 0.082192
#
#
# Mechanical properties :
#
#
# Convention : Reuss Voigt Hill
#
# Bulk Modulus (GPa) = 11.89078 43.73729 27.81404
# Shear Modulus (GPa) = 13.76974 21.35218 17.56096
#
# Velocity S-wave (km/s) = 2.91882 3.63467 3.29623
# Velocity P-wave (km/s) = 4.32623 6.68395 5.62989
#
# Compressibility (1/GPa) = 0.08409880
#
# Stress axis : x y z
#
# Youngs Moduli (GPa) = 100.15613 11.06951 59.51036
#
# Poissons Ratio (x) = 0.07588 0.37332
# Poissons Ratio (y) = 0.68655 0.20149
# Poissons Ratio (z) = 0.62830 0.03748
#
# Static dielectric constant tensor:
#      x y z
#    x 3.459870 0.000000 0.000000 
#    y 0.000000 2.646040 0.000000 
#    z 0.000000 0.000000 3.044400 
# 
# 
# High freq. dielectric constant tensor:
#      x y z
#    x 1.617190 0.000000 0.000000 
#    y 0.000000 1.581190 0.000000 
#    z 0.000000 0.000000 1.604280 
# 
# From -- ./inp_files/25045.got.cif
#   From: 2010.03.12/outbox.cif.g09.slc.cpg/sg59_13_cif.got.tgz:25045.got - 2010.04.16 16:29:54.
