data_PCOD8239561
_publ_section_title
;
Structure prediction by ZEFSAII (Michael W. Deem and Ramdas Pophale) SiO2 
 PCOD8239561
Probable space group: P M M N
;
_chemical_formula_sum "Si O2"
_cell_formula_units_Z 64
_cell_length_a 9.178868
_cell_length_b 21.432321
_cell_length_c 19.206460
_cell_angle_alpha 90.000000
_cell_angle_beta 90.000000
_cell_angle_gamma 90.000000
_cell_volume 3778.380191
_symmetry_space_group_name_H-M "P M M N"
_symmetry_group_IT_number 59
_space_group.IT_coordinate_system_code '2'
_symmetry_cell_setting 'orthorhombic'
loop_
_space_group_symop_operation_xyz
x,y,z
1/2-x,1/2-y,z
1/2+x,-y,-z
-x,1/2+y,-z
-x,-y,-z
1/2+x,1/2+y,-z
1/2-x,y,z
x,1/2-y,z
loop_
_atom_site_type_symbol
_atom_site_label
_atom_site_fract_x
_atom_site_fract_y
_atom_site_fract_z
Si Si1 0.914948 0.012069 0.313863
Si Si2 0.583666 0.870455 0.330622
Si Si3 0.915429 0.944744 0.965818
Si Si4 0.579229 0.056238 0.460311
Si Si5 0.078642 0.004390 0.173089
Si Si6 0.080803 0.679607 0.459448
Si Si7 0.079629 0.387149 0.898371
Si Si8 0.085260 0.820401 0.204637
O O1 0.750000 0.024573 0.288867
O O2 0.928334 0.943397 0.347643
O O3 0.960020 0.056816 0.378002
O O4 0.018125 0.024842 0.248027
O O5 0.750000 0.848482 0.321584
O O6 0.511048 0.828467 0.389549
O O7 0.497608 0.863406 0.259103
O O8 0.750000 0.965373 0.973267
O O9 0.950975 0.938637 0.883091
O O10 0.945047 0.885873 0.017203
O O11 0.000000 0.000000 0.000000
O O12 0.750000 0.044685 0.471480
O O13 0.532533 0.125313 0.486850
O O14 0.500000 0.000000 0.500000
O O15 0.250000 0.990452 0.180966
O O16 0.996974 0.944370 0.142353
O O17 0.250000 0.671994 0.440036
O O18 0.051252 0.750000 0.489094
O O19 0.250000 0.387945 0.879310
O O20 0.000332 0.325636 0.868926
O O21 0.250000 0.844366 0.196184
O O22 0.081342 0.750000 0.231153
#
# Coordination Sequence:
#
# PCOD8239561 Si02
#       8
#     8   8   8   8   8   8   8   8
#     4  10  20  32  47  71 100 130 163 201 244 292
#     4  11  21  33  50  71  98 131 166 203 241 289
#     4   8  16  28  43  66  92 118 150 186 226 274
#     4  10  20  35  53  72  99 129 163 205 250 299
#     4  10  18  29  47  70  96 125 155 190 235 287
#     4  10  21  36  54  75  98 128 166 207 250 298
#     4  10  18  30  47  66  92 124 158 198 238 282
#     4  11  23  35  46  64  93 129 169 207 240 283
#
# _framework density 16.938476999999999
#
# number of rings (size 3 to 8) (size 9 to 14) (size 15 to 20)
#    0.000    2.000    2.500    1.875    0.000    4.750 
#    0.000    0.000    0.000    0.000    0.000    0.875 
#    0.000    3.000    0.000    0.000    0.000    0.000 
#
# Total GULP energy -792941.981633 kJ/mol
# GULP energy per Si atom -12389.718463 kJ/mol
# Density = 1.689992 g / cm^3
# Si number density = 16.938477 Si / 1000 Ang^3
#
#
#
# Elastic Constant Matrix: (Units=GPa)
#
#
# Indices 1 2 3 4 5 6 
#
# 1 88.8468 32.0953 47.7082 0.0000 0.0000 0.0000
# 2 32.0953 67.2080 45.4222 0.0000 0.0000 0.0000
# 3 47.7082 45.4222 109.4856 0.0000 0.0000 0.0000
# 4 0.0000 0.0000 0.0000 23.5850 0.0000 0.0000
# 5 0.0000 0.0000 0.0000 0.0000 27.2847 0.0000
# 6 0.0000 0.0000 0.0000 0.0000 0.0000 18.5333
#
#
#
# Elastic Compliance Matrix: (Units=1/GPa)
#
#
# Indices 1 2 3 4 5 6 
#
# 1 0.015402 -0.003918 -0.005086 0.000000 0.000000 0.000000
# 2 -0.003918 0.021673 -0.007284 0.000000 0.000000 0.000000
# 3 -0.005086 -0.007284 0.014372 0.000000 0.000000 0.000000
# 4 0.000000 0.000000 0.000000 0.042400 0.000000 0.000000
# 5 0.000000 0.000000 0.000000 0.000000 0.036651 0.000000
# 6 0.000000 0.000000 0.000000 0.000000 0.000000 0.053957
#
#
# Mechanical properties :
#
#
# Convention : Reuss Voigt Hill
#
# Bulk Modulus (GPa) = 52.99247 57.33241 55.16244
# Shear Modulus (GPa) = 22.38937 23.23491 22.81214
#
# Velocity S-wave (km/s) = 3.63961 3.70770 3.67381
# Velocity P-wave (km/s) = 7.00111 7.22844 7.11568
#
# Compressibility (1/GPa) = 0.01887061
#
# Stress axis : x y z
#
# Youngs Moduli (GPa) = 64.92847 46.13980 69.58056
#
# Poissons Ratio (x) = 0.18077 0.35388
# Poissons Ratio (y) = 0.25438 0.50685
# Poissons Ratio (z) = 0.33022 0.33610
#
# Static dielectric constant tensor:
#      x y z
#    x 3.256000 0.000000 0.000000 
#    y 0.000000 3.052620 0.000000 
#    z 0.000000 0.000000 3.558110 
# 
# 
# High freq. dielectric constant tensor:
#      x y z
#    x 1.666040 0.000000 0.000000 
#    y 0.000000 1.612280 0.000000 
#    z 0.000000 0.000000 1.655630 
# 
# From -- ./inp_files/26557.got.cif
#   From: 2010.03.12/outbox.cif.g09.slc.cpg/sg59_14_cif.got.tgz:26557.got - 2010.04.16 16:29:54.
