data_PCOD8239644
_publ_section_title
;
Structure prediction by ZEFSAII (Michael W. Deem and Ramdas Pophale) SiO2 
 PCOD8239644
Probable space group: P M M N
;
_chemical_formula_sum "Si O2"
_cell_formula_units_Z 64
_cell_length_a 8.862385
_cell_length_b 21.533009
_cell_length_c 19.176722
_cell_angle_alpha 90.000000
_cell_angle_beta 90.000000
_cell_angle_gamma 90.000000
_cell_volume 3659.567037
_symmetry_space_group_name_H-M "P M M N"
_symmetry_group_IT_number 59
_space_group.IT_coordinate_system_code '2'
_symmetry_cell_setting 'orthorhombic'
loop_
_space_group_symop_operation_xyz
x,y,z
1/2-x,1/2-y,z
1/2+x,-y,-z
-x,1/2+y,-z
-x,-y,-z
1/2+x,1/2+y,-z
1/2-x,y,z
x,1/2-y,z
loop_
_atom_site_type_symbol
_atom_site_label
_atom_site_fract_x
_atom_site_fract_y
_atom_site_fract_z
Si Si1 0.073278 0.060694 0.532435
Si Si2 0.428177 0.011271 0.827340
Si Si3 0.073996 0.614075 0.588410
Si Si4 0.429139 0.941319 0.041406
Si Si5 0.923554 0.885794 0.837313
Si Si6 0.576056 0.679157 0.976680
Si Si7 0.426516 0.493512 0.670969
Si Si8 0.919624 0.819647 0.699604
O O1 0.250000 0.057790 0.519825
O O2 0.038672 0.062875 0.616085
O O3 0.002729 0.117610 0.488559
O O4 0.000000 0.000000 0.500000
O O5 0.250000 0.023119 0.831842
O O6 0.514124 0.058610 0.878336
O O7 0.493627 0.019713 0.748018
O O8 0.467183 0.942728 0.856008
O O9 0.250000 0.610127 0.575786
O O10 0.010905 0.556442 0.635173
O O11 0.026633 0.674425 0.631974
O O12 0.250000 0.948152 0.037313
O O13 0.476941 0.873501 0.013992
O O14 0.500000 0.000000 0.000000
O O15 0.750000 0.908826 0.834674
O O16 0.940986 0.831410 0.893895
O O17 0.979533 0.861180 0.762926
O O18 0.750000 0.671018 0.999726
O O19 0.521604 0.750000 0.993622
O O20 0.250000 0.502837 0.681643
O O21 0.750000 0.838677 0.678495
O O22 0.925834 0.750000 0.726801
#
# Coordination Sequence:
#
# PCOD8239644 Si02
#       8
#     8   8   8   8   8   8   8   8
#     4   9  16  28  45  68  94 124 158 197 243 294
#     4  11  20  33  53  77 106 141 174 214 264 318
#     4  10  18  30  45  66  95 130 169 209 252 297
#     4  12  24  38  55  79 109 142 181 225 270 320
#     4  10  19  32  51  75 104 138 176 217 260 312
#     4  10  21  38  59  81 106 139 178 221 270 324
#     4   8  16  29  46  69  98 126 159 201 249 302
#     4  10  20  32  46  68  99 137 178 217 257 305
#
# _framework density 17.488408
#
# number of rings (size 3 to 8) (size 9 to 14) (size 15 to 20)
#    0.000    2.000    2.500    3.375    0.000    2.000 
#    0.000    1.875    0.000    2.250    0.000    0.875 
#    0.000    7.000    0.000    0.000    0.000    0.000 
#
# Total GULP energy -793066.836189 kJ/mol
# GULP energy per Si atom -12391.669315 kJ/mol
# Density = 1.744860 g / cm^3
# Si number density = 17.488408 Si / 1000 Ang^3
#
#
#
# Elastic Constant Matrix: (Units=GPa)
#
#
# Indices 1 2 3 4 5 6 
#
# 1 85.2229 32.4765 43.9196 0.0000 0.0000 0.0000
# 2 32.4765 73.2150 40.7432 0.0000 0.0000 0.0000
# 3 43.9196 40.7432 107.7327 0.0000 0.0000 0.0000
# 4 0.0000 0.0000 0.0000 23.5633 0.0000 0.0000
# 5 0.0000 0.0000 0.0000 0.0000 25.2930 0.0000
# 6 0.0000 0.0000 0.0000 0.0000 0.0000 22.7659
#
#
#
# Elastic Compliance Matrix: (Units=1/GPa)
#
#
# Indices 1 2 3 4 5 6 
#
# 1 0.015882 -0.004359 -0.004826 0.000000 0.000000 0.000000
# 2 -0.004359 0.018496 -0.005218 0.000000 0.000000 0.000000
# 3 -0.004826 -0.005218 0.013223 0.000000 0.000000 0.000000
# 4 0.000000 0.000000 0.000000 0.042439 0.000000 0.000000
# 5 0.000000 0.000000 0.000000 0.000000 0.039537 0.000000
# 6 0.000000 0.000000 0.000000 0.000000 0.000000 0.043925
#
#
# Mechanical properties :
#
#
# Convention : Reuss Voigt Hill
#
# Bulk Modulus (GPa) = 53.20651 55.60547 54.40599
# Shear Modulus (GPa) = 23.97242 24.25986 24.11614
#
# Velocity S-wave (km/s) = 3.70639 3.72855 3.71749
# Velocity P-wave (km/s) = 6.98616 7.09935 7.04298
#
# Compressibility (1/GPa) = 0.01879469
#
# Stress axis : x y z
#
# Youngs Moduli (GPa) = 62.96301 54.06668 75.62609
#
# Poissons Ratio (x) = 0.23570 0.36498
# Poissons Ratio (y) = 0.27448 0.39459
# Poissons Ratio (z) = 0.30387 0.28210
#
# Static dielectric constant tensor:
#      x y z
#    x 3.207470 0.000000 0.000000 
#    y 0.000000 3.036260 0.000000 
#    z 0.000000 0.000000 3.680040 
# 
# 
# High freq. dielectric constant tensor:
#      x y z
#    x 1.671230 0.000000 0.000000 
#    y 0.000000 1.632910 0.000000 
#    z 0.000000 0.000000 1.682830 
# 
# From -- ./inp_files/29658.got.cif
#   From: 2010.03.12/outbox.cif.g09.slc.cpg/sg59_15_cif.got.tgz:29658.got - 2010.04.16 16:29:54.
