data_PCOD8239470
_publ_section_title
;
Structure prediction by ZEFSAII (Michael W. Deem and Ramdas Pophale) SiO2 
 PCOD8239470
Probable space group: P M M N
;
_chemical_formula_sum "Si O2"
_cell_formula_units_Z 56
_cell_length_a 21.784691
_cell_length_b 8.925240
_cell_length_c 15.004922
_cell_angle_alpha 90.000000
_cell_angle_beta 90.000000
_cell_angle_gamma 90.000000
_cell_volume 2917.460935
_symmetry_space_group_name_H-M "P M M N"
_symmetry_group_IT_number 59
_space_group.IT_coordinate_system_code '2'
_symmetry_cell_setting 'orthorhombic'
loop_
_space_group_symop_operation_xyz
x,y,z
1/2-x,1/2-y,z
1/2+x,-y,-z
-x,1/2+y,-z
-x,-y,-z
1/2+x,1/2+y,-z
1/2-x,y,z
x,1/2-y,z
loop_
_atom_site_type_symbol
_atom_site_label
_atom_site_fract_x
_atom_site_fract_y
_atom_site_fract_z
Si Si1 0.678030 0.422916 0.273511
Si Si2 0.454717 0.427197 0.206457
Si Si3 0.181995 0.927479 0.527165
Si Si4 0.078904 0.426363 0.841658
Si Si5 0.250000 0.425136 0.071295
Si Si6 0.124322 0.921138 0.351147
Si Si7 0.382368 0.427973 0.033972
Si Si8 0.250000 0.584197 0.249516
O O1 0.750000 0.449745 0.258367
O O2 0.660904 0.250000 0.255856
O O3 0.658953 0.470559 0.373998
O O4 0.641998 0.528703 0.205803
O O5 0.457720 0.250000 0.203273
O O6 0.523118 0.490327 0.205422
O O7 0.423792 0.476802 0.298684
O O8 0.417153 0.492197 0.121216
O O9 0.250000 0.997283 0.510773
O O10 0.188533 0.750000 0.519283
O O11 0.132332 0.981213 0.453086
O O12 0.069306 0.250000 0.834047
O O13 0.082128 0.477970 0.945072
O O14 0.250000 0.250000 0.054686
O O15 0.250000 0.455589 0.176181
O O16 0.312653 0.493926 0.029740
O O17 0.100676 0.750000 0.348007
O O18 0.191217 0.936815 0.310120
O O19 0.379180 0.250000 0.041408
O O20 0.250000 0.750000 0.205076
#
# Coordination Sequence:
#
# PCOD8239470 Si02
#       8
#     8   8   8   8   4   8   8   4
#     4   9  19  37  60  85 111 140 178 225 273 321
#     4  11  22  38  56  78 109 147 185 223 267 320
#     4   8  14  29  55  83 111 143 177 216 268 325
#     4  11  23  39  58  79 105 143 188 229 271 317
#     4  10  18  34  54  77 110 144 176 213 268 329
#     4  10  18  31  54  84 114 144 179 217 264 322
#     4   9  20  35  56  80 107 143 181 221 269 324
#     4  10  18  28  48  81 116 142 172 219 266 311
#
# _framework density 19.194773000000001
#
# number of rings (size 3 to 8) (size 9 to 14) (size 15 to 20)
#    0.000    2.286    2.143    2.143    1.000    0.286 
#    0.000    5.000    0.000    0.857    0.000    0.000 
#    0.000    0.000    0.000    0.000    0.000    0.000 
#
# Total GULP energy -694234.850511 kJ/mol
# GULP energy per Si atom -12397.050902 kJ/mol
# Density = 1.915108 g / cm^3
# Si number density = 19.194773 Si / 1000 Ang^3
#
#
#
# Elastic Constant Matrix: (Units=GPa)
#
#
# Indices 1 2 3 4 5 6 
#
# 1 83.2073 24.1050 28.0410 0.0000 0.0000 0.0000
# 2 24.1050 44.0394 22.1356 0.0000 0.0000 0.0000
# 3 28.0410 22.1356 96.6990 0.0000 0.0000 0.0000
# 4 0.0000 0.0000 0.0000 23.3193 0.0000 0.0000
# 5 0.0000 0.0000 0.0000 0.0000 20.9652 0.0000
# 6 0.0000 0.0000 0.0000 0.0000 0.0000 24.0707
#
#
#
# Elastic Compliance Matrix: (Units=1/GPa)
#
#
# Indices 1 2 3 4 5 6 
#
# 1 0.014914 -0.006768 -0.002776 0.000000 0.000000 0.000000
# 2 -0.006768 0.028731 -0.004614 0.000000 0.000000 0.000000
# 3 -0.002776 -0.004614 0.012202 0.000000 0.000000 0.000000
# 4 0.000000 0.000000 0.000000 0.042883 0.000000 0.000000
# 5 0.000000 0.000000 0.000000 0.000000 0.047698 0.000000
# 6 0.000000 0.000000 0.000000 0.000000 0.000000 0.041544
#
#
# Mechanical properties :
#
#
# Convention : Reuss Voigt Hill
#
# Bulk Modulus (GPa) = 36.32188 41.38985 38.85587
# Shear Modulus (GPa) = 22.17632 23.64867 22.91249
#
# Velocity S-wave (km/s) = 3.40270 3.51385 3.45872
# Velocity P-wave (km/s) = 5.86530 6.17031 6.01974
#
# Compressibility (1/GPa) = 0.02753161
#
# Stress axis : x y z
#
# Youngs Moduli (GPa) = 67.04980 34.80591 81.95066
#
# Poissons Ratio (x) = 0.23558 0.22746
# Poissons Ratio (y) = 0.45381 0.37813
# Poissons Ratio (z) = 0.18610 0.16060
#
# Static dielectric constant tensor:
#      x y z
#    x 3.508170 0.000000 0.000000 
#    y 0.000000 3.184980 0.000000 
#    z 0.000000 0.000000 3.749320 
# 
# 
# High freq. dielectric constant tensor:
#      x y z
#    x 1.742430 0.000000 0.000000 
#    y 0.000000 1.712490 0.000000 
#    z 0.000000 0.000000 1.751490 
# 
# From -- ./inp_files/24385.got.cif
#   From: 2010.03.12/outbox.cif.g09.slc.cpg/sg59_13_cif.got.tgz:24385.got - 2010.04.16 16:29:54.
