data_PCOD8239558
_publ_section_title
;
Structure prediction by ZEFSAII (Michael W. Deem and Ramdas Pophale) SiO2 
 PCOD8239558
Probable space group: P M M N
;
_chemical_formula_sum "Si O2"
_cell_formula_units_Z 48
_cell_length_a 8.695844
_cell_length_b 26.519739
_cell_length_c 11.883316
_cell_angle_alpha 90.000000
_cell_angle_beta 90.000000
_cell_angle_gamma 90.000000
_cell_volume 2740.429485
_symmetry_space_group_name_H-M "P M M N"
_symmetry_group_IT_number 59
_space_group.IT_coordinate_system_code '2'
_symmetry_cell_setting 'orthorhombic'
loop_
_space_group_symop_operation_xyz
x,y,z
1/2-x,1/2-y,z
1/2+x,-y,-z
-x,1/2+y,-z
-x,-y,-z
1/2+x,1/2+y,-z
1/2-x,y,z
x,1/2-y,z
loop_
_atom_site_type_symbol
_atom_site_label
_atom_site_fract_x
_atom_site_fract_y
_atom_site_fract_z
Si Si1 0.068678 0.946378 0.536234
Si Si2 0.422285 0.876484 0.992175
Si Si3 0.929958 0.887210 0.342851
Si Si4 0.066459 0.692524 0.184451
Si Si5 0.423672 0.540378 0.171838
Si Si6 0.932380 0.062614 0.206855
O O1 0.250000 0.950065 0.522194
O O2 0.020784 0.932152 0.663377
O O3 0.003117 0.900161 0.463435
O O4 0.000000 0.000000 0.500000
O O5 0.250000 0.856818 0.976928
O O6 0.503445 0.833661 0.070200
O O7 0.429532 0.930047 0.055053
O O8 0.488585 0.888062 0.866533
O O9 0.750000 0.879465 0.357021
O O10 0.002585 0.835792 0.294199
O O11 0.963617 0.934285 0.262200
O O12 0.250000 0.687361 0.187046
O O13 0.010684 0.750000 0.187202
O O14 0.250000 0.540983 0.220659
O O15 0.480882 0.484266 0.151111
O O16 0.750000 0.055370 0.191944
#
# Coordination Sequence:
#
# PCOD8239558 Si02
#       6
#     8   8   8   8   8   8
#     4  11  21  32  48  70 102 142 180 215 248 294
#     4   8  16  30  47  72 100 127 160 200 249 305
#     4  11  21  33  50  73 102 135 173 213 253 298
#     4   9  18  35  59  81 100 124 158 207 263 310
#     4  10  18  29  47  69  99 133 167 206 246 294
#     4  10  19  30  46  68 100 137 170 202 245 299
#
# _framework density 17.515502000000001
#
# number of rings (size 3 to 8) (size 9 to 14) (size 15 to 20)
#    0.000    2.167    1.667    4.000    0.000    1.000 
#    0.000    3.333    0.000    1.000    0.000    4.667 
#    0.000    0.000    0.000    0.000    0.000    0.000 
#
# Total GULP energy -594837.574267 kJ/mol
# GULP energy per Si atom -12392.449464 kJ/mol
# Density = 1.747564 g / cm^3
# Si number density = 17.515502 Si / 1000 Ang^3
#
#
#
# Elastic Constant Matrix: (Units=GPa)
#
#
# Indices 1 2 3 4 5 6 
#
# 1 55.0318 29.3396 31.4597 0.0000 0.0000 0.0000
# 2 29.3396 121.1797 64.5931 0.0000 0.0000 0.0000
# 3 31.4597 64.5931 113.5818 0.0000 0.0000 0.0000
# 4 0.0000 0.0000 0.0000 18.2480 0.0000 0.0000
# 5 0.0000 0.0000 0.0000 0.0000 16.9946 0.0000
# 6 0.0000 0.0000 0.0000 0.0000 0.0000 21.0175
#
#
#
# Elastic Compliance Matrix: (Units=1/GPa)
#
#
# Indices 1 2 3 4 5 6 
#
# 1 0.022338 -0.003028 -0.004465 0.000000 0.000000 0.000000
# 2 -0.003028 0.012252 -0.006129 0.000000 0.000000 0.000000
# 3 -0.004465 -0.006129 0.013526 0.000000 0.000000 0.000000
# 4 0.000000 0.000000 0.000000 0.054801 0.000000 0.000000
# 5 0.000000 0.000000 0.000000 0.000000 0.058842 0.000000
# 6 0.000000 0.000000 0.000000 0.000000 0.000000 0.047580
#
#
# Mechanical properties :
#
#
# Convention : Reuss Voigt Hill
#
# Bulk Modulus (GPa) = 47.91044 60.06424 53.98734
# Shear Modulus (GPa) = 20.53035 22.21208 21.37121
#
# Velocity S-wave (km/s) = 3.42734 3.56496 3.49683
# Velocity P-wave (km/s) = 6.56314 7.16322 6.86973
#
# Compressibility (1/GPa) = 0.02087228
#
# Stress axis : x y z
#
# Youngs Moduli (GPa) = 44.76601 81.61625 73.92907
#
# Poissons Ratio (x) = 0.24717 0.33009
# Poissons Ratio (y) = 0.13557 0.45312
# Poissons Ratio (z) = 0.19988 0.50023
#
# Static dielectric constant tensor:
#      x y z
#    x 3.133560 0.000000 0.000000 
#    y 0.000000 3.127880 0.000000 
#    z 0.000000 0.000000 3.508010 
# 
# 
# High freq. dielectric constant tensor:
#      x y z
#    x 1.664720 0.000000 0.000000 
#    y 0.000000 1.645580 0.000000 
#    z 0.000000 0.000000 1.682080 
# 
# From -- ./inp_files/14397.got.cif
#   From: 2010.03.12/outbox.cif.g09.slc.cpg/sg59_8_cif.got.tgz:14397.got - 2010.04.16 16:29:54.
