data_PCOD8239616
_publ_section_title
;
Structure prediction by ZEFSAII (Michael W. Deem and Ramdas Pophale) SiO2 
 PCOD8239616
Probable space group: P M M N
;
_chemical_formula_sum "Si O2"
_cell_formula_units_Z 64
_cell_length_a 33.975087
_cell_length_b 8.912911
_cell_length_c 11.718337
_cell_angle_alpha 90.000000
_cell_angle_beta 90.000000
_cell_angle_gamma 90.000000
_cell_volume 3548.510796
_symmetry_space_group_name_H-M "P M M N"
_symmetry_group_IT_number 59
_space_group.IT_coordinate_system_code '2'
_symmetry_cell_setting 'orthorhombic'
loop_
_space_group_symop_operation_xyz
x,y,z
1/2-x,1/2-y,z
1/2+x,-y,-z
-x,1/2+y,-z
-x,-y,-z
1/2+x,1/2+y,-z
1/2-x,y,z
x,1/2-y,z
loop_
_atom_site_type_symbol
_atom_site_label
_atom_site_fract_x
_atom_site_fract_y
_atom_site_fract_z
Si Si1 0.587636 0.425102 0.900664
Si Si2 0.016960 0.575152 0.245030
Si Si3 0.124682 0.926079 0.860432
Si Si4 0.793614 0.427288 0.045743
Si Si5 0.629854 0.922901 0.696947
Si Si6 0.066936 0.427623 0.694053
Si Si7 0.929310 0.072705 0.548665
Si Si8 0.206558 0.420606 0.189564
O O1 0.596946 0.250000 0.875450
O O2 0.541548 0.460315 0.870751
O O3 0.613552 0.528950 0.820002
O O4 0.597735 0.467329 0.030216
O O5 0.014265 0.750000 0.266563
O O6 0.039823 0.511871 0.356454
O O7 0.972214 0.514165 0.238008
O O8 0.123934 0.750000 0.837460
O O9 0.169971 0.983676 0.875485
O O10 0.106094 0.007261 0.751659
O O11 0.750000 0.488632 0.084362
O O12 0.793268 0.250000 0.048637
O O13 0.803223 0.473893 0.917078
O O14 0.618953 0.750000 0.672943
O O15 0.676837 0.948310 0.705495
O O16 0.613850 0.026509 0.594952
O O17 0.070727 0.250000 0.692822
O O18 0.061970 0.486582 0.566783
O O19 0.930954 0.250000 0.528238
O O20 0.250000 0.455030 0.237576
O O21 0.202948 0.250000 0.144985
#
# Coordination Sequence:
#
# PCOD8239616 Si02
#       8
#     8   8   8   8   8   8   8   8
#     4   9  17  32  51  72 101 136 168 201 248 299
#     4   8  17  33  53  75  99 128 163 207 254 298
#     4  10  20  33  50  73 105 139 169 205 248 297
#     4   9  17  30  50  75 101 132 170 207 241 285
#     4  10  18  29  49  76 104 130 162 203 248 297
#     4  11  22  35  51  73 100 131 172 214 248 292
#     4  10  20  36  56  73  95 128 167 210 257 302
#     4   9  17  28  45  73 107 135 158 193 245 301
#
# _framework density 18.035734999999999
#
# number of rings (size 3 to 8) (size 9 to 14) (size 15 to 20)
#    0.000    2.500    1.250    2.250    0.000    2.000 
#    0.000    5.625    0.000    0.750    0.000    0.000 
#    0.000    0.000    0.000    0.000    0.000    0.000 
#
# Total GULP energy -793150.989790 kJ/mol
# GULP energy per Si atom -12392.984215 kJ/mol
# Density = 1.799469 g / cm^3
# Si number density = 18.035735 Si / 1000 Ang^3
#
#
#
# Elastic Constant Matrix: (Units=GPa)
#
#
# Indices 1 2 3 4 5 6 
#
# 1 125.9896 26.9835 30.2423 0.0000 0.0000 0.0000
# 2 26.9835 30.0702 14.1949 0.0000 0.0000 0.0000
# 3 30.2423 14.1949 44.1268 0.0000 0.0000 0.0000
# 4 0.0000 0.0000 0.0000 26.3569 0.0000 0.0000
# 5 0.0000 0.0000 0.0000 0.0000 22.3124 0.0000
# 6 0.0000 0.0000 0.0000 0.0000 0.0000 21.2553
#
#
#
# Elastic Compliance Matrix: (Units=1/GPa)
#
#
# Indices 1 2 3 4 5 6 
#
# 1 0.010685 -0.007229 -0.004997 0.000000 0.000000 0.000000
# 2 -0.007229 0.044101 -0.009232 0.000000 0.000000 0.000000
# 3 -0.004997 -0.009232 0.029057 0.000000 0.000000 0.000000
# 4 0.000000 0.000000 0.000000 0.037941 0.000000 0.000000
# 5 0.000000 0.000000 0.000000 0.000000 0.044818 0.000000
# 6 0.000000 0.000000 0.000000 0.000000 0.000000 0.047047
#
#
# Mechanical properties :
#
#
# Convention : Reuss Voigt Hill
#
# Bulk Modulus (GPa) = 24.43480 38.11421 31.27450
# Shear Modulus (GPa) = 18.50431 22.56931 20.53681
#
# Velocity S-wave (km/s) = 3.20657 3.54130 3.37808
# Velocity P-wave (km/s) = 5.22368 6.15626 5.70905
#
# Compressibility (1/GPa) = 0.04092525
#
# Stress axis : x y z
#
# Youngs Moduli (GPa) = 93.58884 22.67541 34.41544
#
# Poissons Ratio (x) = 0.16392 0.17199
# Poissons Ratio (y) = 0.67657 0.31772
# Poissons Ratio (z) = 0.46771 0.20934
#
# Static dielectric constant tensor:
#      x y z
#    x 3.932430 0.000000 0.000000 
#    y 0.000000 3.210660 0.000000 
#    z 0.000000 0.000000 3.029770 
# 
# 
# High freq. dielectric constant tensor:
#      x y z
#    x 1.710240 0.000000 0.000000 
#    y 0.000000 1.689710 0.000000 
#    z 0.000000 0.000000 1.663080 
# 
# From -- ./inp_files/19329.got.cif
#   From: 2010.03.12/outbox.cif.g09.slc.cpg/sg59_10_cif.got.tgz:19329.got - 2010.04.16 16:29:54.
