data_PCOD8239742
_publ_section_title
;
Structure prediction by ZEFSAII (Michael W. Deem and Ramdas Pophale) SiO2 
 PCOD8239742
Probable space group: P M M N
;
_chemical_formula_sum "Si O2"
_cell_formula_units_Z 64
_cell_length_a 29.224225
_cell_length_b 9.109834
_cell_length_c 14.812489
_cell_angle_alpha 90.000000
_cell_angle_beta 90.000000
_cell_angle_gamma 90.000000
_cell_volume 3943.496930
_symmetry_space_group_name_H-M "P M M N"
_symmetry_group_IT_number 59
_space_group.IT_coordinate_system_code '2'
_symmetry_cell_setting 'orthorhombic'
loop_
_space_group_symop_operation_xyz
x,y,z
1/2-x,1/2-y,z
1/2+x,-y,-z
-x,1/2+y,-z
-x,-y,-z
1/2+x,1/2+y,-z
1/2-x,y,z
x,1/2-y,z
loop_
_atom_site_type_symbol
_atom_site_label
_atom_site_fract_x
_atom_site_fract_y
_atom_site_fract_z
Si Si1 0.110620 0.576813 0.466040
Si Si2 0.061579 0.418513 0.628800
Si Si3 0.198101 0.077059 0.512783
Si Si4 0.126539 0.414521 0.795618
Si Si5 0.538460 0.422081 0.684836
Si Si6 0.698248 0.416108 0.301893
Si Si7 0.971926 0.580231 0.866304
Si Si8 0.442770 0.082590 0.940760
O O1 0.116979 0.750000 0.474372
O O2 0.087062 0.519457 0.556841
O O3 0.160598 0.503064 0.450152
O O4 0.079468 0.532933 0.381348
O O5 0.063337 0.250000 0.595362
O O6 0.085494 0.437844 0.725085
O O7 0.009381 0.473773 0.640231
O O8 0.250000 0.037227 0.481630
O O9 0.189724 0.250000 0.510026
O O10 0.189368 0.022819 0.614241
O O11 0.146474 0.250000 0.787201
O O12 0.166871 0.530694 0.780363
O O13 0.106768 0.442432 0.895808
O O14 0.536330 0.250000 0.702674
O O15 0.548533 0.498253 0.780048
O O16 0.750000 0.426103 0.267630
O O17 0.685669 0.250000 0.330324
O O18 0.975402 0.750000 0.841621
O O19 0.022125 0.525037 0.892009
O O20 0.938765 0.550789 0.952258
O O21 0.459570 0.250000 0.924202
#
# Coordination Sequence:
#
# PCOD8239742 Si02
#       8
#     8   8   8   8   8   8   8   8
#     4  11  22  33  49  71  95 128 164 201 242 282
#     4  10  19  32  48  66  95 135 168 195 228 274
#     4  10  20  34  51  69  92 124 159 196 241 289
#     4  10  18  30  50  70  94 130 162 192 233 283
#     4  10  21  36  49  65  97 135 165 198 243 283
#     4  10  20  32  47  69  97 124 154 198 241 280
#     4  10  19  30  49  73  93 122 162 201 236 274
#     4   9  18  33  49  68  97 126 155 194 240 282
#
# _framework density 16.22925
#
# number of rings (size 3 to 8) (size 9 to 14) (size 15 to 20)
#    0.000    2.000    2.500    1.875    0.000    4.000 
#    0.000    0.000    0.000    0.000    0.000    0.875 
#    0.000    1.000    0.000    0.000    0.000    0.000 
#
# Total GULP energy -793637.705434 kJ/mol
# GULP energy per Si atom -12400.589147 kJ/mol
# Density = 1.619231 g / cm^3
# Si number density = 16.229250 Si / 1000 Ang^3
#
#
#
# Elastic Constant Matrix: (Units=GPa)
#
#
# Indices 1 2 3 4 5 6 
#
# 1 107.9739 46.7878 43.2238 0.0000 0.0000 0.0000
# 2 46.7878 66.0640 32.4331 0.0000 0.0000 0.0000
# 3 43.2238 32.4331 71.2808 0.0000 0.0000 0.0000
# 4 0.0000 0.0000 0.0000 25.6484 0.0000 0.0000
# 5 0.0000 0.0000 0.0000 0.0000 20.3041 0.0000
# 6 0.0000 0.0000 0.0000 0.0000 0.0000 27.4429
#
#
#
# Elastic Compliance Matrix: (Units=1/GPa)
#
#
# Indices 1 2 3 4 5 6 
#
# 1 0.014831 -0.007840 -0.005426 0.000000 0.000000 0.000000
# 2 -0.007840 0.023635 -0.006000 0.000000 0.000000 0.000000
# 3 -0.005426 -0.006000 0.020049 0.000000 0.000000 0.000000
# 4 0.000000 0.000000 0.000000 0.038989 0.000000 0.000000
# 5 0.000000 0.000000 0.000000 0.000000 0.049251 0.000000
# 6 0.000000 0.000000 0.000000 0.000000 0.000000 0.036439
#
#
# Mechanical properties :
#
#
# Convention : Reuss Voigt Hill
#
# Bulk Modulus (GPa) = 50.04185 54.46757 52.25471
# Shear Modulus (GPa) = 21.89272 22.87069 22.38170
#
# Velocity S-wave (km/s) = 3.67681 3.75804 3.71765
# Velocity P-wave (km/s) = 6.99475 7.24325 7.12009
#
# Compressibility (1/GPa) = 0.01998328
#
# Stress axis : x y z
#
# Youngs Moduli (GPa) = 67.42742 42.31096 49.87678
#
# Poissons Ratio (x) = 0.33170 0.27064
# Poissons Ratio (y) = 0.52860 0.29926
# Poissons Ratio (z) = 0.36587 0.25387
#
# Static dielectric constant tensor:
#      x y z
#    x 3.126450 0.000000 0.000000 
#    y 0.000000 3.154750 0.000000 
#    z 0.000000 0.000000 2.996500 
# 
# 
# High freq. dielectric constant tensor:
#      x y z
#    x 1.612390 0.000000 0.000000 
#    y 0.000000 1.634730 0.000000 
#    z 0.000000 0.000000 1.600630 
# 
# From -- ./inp_files/25062.got.cif
#   From: 2010.03.12/outbox.cif.g09.slc.cpg/sg59_13_cif.got.tgz:25062.got - 2010.04.16 16:29:54.
