data_PCOD8239474
_publ_section_title
;
Structure prediction by ZEFSAII (Michael W. Deem and Ramdas Pophale) SiO2 
 PCOD8239474
Probable space group: P M M N
;
_chemical_formula_sum "Si O2"
_cell_formula_units_Z 64
_cell_length_a 18.084561
_cell_length_b 9.024875
_cell_length_c 21.475328
_cell_angle_alpha 90.000000
_cell_angle_beta 90.000000
_cell_angle_gamma 90.000000
_cell_volume 3505.007663
_symmetry_space_group_name_H-M "P M M N"
_symmetry_group_IT_number 59
_space_group.IT_coordinate_system_code '2'
_symmetry_cell_setting 'orthorhombic'
loop_
_space_group_symop_operation_xyz
x,y,z
1/2-x,1/2-y,z
1/2+x,-y,-z
-x,1/2+y,-z
-x,-y,-z
1/2+x,1/2+y,-z
1/2-x,y,z
x,1/2-y,z
loop_
_atom_site_type_symbol
_atom_site_label
_atom_site_fract_x
_atom_site_fract_y
_atom_site_fract_z
Si Si1 0.586625 0.421470 0.753355
Si Si2 0.664041 0.920111 0.260810
Si Si3 0.467576 0.077525 0.060016
Si Si4 0.924108 0.918523 0.634796
Si Si5 0.578377 0.577018 0.498121
Si Si6 0.597657 0.422929 0.378572
Si Si7 0.952135 0.422650 0.186362
Si Si8 0.666121 0.078112 0.878311
O O1 0.564586 0.250000 0.751239
O O2 0.615307 0.475364 0.685723
O O3 0.514351 0.517935 0.767134
O O4 0.648472 0.451822 0.805668
O O5 0.750000 0.934985 0.246635
O O6 0.639813 0.750000 0.268886
O O7 0.644373 0.008798 0.322830
O O8 0.623302 0.990924 0.200947
O O9 0.458275 0.250000 0.046680
O O10 0.525052 0.045901 0.115461
O O11 0.387008 0.014201 0.076633
O O12 0.500000 0.000000 0.000000
O O13 0.911983 0.750000 0.656097
O O14 0.886051 0.945211 0.567068
O O15 0.011205 0.955451 0.631316
O O16 0.500000 0.500000 0.500000
O O17 0.568341 0.750000 0.483427
O O18 0.625508 0.500289 0.443005
O O19 0.614891 0.250000 0.383081
O O20 0.941021 0.250000 0.199984
O O21 0.750000 0.027399 0.890848
O O22 0.654719 0.250000 0.894365
#
# Coordination Sequence:
#
# PCOD8239474 Si02
#       8
#     8   8   8   8   8   8   8   8
#     4  10  18  28  50  78 103 137 175 215 263 312
#     4  11  23  36  52  75 102 136 179 225 272 323
#     4  10  21  37  60  88 115 146 183 220 261 311
#     4   9  17  28  44  70 101 132 168 215 268 319
#     4   9  17  28  43  65  95 129 167 215 269 320
#     4  10  19  31  48  69  97 132 171 219 273 327
#     4  10  20  35  54  77 106 137 172 215 260 311
#     4   9  19  36  56  81 114 147 180 220 265 313
#
# _framework density 18.259589999999999
#
# number of rings (size 3 to 8) (size 9 to 14) (size 15 to 20)
#    0.000    2.250    1.250    3.000    0.000    5.750 
#    0.000    0.625    0.000    1.500    0.000    3.500 
#    0.000    0.000    0.000    0.000    0.000    0.000 
#
# Total GULP energy -793502.435160 kJ/mol
# GULP energy per Si atom -12398.475549 kJ/mol
# Density = 1.821803 g / cm^3
# Si number density = 18.259590 Si / 1000 Ang^3
#
#
#
# Elastic Constant Matrix: (Units=GPa)
#
#
# Indices 1 2 3 4 5 6 
#
# 1 79.8372 52.7978 50.8091 0.0000 0.0000 0.0000
# 2 52.7978 123.2864 76.1877 0.0000 0.0000 0.0000
# 3 50.8091 76.1877 133.1345 0.0000 0.0000 0.0000
# 4 0.0000 0.0000 0.0000 37.9779 0.0000 0.0000
# 5 0.0000 0.0000 0.0000 0.0000 19.6724 0.0000
# 6 0.0000 0.0000 0.0000 0.0000 0.0000 21.8666
#
#
#
# Elastic Compliance Matrix: (Units=1/GPa)
#
#
# Indices 1 2 3 4 5 6 
#
# 1 0.018732 -0.005576 -0.003958 0.000000 0.000000 0.000000
# 2 -0.005576 0.014209 -0.006003 0.000000 0.000000 0.000000
# 3 -0.003958 -0.006003 0.012457 0.000000 0.000000 0.000000
# 4 0.000000 0.000000 0.000000 0.026331 0.000000 0.000000
# 5 0.000000 0.000000 0.000000 0.000000 0.050833 0.000000
# 6 0.000000 0.000000 0.000000 0.000000 0.000000 0.045732
#
#
# Mechanical properties :
#
#
# Convention : Reuss Voigt Hill
#
# Bulk Modulus (GPa) = 69.81459 77.31635 73.56547
# Shear Modulus (GPa) = 24.49273 26.33428 25.41351
#
# Velocity S-wave (km/s) = 3.66643 3.80177 3.73472
# Velocity P-wave (km/s) = 7.49941 7.85532 7.67943
#
# Compressibility (1/GPa) = 0.01432365
#
# Stress axis : x y z
#
# Youngs Moduli (GPa) = 53.38493 70.37781 80.27607
#
# Poissons Ratio (x) = 0.39244 0.31771
# Poissons Ratio (y) = 0.29769 0.48191
# Poissons Ratio (z) = 0.21128 0.42249
#
# Static dielectric constant tensor:
#      x y z
#    x 3.042680 0.000000 0.000000 
#    y 0.000000 3.530790 0.000000 
#    z 0.000000 0.000000 3.565340 
# 
# 
# High freq. dielectric constant tensor:
#      x y z
#    x 1.663850 0.000000 0.000000 
#    y 0.000000 1.722560 0.000000 
#    z 0.000000 0.000000 1.715130 
# 
# From -- ./inp_files/30674.got.cif
#   From: 2010.03.12/outbox.cif.g09.slc.cpg/sg59_16_cif.got.tgz:30674.got - 2010.04.16 16:29:54.
