data_PCOD8239418
_publ_section_title
;
Structure prediction by ZEFSAII (Michael W. Deem and Ramdas Pophale) SiO2 
 PCOD8239418
Probable space group: P M M N
;
_chemical_formula_sum "Si O2"
_cell_formula_units_Z 48
_cell_length_a 8.979253
_cell_length_b 21.003068
_cell_length_c 15.041302
_cell_angle_alpha 90.000000
_cell_angle_beta 90.000000
_cell_angle_gamma 90.000000
_cell_volume 2836.667141
_symmetry_space_group_name_H-M "P M M N"
_symmetry_group_IT_number 59
_space_group.IT_coordinate_system_code '2'
_symmetry_cell_setting 'orthorhombic'
loop_
_space_group_symop_operation_xyz
x,y,z
1/2-x,1/2-y,z
1/2+x,-y,-z
-x,1/2+y,-z
-x,-y,-z
1/2+x,1/2+y,-z
1/2-x,y,z
x,1/2-y,z
loop_
_atom_site_type_symbol
_atom_site_label
_atom_site_fract_x
_atom_site_fract_y
_atom_site_fract_z
Si Si1 0.923233 0.540970 0.872737
Si Si2 0.922466 0.448321 0.302851
Si Si3 0.922651 0.935150 0.526012
Si Si4 0.423636 0.676534 0.190405
Si Si5 0.081157 0.097082 0.664534
Si Si6 0.576785 0.914388 0.064301
O O1 0.750000 0.531922 0.852505
O O2 0.002371 0.574424 0.789075
O O3 0.992526 0.471901 0.888257
O O4 0.950710 0.585567 0.958497
O O5 0.750000 0.430630 0.300907
O O6 0.951686 0.523279 0.315289
O O7 0.998520 0.409201 0.384354
O O8 0.750000 0.948027 0.545764
O O9 0.941563 0.888331 0.440945
O O10 0.000000 0.000000 0.500000
O O11 0.250000 0.665950 0.173380
O O12 0.464865 0.750000 0.201752
O O13 0.469178 0.640677 0.280565
O O14 0.513239 0.650653 0.104906
O O15 0.250000 0.113389 0.693018
O O16 0.750000 0.921797 0.087264
#
# Coordination Sequence:
#
# PCOD8239418 Si02
#       6
#     8   8   8   8   8   8
#     4  10  19  30  48  71  97 128 159 197 244 293
#     4  10  18  28  45  71  99 127 159 190 233 291
#     4   9  17  28  43  65  94 125 157 191 231 279
#     4  11  23  35  49  70  95 128 168 205 243 287
#     4   9  18  31  46  66  93 126 162 197 234 283
#     4  10  20  33  48  69  95 126 163 200 244 294
#
# _framework density 16.921267
#
# number of rings (size 3 to 8) (size 9 to 14) (size 15 to 20)
#    0.000    2.167    1.667    3.500    0.000    6.667 
#    0.000    0.000    0.000    0.000    0.000    1.167 
#    0.000    9.333    0.000    0.000    0.000    0.000 
#
# Total GULP energy -595100.979921 kJ/mol
# GULP energy per Si atom -12397.937082 kJ/mol
# Density = 1.688275 g / cm^3
# Si number density = 16.921267 Si / 1000 Ang^3
#
#
#
# Elastic Constant Matrix: (Units=GPa)
#
#
# Indices 1 2 3 4 5 6 
#
# 1 114.9543 25.9139 65.1729 0.0000 0.0000 0.0000
# 2 25.9139 40.0815 23.0106 0.0000 0.0000 0.0000
# 3 65.1729 23.0106 144.2921 0.0000 0.0000 0.0000
# 4 0.0000 0.0000 0.0000 13.7229 0.0000 0.0000
# 5 0.0000 0.0000 0.0000 0.0000 35.4858 0.0000
# 6 0.0000 0.0000 0.0000 0.0000 0.0000 18.7970
#
#
#
# Elastic Compliance Matrix: (Units=1/GPa)
#
#
# Indices 1 2 3 4 5 6 
#
# 1 0.012674 -0.005402 -0.004863 0.000000 0.000000 0.000000
# 2 -0.005402 0.029766 -0.002307 0.000000 0.000000 0.000000
# 3 -0.004863 -0.002307 0.009495 0.000000 0.000000 0.000000
# 4 0.000000 0.000000 0.000000 0.072871 0.000000 0.000000
# 5 0.000000 0.000000 0.000000 0.000000 0.028180 0.000000
# 6 0.000000 0.000000 0.000000 0.000000 0.000000 0.053200
#
#
# Mechanical properties :
#
#
# Convention : Reuss Voigt Hill
#
# Bulk Modulus (GPa) = 37.32632 58.61363 47.96998
# Shear Modulus (GPa) = 20.81074 25.94984 23.38029
#
# Velocity S-wave (km/s) = 3.51074 3.92032 3.72117
# Velocity P-wave (km/s) = 6.20809 7.43008 6.84641
#
# Compressibility (1/GPa) = 0.02679075
#
# Stress axis : x y z
#
# Youngs Moduli (GPa) = 78.90176 33.59514 105.32150
#
# Poissons Ratio (x) = 0.18149 0.51218
# Poissons Ratio (y) = 0.42625 0.24296
# Poissons Ratio (z) = 0.38370 0.07750
#
# Static dielectric constant tensor:
#      x y z
#    x 3.332660 0.000000 0.000000 
#    y 0.000000 2.641470 0.000000 
#    z 0.000000 0.000000 3.669400 
# 
# 
# High freq. dielectric constant tensor:
#      x y z
#    x 1.672020 0.000000 0.000000 
#    y 0.000000 1.578140 0.000000 
#    z 0.000000 0.000000 1.675070 
# 
# From -- ./inp_files/20710.got.cif
#   From: 2010.03.12/outbox.cif.g09.slc.cpg/sg59_11_cif.got.tgz:20710.got - 2010.04.16 16:29:54.
