data_PCOD8239433
_publ_section_title
;
Structure prediction by ZEFSAII (Michael W. Deem and Ramdas Pophale) SiO2 
 PCOD8239433
Probable space group: P M M N
;
_chemical_formula_sum "Si O2"
_cell_formula_units_Z 64
_cell_length_a 19.364069
_cell_length_b 8.885208
_cell_length_c 21.443997
_cell_angle_alpha 90.000000
_cell_angle_beta 90.000000
_cell_angle_gamma 90.000000
_cell_volume 3689.520759
_symmetry_space_group_name_H-M "P M M N"
_symmetry_group_IT_number 59
_space_group.IT_coordinate_system_code '2'
_symmetry_cell_setting 'orthorhombic'
loop_
_space_group_symop_operation_xyz
x,y,z
1/2-x,1/2-y,z
1/2+x,-y,-z
-x,1/2+y,-z
-x,-y,-z
1/2+x,1/2+y,-z
1/2-x,y,z
x,1/2-y,z
loop_
_atom_site_type_symbol
_atom_site_label
_atom_site_fract_x
_atom_site_fract_y
_atom_site_fract_z
Si Si1 0.675563 0.426482 0.606992
Si Si2 0.326885 0.428744 0.895295
Si Si3 0.054494 0.428887 0.804543
Si Si4 0.327046 0.071185 0.034020
Si Si5 0.863149 0.914510 0.724779
Si Si6 0.480598 0.581864 0.682440
Si Si7 0.971282 0.429474 0.562472
Si Si8 0.916462 0.572016 0.852195
O O1 0.750000 0.481299 0.578487
O O2 0.670988 0.250000 0.603071
O O3 0.675505 0.469281 0.680084
O O4 0.608041 0.490836 0.571345
O O5 0.250000 0.488421 0.878795
O O6 0.326874 0.250000 0.894825
O O7 0.380769 0.489667 0.844578
O O8 0.348486 0.484122 0.964738
O O9 0.052893 0.250000 0.798116
O O10 0.064081 0.498513 0.735475
O O11 0.986329 0.481226 0.840717
O O12 0.250000 0.011270 0.049708
O O13 0.326435 0.250000 0.037395
O O14 0.382533 0.010458 0.084010
O O15 0.829320 0.750000 0.714897
O O16 0.860329 0.962466 0.797316
O O17 0.943095 0.907235 0.708253
O O18 0.451069 0.750000 0.669750
O O19 0.480038 0.486071 0.618631
O O20 0.974165 0.250000 0.559407
O O21 0.000000 0.500000 0.500000
O O22 0.933297 0.750000 0.853612
#
# Coordination Sequence:
#
# PCOD8239433 Si02
#       8
#     8   8   8   8   8   8   8   8
#     4   9  18  31  46  66  93 125 158 190 225 265
#     4   8  15  28  45  65  88 116 154 199 244 289
#     4  10  18  28  46  70  93 118 150 192 240 285
#     4   8  14  26  43  61  84 118 159 198 235 281
#     4   8  15  26  40  61  88 117 148 183 222 263
#     4   9  17  31  49  69  94 120 149 186 226 270
#     4  10  19  32  52  76 102 131 161 191 225 270
#     4   9  17  28  43  65  92 120 152 191 233 277
#
# _framework density 17.346426999999998
#
# number of rings (size 3 to 8) (size 9 to 14) (size 15 to 20)
#    0.000    3.125    0.000    2.625    0.000    4.750 
#    0.000    1.250    0.000    3.375    0.000    3.500 
#    0.000    0.000    0.000    0.000    0.000    0.000 
#
# Total GULP energy -792981.483872 kJ/mol
# GULP energy per Si atom -12390.335686 kJ/mol
# Density = 1.730695 g / cm^3
# Si number density = 17.346427 Si / 1000 Ang^3
#
#
#
# Elastic Constant Matrix: (Units=GPa)
#
#
# Indices 1 2 3 4 5 6 
#
# 1 85.5819 25.0847 69.3614 0.0000 0.0000 0.0000
# 2 25.0847 45.0665 35.1471 0.0000 0.0000 0.0000
# 3 69.3614 35.1471 145.0171 0.0000 0.0000 0.0000
# 4 0.0000 0.0000 0.0000 22.8836 0.0000 0.0000
# 5 0.0000 0.0000 0.0000 0.0000 17.7472 0.0000
# 6 0.0000 0.0000 0.0000 0.0000 0.0000 12.9293
#
#
#
# Elastic Compliance Matrix: (Units=1/GPa)
#
#
# Indices 1 2 3 4 5 6 
#
# 1 0.019789 -0.004480 -0.008379 0.000000 0.000000 0.000000
# 2 -0.004480 0.028375 -0.004734 0.000000 0.000000 0.000000
# 3 -0.008379 -0.004734 0.012051 0.000000 0.000000 0.000000
# 4 0.000000 0.000000 0.000000 0.043700 0.000000 0.000000
# 5 0.000000 0.000000 0.000000 0.000000 0.056347 0.000000
# 6 0.000000 0.000000 0.000000 0.000000 0.000000 0.077344
#
#
# Mechanical properties :
#
#
# Convention : Reuss Voigt Hill
#
# Bulk Modulus (GPa) = 39.95511 59.42798 49.69155
# Shear Modulus (GPa) = 17.78504 20.45017 19.11760
#
# Velocity S-wave (km/s) = 3.20548 3.43728 3.32340
# Velocity P-wave (km/s) = 6.06496 7.07722 6.59055
#
# Compressibility (1/GPa) = 0.02502809
#
# Stress axis : x y z
#
# Youngs Moduli (GPa) = 50.53337 35.24176 82.98084
#
# Poissons Ratio (x) = 0.15788 0.69531
# Poissons Ratio (y) = 0.22638 0.39287
# Poissons Ratio (z) = 0.42343 0.16685
#
# Static dielectric constant tensor:
#      x y z
#    x 3.349170 0.000000 0.000000 
#    y 0.000000 3.070990 0.000000 
#    z 0.000000 0.000000 3.449330 
# 
# 
# High freq. dielectric constant tensor:
#      x y z
#    x 1.649990 0.000000 0.000000 
#    y 0.000000 1.648210 0.000000 
#    z 0.000000 0.000000 1.666820 
# 
# From -- ./inp_files/30993.got.cif
#   From: 2010.03.12/outbox.cif.g09.slc.cpg/sg59_16_cif.got.tgz:30993.got - 2010.04.16 16:29:54.
