data_PCOD8239929
_publ_section_title
;
Structure prediction by ZEFSAII (Michael W. Deem and Ramdas Pophale) SiO2 
 PCOD8239929
Probable space group: P M M N
;
_chemical_formula_sum "Si O2"
_cell_formula_units_Z 48
_cell_length_a 11.790316
_cell_length_b 21.709146
_cell_length_c 10.040735
_cell_angle_alpha 90.000000
_cell_angle_beta 90.000000
_cell_angle_gamma 90.000000
_cell_volume 2570.003351
_symmetry_space_group_name_H-M "P M M N"
_symmetry_group_IT_number 59
_space_group.IT_coordinate_system_code '2'
_symmetry_cell_setting 'orthorhombic'
loop_
_space_group_symop_operation_xyz
x,y,z
1/2-x,1/2-y,z
1/2+x,-y,-z
-x,1/2+y,-z
-x,-y,-z
1/2+x,1/2+y,-z
1/2-x,y,z
x,1/2-y,z
loop_
_atom_site_type_symbol
_atom_site_label
_atom_site_fract_x
_atom_site_fract_y
_atom_site_fract_z
Si Si1 0.750000 0.182329 0.590255
Si Si2 0.123112 0.448221 0.095896
Si Si3 0.750000 0.319018 0.903952
Si Si4 0.375561 0.250000 0.643442
Si Si5 0.627998 0.750000 0.668219
Si Si6 0.614837 0.617849 0.644311
Si Si7 0.013351 0.868566 0.384336
Si Si8 0.559271 0.085632 0.896757
O O1 0.750000 0.250000 0.523396
O O2 0.750000 0.188850 0.747576
O O3 0.635236 0.147195 0.548434
O O4 0.250000 0.423519 0.078935
O O5 0.080170 0.432374 0.245569
O O6 0.120990 0.521205 0.073480
O O7 0.052958 0.411059 0.985747
O O8 0.750000 0.250000 0.969604
O O9 0.861610 0.357769 0.943826
O O10 0.250000 0.250000 0.713992
O O11 0.353529 0.250000 0.488656
O O12 0.450331 0.190418 0.681013
O O13 0.750000 0.750000 0.741849
O O14 0.566478 0.684694 0.698377
O O15 0.750000 0.621970 0.621229
O O16 0.559305 0.599922 0.502312
O O17 0.029584 0.914452 0.260325
#
# Coordination Sequence:
#
# PCOD8239929 Si02
#       8
#     4   8   4   4   4   8   8   8
#     4   9  16  28  49  79 111 145 180 223 269 329
#     4  10  21  39  57  78 110 151 189 226 277 342
#     4   9  18  36  61  85 111 142 188 231 283 334
#     4   9  16  27  48  78 111 135 170 222 286 332
#     4   7  12  26  46  70  97 136 167 200 260 328
#     4   9  18  33  54  76 107 142 179 223 280 330
#     4  10  18  31  53  80 108 141 184 230 271 325
#     4  10  21  36  60  81 107 146 190 230 278 331
#
# _framework density 18.677019000000001
#
# number of rings (size 3 to 8) (size 9 to 14) (size 15 to 20)
#    0.000    2.667    1.667    1.500    1.167    2.000 
#    1.500    0.833    0.000    1.000    0.000    0.000 
#    0.000    0.000    0.000    0.000    0.000    0.000 
#
# Total GULP energy -594729.115638 kJ/mol
# GULP energy per Si atom -12390.189909 kJ/mol
# Density = 1.863451 g / cm^3
# Si number density = 18.677019 Si / 1000 Ang^3
#
#
#
# Elastic Constant Matrix: (Units=GPa)
#
#
# Indices 1 2 3 4 5 6 
#
# 1 104.7296 33.4935 43.7955 0.0000 0.0000 0.0000
# 2 33.4935 82.0526 25.5625 0.0000 0.0000 0.0000
# 3 43.7955 25.5625 75.6991 0.0000 0.0000 0.0000
# 4 0.0000 0.0000 0.0000 21.1583 0.0000 0.0000
# 5 0.0000 0.0000 0.0000 0.0000 22.3583 0.0000
# 6 0.0000 0.0000 0.0000 0.0000 0.0000 5.7863
#
#
#
# Elastic Compliance Matrix: (Units=1/GPa)
#
#
# Indices 1 2 3 4 5 6 
#
# 1 0.013400 -0.003414 -0.006600 0.000000 0.000000 0.000000
# 2 -0.003414 0.014490 -0.002918 0.000000 0.000000 0.000000
# 3 -0.006600 -0.002918 0.018014 0.000000 0.000000 0.000000
# 4 0.000000 0.000000 0.000000 0.047263 0.000000 0.000000
# 5 0.000000 0.000000 0.000000 0.000000 0.044726 0.000000
# 6 0.000000 0.000000 0.000000 0.000000 0.000000 0.172823
#
#
# Mechanical properties :
#
#
# Convention : Reuss Voigt Hill
#
# Bulk Modulus (GPa) = 49.89850 52.02045 50.95947
# Shear Modulus (GPa) = 14.56625 20.50255 17.53440
#
# Velocity S-wave (km/s) = 2.79570 3.31681 3.06734
# Velocity P-wave (km/s) = 6.09884 6.52545 6.31574
#
# Compressibility (1/GPa) = 0.02004068
#
# Stress axis : x y z
#
# Youngs Moduli (GPa) = 74.62680 69.01381 55.51288
#
# Poissons Ratio (x) = 0.23560 0.36637
# Poissons Ratio (y) = 0.25476 0.16199
# Poissons Ratio (z) = 0.49252 0.20138
#
# Static dielectric constant tensor:
#      x y z
#    x 3.602010 0.000000 0.000000 
#    y 0.000000 3.686590 0.000000 
#    z 0.000000 0.000000 3.062890 
# 
# 
# High freq. dielectric constant tensor:
#      x y z
#    x 1.724310 0.000000 0.000000 
#    y 0.000000 1.720690 0.000000 
#    z 0.000000 0.000000 1.684470 
# 
# From -- ./inp_files/15983.got.cif
#   From: 2010.03.12/outbox.cif.g09.slc.cpg/sg59_8_cif.got.tgz:15983.got - 2010.04.16 16:29:54.
