data_PCOD8239290
_publ_section_title
;
Structure prediction by ZEFSAII (Michael W. Deem and Ramdas Pophale) SiO2 
 PCOD8239290
Probable space group: P M M N
;
_chemical_formula_sum "Si O2"
_cell_formula_units_Z 56
_cell_length_a 9.039428
_cell_length_b 24.060962
_cell_length_c 16.317504
_cell_angle_alpha 90.000000
_cell_angle_beta 90.000000
_cell_angle_gamma 90.000000
_cell_volume 3549.013611
_symmetry_space_group_name_H-M "P M M N"
_symmetry_group_IT_number 59
_space_group.IT_coordinate_system_code '2'
_symmetry_cell_setting 'orthorhombic'
loop_
_space_group_symop_operation_xyz
x,y,z
1/2-x,1/2-y,z
1/2+x,-y,-z
-x,1/2+y,-z
-x,-y,-z
1/2+x,1/2+y,-z
1/2-x,y,z
x,1/2-y,z
loop_
_atom_site_type_symbol
_atom_site_label
_atom_site_fract_x
_atom_site_fract_y
_atom_site_fract_z
Si Si1 0.417213 0.685110 0.736626
Si Si2 0.922495 0.998715 0.304080
Si Si3 0.419205 0.051959 0.535412
Si Si4 0.422728 0.911938 0.988390
Si Si5 0.078061 0.017101 0.881019
Si Si6 0.423584 0.394227 0.377629
Si Si7 0.575817 0.814041 0.903763
O O1 0.250000 0.663341 0.748661
O O2 0.420822 0.750000 0.720985
O O3 0.490281 0.658514 0.656726
O O4 0.508801 0.668198 0.816670
O O5 0.750000 0.016398 0.304824
O O6 0.951252 0.945853 0.366373
O O7 0.970018 0.980221 0.213638
O O8 0.020247 0.050713 0.331538
O O9 0.250000 0.038596 0.520327
O O10 0.459977 0.104217 0.476502
O O11 0.500000 0.000000 0.500000
O O12 0.250000 0.899593 0.996571
O O13 0.505404 0.853834 0.972123
O O14 0.457296 0.955751 0.915885
O O15 0.481658 0.936456 0.073691
O O16 0.250000 0.031429 0.893910
O O17 0.250000 0.387366 0.360673
O O18 0.750000 0.823378 0.900411
O O19 0.536166 0.750000 0.924798
#
# Coordination Sequence:
#
# PCOD8239290 Si02
#       7
#     8   8   8   8   8   8   8
#     4  10  20  32  45  62  85 114 148 180 211 253
#     4   9  16  28  45  63  87 118 150 181 214 255
#     4   8  15  26  40  61  86 112 142 175 210 249
#     4  10  19  30  45  66  92 120 149 181 220 266
#     4   9  18  30  44  63  88 120 153 185 221 261
#     4  10  18  27  42  64  90 117 144 177 217 258
#     4  10  20  33  49  68  90 116 146 182 222 262
#
# _framework density 15.779033
#
# number of rings (size 3 to 8) (size 9 to 14) (size 15 to 20)
#    0.000    2.571    0.000    2.571    0.000    4.571 
#    0.000    0.000    0.000    0.000    0.000    1.000 
#    0.000    3.429    0.000    0.000    0.000    0.000 
#
# Total GULP energy -693994.592704 kJ/mol
# GULP energy per Si atom -12392.760584 kJ/mol
# Density = 1.574312 g / cm^3
# Si number density = 15.779033 Si / 1000 Ang^3
#
#
#
# Elastic Constant Matrix: (Units=GPa)
#
#
# Indices 1 2 3 4 5 6 
#
# 1 74.8731 37.6463 40.1001 0.0000 0.0000 0.0000
# 2 37.6463 60.0983 42.7898 0.0000 0.0000 0.0000
# 3 40.1001 42.7898 117.6661 0.0000 0.0000 0.0000
# 4 0.0000 0.0000 0.0000 25.6663 0.0000 0.0000
# 5 0.0000 0.0000 0.0000 0.0000 21.4274 0.0000
# 6 0.0000 0.0000 0.0000 0.0000 0.0000 25.7063
#
#
#
# Elastic Compliance Matrix: (Units=1/GPa)
#
#
# Indices 1 2 3 4 5 6 
#
# 1 0.020299 -0.010512 -0.003095 0.000000 0.000000 0.000000
# 2 -0.010512 0.027896 -0.006562 0.000000 0.000000 0.000000
# 3 -0.003095 -0.006562 0.011940 0.000000 0.000000 0.000000
# 4 0.000000 0.000000 0.000000 0.038962 0.000000 0.000000
# 5 0.000000 0.000000 0.000000 0.000000 0.046669 0.000000
# 6 0.000000 0.000000 0.000000 0.000000 0.000000 0.038901
#
#
# Mechanical properties :
#
#
# Convention : Reuss Voigt Hill
#
# Bulk Modulus (GPa) = 50.51320 54.85665 52.68492
# Shear Modulus (GPa) = 21.58855 23.36677 22.47766
#
# Velocity S-wave (km/s) = 3.70290 3.85239 3.77839
# Velocity P-wave (km/s) = 7.09678 7.39113 7.24545
#
# Compressibility (1/GPa) = 0.01979681
#
# Stress axis : x y z
#
# Youngs Moduli (GPa) = 49.26367 35.84687 83.75327
#
# Poissons Ratio (x) = 0.37681 0.25923
# Poissons Ratio (y) = 0.51785 0.54961
# Poissons Ratio (z) = 0.15248 0.23524
#
# Static dielectric constant tensor:
#      x y z
#    x 3.031640 0.000000 0.000000 
#    y 0.000000 2.833910 0.000000 
#    z 0.000000 0.000000 3.324620 
# 
# 
# High freq. dielectric constant tensor:
#      x y z
#    x 1.620010 0.000000 0.000000 
#    y 0.000000 1.573560 0.000000 
#    z 0.000000 0.000000 1.602870 
# 
# From -- ./inp_files/26043.got.cif
#   From: 2010.03.12/outbox.cif.g09.slc.cpg/sg59_14_cif.got.tgz:26043.got - 2010.04.16 16:29:54.
