data_PCOD8239213
_publ_section_title
;
Structure prediction by ZEFSAII (Michael W. Deem and Ramdas Pophale) SiO2 
 PCOD8239213
Probable space group: P M M N
;
_chemical_formula_sum "Si O2"
_cell_formula_units_Z 56
_cell_length_a 22.276828
_cell_length_b 9.508783
_cell_length_c 17.626536
_cell_angle_alpha 90.000000
_cell_angle_beta 90.000000
_cell_angle_gamma 90.000000
_cell_volume 3733.750214
_symmetry_space_group_name_H-M "P M M N"
_symmetry_group_IT_number 59
_space_group.IT_coordinate_system_code '2'
_symmetry_cell_setting 'orthorhombic'
loop_
_space_group_symop_operation_xyz
x,y,z
1/2-x,1/2-y,z
1/2+x,-y,-z
-x,1/2+y,-z
-x,-y,-z
1/2+x,1/2+y,-z
1/2-x,y,z
x,1/2-y,z
loop_
_atom_site_type_symbol
_atom_site_label
_atom_site_fract_x
_atom_site_fract_y
_atom_site_fract_z
Si Si1 0.683605 0.084001 0.156200
Si Si2 0.601052 0.082684 0.288988
Si Si3 0.559728 0.594402 0.583957
Si Si4 0.967684 0.087040 0.889923
Si Si5 0.467661 0.415807 0.250740
Si Si6 0.421917 0.911584 0.949314
Si Si7 0.080669 0.906646 0.548340
O O1 0.750000 0.016760 0.147154
O O2 0.689147 0.250000 0.164392
O O3 0.652576 0.024332 0.233054
O O4 0.643547 0.046038 0.082685
O O5 0.600291 0.250000 0.293146
O O6 0.536842 0.034750 0.256507
O O7 0.611414 0.027881 0.375502
O O8 0.586627 0.750000 0.575029
O O9 0.566846 0.544354 0.671254
O O10 0.490047 0.595861 0.563052
O O11 0.596783 0.496356 0.526267
O O12 0.979332 0.250000 0.870245
O O13 0.938975 0.006178 0.817843
O O14 0.921083 0.072034 0.959733
O O15 0.030152 0.014772 0.912121
O O16 0.461949 0.250000 0.234036
O O17 0.437852 0.750000 0.926227
O O18 0.104670 0.750000 0.532591
#
# Coordination Sequence:
#
# PCOD8239213 Si02
#       7
#     8   8   8   8   8   8   8
#     4   9  15  24  42  62  76  98 135 169 193 226
#     4   8  13  22  36  53  74 100 129 158 191 225
#     4   8  14  22  33  50  71  98 127 150 180 219
#     4  10  18  25  38  59  79 102 132 162 195 240
#     4   9  15  25  39  53  76 106 129 157 194 230
#     4   9  17  29  41  55  78 103 129 164 201 235
#     4   8  13  21  33  48  70  99 124 149 181 215
#
# _framework density 14.998326
#
# number of rings (size 3 to 8) (size 9 to 14) (size 15 to 20)
#    0.000    3.286    1.429    2.143    0.000    1.143 
#    0.000    2.143    0.000    0.429    0.000    0.000 
#    0.000    1.143    0.000   14.286    0.000    2.857 
#
# Total GULP energy -693852.949327 kJ/mol
# GULP energy per Si atom -12390.231238 kJ/mol
# Density = 1.496419 g / cm^3
# Si number density = 14.998326 Si / 1000 Ang^3
#
#
#
# Elastic Constant Matrix: (Units=GPa)
#
#
# Indices 1 2 3 4 5 6 
#
# 1 52.7265 15.2935 41.4934 0.0000 0.0000 0.0000
# 2 15.2935 56.7192 56.6856 0.0000 0.0000 0.0000
# 3 41.4934 56.6856 149.8885 0.0000 0.0000 0.0000
# 4 0.0000 0.0000 0.0000 28.1340 0.0000 0.0000
# 5 0.0000 0.0000 0.0000 0.0000 14.6281 0.0000
# 6 0.0000 0.0000 0.0000 0.0000 0.0000 7.1517
#
#
#
# Elastic Compliance Matrix: (Units=1/GPa)
#
#
# Indices 1 2 3 4 5 6 
#
# 1 0.024251 0.000274 -0.006817 0.000000 0.000000 0.000000
# 2 0.000274 0.028347 -0.010796 0.000000 0.000000 0.000000
# 3 -0.006817 -0.010796 0.012642 0.000000 0.000000 0.000000
# 4 0.000000 0.000000 0.000000 0.035544 0.000000 0.000000
# 5 0.000000 0.000000 0.000000 0.000000 0.068362 0.000000
# 6 0.000000 0.000000 0.000000 0.000000 0.000000 0.139826
#
#
# Mechanical properties :
#
#
# Convention : Reuss Voigt Hill
#
# Bulk Modulus (GPa) = 32.72130 54.03101 43.37615
# Shear Modulus (GPa) = 14.13082 19.70686 16.91884
#
# Velocity S-wave (km/s) = 3.07279 3.62876 3.36229
# Velocity P-wave (km/s) = 5.86970 7.32531 6.63753
#
# Compressibility (1/GPa) = 0.03056114
#
# Stress axis : x y z
#
# Youngs Moduli (GPa) = 41.23540 35.27762 79.10323
#
# Poissons Ratio (x) = -0.00967 0.53925
# Poissons Ratio (y) = -0.01130 0.85401
# Poissons Ratio (z) = 0.28110 0.38086
#
# Static dielectric constant tensor:
#      x y z
#    x 2.553670 0.000000 0.000000 
#    y 0.000000 2.801300 0.000000 
#    z 0.000000 0.000000 3.290380 
# 
# 
# High freq. dielectric constant tensor:
#      x y z
#    x 1.504260 0.000000 0.000000 
#    y 0.000000 1.551000 0.000000 
#    z 0.000000 0.000000 1.593530 
# 
# From -- ./inp_files/28363.got.cif
#   From: 2010.03.12/outbox.cif.g09.slc.cpg/sg59_15_cif.got.tgz:28363.got - 2010.04.16 16:29:54.
