data_PCOD8239670
_publ_section_title
;
Structure prediction by ZEFSAII (Michael W. Deem and Ramdas Pophale) SiO2 
 PCOD8239670
Probable space group: P M M N
;
_chemical_formula_sum "Si O2"
_cell_formula_units_Z 48
_cell_length_a 20.065785
_cell_length_b 9.786272
_cell_length_c 15.121503
_cell_angle_alpha 90.000000
_cell_angle_beta 90.000000
_cell_angle_gamma 90.000000
_cell_volume 2969.397899
_symmetry_space_group_name_H-M "P M M N"
_symmetry_group_IT_number 59
_space_group.IT_coordinate_system_code '2'
_symmetry_cell_setting 'orthorhombic'
loop_
_space_group_symop_operation_xyz
x,y,z
1/2-x,1/2-y,z
1/2+x,-y,-z
-x,1/2+y,-z
-x,-y,-z
1/2+x,1/2+y,-z
1/2-x,y,z
x,1/2-y,z
loop_
_atom_site_type_symbol
_atom_site_label
_atom_site_fract_x
_atom_site_fract_y
_atom_site_fract_z
Si Si1 0.174450 0.593755 0.106918
Si Si2 0.070138 0.597363 0.590709
Si Si3 0.086838 0.099180 0.442231
Si Si4 0.109606 0.089516 0.245739
Si Si5 0.538570 0.409540 0.223386
Si Si6 0.561595 0.090959 0.029319
O O1 0.250000 0.575111 0.073827
O O2 0.160509 0.750000 0.135416
O O3 0.163182 0.496451 0.190789
O O4 0.126950 0.550938 0.025610
O O5 0.100074 0.750000 0.583035
O O6 0.108975 0.504296 0.519679
O O7 0.078622 0.534164 0.690451
O O8 0.992047 0.598486 0.570644
O O9 0.110306 0.250000 0.471110
O O10 0.121594 0.059117 0.349562
O O11 0.118290 0.250000 0.224577
O O12 0.036764 0.032988 0.216627
O O13 0.530123 0.250000 0.243306
O O14 0.577625 0.440644 0.132639
O O15 0.542083 0.250000 0.017606
O O16 0.500000 0.000000 0.000000
#
# Coordination Sequence:
#
# PCOD8239670 Si02
#       6
#     8   8   8   8   8   8
#     4  10  21  33  44  65  95 121 148 187 233 276
#     4   8  13  22  36  56  83 113 141 171 213 261
#     4   8  14  23  36  57  85 112 139 176 214 252
#     4   9  16  28  45  63  85 116 152 185 220 266
#     4   8  14  25  42  63  86 112 147 188 223 261
#     4  10  18  30  48  66  88 119 153 191 231 272
#
# _framework density 16.164892999999999
#
# number of rings (size 3 to 8) (size 9 to 14) (size 15 to 20)
#    0.000    3.167    1.667    2.000    0.000    1.000 
#    0.000    3.333    0.000    0.000    0.000    1.167 
#    0.000    4.000    0.000    0.000    0.000    0.000 
#
# Total GULP energy -594838.162009 kJ/mol
# GULP energy per Si atom -12392.461709 kJ/mol
# Density = 1.612810 g / cm^3
# Si number density = 16.164893 Si / 1000 Ang^3
#
#
#
# Elastic Constant Matrix: (Units=GPa)
#
#
# Indices 1 2 3 4 5 6 
#
# 1 56.0244 31.5009 43.9803 0.0000 0.0000 0.0000
# 2 31.5009 66.1344 64.3210 0.0000 0.0000 0.0000
# 3 43.9803 64.3210 142.7764 0.0000 0.0000 0.0000
# 4 0.0000 0.0000 0.0000 26.2465 0.0000 0.0000
# 5 0.0000 0.0000 0.0000 0.0000 15.5421 0.0000
# 6 0.0000 0.0000 0.0000 0.0000 0.0000 14.3795
#
#
#
# Elastic Compliance Matrix: (Units=1/GPa)
#
#
# Indices 1 2 3 4 5 6 
#
# 1 0.025773 -0.008107 -0.004287 0.000000 0.000000 0.000000
# 2 -0.008107 0.029462 -0.010776 0.000000 0.000000 0.000000
# 3 -0.004287 -0.010776 0.013179 0.000000 0.000000 0.000000
# 4 0.000000 0.000000 0.000000 0.038100 0.000000 0.000000
# 5 0.000000 0.000000 0.000000 0.000000 0.064341 0.000000
# 6 0.000000 0.000000 0.000000 0.000000 0.000000 0.069543
#
#
# Mechanical properties :
#
#
# Convention : Reuss Voigt Hill
#
# Bulk Modulus (GPa) = 45.29896 60.50439 52.90168
# Shear Modulus (GPa) = 17.00125 19.57582 18.28854
#
# Velocity S-wave (km/s) = 3.24657 3.48373 3.36724
# Velocity P-wave (km/s) = 6.49134 7.32752 6.92207
#
# Compressibility (1/GPa) = 0.02207556
#
# Stress axis : x y z
#
# Youngs Moduli (GPa) = 38.80054 33.94180 75.87887
#
# Poissons Ratio (x) = 0.27516 0.32528
# Poissons Ratio (y) = 0.31454 0.81764
# Poissons Ratio (z) = 0.16633 0.36574
#
# Static dielectric constant tensor:
#      x y z
#    x 2.589400 0.000000 0.000000 
#    y 0.000000 3.065060 0.000000 
#    z 0.000000 0.000000 3.392670 
# 
# 
# High freq. dielectric constant tensor:
#      x y z
#    x 1.561300 0.000000 0.000000 
#    y 0.000000 1.608460 0.000000 
#    z 0.000000 0.000000 1.635890 
# 
# From -- ./inp_files/24085.got.cif
#   From: 2010.03.12/outbox.cif.g09.slc.cpg/sg59_13_cif.got.tgz:24085.got - 2010.04.16 16:29:54.
