data_PCOD8239530
_publ_section_title
;
Structure prediction by ZEFSAII (Michael W. Deem and Ramdas Pophale) SiO2 
 PCOD8239530
Probable space group: P M M N
;
_chemical_formula_sum "Si O2"
_cell_formula_units_Z 64
_cell_length_a 9.316671
_cell_length_b 29.080007
_cell_length_c 14.834199
_cell_angle_alpha 90.000000
_cell_angle_beta 90.000000
_cell_angle_gamma 90.000000
_cell_volume 4019.012593
_symmetry_space_group_name_H-M "P M M N"
_symmetry_group_IT_number 59
_space_group.IT_coordinate_system_code '2'
_symmetry_cell_setting 'orthorhombic'
loop_
_space_group_symop_operation_xyz
x,y,z
1/2-x,1/2-y,z
1/2+x,-y,-z
-x,1/2+y,-z
-x,-y,-z
1/2+x,1/2+y,-z
1/2-x,y,z
x,1/2-y,z
loop_
_atom_site_type_symbol
_atom_site_label
_atom_site_fract_x
_atom_site_fract_y
_atom_site_fract_z
Si Si1 0.915262 0.387464 0.308122
Si Si2 0.087993 0.801474 0.803904
Si Si3 0.418498 0.197785 0.016056
Si Si4 0.081938 0.554144 0.865859
Si Si5 0.582592 0.035098 0.824000
Si Si6 0.084668 0.433648 0.457300
Si Si7 0.916847 0.386549 0.961980
Si Si8 0.415042 0.534393 0.380762
O O1 0.750000 0.395809 0.334316
O O2 0.945134 0.335222 0.278513
O O3 0.960470 0.421265 0.227182
O O4 0.012221 0.395093 0.395483
O O5 0.250000 0.810975 0.840541
O O6 0.072912 0.750000 0.765932
O O7 0.977804 0.810521 0.883923
O O8 0.250000 0.188621 0.016828
O O9 0.453421 0.250000 0.983954
O O10 0.494354 0.160861 0.950604
O O11 0.250000 0.543785 0.872200
O O12 0.000198 0.505996 0.873282
O O13 0.033850 0.586672 0.948045
O O14 0.750000 0.022540 0.827638
O O15 0.548657 0.082323 0.875364
O O16 0.530860 0.041313 0.721178
O O17 0.250000 0.421390 0.471029
O O18 0.061086 0.481713 0.407187
O O19 0.010452 0.433423 0.555121
O O20 0.750000 0.373798 0.967068
O O21 0.250000 0.549068 0.392206
#
# Coordination Sequence:
#
# PCOD8239530 Si02
#       8
#     8   8   8   8   8   8   8   8
#     4  10  18  29  46  69  96 126 157 191 231 276
#     4   9  17  31  50  69  93 126 160 193 233 281
#     4  10  20  32  47  69  95 122 156 199 242 279
#     4  10  19  30  44  67  98 130 163 191 226 275
#     4  10  20  33  49  68  94 127 163 200 237 274
#     4  10  19  30  47  68  90 121 156 190 233 279
#     4  10  20  34  49  68  94 128 165 196 232 282
#     4   9  18  32  46  65  91 119 153 196 237 271
#
# _framework density 15.924308999999999
#
# number of rings (size 3 to 8) (size 9 to 14) (size 15 to 20)
#    0.000    2.250    2.500    1.125    0.000    3.250 
#    0.000    0.000    0.000    0.000    0.000    0.875 
#    0.000    3.000    0.000    0.000    0.000    0.000 
#
# Total GULP energy -793702.947588 kJ/mol
# GULP energy per Si atom -12401.608556 kJ/mol
# Density = 1.588807 g / cm^3
# Si number density = 15.924309 Si / 1000 Ang^3
#
#
#
# Elastic Constant Matrix: (Units=GPa)
#
#
# Indices 1 2 3 4 5 6 
#
# 1 69.5757 51.7522 39.6402 0.0000 0.0000 0.0000
# 2 51.7522 99.3841 44.9480 0.0000 0.0000 0.0000
# 3 39.6402 44.9480 77.5384 0.0000 0.0000 0.0000
# 4 0.0000 0.0000 0.0000 20.6010 0.0000 0.0000
# 5 0.0000 0.0000 0.0000 0.0000 20.3656 0.0000
# 6 0.0000 0.0000 0.0000 0.0000 0.0000 26.0455
#
#
#
# Elastic Compliance Matrix: (Units=1/GPa)
#
#
# Indices 1 2 3 4 5 6 
#
# 1 0.026302 -0.010321 -0.007464 0.000000 0.000000 0.000000
# 2 -0.010321 0.017687 -0.004977 0.000000 0.000000 0.000000
# 3 -0.007464 -0.004977 0.019597 0.000000 0.000000 0.000000
# 4 0.000000 0.000000 0.000000 0.048541 0.000000 0.000000
# 5 0.000000 0.000000 0.000000 0.000000 0.049102 0.000000
# 6 0.000000 0.000000 0.000000 0.000000 0.000000 0.038394
#
#
# Mechanical properties :
#
#
# Convention : Reuss Voigt Hill
#
# Bulk Modulus (GPa) = 55.35753 57.68657 56.52205
# Shear Modulus (GPa) = 19.90698 20.74626 20.32662
#
# Velocity S-wave (km/s) = 3.53951 3.61335 3.57662
# Velocity P-wave (km/s) = 7.17931 7.32888 7.25449
#
# Compressibility (1/GPa) = 0.01806439
#
# Stress axis : x y z
#
# Youngs Moduli (GPa) = 38.01996 56.53872 51.02701
#
# Poissons Ratio (x) = 0.58351 0.38085
# Poissons Ratio (y) = 0.39239 0.25394
# Poissons Ratio (z) = 0.28377 0.28137
#
# Static dielectric constant tensor:
#      x y z
#    x 3.030670 0.000000 0.000000 
#    y 0.000000 3.020470 0.000000 
#    z 0.000000 0.000000 2.925880 
# 
# 
# High freq. dielectric constant tensor:
#      x y z
#    x 1.614590 0.000000 0.000000 
#    y 0.000000 1.598600 0.000000 
#    z 0.000000 0.000000 1.591970 
# 
# From -- ./inp_files/21843.got.cif
#   From: 2010.03.12/outbox.cif.g09.slc.cpg/sg59_11_cif.got.tgz:21843.got - 2010.04.16 16:29:54.
