data_PCOD8239293
_publ_section_title
;
Structure prediction by ZEFSAII (Michael W. Deem and Ramdas Pophale) SiO2 
 PCOD8239293
Probable space group: P M M N
;
_chemical_formula_sum "Si O2"
_cell_formula_units_Z 56
_cell_length_a 21.536266
_cell_length_b 8.952530
_cell_length_c 17.551597
_cell_angle_alpha 90.000000
_cell_angle_beta 90.000000
_cell_angle_gamma 90.000000
_cell_volume 3384.019292
_symmetry_space_group_name_H-M "P M M N"
_symmetry_group_IT_number 59
_space_group.IT_coordinate_system_code '2'
_symmetry_cell_setting 'orthorhombic'
loop_
_space_group_symop_operation_xyz
x,y,z
1/2-x,1/2-y,z
1/2+x,-y,-z
-x,1/2+y,-z
-x,-y,-z
1/2+x,1/2+y,-z
1/2-x,y,z
x,1/2-y,z
loop_
_atom_site_type_symbol
_atom_site_label
_atom_site_fract_x
_atom_site_fract_y
_atom_site_fract_z
Si Si1 0.588085 0.922681 0.449726
Si Si2 0.916401 0.418454 0.057702
Si Si3 0.438043 0.081443 0.089745
Si Si4 0.460807 0.576477 0.239911
Si Si5 0.534390 0.577065 0.609117
Si Si6 0.895483 0.576291 0.208357
Si Si7 0.822647 0.423633 0.342726
O O1 0.592758 0.750000 0.426018
O O2 0.583743 0.942894 0.540794
O O3 0.527799 0.987557 0.408829
O O4 0.648471 0.009122 0.420110
O O5 0.891111 0.250000 0.052306
O O6 0.881936 0.501511 0.126759
O O7 0.989537 0.419721 0.071358
O O8 0.900764 0.502895 0.978955
O O9 0.413494 0.250000 0.099083
O O10 0.425232 0.990823 0.167173
O O11 0.444541 0.750000 0.245562
O O12 0.435480 0.491591 0.314746
O O13 0.534157 0.547169 0.233985
O O14 0.517335 0.750000 0.621381
O O15 0.880854 0.750000 0.200854
O O16 0.849823 0.504763 0.269231
O O17 0.750000 0.453589 0.346216
O O18 0.839072 0.250000 0.337479
#
# Coordination Sequence:
#
# PCOD8239293 Si02
#       7
#     8   8   8   8   8   8   8
#     4  10  20  33  48  68  90 119 155 192 237 285
#     4   9  16  26  40  58  84 117 151 186 222 263
#     4   9  16  25  38  58  86 119 152 184 221 262
#     4  10  18  27  42  65  92 121 155 189 228 277
#     4  10  19  30  47  68  93 121 153 192 234 284
#     4  10  19  30  45  64  87 118 156 192 230 276
#     4  11  23  36  50  68  91 121 158 199 241 283
#
# _framework density 16.548369000000001
#
# number of rings (size 3 to 8) (size 9 to 14) (size 15 to 20)
#    0.000    2.143    1.429    3.000    0.000    7.429 
#    0.000    0.000    0.000    0.000    0.000    0.000 
#    0.000    1.143    0.000    8.286    0.000    7.000 
#
# Total GULP energy -694484.212208 kJ/mol
# GULP energy per Si atom -12401.503789 kJ/mol
# Density = 1.651070 g / cm^3
# Si number density = 16.548369 Si / 1000 Ang^3
#
#
#
# Elastic Constant Matrix: (Units=GPa)
#
#
# Indices 1 2 3 4 5 6 
#
# 1 36.8218 31.9903 27.7689 0.0000 0.0000 0.0000
# 2 31.9903 115.0940 57.0671 0.0000 0.0000 0.0000
# 3 27.7689 57.0671 132.9376 0.0000 0.0000 0.0000
# 4 0.0000 0.0000 0.0000 37.3331 0.0000 0.0000
# 5 0.0000 0.0000 0.0000 0.0000 12.4439 0.0000
# 6 0.0000 0.0000 0.0000 0.0000 0.0000 16.5377
#
#
#
# Elastic Compliance Matrix: (Units=1/GPa)
#
#
# Indices 1 2 3 4 5 6 
#
# 1 0.037629 -0.008336 -0.004282 0.000000 0.000000 0.000000
# 2 -0.008336 0.012885 -0.003790 0.000000 0.000000 0.000000
# 3 -0.004282 -0.003790 0.010044 0.000000 0.000000 0.000000
# 4 0.000000 0.000000 0.000000 0.026786 0.000000 0.000000
# 5 0.000000 0.000000 0.000000 0.000000 0.080361 0.000000
# 6 0.000000 0.000000 0.000000 0.000000 0.000000 0.060468
#
#
# Mechanical properties :
#
#
# Convention : Reuss Voigt Hill
#
# Bulk Modulus (GPa) = 36.04613 57.61177 46.82895
# Shear Modulus (GPa) = 18.50246 24.46475 21.48361
#
# Velocity S-wave (km/s) = 3.34740 3.84914 3.60701
# Velocity P-wave (km/s) = 6.06380 7.39217 6.76069
#
# Compressibility (1/GPa) = 0.02774223
#
# Stress axis : x y z
#
# Youngs Moduli (GPa) = 26.57522 77.61186 99.56587
#
# Poissons Ratio (x) = 0.64697 0.42632
# Poissons Ratio (y) = 0.22153 0.37734
# Poissons Ratio (z) = 0.11379 0.29413
#
# Static dielectric constant tensor:
#      x y z
#    x 2.523990 0.000000 0.000000 
#    y 0.000000 3.343340 0.000000 
#    z 0.000000 0.000000 3.387750 
# 
# 
# High freq. dielectric constant tensor:
#      x y z
#    x 1.557190 0.000000 0.000000 
#    y 0.000000 1.662130 0.000000 
#    z 0.000000 0.000000 1.654820 
# 
# From -- ./inp_files/26119.got.cif
#   From: 2010.03.12/outbox.cif.g09.slc.cpg/sg59_14_cif.got.tgz:26119.got - 2010.04.16 16:29:54.
