data_PCOD8239301
_publ_section_title
;
Structure prediction by ZEFSAII (Michael W. Deem and Ramdas Pophale) SiO2 
 PCOD8239301
Probable space group: P M M N
;
_chemical_formula_sum "Si O2"
_cell_formula_units_Z 64
_cell_length_a 13.857490
_cell_length_b 9.400609
_cell_length_c 31.573985
_cell_angle_alpha 90.000000
_cell_angle_beta 90.000000
_cell_angle_gamma 90.000000
_cell_volume 4113.106565
_symmetry_space_group_name_H-M "P M M N"
_symmetry_group_IT_number 59
_space_group.IT_coordinate_system_code '2'
_symmetry_cell_setting 'orthorhombic'
loop_
_space_group_symop_operation_xyz
x,y,z
1/2-x,1/2-y,z
1/2+x,-y,-z
-x,1/2+y,-z
-x,-y,-z
1/2+x,1/2+y,-z
1/2-x,y,z
x,1/2-y,z
loop_
_atom_site_type_symbol
_atom_site_label
_atom_site_fract_x
_atom_site_fract_y
_atom_site_fract_z
Si Si1 0.362020 0.914848 0.147621
Si Si2 0.548902 0.415475 0.940346
Si Si3 0.144544 0.418449 0.561842
Si Si4 0.135320 0.089191 0.228338
Si Si5 0.044606 0.917599 0.395857
Si Si6 0.862816 0.415093 0.690993
Si Si7 0.641789 0.585277 0.013900
Si Si8 0.363800 0.407234 0.469187
O O1 0.250000 0.946589 0.137617
O O2 0.376481 0.750000 0.159434
O O3 0.426211 0.960253 0.107418
O O4 0.401490 0.008375 0.186507
O O5 0.570628 0.250000 0.947301
O O6 0.436394 0.452689 0.949630
O O7 0.619545 0.498478 0.971622
O O8 0.250000 0.484340 0.573079
O O9 0.154258 0.250000 0.559354
O O10 0.105842 0.469263 0.515566
O O11 0.067337 0.462908 0.597684
O O12 0.250000 0.087533 0.228627
O O13 0.095013 0.250000 0.228516
O O14 0.097462 0.006426 0.269672
O O15 0.060149 0.750000 0.399710
O O16 0.079233 0.970311 0.349979
O O17 0.107676 0.986383 0.432398
O O18 0.750000 0.441746 0.682754
O O19 0.883176 0.250000 0.700727
O O20 0.750000 0.547790 0.030103
O O21 0.633925 0.750000 0.001640
O O22 0.250000 0.393121 0.469687
O O23 0.409231 0.250000 0.461229
#
# Coordination Sequence:
#
# PCOD8239301 Si02
#       8
#     8   8   8   8   8   8   8   8
#     4   9  16  26  41  60  82 108 136 167 203 241
#     4   9  17  28  42  61  84 113 148 178 207 249
#     4   8  15  28  43  59  81 108 137 169 204 238
#     4   9  17  28  42  60  81 105 131 159 196 244
#     4  10  18  27  43  64  82 105 138 171 200 234
#     4   9  17  28  40  57  83 108 128 156 197 243
#     4   9  17  28  41  59  86 117 146 179 215 243
#     4   9  17  28  41  58  83 113 138 162 198 241
#
# _framework density 15.560014000000001
#
# number of rings (size 3 to 8) (size 9 to 14) (size 15 to 20)
#    0.000    3.000    0.000    2.250    0.000    4.000 
#    0.000    2.500    0.000    1.125    0.000    0.875 
#    0.000    7.000    0.000    0.000    0.000    0.000 
#
# Total GULP energy -793314.348882 kJ/mol
# GULP energy per Si atom -12395.536701 kJ/mol
# Density = 1.552460 g / cm^3
# Si number density = 15.560014 Si / 1000 Ang^3
#
#
#
# Elastic Constant Matrix: (Units=GPa)
#
#
# Indices 1 2 3 4 5 6 
#
# 1 64.4364 27.3188 58.7076 0.0000 0.0000 0.0000
# 2 27.3188 50.2811 53.2730 0.0000 0.0000 0.0000
# 3 58.7076 53.2730 142.0239 0.0000 0.0000 0.0000
# 4 0.0000 0.0000 0.0000 25.0365 0.0000 0.0000
# 5 0.0000 0.0000 0.0000 0.0000 22.6518 0.0000
# 6 0.0000 0.0000 0.0000 0.0000 0.0000 13.5193
#
#
#
# Elastic Compliance Matrix: (Units=1/GPa)
#
#
# Indices 1 2 3 4 5 6 
#
# 1 0.025483 -0.004456 -0.008862 0.000000 0.000000 0.000000
# 2 -0.004456 0.033784 -0.010831 0.000000 0.000000 0.000000
# 3 -0.008862 -0.010831 0.014767 0.000000 0.000000 0.000000
# 4 0.000000 0.000000 0.000000 0.039942 0.000000 0.000000
# 5 0.000000 0.000000 0.000000 0.000000 0.044147 0.000000
# 6 0.000000 0.000000 0.000000 0.000000 0.000000 0.073968
#
#
# Mechanical properties :
#
#
# Convention : Reuss Voigt Hill
#
# Bulk Modulus (GPa) = 38.85511 59.48223 49.16867
# Shear Modulus (GPa) = 17.30307 20.07098 18.68703
#
# Velocity S-wave (km/s) = 3.33832 3.59542 3.46925
# Velocity P-wave (km/s) = 6.31542 7.45297 6.90765
#
# Compressibility (1/GPa) = 0.02573664
#
# Stress axis : x y z
#
# Youngs Moduli (GPa) = 39.24250 29.59982 67.71889
#
# Poissons Ratio (x) = 0.13189 0.60014
# Poissons Ratio (y) = 0.17485 0.73343
# Poissons Ratio (z) = 0.34778 0.32058
#
# Static dielectric constant tensor:
#      x y z
#    x 2.983990 0.000000 0.000000 
#    y 0.000000 2.947940 0.000000 
#    z 0.000000 0.000000 3.009630 
# 
# 
# High freq. dielectric constant tensor:
#      x y z
#    x 1.573070 0.000000 0.000000 
#    y 0.000000 1.588990 0.000000 
#    z 0.000000 0.000000 1.588860 
# 
# From -- ./inp_files/33333.got.cif
#   From: 2010.03.12/outbox.cif.g09.slc.cpg/sg59_17_cif.got.tgz:33333.got - 2010.04.16 16:29:54.
