data_PCOD8239664
_publ_section_title
;
Structure prediction by ZEFSAII (Michael W. Deem and Ramdas Pophale) SiO2 
 PCOD8239664
Probable space group: P M M N
;
_chemical_formula_sum "Si O2"
_cell_formula_units_Z 48
_cell_length_a 28.207283
_cell_length_b 9.011146
_cell_length_c 10.453922
_cell_angle_alpha 90.000000
_cell_angle_beta 90.000000
_cell_angle_gamma 90.000000
_cell_volume 2657.177323
_symmetry_space_group_name_H-M "P M M N"
_symmetry_group_IT_number 59
_space_group.IT_coordinate_system_code '2'
_symmetry_cell_setting 'orthorhombic'
loop_
_space_group_symop_operation_xyz
x,y,z
1/2-x,1/2-y,z
1/2+x,-y,-z
-x,1/2+y,-z
-x,-y,-z
1/2+x,1/2+y,-z
1/2-x,y,z
x,1/2-y,z
loop_
_atom_site_type_symbol
_atom_site_label
_atom_site_fract_x
_atom_site_fract_y
_atom_site_fract_z
Si Si1 0.553795 0.923187 0.142023
Si Si2 0.052826 0.578079 0.124279
Si Si3 0.139157 0.926056 0.748210
Si Si4 0.803056 0.426818 0.006938
Si Si5 0.852365 0.075687 0.753150
Si Si6 0.196028 0.572995 0.501496
O O1 0.564623 0.750000 0.144043
O O2 0.499193 0.958029 0.179346
O O3 0.586667 0.003507 0.247012
O O4 0.564648 0.983185 0.000685
O O5 0.056949 0.750000 0.082668
O O6 0.091473 0.539946 0.233904
O O7 0.134125 0.750000 0.745298
O O8 0.167319 0.984219 0.872180
O O9 0.167167 0.984968 0.624257
O O10 0.750000 0.488778 0.019384
O O11 0.803372 0.250000 0.005784
O O12 0.825517 0.490868 0.876556
O O13 0.843368 0.250000 0.748708
O O14 0.830510 0.006914 0.623716
O O15 0.250000 0.513129 0.505926
O O16 0.196428 0.750000 0.500418
#
# Coordination Sequence:
#
# PCOD8239664 Si02
#       6
#     8   8   8   8   8   8
#     4  10  19  30  48  72  98 127 163 201 238 287
#     4   9  17  31  50  73  98 126 159 199 248 290
#     4  10  18  30  47  70 100 127 156 195 240 284
#     4   9  15  23  41  68  93 118 152 195 237 278
#     4   9  15  26  45  70  98 123 152 196 246 288
#     4   9  17  28  45  72 101 126 156 198 243 285
#
# _framework density 18.064281999999999
#
# number of rings (size 3 to 8) (size 9 to 14) (size 15 to 20)
#    0.000    2.667    1.667    1.500    0.000    4.667 
#    0.000    0.833    0.000    3.000    0.000    0.000 
#    0.000    0.000    0.000    0.000    0.000    0.000 
#
# Total GULP energy -595055.965936 kJ/mol
# GULP energy per Si atom -12396.999290 kJ/mol
# Density = 1.802317 g / cm^3
# Si number density = 18.064282 Si / 1000 Ang^3
#
#
#
# Elastic Constant Matrix: (Units=GPa)
#
#
# Indices 1 2 3 4 5 6 
#
# 1 160.8761 25.8743 82.3451 0.0000 0.0000 0.0000
# 2 25.8743 22.6128 19.5094 0.0000 0.0000 0.0000
# 3 82.3451 19.5094 143.8906 0.0000 0.0000 0.0000
# 4 0.0000 0.0000 0.0000 9.5396 0.0000 0.0000
# 5 0.0000 0.0000 0.0000 0.0000 36.8897 0.0000
# 6 0.0000 0.0000 0.0000 0.0000 0.0000 21.4897
#
#
#
# Elastic Compliance Matrix: (Units=1/GPa)
#
#
# Indices 1 2 3 4 5 6 
#
# 1 0.009717 -0.007158 -0.004590 0.000000 0.000000 0.000000
# 2 -0.007158 0.055354 -0.003409 0.000000 0.000000 0.000000
# 3 -0.004590 -0.003409 0.010039 0.000000 0.000000 0.000000
# 4 0.000000 0.000000 0.000000 0.104827 0.000000 0.000000
# 5 0.000000 0.000000 0.000000 0.000000 0.027108 0.000000
# 6 0.000000 0.000000 0.000000 0.000000 0.000000 0.046534
#
#
# Mechanical properties :
#
#
# Convention : Reuss Voigt Hill
#
# Bulk Modulus (GPa) = 22.32363 64.75968 43.54165
# Shear Modulus (GPa) = 16.73229 26.89384 21.81306
#
# Velocity S-wave (km/s) = 3.04676 3.86266 3.47872
# Velocity P-wave (km/s) = 4.97611 7.47134 6.34755
#
# Compressibility (1/GPa) = 0.04479559
#
# Stress axis : x y z
#
# Youngs Moduli (GPa) = 102.91597 18.06554 99.61424
#
# Poissons Ratio (x) = 0.12931 0.45724
# Poissons Ratio (y) = 0.73667 0.33957
# Poissons Ratio (z) = 0.47240 0.06158
#
# Static dielectric constant tensor:
#      x y z
#    x 3.652020 0.000000 0.000000 
#    y 0.000000 2.797340 0.000000 
#    z 0.000000 0.000000 3.380170 
# 
# 
# High freq. dielectric constant tensor:
#      x y z
#    x 1.720270 0.000000 0.000000 
#    y 0.000000 1.639620 0.000000 
#    z 0.000000 0.000000 1.685300 
# 
# From -- ./inp_files/19038.got.cif
#   From: 2010.03.12/outbox.cif.g09.slc.cpg/sg59_10_cif.got.tgz:19038.got - 2010.04.16 16:29:54.
