data_PCOD8239881
_publ_section_title
;
Structure prediction by ZEFSAII (Michael W. Deem and Ramdas Pophale) SiO2 
 PCOD8239881
Probable space group: P M M N
;
_chemical_formula_sum "Si O2"
_cell_formula_units_Z 56
_cell_length_a 19.335921
_cell_length_b 9.392478
_cell_length_c 17.611328
_cell_angle_alpha 90.000000
_cell_angle_beta 90.000000
_cell_angle_gamma 90.000000
_cell_volume 3198.432245
_symmetry_space_group_name_H-M "P M M N"
_symmetry_group_IT_number 59
_space_group.IT_coordinate_system_code '2'
_symmetry_cell_setting 'orthorhombic'
loop_
_space_group_symop_operation_xyz
x,y,z
1/2-x,1/2-y,z
1/2+x,-y,-z
-x,1/2+y,-z
-x,-y,-z
1/2+x,1/2+y,-z
1/2-x,y,z
x,1/2-y,z
loop_
_atom_site_type_symbol
_atom_site_label
_atom_site_fract_x
_atom_site_fract_y
_atom_site_fract_z
Si Si1 0.828158 0.089597 0.097050
Si Si2 0.547599 0.082920 0.805805
Si Si3 0.920033 0.080581 0.641259
Si Si4 0.924656 0.918172 0.387841
Si Si5 0.566298 0.417844 0.971787
Si Si6 0.104926 0.417789 0.778619
Si Si7 0.330555 0.081722 0.474356
O O1 0.750000 0.080950 0.069832
O O2 0.850284 0.250000 0.117902
O O3 0.836970 0.994500 0.171843
O O4 0.870924 0.033490 0.024797
O O5 0.543228 0.250000 0.794571
O O6 0.585152 0.027545 0.729349
O O7 0.585196 0.038934 0.884364
O O8 0.468750 0.028547 0.810779
O O9 0.909709 0.250000 0.632735
O O10 0.995029 0.031884 0.607451
O O11 0.858013 0.999313 0.599700
O O12 0.924882 0.750000 0.389766
O O13 0.889578 0.967455 0.308952
O O14 0.877022 0.977529 0.455741
O O15 0.551158 0.250000 0.975766
O O16 0.500000 0.500000 0.000000
O O17 0.115741 0.250000 0.786803
O O18 0.250000 0.044094 0.488146
O O19 0.340285 0.250000 0.463226
#
# Coordination Sequence:
#
# PCOD8239881 Si02
#       7
#     8   8   8   8   8   8   8
#     4  10  21  33  44  67 105 138 160 192 244 297
#     4   8  15  29  50  75  97 117 153 206 249 280
#     4   9  17  32  53  74  96 123 162 210 248 283
#     4   8  16  31  52  75  98 125 161 203 245 290
#     4  10  18  31  52  73  97 128 164 202 241 285
#     4   9  16  30  52  74  94 121 161 203 239 284
#     4  10  20  33  48  69 100 134 164 198 246 299
#
# _framework density 17.508576999999999
#
# number of rings (size 3 to 8) (size 9 to 14) (size 15 to 20)
#    0.000    2.857    1.429    2.143    0.000    1.143 
#    0.000    6.429    0.000    2.571    0.000    0.000 
#    0.000    0.000    0.000    0.000    0.000    0.000 
#
# Total GULP energy -694017.777729 kJ/mol
# GULP energy per Si atom -12393.174602 kJ/mol
# Density = 1.746873 g / cm^3
# Si number density = 17.508577 Si / 1000 Ang^3
#
#
#
# Elastic Constant Matrix: (Units=GPa)
#
#
# Indices 1 2 3 4 5 6 
#
# 1 82.3832 27.7327 52.7775 0.0000 0.0000 0.0000
# 2 27.7327 32.0402 33.7487 0.0000 0.0000 0.0000
# 3 52.7775 33.7487 126.2050 0.0000 0.0000 0.0000
# 4 0.0000 0.0000 0.0000 25.0392 0.0000 0.0000
# 5 0.0000 0.0000 0.0000 0.0000 27.2063 0.0000
# 6 0.0000 0.0000 0.0000 0.0000 0.0000 23.3732
#
#
#
# Elastic Compliance Matrix: (Units=1/GPa)
#
#
# Indices 1 2 3 4 5 6 
#
# 1 0.019138 -0.011325 -0.004975 0.000000 0.000000 0.000000
# 2 -0.011325 0.050151 -0.008675 0.000000 0.000000 0.000000
# 3 -0.004975 -0.008675 0.012324 0.000000 0.000000 0.000000
# 4 0.000000 0.000000 0.000000 0.039937 0.000000 0.000000
# 5 0.000000 0.000000 0.000000 0.000000 0.036756 0.000000
# 6 0.000000 0.000000 0.000000 0.000000 0.000000 0.042784
#
#
# Mechanical properties :
#
#
# Convention : Reuss Voigt Hill
#
# Bulk Modulus (GPa) = 31.58255 52.12734 41.85495
# Shear Modulus (GPa) = 19.11366 23.54835 21.33101
#
# Velocity S-wave (km/s) = 3.30763 3.67135 3.49423
# Velocity P-wave (km/s) = 5.71531 6.91439 6.34325
#
# Compressibility (1/GPa) = 0.03166305
#
# Stress axis : x y z
#
# Youngs Moduli (GPa) = 52.25302 19.93997 81.14370
#
# Poissons Ratio (x) = 0.22581 0.40367
# Poissons Ratio (y) = 0.59175 0.70392
# Poissons Ratio (z) = 0.25995 0.17298
#
# Static dielectric constant tensor:
#      x y z
#    x 3.184800 0.000000 0.000000 
#    y 0.000000 2.928320 0.000000 
#    z 0.000000 0.000000 3.662460 
# 
# 
# High freq. dielectric constant tensor:
#      x y z
#    x 1.659080 0.000000 0.000000 
#    y 0.000000 1.643030 0.000000 
#    z 0.000000 0.000000 1.691540 
# 
# From -- ./inp_files/28113.got.cif
#   From: 2010.03.12/outbox.cif.g09.slc.cpg/sg59_15_cif.got.tgz:28113.got - 2010.04.16 16:29:54.
