data_PCOD8239957
_publ_section_title
;
Structure prediction by ZEFSAII (Michael W. Deem and Ramdas Pophale) SiO2 
 PCOD8239957
Probable space group: P M M N
;
_chemical_formula_sum "Si O2"
_cell_formula_units_Z 40
_cell_length_a 13.776293
_cell_length_b 17.671627
_cell_length_c 9.182677
_cell_angle_alpha 90.000000
_cell_angle_beta 90.000000
_cell_angle_gamma 90.000000
_cell_volume 2235.518228
_symmetry_space_group_name_H-M "P M M N"
_symmetry_group_IT_number 59
_space_group.IT_coordinate_system_code '2'
_symmetry_cell_setting 'orthorhombic'
loop_
_space_group_symop_operation_xyz
x,y,z
1/2-x,1/2-y,z
1/2+x,-y,-z
-x,1/2+y,-z
-x,-y,-z
1/2+x,1/2+y,-z
1/2-x,y,z
x,1/2-y,z
loop_
_atom_site_type_symbol
_atom_site_label
_atom_site_fract_x
_atom_site_fract_y
_atom_site_fract_z
Si Si1 0.641676 0.610505 0.883593
Si Si2 0.861366 0.545910 0.580767
Si Si3 0.029211 0.665115 0.054634
Si Si4 0.138869 0.531495 0.920364
Si Si5 0.478975 0.441243 0.692279
O O1 0.750000 0.636910 0.926814
O O2 0.630054 0.607584 0.709565
O O3 0.566470 0.668788 0.953258
O O4 0.620984 0.526253 0.946459
O O5 0.750000 0.521407 0.557453
O O6 0.904107 0.583441 0.434408
O O7 0.921560 0.470448 0.620238
O O8 0.069470 0.750000 0.073570
O O9 0.000465 0.632625 0.212295
O O10 0.111208 0.614531 0.977468
O O11 0.250000 0.531881 0.868077
O O12 0.070472 0.508405 0.786218
#
# Coordination Sequence:
#
# PCOD8239957 Si02
#       5
#     8   8   8   8   8
#     4   9  17  33  55  75  99 132 176 220 256 302
#     4  10  18  31  57  82 100 127 174 226 264 302
#     4  11  21  34  50  76 110 141 171 210 264 320
#     4  10  18  33  54  78 103 133 175 217 256 302
#     4  10  19  34  54  80 106 136 177 219 265 307
#
# _framework density 17.892942999999999
#
# number of rings (size 3 to 8) (size 9 to 14) (size 15 to 20)
#    0.000    2.000    4.000    1.800    0.000    1.600 
#    0.000    1.000    0.000    1.200    0.000    0.000 
#    0.000    0.000    0.000    0.000    0.000    0.000 
#
# Total GULP energy -496034.514747 kJ/mol
# GULP energy per Si atom -12400.862869 kJ/mol
# Density = 1.785222 g / cm^3
# Si number density = 17.892943 Si / 1000 Ang^3
#
#
#
# Elastic Constant Matrix: (Units=GPa)
#
#
# Indices 1 2 3 4 5 6 
#
# 1 80.7078 9.2062 16.4545 0.0000 0.0000 0.0000
# 2 9.2062 81.2659 13.1667 0.0000 0.0000 0.0000
# 3 16.4545 13.1667 84.0520 0.0000 0.0000 0.0000
# 4 0.0000 0.0000 0.0000 10.4419 0.0000 0.0000
# 5 0.0000 0.0000 0.0000 0.0000 30.9564 0.0000
# 6 0.0000 0.0000 0.0000 0.0000 0.0000 15.0609
#
#
#
# Elastic Compliance Matrix: (Units=1/GPa)
#
#
# Indices 1 2 3 4 5 6 
#
# 1 0.012999 -0.001088 -0.002374 0.000000 0.000000 0.000000
# 2 -0.001088 0.012717 -0.001779 0.000000 0.000000 0.000000
# 3 -0.002374 -0.001779 0.012641 0.000000 0.000000 0.000000
# 4 0.000000 0.000000 0.000000 0.095768 0.000000 0.000000
# 5 0.000000 0.000000 0.000000 0.000000 0.032304 0.000000
# 6 0.000000 0.000000 0.000000 0.000000 0.000000 0.066397
#
#
# Mechanical properties :
#
#
# Convention : Reuss Voigt Hill
#
# Bulk Modulus (GPa) = 35.87607 35.96451 35.92029
# Shear Modulus (GPa) = 19.79425 25.10505 22.44965
#
# Velocity S-wave (km/s) = 3.32966 3.74982 3.54597
# Velocity P-wave (km/s) = 5.90560 6.23632 6.07321
#
# Compressibility (1/GPa) = 0.02787373
#
# Stress axis : x y z
#
# Youngs Moduli (GPa) = 76.93177 78.63632 79.10831
#
# Poissons Ratio (x) = 0.08554 0.18782
# Poissons Ratio (y) = 0.08369 0.14074
# Poissons Ratio (z) = 0.18266 0.13990
#
# Static dielectric constant tensor:
#      x y z
#    x 3.465260 0.000000 0.000000 
#    y 0.000000 2.771790 0.000000 
#    z 0.000000 0.000000 3.457530 
# 
# 
# High freq. dielectric constant tensor:
#      x y z
#    x 1.708210 0.000000 0.000000 
#    y 0.000000 1.639150 0.000000 
#    z 0.000000 0.000000 1.699480 
# 
# From -- ./inp_files/8607.got.cif
#   From: 2010.03.12/outbox.cif.g09.slc.cpg/sg59_5_cif.got.tgz:8607.got - 2010.04.16 16:29:54.
