data_PCOD8239258
_publ_section_title
;
Structure prediction by ZEFSAII (Michael W. Deem and Ramdas Pophale) SiO2 
 PCOD8239258
Probable space group: P M M N
;
_chemical_formula_sum "Si O2"
_cell_formula_units_Z 56
_cell_length_a 9.025855
_cell_length_b 26.686164
_cell_length_c 14.390472
_cell_angle_alpha 90.000000
_cell_angle_beta 90.000000
_cell_angle_gamma 90.000000
_cell_volume 3466.167468
_symmetry_space_group_name_H-M "P M M N"
_symmetry_group_IT_number 59
_space_group.IT_coordinate_system_code '2'
_symmetry_cell_setting 'orthorhombic'
loop_
_space_group_symop_operation_xyz
x,y,z
1/2-x,1/2-y,z
1/2+x,-y,-z
-x,1/2+y,-z
-x,-y,-z
1/2+x,1/2+y,-z
1/2-x,y,z
x,1/2-y,z
loop_
_atom_site_type_symbol
_atom_site_label
_atom_site_fract_x
_atom_site_fract_y
_atom_site_fract_z
Si Si1 0.575009 0.194684 0.120790
Si Si2 0.075175 0.882218 0.728113
Si Si3 0.578647 0.535827 0.374965
Si Si4 0.583144 0.435470 0.800777
Si Si5 0.576481 0.107878 0.988182
Si Si6 0.578610 0.566097 0.577394
Si Si7 0.419778 0.046175 0.134218
O O1 0.750000 0.200003 0.120242
O O2 0.501554 0.250000 0.114497
O O3 0.525436 0.168134 0.217402
O O4 0.525253 0.161072 0.032451
O O5 0.250000 0.884818 0.717113
O O6 0.001364 0.886164 0.625738
O O7 0.019202 0.930133 0.784931
O O8 0.750000 0.521133 0.365028
O O9 0.527001 0.568464 0.286568
O O10 0.551931 0.569290 0.466975
O O11 0.484651 0.485354 0.380808
O O12 0.750000 0.429188 0.762615
O O13 0.565976 0.486797 0.857596
O O14 0.546142 0.392297 0.877081
O O15 0.750000 0.098334 0.009248
O O16 0.483079 0.063308 0.034947
O O17 0.750000 0.567312 0.603697
O O18 0.250000 0.063914 0.144484
#
# Coordination Sequence:
#
# PCOD8239258 Si02
#       7
#     8   8   8   8   8   8   8
#     4   8  15  29  48  69  91 113 142 184 229 272
#     4  10  18  28  46  68  89 118 153 184 223 273
#     4  10  20  30  44  63  87 122 157 184 214 258
#     4  10  19  29  41  61  90 122 153 187 219 255
#     4   9  18  30  44  63  87 117 152 184 221 267
#     4  10  19  31  44  63  90 119 152 188 222 257
#     4  10  18  27  40  60  88 121 150 181 220 256
#
# _framework density 16.156172999999999
#
# number of rings (size 3 to 8) (size 9 to 14) (size 15 to 20)
#    0.000    2.429    1.429    3.000    0.000    2.857 
#    0.000    0.000    0.000   10.714    0.000    1.000 
#    0.000    5.714    0.000    0.000    0.000    0.000 
#
# Total GULP energy -694153.460611 kJ/mol
# GULP energy per Si atom -12395.597511 kJ/mol
# Density = 1.611940 g / cm^3
# Si number density = 16.156173 Si / 1000 Ang^3
#
#
#
# Elastic Constant Matrix: (Units=GPa)
#
#
# Indices 1 2 3 4 5 6 
#
# 1 70.9053 29.0930 49.1996 0.0000 0.0000 0.0000
# 2 29.0930 72.1224 48.1357 0.0000 0.0000 0.0000
# 3 49.1996 48.1357 120.0413 0.0000 0.0000 0.0000
# 4 0.0000 0.0000 0.0000 16.0377 0.0000 0.0000
# 5 0.0000 0.0000 0.0000 0.0000 29.4415 0.0000
# 6 0.0000 0.0000 0.0000 0.0000 0.0000 11.3841
#
#
#
# Elastic Compliance Matrix: (Units=1/GPa)
#
#
# Indices 1 2 3 4 5 6 
#
# 1 0.020375 -0.003612 -0.006902 0.000000 0.000000 0.000000
# 2 -0.003612 0.019572 -0.006368 0.000000 0.000000 0.000000
# 3 -0.006902 -0.006368 0.013713 0.000000 0.000000 0.000000
# 4 0.000000 0.000000 0.000000 0.062353 0.000000 0.000000
# 5 0.000000 0.000000 0.000000 0.000000 0.033966 0.000000
# 6 0.000000 0.000000 0.000000 0.000000 0.000000 0.087842
#
#
# Mechanical properties :
#
#
# Convention : Reuss Voigt Hill
#
# Bulk Modulus (GPa) = 50.26292 57.32506 53.79399
# Shear Modulus (GPa) = 17.97157 20.48205 19.22681
#
# Velocity S-wave (km/s) = 3.33883 3.56442 3.45347
# Velocity P-wave (km/s) = 6.78542 7.24562 7.01929
#
# Compressibility (1/GPa) = 0.01989538
#
# Stress axis : x y z
#
# Youngs Moduli (GPa) = 49.08038 51.09217 72.92408
#
# Poissons Ratio (x) = 0.18455 0.50334
# Poissons Ratio (y) = 0.17729 0.46438
# Poissons Ratio (z) = 0.33877 0.32535
#
# Static dielectric constant tensor:
#      x y z
#    x 3.075660 0.000000 0.000000 
#    y 0.000000 2.953260 0.000000 
#    z 0.000000 0.000000 3.256730 
# 
# 
# High freq. dielectric constant tensor:
#      x y z
#    x 1.620940 0.000000 0.000000 
#    y 0.000000 1.570560 0.000000 
#    z 0.000000 0.000000 1.625560 
# 
# From -- ./inp_files/21712.got.cif
#   From: 2010.03.12/outbox.cif.g09.slc.cpg/sg59_11_cif.got.tgz:21712.got - 2010.04.16 16:29:54.
