data_PCOD8239305
_publ_section_title
;
Structure prediction by ZEFSAII (Michael W. Deem and Ramdas Pophale) SiO2 
 PCOD8239305
Probable space group: P M M N
;
_chemical_formula_sum "Si O2"
_cell_formula_units_Z 56
_cell_length_a 9.239828
_cell_length_b 21.840819
_cell_length_c 17.618381
_cell_angle_alpha 90.000000
_cell_angle_beta 90.000000
_cell_angle_gamma 90.000000
_cell_volume 3555.484618
_symmetry_space_group_name_H-M "P M M N"
_symmetry_group_IT_number 59
_space_group.IT_coordinate_system_code '2'
_symmetry_cell_setting 'orthorhombic'
loop_
_space_group_symop_operation_xyz
x,y,z
1/2-x,1/2-y,z
1/2+x,-y,-z
-x,1/2+y,-z
-x,-y,-z
1/2+x,1/2+y,-z
1/2-x,y,z
x,1/2-y,z
loop_
_atom_site_type_symbol
_atom_site_label
_atom_site_fract_x
_atom_site_fract_y
_atom_site_fract_z
Si Si1 0.913556 0.471863 0.251942
Si Si2 0.414574 0.541840 0.912376
Si Si3 0.083088 0.679115 0.335699
Si Si4 0.084368 0.579437 0.068798
Si Si5 0.417422 0.586798 0.463928
Si Si6 0.081244 0.111200 0.792371
Si Si7 0.417946 0.454717 0.397636
O O1 0.750000 0.467933 0.282831
O O2 0.932540 0.432831 0.173729
O O3 0.954125 0.542644 0.235546
O O4 0.017940 0.442495 0.314386
O O5 0.250000 0.513882 0.918669
O O6 0.536525 0.490887 0.923900
O O7 0.433445 0.594218 0.977879
O O8 0.250000 0.663991 0.317323
O O9 0.057808 0.750000 0.352924
O O10 0.033334 0.642613 0.410640
O O11 0.988288 0.659960 0.264054
O O12 0.250000 0.586701 0.094975
O O13 0.986951 0.621742 0.123541
O O14 0.250000 0.590821 0.486346
O O15 0.452134 0.524642 0.418943
O O16 0.508823 0.590293 0.541257
O O17 0.250000 0.124554 0.797514
O O18 0.250000 0.439527 0.395916
#
# Coordination Sequence:
#
# PCOD8239305 Si02
#       7
#     8   8   8   8   8   8   8
#     4   9  16  26  40  59  86 116 144 176 214 256
#     4   8  15  25  36  56  83 113 144 174 210 249
#     4  10  20  34  50  66  85 111 147 187 224 263
#     4   9  15  24  39  56  80 112 146 178 207 246
#     4   9  18  31  44  61  85 111 141 178 222 265
#     4  10  19  29  42  60  85 115 148 180 217 261
#     4  10  18  27  43  64  85 112 146 179 215 264
#
# _framework density 15.750313999999999
#
# number of rings (size 3 to 8) (size 9 to 14) (size 15 to 20)
#    0.000    2.714    1.429    2.143    0.000    4.286 
#    0.000    0.000    0.000    0.000    0.000    0.000 
#    0.000    1.143    0.000    9.143    0.000    4.429 
#
# Total GULP energy -694047.859779 kJ/mol
# GULP energy per Si atom -12393.711782 kJ/mol
# Density = 1.571447 g / cm^3
# Si number density = 15.750314 Si / 1000 Ang^3
#
#
#
# Elastic Constant Matrix: (Units=GPa)
#
#
# Indices 1 2 3 4 5 6 
#
# 1 81.1119 25.9448 65.6123 0.0000 0.0000 0.0000
# 2 25.9448 42.6995 38.4176 0.0000 0.0000 0.0000
# 3 65.6123 38.4176 145.5359 0.0000 0.0000 0.0000
# 4 0.0000 0.0000 0.0000 14.6010 0.0000 0.0000
# 5 0.0000 0.0000 0.0000 0.0000 28.7908 0.0000
# 6 0.0000 0.0000 0.0000 0.0000 0.0000 13.0585
#
#
#
# Elastic Compliance Matrix: (Units=1/GPa)
#
#
# Indices 1 2 3 4 5 6 
#
# 1 0.020306 -0.005379 -0.007735 0.000000 0.000000 0.000000
# 2 -0.005379 0.032139 -0.006059 0.000000 0.000000 0.000000
# 3 -0.007735 -0.006059 0.011958 0.000000 0.000000 0.000000
# 4 0.000000 0.000000 0.000000 0.068488 0.000000 0.000000
# 5 0.000000 0.000000 0.000000 0.000000 0.034733 0.000000
# 6 0.000000 0.000000 0.000000 0.000000 0.000000 0.076578
#
#
# Mechanical properties :
#
#
# Convention : Reuss Voigt Hill
#
# Bulk Modulus (GPa) = 38.37669 58.81074 48.59371
# Shear Modulus (GPa) = 17.16836 20.58157 18.87496
#
# Velocity S-wave (km/s) = 3.30515 3.61881 3.46553
# Velocity P-wave (km/s) = 6.24371 7.40820 6.85074
#
# Compressibility (1/GPa) = 0.02605749
#
# Stress axis : x y z
#
# Youngs Moduli (GPa) = 49.24701 31.11466 83.62944
#
# Poissons Ratio (x) = 0.16737 0.64684
# Poissons Ratio (y) = 0.26491 0.50670
# Poissons Ratio (z) = 0.38090 0.18852
#
# Static dielectric constant tensor:
#      x y z
#    x 3.060850 0.000000 0.000000 
#    y 0.000000 2.463290 0.000000 
#    z 0.000000 0.000000 3.352160 
# 
# 
# High freq. dielectric constant tensor:
#      x y z
#    x 1.616520 0.000000 0.000000 
#    y 0.000000 1.524590 0.000000 
#    z 0.000000 0.000000 1.622830 
# 
# From -- ./inp_files/26150.got.cif
#   From: 2010.03.12/outbox.cif.g09.slc.cpg/sg59_14_cif.got.tgz:26150.got - 2010.04.16 16:29:54.
