data_PCOD8239438
_publ_section_title
;
Structure prediction by ZEFSAII (Michael W. Deem and Ramdas Pophale) SiO2 
 PCOD8239438
Probable space group: P M M N
;
_chemical_formula_sum "Si O2"
_cell_formula_units_Z 64
_cell_length_a 9.098131
_cell_length_b 20.227281
_cell_length_c 20.005946
_cell_angle_alpha 90.000000
_cell_angle_beta 90.000000
_cell_angle_gamma 90.000000
_cell_volume 3681.703291
_symmetry_space_group_name_H-M "P M M N"
_symmetry_group_IT_number 59
_space_group.IT_coordinate_system_code '2'
_symmetry_cell_setting 'orthorhombic'
loop_
_space_group_symop_operation_xyz
x,y,z
1/2-x,1/2-y,z
1/2+x,-y,-z
-x,1/2+y,-z
-x,-y,-z
1/2+x,1/2+y,-z
1/2-x,y,z
x,1/2-y,z
loop_
_atom_site_type_symbol
_atom_site_label
_atom_site_fract_x
_atom_site_fract_y
_atom_site_fract_z
Si Si1 0.424570 0.177119 0.109815
Si Si2 0.423059 0.892898 0.395841
Si Si3 0.921323 0.966493 0.657351
Si Si4 0.922382 0.931555 0.516575
Si Si5 0.074844 0.056651 0.196253
Si Si6 0.577256 0.674891 0.042297
Si Si7 0.424342 0.913867 0.149170
Si Si8 0.575753 0.177862 0.733685
O O1 0.250000 0.175936 0.113283
O O2 0.480866 0.250000 0.132787
O O3 0.491540 0.120286 0.157743
O O4 0.473715 0.163665 0.033891
O O5 0.250000 0.894360 0.410483
O O6 0.506221 0.877743 0.466260
O O7 0.469797 0.837557 0.342536
O O8 0.480598 0.961797 0.364347
O O9 0.750000 0.974992 0.670953
O O10 0.951201 0.915298 0.595602
O O11 0.990989 0.942819 0.727839
O O12 0.750000 0.937886 0.502890
O O13 0.000000 0.000000 0.500000
O O14 0.250000 0.060845 0.197810
O O15 0.026399 0.990129 0.157088
O O16 0.750000 0.663652 0.050461
O O17 0.535696 0.750000 0.064634
O O18 0.493804 0.619298 0.084196
O O19 0.250000 0.907925 0.143233
O O20 0.486478 0.875378 0.214183
O O21 0.750000 0.176615 0.738471
O O22 0.512701 0.250000 0.752196
#
# Coordination Sequence:
#
# PCOD8239438 Si02
#       8
#     8   8   8   8   8   8   8   8
#     4   8  15  28  45  64  86 117 154 183 216 274
#     4   9  15  26  42  60  84 112 145 183 220 259
#     4   8  13  23  39  60  84 108 136 176 224 262
#     4   9  16  25  41  63  86 113 144 177 216 262
#     4   9  15  25  44  67  90 114 144 189 233 264
#     4   9  18  32  46  61  89 125 153 181 220 267
#     4  10  18  28  46  71  92 113 149 194 233 267
#     4   9  16  26  42  63  87 117 153 188 221 266
#
# _framework density 17.383258999999999
#
# number of rings (size 3 to 8) (size 9 to 14) (size 15 to 20)
#    0.000    3.125    1.250    2.250    0.000    1.250 
#    0.000    0.625    0.000    1.875    0.000    1.750 
#    0.000    0.000    0.000    0.000    0.000    0.000 
#
# Total GULP energy -792873.775279 kJ/mol
# GULP energy per Si atom -12388.652739 kJ/mol
# Density = 1.734369 g / cm^3
# Si number density = 17.383259 Si / 1000 Ang^3
#
#
#
# Elastic Constant Matrix: (Units=GPa)
#
#
# Indices 1 2 3 4 5 6 
#
# 1 27.8659 18.0079 27.3958 0.0000 0.0000 0.0000
# 2 18.0079 115.3360 74.9326 0.0000 0.0000 0.0000
# 3 27.3958 74.9326 133.3307 0.0000 0.0000 0.0000
# 4 0.0000 0.0000 0.0000 23.0175 0.0000 0.0000
# 5 0.0000 0.0000 0.0000 0.0000 21.3421 0.0000
# 6 0.0000 0.0000 0.0000 0.0000 0.0000 12.6988
#
#
#
# Elastic Compliance Matrix: (Units=1/GPa)
#
#
# Indices 1 2 3 4 5 6 
#
# 1 0.045160 -0.001610 -0.008374 0.000000 0.000000 0.000000
# 2 -0.001610 0.013714 -0.007377 0.000000 0.000000 0.000000
# 3 -0.008374 -0.007377 0.013366 0.000000 0.000000 0.000000
# 4 0.000000 0.000000 0.000000 0.043445 0.000000 0.000000
# 5 0.000000 0.000000 0.000000 0.000000 0.046856 0.000000
# 6 0.000000 0.000000 0.000000 0.000000 0.000000 0.078748
#
#
# Mechanical properties :
#
#
# Convention : Reuss Voigt Hill
#
# Bulk Modulus (GPa) = 26.65366 57.46724 42.06045
# Shear Modulus (GPa) = 17.32999 21.82477 19.57738
#
# Velocity S-wave (km/s) = 3.16085 3.54715 3.35956
# Velocity P-wave (km/s) = 5.35608 7.06450 6.26876
#
# Compressibility (1/GPa) = 0.03751829
#
# Stress axis : x y z
#
# Youngs Moduli (GPa) = 22.14367 72.91677 74.81421
#
# Poissons Ratio (x) = 0.11743 0.62649
# Poissons Ratio (y) = 0.03566 0.55187
# Poissons Ratio (z) = 0.18543 0.53788
#
# Static dielectric constant tensor:
#      x y z
#    x 2.842100 0.000000 0.000000 
#    y 0.000000 3.349470 0.000000 
#    z 0.000000 0.000000 3.738370 
# 
# 
# High freq. dielectric constant tensor:
#      x y z
#    x 1.617000 0.000000 0.000000 
#    y 0.000000 1.647600 0.000000 
#    z 0.000000 0.000000 1.685440 
# 
# From -- ./inp_files/29768.got.cif
#   From: 2010.03.12/outbox.cif.g09.slc.cpg/sg59_15_cif.got.tgz:29768.got - 2010.04.16 16:29:54.
