data_PCOD8239729
_publ_section_title
;
Structure prediction by ZEFSAII (Michael W. Deem and Ramdas Pophale) SiO2 
 PCOD8239729
Probable space group: P M M N
;
_chemical_formula_sum "Si O2"
_cell_formula_units_Z 64
_cell_length_a 14.624353
_cell_length_b 9.225048
_cell_length_c 24.947902
_cell_angle_alpha 90.000000
_cell_angle_beta 90.000000
_cell_angle_gamma 90.000000
_cell_volume 3365.730400
_symmetry_space_group_name_H-M "P M M N"
_symmetry_group_IT_number 59
_space_group.IT_coordinate_system_code '2'
_symmetry_cell_setting 'orthorhombic'
loop_
_space_group_symop_operation_xyz
x,y,z
1/2-x,1/2-y,z
1/2+x,-y,-z
-x,1/2+y,-z
-x,-y,-z
1/2+x,1/2+y,-z
1/2-x,y,z
x,1/2-y,z
loop_
_atom_site_type_symbol
_atom_site_label
_atom_site_fract_x
_atom_site_fract_y
_atom_site_fract_z
Si Si1 0.849229 0.422031 0.367599
Si Si2 0.464499 0.420592 0.323667
Si Si3 0.587732 0.084596 0.481801
Si Si4 0.649702 0.087673 0.595338
Si Si5 0.354999 0.416444 0.032230
Si Si6 0.044101 0.922280 0.123317
Si Si7 0.356683 0.078576 0.220146
Si Si8 0.650574 0.578590 0.089343
O O1 0.750000 0.483100 0.348662
O O2 0.844696 0.250000 0.370670
O O3 0.869684 0.482404 0.427442
O O4 0.928474 0.468962 0.325381
O O5 0.454351 0.250000 0.324215
O O6 0.420269 0.476287 0.378499
O O7 0.412173 0.481734 0.271695
O O8 0.559693 0.250000 0.470789
O O9 0.657868 0.070052 0.531164
O O10 0.500000 0.000000 0.500000
O O11 0.750000 0.057697 0.619359
O O12 0.616829 0.250000 0.609892
O O13 0.250000 0.427613 0.051269
O O14 0.388647 0.250000 0.038667
O O15 0.416392 0.523977 0.067045
O O16 0.365345 0.473473 0.971525
O O17 0.055949 0.750000 0.127850
O O18 0.936043 0.968268 0.125989
O O19 0.100166 0.999168 0.169797
O O20 0.250000 0.037868 0.226190
O O21 0.369195 0.250000 0.212603
O O22 0.750000 0.518230 0.110540
O O23 0.656727 0.750000 0.087741
#
# Coordination Sequence:
#
# PCOD8239729 Si02
#       8
#     8   8   8   8   8   8   8   8
#     4   9  17  31  53  78 103 132 166 205 251 302
#     4  10  20  36  57  77  96 127 174 218 251 295
#     4  10  18  30  49  74 105 138 168 199 242 299
#     4  10  20  32  49  75 106 136 163 199 253 309
#     4   9  17  31  52  76 106 144 176 203 247 308
#     4  11  21  32  52  80 105 133 173 219 258 296
#     4  10  22  39  55  72 100 136 169 207 260 315
#     4   8  16  32  52  75 105 141 176 206 246 305
#
# _framework density 19.015188999999999
#
# number of rings (size 3 to 8) (size 9 to 14) (size 15 to 20)
#    0.000    2.375    1.250    2.625    0.000    4.750 
#    0.000    1.250    0.000    6.000    0.000    0.000 
#    0.000    0.000    0.000    0.000    0.000    0.000 
#
# Total GULP energy -793125.806017 kJ/mol
# GULP energy per Si atom -12392.590719 kJ/mol
# Density = 1.897191 g / cm^3
# Si number density = 19.015189 Si / 1000 Ang^3
#
#
#
# Elastic Constant Matrix: (Units=GPa)
#
#
# Indices 1 2 3 4 5 6 
#
# 1 164.2468 33.4641 60.9246 0.0000 0.0000 0.0000
# 2 33.4641 27.5255 21.3324 0.0000 0.0000 0.0000
# 3 60.9246 21.3324 72.9963 0.0000 0.0000 0.0000
# 4 0.0000 0.0000 0.0000 20.7073 0.0000 0.0000
# 5 0.0000 0.0000 0.0000 0.0000 32.1487 0.0000
# 6 0.0000 0.0000 0.0000 0.0000 0.0000 21.4658
#
#
#
# Elastic Compliance Matrix: (Units=1/GPa)
#
#
# Indices 1 2 3 4 5 6 
#
# 1 0.009815 -0.007219 -0.006083 0.000000 0.000000 0.000000
# 2 -0.007219 0.052277 -0.009252 0.000000 0.000000 0.000000
# 3 -0.006083 -0.009252 0.021480 0.000000 0.000000 0.000000
# 4 0.000000 0.000000 0.000000 0.048292 0.000000 0.000000
# 5 0.000000 0.000000 0.000000 0.000000 0.031105 0.000000
# 6 0.000000 0.000000 0.000000 0.000000 0.000000 0.046586
#
#
# Mechanical properties :
#
#
# Convention : Reuss Voigt Hill
#
# Bulk Modulus (GPa) = 25.99786 55.13453 40.56620
# Shear Modulus (GPa) = 18.69266 24.80087 21.74677
#
# Velocity S-wave (km/s) = 3.13875 3.61538 3.38546
# Velocity P-wave (km/s) = 5.18049 6.81806 6.05489
#
# Compressibility (1/GPa) = 0.03846470
#
# Stress axis : x y z
#
# Youngs Moduli (GPa) = 101.88013 19.12886 46.55539
#
# Poissons Ratio (x) = 0.13809 0.28317
# Poissons Ratio (y) = 0.73549 0.43074
# Poissons Ratio (z) = 0.61969 0.17698
#
# Static dielectric constant tensor:
#      x y z
#    x 4.111470 0.000000 0.000000 
#    y 0.000000 3.157810 0.000000 
#    z 0.000000 0.000000 3.499050 
# 
# 
# High freq. dielectric constant tensor:
#      x y z
#    x 1.756450 0.000000 0.000000 
#    y 0.000000 1.704540 0.000000 
#    z 0.000000 0.000000 1.721620 
# 
# From -- ./inp_files/32110.got.cif
#   From: 2010.03.12/outbox.cif.g09.slc.cpg/sg59_17_cif.got.tgz:32110.got - 2010.04.16 16:29:54.
