data_PCOD8239376
_publ_section_title
;
Structure prediction by ZEFSAII (Michael W. Deem and Ramdas Pophale) SiO2 
 PCOD8239376
Probable space group: P M M N
;
_chemical_formula_sum "Si O2"
_cell_formula_units_Z 64
_cell_length_a 18.687025
_cell_length_b 14.024929
_cell_length_c 15.442548
_cell_angle_alpha 90.000000
_cell_angle_beta 90.000000
_cell_angle_gamma 90.000000
_cell_volume 4047.247821
_symmetry_space_group_name_H-M "P M M N"
_symmetry_group_IT_number 59
_space_group.IT_coordinate_system_code '2'
_symmetry_cell_setting 'orthorhombic'
loop_
_space_group_symop_operation_xyz
x,y,z
1/2-x,1/2-y,z
1/2+x,-y,-z
-x,1/2+y,-z
-x,-y,-z
1/2+x,1/2+y,-z
1/2-x,y,z
x,1/2-y,z
loop_
_atom_site_type_symbol
_atom_site_label
_atom_site_fract_x
_atom_site_fract_y
_atom_site_fract_z
Si Si1 0.834544 0.524001 0.466797
Si Si2 0.916545 0.359477 0.199848
Si Si3 0.165242 0.469658 0.864427
Si Si4 0.333627 0.139413 0.034096
Si Si5 0.665033 0.856469 0.301285
Si Si6 0.409762 0.138134 0.387875
Si Si7 0.576709 0.862996 0.804074
Si Si8 0.424706 0.858250 0.599144
O O1 0.750000 0.504676 0.465447
O O2 0.860524 0.587584 0.386023
O O3 0.855337 0.578860 0.553753
O O4 0.876236 0.423999 0.462224
O O5 0.906174 0.250000 0.171198
O O6 0.862712 0.422513 0.142840
O O7 0.900322 0.371152 0.301548
O O8 0.996033 0.397831 0.179134
O O9 0.250000 0.471994 0.862456
O O10 0.134798 0.408565 0.783953
O O11 0.138034 0.420869 0.952642
O O12 0.250000 0.124953 0.049052
O O13 0.352096 0.250000 0.017168
O O14 0.372509 0.099091 0.119645
O O15 0.750000 0.852033 0.297489
O O16 0.632808 0.750000 0.304760
O O17 0.392956 0.250000 0.398581
O O18 0.395297 0.102391 0.289584
O O19 0.491857 0.116203 0.412838
O O20 0.575289 0.750000 0.800526
O O21 0.411091 0.750000 0.569574
#
# Coordination Sequence:
#
# PCOD8239376 Si02
#       8
#     8   8   8   8   8   8   8   8
#     4  11  20  29  45  71  96 122 153 187 232 278
#     4   9  17  30  47  66  90 119 152 190 226 261
#     4  10  18  28  43  65  91 122 154 180 218 269
#     4   9  17  29  46  67  91 118 148 182 222 273
#     4   9  17  28  40  59  92 124 146 174 216 268
#     4   9  18  32  49  68  92 122 154 191 234 278
#     4   8  16  31  48  67  89 115 149 188 229 266
#     4   9  18  33  49  65  90 125 161 193 226 268
#
# _framework density 15.813215
#
# number of rings (size 3 to 8) (size 9 to 14) (size 15 to 20)
#    0.000    2.750    1.250    2.625    0.000    3.750 
#    0.000    2.500    0.000    0.000    0.000    0.875 
#    0.000    2.000    0.000    0.000    0.000    0.000 
#
# Total GULP energy -793518.456350 kJ/mol
# GULP energy per Si atom -12398.725880 kJ/mol
# Density = 1.577722 g / cm^3
# Si number density = 15.813215 Si / 1000 Ang^3
#
#
#
# Elastic Constant Matrix: (Units=GPa)
#
#
# Indices 1 2 3 4 5 6 
#
# 1 35.5692 24.7082 31.4360 0.0000 0.0000 0.0000
# 2 24.7082 72.7998 39.3828 0.0000 0.0000 0.0000
# 3 31.4360 39.3828 102.0920 0.0000 0.0000 0.0000
# 4 0.0000 0.0000 0.0000 21.1610 0.0000 0.0000
# 5 0.0000 0.0000 0.0000 0.0000 25.2039 0.0000
# 6 0.0000 0.0000 0.0000 0.0000 0.0000 22.7861
#
#
#
# Elastic Compliance Matrix: (Units=1/GPa)
#
#
# Indices 1 2 3 4 5 6 
#
# 1 0.043212 -0.009438 -0.009665 0.000000 0.000000 0.000000
# 2 -0.009438 0.019420 -0.004585 0.000000 0.000000 0.000000
# 3 -0.009665 -0.004585 0.014540 0.000000 0.000000 0.000000
# 4 0.000000 0.000000 0.000000 0.047257 0.000000 0.000000
# 5 0.000000 0.000000 0.000000 0.000000 0.039676 0.000000
# 6 0.000000 0.000000 0.000000 0.000000 0.000000 0.043886
#
#
# Mechanical properties :
#
#
# Convention : Reuss Voigt Hill
#
# Bulk Modulus (GPa) = 33.56176 44.61279 39.08728
# Shear Modulus (GPa) = 18.84658 21.49246 20.16952
#
# Velocity S-wave (km/s) = 3.45603 3.69066 3.57527
# Velocity P-wave (km/s) = 6.09881 6.81431 6.46646
#
# Compressibility (1/GPa) = 0.02979581
#
# Stress axis : x y z
#
# Youngs Moduli (GPa) = 23.14165 51.49336 68.77563
#
# Poissons Ratio (x) = 0.48597 0.66473
# Poissons Ratio (y) = 0.21840 0.31536
# Poissons Ratio (z) = 0.22367 0.23612
#
# Static dielectric constant tensor:
#      x y z
#    x 2.858180 0.000000 0.000000 
#    y 0.000000 2.907750 0.000000 
#    z 0.000000 0.000000 3.098590 
# 
# 
# High freq. dielectric constant tensor:
#      x y z
#    x 1.590260 0.000000 0.000000 
#    y 0.000000 1.593790 0.000000 
#    z 0.000000 0.000000 1.602500 
# 
# From -- ./inp_files/23477.got.cif
#   From: 2010.03.12/outbox.cif.g09.slc.cpg/sg59_12_cif.got.tgz:23477.got - 2010.04.16 16:29:54.
