data_PCOD8239261
_publ_section_title
;
Structure prediction by ZEFSAII (Michael W. Deem and Ramdas Pophale) SiO2 
 PCOD8239261
Probable space group: P M M N
;
_chemical_formula_sum "Si O2"
_cell_formula_units_Z 64
_cell_length_a 9.259748
_cell_length_b 25.670547
_cell_length_c 17.217770
_cell_angle_alpha 90.000000
_cell_angle_beta 90.000000
_cell_angle_gamma 90.000000
_cell_volume 4092.712074
_symmetry_space_group_name_H-M "P M M N"
_symmetry_group_IT_number 59
_space_group.IT_coordinate_system_code '2'
_symmetry_cell_setting 'orthorhombic'
loop_
_space_group_symop_operation_xyz
x,y,z
1/2-x,1/2-y,z
1/2+x,-y,-z
-x,1/2+y,-z
-x,-y,-z
1/2+x,1/2+y,-z
1/2-x,y,z
x,1/2-y,z
loop_
_atom_site_type_symbol
_atom_site_label
_atom_site_fract_x
_atom_site_fract_y
_atom_site_fract_z
Si Si1 0.420711 0.691425 0.575291
Si Si2 0.080980 0.946454 0.835078
Si Si3 0.414657 0.947589 0.002490
Si Si4 0.419708 0.944022 0.170413
Si Si5 0.583588 0.690876 0.419924
Si Si6 0.417919 0.402746 0.688048
Si Si7 0.420455 0.598686 0.677848
Si Si8 0.920187 0.500334 0.418770
O O1 0.250000 0.686933 0.565331
O O2 0.467210 0.750000 0.598724
O O3 0.489460 0.674806 0.493856
O O4 0.481189 0.652385 0.641505
O O5 0.250000 0.960868 0.823928
O O6 0.030986 0.906278 0.767953
O O7 0.053594 0.918601 0.919774
O O8 0.990591 0.999086 0.825254
O O9 0.250000 0.964911 0.004571
O O10 0.449548 0.918327 0.084044
O O11 0.500000 0.000000 0.000000
O O12 0.250000 0.949077 0.187435
O O13 0.490823 0.906065 0.233080
O O14 0.750000 0.683817 0.443844
O O15 0.550256 0.750000 0.393472
O O16 0.543628 0.652995 0.349143
O O17 0.250000 0.407468 0.709482
O O18 0.463206 0.447995 0.628399
O O19 0.250000 0.599954 0.671994
O O20 0.477476 0.549043 0.629961
O O21 0.750000 0.497868 0.434072
O O22 0.000000 0.500000 0.500000
#
# Coordination Sequence:
#
# PCOD8239261 Si02
#       8
#     8   8   8   8   8   8   8   8
#     4   9  17  29  45  64  85 109 140 178 215 247
#     4   9  15  28  45  59  83 118 146 170 208 256
#     4   8  15  25  40  60  82 111 142 171 207 249
#     4  10  18  27  40  64  91 111 139 178 212 248
#     4   9  18  32  48  64  82 106 142 184 216 247
#     4  10  19  31  45  61  84 115 144 169 209 261
#     4   9  16  27  43  61  83 111 142 170 200 246
#     4  10  19  29  40  57  81 110 140 166 199 249
#
# _framework density 15.637551999999999
#
# number of rings (size 3 to 8) (size 9 to 14) (size 15 to 20)
#    0.000    2.750    1.250    1.125    0.000    1.500 
#    0.000    0.625    0.000    0.000    0.000    0.875 
#    0.000    3.000    0.000    0.000    0.000    0.000 
#
# Total GULP energy -792998.025794 kJ/mol
# GULP energy per Si atom -12390.594153 kJ/mol
# Density = 1.560196 g / cm^3
# Si number density = 15.637552 Si / 1000 Ang^3
#
#
#
# Elastic Constant Matrix: (Units=GPa)
#
#
# Indices 1 2 3 4 5 6 
#
# 1 36.5200 23.6986 45.0455 0.0000 0.0000 0.0000
# 2 23.6986 81.7822 66.3957 0.0000 0.0000 0.0000
# 3 45.0455 66.3957 167.2859 0.0000 0.0000 0.0000
# 4 0.0000 0.0000 0.0000 18.9359 0.0000 0.0000
# 5 0.0000 0.0000 0.0000 0.0000 22.5013 0.0000
# 6 0.0000 0.0000 0.0000 0.0000 0.0000 12.1565
#
#
#
# Elastic Compliance Matrix: (Units=1/GPa)
#
#
# Indices 1 2 3 4 5 6 
#
# 1 0.042053 -0.004416 -0.009571 0.000000 0.000000 0.000000
# 2 -0.004416 0.018504 -0.006155 0.000000 0.000000 0.000000
# 3 -0.009571 -0.006155 0.010998 0.000000 0.000000 0.000000
# 4 0.000000 0.000000 0.000000 0.052810 0.000000 0.000000
# 5 0.000000 0.000000 0.000000 0.000000 0.044442 0.000000
# 6 0.000000 0.000000 0.000000 0.000000 0.000000 0.082261
#
#
# Mechanical properties :
#
#
# Convention : Reuss Voigt Hill
#
# Bulk Modulus (GPa) = 31.97805 61.76305 46.87055
# Shear Modulus (GPa) = 16.56855 20.74863 18.65859
#
# Velocity S-wave (km/s) = 3.25858 3.64654 3.45801
# Velocity P-wave (km/s) = 5.88657 7.57047 6.78100
#
# Compressibility (1/GPa) = 0.03127145
#
# Stress axis : x y z
#
# Youngs Moduli (GPa) = 23.77935 54.04104 90.92427
#
# Poissons Ratio (x) = 0.23862 0.87026
# Poissons Ratio (y) = 0.10500 0.55968
# Poissons Ratio (z) = 0.22760 0.33265
#
# Static dielectric constant tensor:
#      x y z
#    x 2.721010 0.000000 0.000000 
#    y 0.000000 2.882200 0.000000 
#    z 0.000000 0.000000 3.506950 
# 
# 
# High freq. dielectric constant tensor:
#      x y z
#    x 1.591970 0.000000 0.000000 
#    y 0.000000 1.563690 0.000000 
#    z 0.000000 0.000000 1.612310 
# 
# From -- ./inp_files/26493.got.cif
#   From: 2010.03.12/outbox.cif.g09.slc.cpg/sg59_14_cif.got.tgz:26493.got - 2010.04.16 16:29:54.
