data_PCOD8239495
_publ_section_title
;
Structure prediction by ZEFSAII (Michael W. Deem and Ramdas Pophale) SiO2 
 PCOD8239495
Probable space group: P M M N
;
_chemical_formula_sum "Si O2"
_cell_formula_units_Z 56
_cell_length_a 9.012987
_cell_length_b 20.296829
_cell_length_c 17.988091
_cell_angle_alpha 90.000000
_cell_angle_beta 90.000000
_cell_angle_gamma 90.000000
_cell_volume 3290.652433
_symmetry_space_group_name_H-M "P M M N"
_symmetry_group_IT_number 59
_space_group.IT_coordinate_system_code '2'
_symmetry_cell_setting 'orthorhombic'
loop_
_space_group_symop_operation_xyz
x,y,z
1/2-x,1/2-y,z
1/2+x,-y,-z
-x,1/2+y,-z
-x,-y,-z
1/2+x,1/2+y,-z
1/2-x,y,z
x,1/2-y,z
loop_
_atom_site_type_symbol
_atom_site_label
_atom_site_fract_x
_atom_site_fract_y
_atom_site_fract_z
Si Si1 0.073025 0.562505 0.460836
Si Si2 0.424495 0.455135 0.692280
Si Si3 0.926239 0.323281 0.429459
Si Si4 0.421864 0.892212 0.715613
Si Si5 0.584967 0.593430 0.857780
Si Si6 0.580480 0.062742 0.839226
Si Si7 0.074736 0.431055 0.983324
O O1 0.250000 0.553042 0.459326
O O2 0.023684 0.627559 0.505625
O O3 0.000000 0.500000 0.500000
O O4 0.009258 0.573248 0.378833
O O5 0.250000 0.440558 0.686684
O O6 0.458447 0.532539 0.696222
O O7 0.491838 0.418512 0.764360
O O8 0.750000 0.323233 0.424340
O O9 0.987552 0.250000 0.446277
O O10 0.991488 0.347924 0.350156
O O11 0.250000 0.879285 0.721033
O O12 0.483928 0.871274 0.796290
O O13 0.750000 0.616143 0.838768
O O14 0.570124 0.514968 0.851874
O O15 0.545247 0.614176 0.943064
O O16 0.750000 0.086997 0.833007
O O17 0.501007 0.099349 0.909268
O O18 0.250000 0.440932 0.970163
O O19 0.000000 0.500000 0.000000
#
# Coordination Sequence:
#
# PCOD8239495 Si02
#       7
#     8   8   8   8   8   8   8
#     4  11  20  32  50  71  93 121 157 198 243 288
#     4  10  18  29  44  66  91 118 154 193 234 281
#     4   9  18  33  50  68  92 122 158 198 239 284
#     4   9  16  27  43  63  84 113 153 189 227 271
#     4   8  15  24  35  54  81 114 148 182 222 264
#     4   9  16  25  37  57  84 116 150 186 231 275
#     4   9  15  23  34  51  79 116 153 186 224 272
#
# _framework density 17.017901999999999
#
# number of rings (size 3 to 8) (size 9 to 14) (size 15 to 20)
#    0.000    2.714    1.429    2.571    0.000    4.571 
#    0.000    0.000    0.000    3.857    0.000    0.000 
#    0.000    1.143    0.000   11.143    0.000    6.571 
#
# Total GULP energy -693972.770082 kJ/mol
# GULP energy per Si atom -12392.370894 kJ/mol
# Density = 1.697917 g / cm^3
# Si number density = 17.017902 Si / 1000 Ang^3
#
#
#
# Elastic Constant Matrix: (Units=GPa)
#
#
# Indices 1 2 3 4 5 6 
#
# 1 75.4547 30.8383 65.4044 0.0000 0.0000 0.0000
# 2 30.8383 50.2744 46.7566 0.0000 0.0000 0.0000
# 3 65.4044 46.7566 185.3104 0.0000 0.0000 0.0000
# 4 0.0000 0.0000 0.0000 11.9959 0.0000 0.0000
# 5 0.0000 0.0000 0.0000 0.0000 37.8177 0.0000
# 6 0.0000 0.0000 0.0000 0.0000 0.0000 8.7718
#
#
#
# Elastic Compliance Matrix: (Units=1/GPa)
#
#
# Indices 1 2 3 4 5 6 
#
# 1 0.021263 -0.007922 -0.005506 0.000000 0.000000 0.000000
# 2 -0.007922 0.028941 -0.004506 0.000000 0.000000 0.000000
# 3 -0.005506 -0.004506 0.008477 0.000000 0.000000 0.000000
# 4 0.000000 0.000000 0.000000 0.083362 0.000000 0.000000
# 5 0.000000 0.000000 0.000000 0.000000 0.026443 0.000000
# 6 0.000000 0.000000 0.000000 0.000000 0.000000 0.114002
#
#
# Mechanical properties :
#
#
# Convention : Reuss Voigt Hill
#
# Bulk Modulus (GPa) = 43.83568 66.33758 55.08663
# Shear Modulus (GPa) = 15.33929 22.91974 19.12951
#
# Velocity S-wave (km/s) = 3.00553 3.67386 3.35637
# Velocity P-wave (km/s) = 6.15295 7.55394 6.88915
#
# Compressibility (1/GPa) = 0.02281247
#
# Stress axis : x y z
#
# Youngs Moduli (GPa) = 47.02923 34.55275 117.97175
#
# Poissons Ratio (x) = 0.27374 0.64954
# Poissons Ratio (y) = 0.37258 0.53160
# Poissons Ratio (z) = 0.25894 0.15570
#
# Static dielectric constant tensor:
#      x y z
#    x 3.188290 0.000000 0.000000 
#    y 0.000000 2.705790 0.000000 
#    z 0.000000 0.000000 5.057100 
# 
# 
# High freq. dielectric constant tensor:
#      x y z
#    x 1.654840 0.000000 0.000000 
#    y 0.000000 1.576320 0.000000 
#    z 0.000000 0.000000 1.683340 
# 
# From -- ./inp_files/26011.got.cif
#   From: 2010.03.12/outbox.cif.g09.slc.cpg/sg59_14_cif.got.tgz:26011.got - 2010.04.16 16:29:54.
