data_PCOD8239988
_publ_section_title
;
Structure prediction by ZEFSAII (Michael W. Deem and Ramdas Pophale) SiO2 
 PCOD8239988
Probable space group: P M M N
;
_chemical_formula_sum "Si O2"
_cell_formula_units_Z 48
_cell_length_a 8.953713
_cell_length_b 14.658317
_cell_length_c 20.427435
_cell_angle_alpha 90.000000
_cell_angle_beta 90.000000
_cell_angle_gamma 90.000000
_cell_volume 2681.026559
_symmetry_space_group_name_H-M "P M M N"
_symmetry_group_IT_number 59
_space_group.IT_coordinate_system_code '2'
_symmetry_cell_setting 'orthorhombic'
loop_
_space_group_symop_operation_xyz
x,y,z
1/2-x,1/2-y,z
1/2+x,-y,-z
-x,1/2+y,-z
-x,-y,-z
1/2+x,1/2+y,-z
1/2-x,y,z
x,1/2-y,z
loop_
_atom_site_type_symbol
_atom_site_label
_atom_site_fract_x
_atom_site_fract_y
_atom_site_fract_z
Si Si1 0.571156 0.553040 0.696887
Si Si2 0.585143 0.250000 0.422186
Si Si3 0.572848 0.058278 0.819102
Si Si4 0.925231 0.554102 0.941790
Si Si5 0.919511 0.051442 0.442509
Si Si6 0.420447 0.250000 0.295300
Si Si7 0.076263 0.250000 0.011235
Si Si8 0.572377 0.250000 0.871103
O O1 0.750000 0.555068 0.687627
O O2 0.518392 0.475296 0.747754
O O3 0.496884 0.532590 0.627249
O O4 0.514218 0.651451 0.727561
O O5 0.750000 0.250000 0.386604
O O6 0.572889 0.342157 0.464319
O O7 0.446069 0.250000 0.373095
O O8 0.750000 0.058913 0.820670
O O9 0.511456 0.160136 0.833461
O O10 0.513498 0.987282 0.873758
O O11 0.750000 0.538215 0.947998
O O12 0.965409 0.661400 0.945562
O O13 0.000000 0.500000 0.000000
O O14 0.750000 0.016966 0.436965
O O15 0.000000 0.000000 0.500000
O O16 0.250000 0.250000 0.275230
O O17 0.250000 0.250000 0.991975
O O18 0.982830 0.250000 0.945081
O O19 0.750000 0.250000 0.873197
#
# Coordination Sequence:
#
# PCOD8239988 Si02
#       8
#     8   4   8   8   8   4   4   4
#     4   9  17  31  49  72  99 128 164 207 253 302
#     4   8  16  30  48  70  97 129 163 196 239 292
#     4   9  18  31  50  72  96 129 169 208 249 300
#     4  10  19  32  49  72  98 128 165 209 253 300
#     4  10  19  33  53  77 103 134 169 207 250 298
#     4   8  14  25  46  69  91 120 155 197 247 297
#     4  10  20  31  48  75 103 127 164 216 264 298
#     4  10  18  32  52  70  93 134 178 207 242 303
#
# _framework density 17.903590000000001
#
# number of rings (size 3 to 8) (size 9 to 14) (size 15 to 20)
#    0.000    2.667    1.667    0.500    0.000    1.333 
#    0.000    5.833    0.000    3.000    0.000    3.500 
#    0.000    0.000    0.000    0.000    0.000    0.000 
#
# Total GULP energy -594636.594186 kJ/mol
# GULP energy per Si atom -12388.262379 kJ/mol
# Density = 1.786284 g / cm^3
# Si number density = 17.903590 Si / 1000 Ang^3
#
#
#
# Elastic Constant Matrix: (Units=GPa)
#
#
# Indices 1 2 3 4 5 6 
#
# 1 36.1413 32.0419 31.9281 0.0000 0.0000 0.0000
# 2 32.0419 162.6607 83.3980 0.0000 0.0000 0.0000
# 3 31.9281 83.3980 126.0255 0.0000 0.0000 0.0000
# 4 0.0000 0.0000 0.0000 31.5730 0.0000 0.0000
# 5 0.0000 0.0000 0.0000 0.0000 23.4922 0.0000
# 6 0.0000 0.0000 0.0000 0.0000 0.0000 18.4409
#
#
#
# Elastic Compliance Matrix: (Units=1/GPa)
#
#
# Indices 1 2 3 4 5 6 
#
# 1 0.037114 -0.003769 -0.006909 0.000000 0.000000 0.000000
# 2 -0.003769 0.009687 -0.005456 0.000000 0.000000 0.000000
# 3 -0.006909 -0.005456 0.013296 0.000000 0.000000 0.000000
# 4 0.000000 0.000000 0.000000 0.031673 0.000000 0.000000
# 5 0.000000 0.000000 0.000000 0.000000 0.042567 0.000000
# 6 0.000000 0.000000 0.000000 0.000000 0.000000 0.054227
#
#
# Mechanical properties :
#
#
# Convention : Reuss Voigt Hill
#
# Bulk Modulus (GPa) = 35.93215 68.84041 52.38628
# Shear Modulus (GPa) = 21.72898 26.53186 24.13042
#
# Velocity S-wave (km/s) = 3.48755 3.85376 3.67522
# Velocity P-wave (km/s) = 6.02750 7.63780 6.87993
#
# Compressibility (1/GPa) = 0.02783023
#
# Stress axis : x y z
#
# Youngs Moduli (GPa) = 26.94419 103.22595 75.21243
#
# Poissons Ratio (x) = 0.38903 0.51962
# Poissons Ratio (y) = 0.10155 0.41035
# Poissons Ratio (z) = 0.18615 0.56319
#
# Static dielectric constant tensor:
#      x y z
#    x 2.829000 0.000000 0.000000 
#    y 0.000000 3.746070 0.000000 
#    z 0.000000 0.000000 3.158570 
# 
# 
# High freq. dielectric constant tensor:
#      x y z
#    x 1.670720 0.000000 0.000000 
#    y 0.000000 1.709980 0.000000 
#    z 0.000000 0.000000 1.668580 
# 
# From -- ./inp_files/25687.got.cif
#   From: 2010.03.12/outbox.cif.g09.slc.cpg/sg59_13_cif.got.tgz:25687.got - 2010.04.16 16:29:54.
