data_PCOD8239659
_publ_section_title
;
Structure prediction by ZEFSAII (Michael W. Deem and Ramdas Pophale) SiO2 
 PCOD8239659
Probable space group: P M M N
;
_chemical_formula_sum "Si O2"
_cell_formula_units_Z 64
_cell_length_a 21.550146
_cell_length_b 8.938822
_cell_length_c 19.298944
_cell_angle_alpha 90.000000
_cell_angle_beta 90.000000
_cell_angle_gamma 90.000000
_cell_volume 3717.611920
_symmetry_space_group_name_H-M "P M M N"
_symmetry_group_IT_number 59
_space_group.IT_coordinate_system_code '2'
_symmetry_cell_setting 'orthorhombic'
loop_
_space_group_symop_operation_xyz
x,y,z
1/2-x,1/2-y,z
1/2+x,-y,-z
-x,1/2+y,-z
-x,-y,-z
1/2+x,1/2+y,-z
1/2-x,y,z
x,1/2-y,z
loop_
_atom_site_type_symbol
_atom_site_label
_atom_site_fract_x
_atom_site_fract_y
_atom_site_fract_z
Si Si1 0.056149 0.421029 0.963820
Si Si2 0.819044 0.927242 0.529036
Si Si3 0.607100 0.923371 0.898426
Si Si4 0.373592 0.081252 0.327937
Si Si5 0.009299 0.426347 0.824610
Si Si6 0.516160 0.079627 0.321765
Si Si7 0.943952 0.928439 0.456019
Si Si8 0.180519 0.919897 0.203262
O O1 0.036985 0.250000 0.963137
O O2 0.063284 0.467113 0.882634
O O3 0.112875 0.450114 0.017732
O O4 0.000000 0.500000 0.000000
O O5 0.750000 0.989164 0.507512
O O6 0.818315 0.750000 0.524798
O O7 0.832881 0.976925 0.607838
O O8 0.876032 0.985718 0.481958
O O9 0.594312 0.750000 0.881804
O O10 0.554908 0.020499 0.858926
O O11 0.671394 0.979075 0.865416
O O12 0.354185 0.250000 0.306834
O O13 0.445512 0.075597 0.348035
O O14 0.365009 0.971132 0.263949
O O15 0.006084 0.250000 0.808100
O O16 0.025463 0.513681 0.754878
O O17 0.540688 0.250000 0.321518
O O18 0.554381 0.980683 0.376317
O O19 0.950131 0.750000 0.461662
O O20 0.000000 0.000000 0.500000
O O21 0.250000 0.941895 0.230062
O O22 0.165526 0.750000 0.184048
#
# Coordination Sequence:
#
# PCOD8239659 Si02
#       8
#     8   8   8   8   8   8   8   8
#     4   8  16  28  44  67  93 120 154 192 235 286
#     4   9  18  34  55  76  97 127 171 215 254 300
#     4  10  18  30  47  67  93 127 164 204 245 294
#     4  10  19  33  52  71  96 132 172 211 248 297
#     4  10  18  30  48  71  98 128 159 199 250 298
#     4  11  21  33  50  76 104 135 172 207 249 308
#     4  11  21  35  54  77 105 136 170 214 264 312
#     4  11  23  34  44  65  98 134 173 214 251 295
#
# _framework density 17.215353
#
# number of rings (size 3 to 8) (size 9 to 14) (size 15 to 20)
#    0.000    2.000    2.500    2.250    0.000    3.000 
#    0.000    0.000    0.000    2.250    0.000    0.875 
#    0.000    3.000    0.000    0.000    0.000    0.000 
#
# Total GULP energy -792907.591921 kJ/mol
# GULP energy per Si atom -12389.181124 kJ/mol
# Density = 1.717617 g / cm^3
# Si number density = 17.215353 Si / 1000 Ang^3
#
#
#
# Elastic Constant Matrix: (Units=GPa)
#
#
# Indices 1 2 3 4 5 6 
#
# 1 72.8883 27.7187 46.7586 0.0000 0.0000 0.0000
# 2 27.7187 64.0345 39.1652 0.0000 0.0000 0.0000
# 3 46.7586 39.1652 119.0444 0.0000 0.0000 0.0000
# 4 0.0000 0.0000 0.0000 25.6333 0.0000 0.0000
# 5 0.0000 0.0000 0.0000 0.0000 23.9344 0.0000
# 6 0.0000 0.0000 0.0000 0.0000 0.0000 18.3674
#
#
#
# Elastic Compliance Matrix: (Units=1/GPa)
#
#
# Indices 1 2 3 4 5 6 
#
# 1 0.019400 -0.004678 -0.006081 0.000000 0.000000 0.000000
# 2 -0.004678 0.020679 -0.004966 0.000000 0.000000 0.000000
# 3 -0.006081 -0.004966 0.012422 0.000000 0.000000 0.000000
# 4 0.000000 0.000000 0.000000 0.039012 0.000000 0.000000
# 5 0.000000 0.000000 0.000000 0.000000 0.041781 0.000000
# 6 0.000000 0.000000 0.000000 0.000000 0.000000 0.054444
#
#
# Mechanical properties :
#
#
# Convention : Reuss Voigt Hill
#
# Bulk Modulus (GPa) = 47.50312 53.69469 50.59891
# Shear Modulus (GPa) = 22.10391 23.07532 22.58962
#
# Velocity S-wave (km/s) = 3.58713 3.66511 3.62633
# Velocity P-wave (km/s) = 6.69403 7.01202 6.85487
#
# Compressibility (1/GPa) = 0.02105125
#
# Stress axis : x y z
#
# Youngs Moduli (GPa) = 51.54751 48.35847 80.50048
#
# Poissons Ratio (x) = 0.22624 0.48949
# Poissons Ratio (y) = 0.24116 0.39974
# Poissons Ratio (z) = 0.31344 0.24013
#
# Static dielectric constant tensor:
#      x y z
#    x 3.238420 0.000000 0.000000 
#    y 0.000000 3.195730 0.000000 
#    z 0.000000 0.000000 3.597550 
# 
# 
# High freq. dielectric constant tensor:
#      x y z
#    x 1.623130 0.000000 0.000000 
#    y 0.000000 1.666130 0.000000 
#    z 0.000000 0.000000 1.671920 
# 
# From -- ./inp_files/26464.got.cif
#   From: 2010.03.12/outbox.cif.g09.slc.cpg/sg59_14_cif.got.tgz:26464.got - 2010.04.16 16:29:54.
