data_PCOD8239283
_publ_section_title
;
Structure prediction by ZEFSAII (Michael W. Deem and Ramdas Pophale) SiO2 
 PCOD8239283
Probable space group: P M M N
;
_chemical_formula_sum "Si O2"
_cell_formula_units_Z 64
_cell_length_a 9.416988
_cell_length_b 13.794421
_cell_length_c 31.566702
_cell_angle_alpha 90.000000
_cell_angle_beta 90.000000
_cell_angle_gamma 90.000000
_cell_volume 4100.574473
_symmetry_space_group_name_H-M "P M M N"
_symmetry_group_IT_number 59
_space_group.IT_coordinate_system_code '2'
_symmetry_cell_setting 'orthorhombic'
loop_
_space_group_symop_operation_xyz
x,y,z
1/2-x,1/2-y,z
1/2+x,-y,-z
-x,1/2+y,-z
-x,-y,-z
1/2+x,1/2+y,-z
1/2-x,y,z
x,1/2-y,z
loop_
_atom_site_type_symbol
_atom_site_label
_atom_site_fract_x
_atom_site_fract_y
_atom_site_fract_z
Si Si1 0.584757 0.362750 0.309120
Si Si2 0.907001 0.635717 0.531147
Si Si3 0.087699 0.140301 0.987906
Si Si4 0.916959 0.862211 0.863924
Si Si5 0.406685 0.364987 0.230748
Si Si6 0.582263 0.044878 0.395442
Si Si7 0.918106 0.644150 0.438583
Si Si8 0.084228 0.548362 0.938155
O O1 0.750000 0.380463 0.302512
O O2 0.549450 0.250000 0.316321
O O3 0.510297 0.405298 0.267087
O O4 0.525891 0.421151 0.349686
O O5 0.750000 0.590254 0.539546
O O6 0.892417 0.750000 0.529869
O O7 0.968333 0.604338 0.484776
O O8 0.014592 0.608465 0.567851
O O9 0.250000 0.129075 0.004104
O O10 0.059520 0.250000 0.971633
O O11 0.059011 0.064727 0.949830
O O12 0.983383 0.118204 0.026612
O O13 0.750000 0.878044 0.871821
O O14 0.956765 0.750000 0.872352
O O15 0.959020 0.894164 0.816195
O O16 0.007909 0.931894 0.893821
O O17 0.250000 0.407838 0.239147
O O18 0.400678 0.250000 0.232776
O O19 0.750000 0.061117 0.398338
O O20 0.537648 0.932609 0.402418
O O21 0.750000 0.653953 0.440992
O O22 0.984434 0.750000 0.427630
O O23 0.250000 0.573276 0.934482
#
# Coordination Sequence:
#
# PCOD8239283 Si02
#       8
#     8   8   8   8   8   8   8   8
#     4   9  17  27  38  57  85 108 126 157 202 245
#     4   9  17  28  41  58  81 108 136 165 197 235
#     4   9  18  32  45  57  83 122 152 175 210 250
#     4   9  17  29  44  62  86 114 140 168 206 250
#     4   8  15  28  44  60  79 107 139 163 190 240
#     4  10  18  27  42  62  82 106 135 166 201 241
#     4   8  15  28  43  58  78 105 137 171 203 234
#     4  10  19  28  42  66  88 109 145 185 213 243
#
# _framework density 15.607570000000001
#
# number of rings (size 3 to 8) (size 9 to 14) (size 15 to 20)
#    0.000    3.000    0.000    3.000    0.000    4.250 
#    0.000    2.500    0.000    1.125    0.000    0.875 
#    0.000    5.000    0.000    0.000    0.000    0.000 
#
# Total GULP energy -793234.090075 kJ/mol
# GULP energy per Si atom -12394.282657 kJ/mol
# Density = 1.557205 g / cm^3
# Si number density = 15.607570 Si / 1000 Ang^3
#
#
#
# Elastic Constant Matrix: (Units=GPa)
#
#
# Indices 1 2 3 4 5 6 
#
# 1 53.5784 31.8798 55.3883 0.0000 0.0000 0.0000
# 2 31.8798 67.2944 56.3355 0.0000 0.0000 0.0000
# 3 55.3883 56.3355 137.8414 0.0000 0.0000 0.0000
# 4 0.0000 0.0000 0.0000 22.6733 0.0000 0.0000
# 5 0.0000 0.0000 0.0000 0.0000 27.6546 0.0000
# 6 0.0000 0.0000 0.0000 0.0000 0.0000 15.7984
#
#
#
# Elastic Compliance Matrix: (Units=1/GPa)
#
#
# Indices 1 2 3 4 5 6 
#
# 1 0.034023 -0.007103 -0.010768 0.000000 0.000000 0.000000
# 2 -0.007103 0.024072 -0.006984 0.000000 0.000000 0.000000
# 3 -0.010768 -0.006984 0.014436 0.000000 0.000000 0.000000
# 4 0.000000 0.000000 0.000000 0.044105 0.000000 0.000000
# 5 0.000000 0.000000 0.000000 0.000000 0.036160 0.000000
# 6 0.000000 0.000000 0.000000 0.000000 0.000000 0.063297
#
#
# Mechanical properties :
#
#
# Convention : Reuss Voigt Hill
#
# Bulk Modulus (GPa) = 43.82146 60.65792 52.23969
# Shear Modulus (GPa) = 18.28762 20.89931 19.59346
#
# Velocity S-wave (km/s) = 3.42675 3.66327 3.54698
# Velocity P-wave (km/s) = 6.61776 7.53933 7.09353
#
# Compressibility (1/GPa) = 0.02281987
#
# Stress axis : x y z
#
# Youngs Moduli (GPa) = 29.39230 41.54284 69.27206
#
# Poissons Ratio (x) = 0.29509 0.74593
# Poissons Ratio (y) = 0.20878 0.48378
# Poissons Ratio (z) = 0.31650 0.29012
#
# Static dielectric constant tensor:
#      x y z
#    x 2.965200 0.000000 0.000000 
#    y 0.000000 2.943460 0.000000 
#    z 0.000000 0.000000 3.084490 
# 
# 
# High freq. dielectric constant tensor:
#      x y z
#    x 1.591290 0.000000 0.000000 
#    y 0.000000 1.574210 0.000000 
#    z 0.000000 0.000000 1.591440 
# 
# From -- ./inp_files/33210.got.cif
#   From: 2010.03.12/outbox.cif.g09.slc.cpg/sg59_17_cif.got.tgz:33210.got - 2010.04.16 16:29:54.
