data_PCOD8239161
_publ_section_title
;
Structure prediction by ZEFSAII (Michael W. Deem and Ramdas Pophale) SiO2 
 PCOD8239161
Probable space group: P M M N
;
_chemical_formula_sum "Si O2"
_cell_formula_units_Z 64
_cell_length_a 25.013736
_cell_length_b 13.266473
_cell_length_c 11.508055
_cell_angle_alpha 90.000000
_cell_angle_beta 90.000000
_cell_angle_gamma 90.000000
_cell_volume 3818.879616
_symmetry_space_group_name_H-M "P M M N"
_symmetry_group_IT_number 59
_space_group.IT_coordinate_system_code '2'
_symmetry_cell_setting 'orthorhombic'
loop_
_space_group_symop_operation_xyz
x,y,z
1/2-x,1/2-y,z
1/2+x,-y,-z
-x,1/2+y,-z
-x,-y,-z
1/2+x,1/2+y,-z
1/2-x,y,z
x,1/2-y,z
loop_
_atom_site_type_symbol
_atom_site_label
_atom_site_fract_x
_atom_site_fract_y
_atom_site_fract_z
Si Si1 0.026891 0.058350 0.822809
Si Si2 0.358193 0.133938 0.817252
Si Si3 0.688985 0.633299 0.425590
Si Si4 0.915656 0.953134 0.536648
Si Si5 0.691234 0.870327 0.947565
Si Si6 0.984696 0.132976 0.586967
Si Si7 0.894282 0.862608 0.775558
Si Si8 0.505505 0.860495 0.927517
O O1 0.086849 0.080645 0.783765
O O2 0.988515 0.091708 0.718260
O O3 0.005536 0.115887 0.936075
O O4 0.027025 0.939026 0.848955
O O5 0.372177 0.250000 0.837844
O O6 0.316255 0.119664 0.712876
O O7 0.334157 0.085310 0.934154
O O8 0.750000 0.602103 0.460456
O O9 0.678692 0.750000 0.460558
O O10 0.644556 0.562896 0.488072
O O11 0.914718 0.933535 0.674022
O O12 0.957845 0.878029 0.476066
O O13 0.938393 0.067598 0.521276
O O14 0.750000 0.915943 0.935450
O O15 0.692025 0.750000 0.956618
O O16 0.660398 0.904953 0.831375
O O17 0.967935 0.250000 0.584735
O O18 0.886537 0.750000 0.725004
O O19 0.933612 0.861893 0.885348
O O20 0.479795 0.750000 0.908390
#
# Coordination Sequence:
#
# PCOD8239161 Si02
#       8
#     8   8   8   8   8   8   8   8
#     4  11  19  32  53  75 100 138 172 206 254 309
#     4  10  17  29  49  73 102 130 162 207 254 305
#     4  10  20  33  52  76 102 134 172 215 263 313
#     4  11  22  35  50  74 104 139 172 216 256 302
#     4   9  17  28  44  68  97 130 164 197 243 303
#     4  11  22  36  54  76 101 137 179 215 256 308
#     4  10  18  30  45  66  98 133 161 194 244 297
#     4  10  20  32  48  74 105 134 163 203 252 305
#
# _framework density 16.758842000000001
#
# number of rings (size 3 to 8) (size 9 to 14) (size 15 to 20)
#    0.000    1.750    3.750    2.625    0.000    2.000 
#    0.000    1.250    0.000    0.375    0.000    0.000 
#    0.000    2.500    0.000    0.000    0.000    0.000 
#
# Total GULP energy -793348.478539 kJ/mol
# GULP energy per Si atom -12396.069977 kJ/mol
# Density = 1.672070 g / cm^3
# Si number density = 16.758842 Si / 1000 Ang^3
#
#
#
# Elastic Constant Matrix: (Units=GPa)
#
#
# Indices 1 2 3 4 5 6 
#
# 1 100.5134 39.2046 29.3644 0.0000 0.0000 0.0000
# 2 39.2046 91.7961 28.6347 0.0000 0.0000 0.0000
# 3 29.3644 28.6347 77.2334 0.0000 0.0000 0.0000
# 4 0.0000 0.0000 0.0000 17.8534 0.0000 0.0000
# 5 0.0000 0.0000 0.0000 0.0000 26.3341 0.0000
# 6 0.0000 0.0000 0.0000 0.0000 0.0000 18.1380
#
#
#
# Elastic Compliance Matrix: (Units=1/GPa)
#
#
# Indices 1 2 3 4 5 6 
#
# 1 0.012583 -0.004389 -0.003157 0.000000 0.000000 0.000000
# 2 -0.004389 0.013849 -0.003466 0.000000 0.000000 0.000000
# 3 -0.003157 -0.003466 0.015433 0.000000 0.000000 0.000000
# 4 0.000000 0.000000 0.000000 0.056012 0.000000 0.000000
# 5 0.000000 0.000000 0.000000 0.000000 0.037974 0.000000
# 6 0.000000 0.000000 0.000000 0.000000 0.000000 0.055133
#
#
# Mechanical properties :
#
#
# Convention : Reuss Voigt Hill
#
# Bulk Modulus (GPa) = 50.39932 51.55002 50.97467
# Shear Modulus (GPa) = 22.76641 23.95439 23.36040
#
# Velocity S-wave (km/s) = 3.68974 3.78479 3.73757
# Velocity P-wave (km/s) = 6.94916 7.06584 7.00775
#
# Compressibility (1/GPa) = 0.01984154
#
# Stress axis : x y z
#
# Youngs Moduli (GPa) = 79.47103 72.20486 64.79622
#
# Poissons Ratio (x) = 0.31693 0.20455
# Poissons Ratio (y) = 0.34883 0.22458
# Poissons Ratio (z) = 0.25087 0.25026
#
# Static dielectric constant tensor:
#      x y z
#    x 3.124680 0.000000 0.000000 
#    y 0.000000 2.969610 0.000000 
#    z 0.000000 0.000000 3.206270 
# 
# 
# High freq. dielectric constant tensor:
#      x y z
#    x 1.633170 0.000000 0.000000 
#    y 0.000000 1.604230 0.000000 
#    z 0.000000 0.000000 1.661890 
# 
# From -- ./inp_files/18762.got.cif
#   From: 2010.03.12/outbox.cif.g09.slc.cpg/sg59_10_cif.got.tgz:18762.got - 2010.04.16 16:29:54.
