data_PCOD8239365
_publ_section_title
;
Structure prediction by ZEFSAII (Michael W. Deem and Ramdas Pophale) SiO2 
 PCOD8239365
Probable space group: P M M N
;
_chemical_formula_sum "Si O2"
_cell_formula_units_Z 64
_cell_length_a 9.713687
_cell_length_b 19.788909
_cell_length_c 20.294391
_cell_angle_alpha 90.000000
_cell_angle_beta 90.000000
_cell_angle_gamma 90.000000
_cell_volume 3901.054162
_symmetry_space_group_name_H-M "P M M N"
_symmetry_group_IT_number 59
_space_group.IT_coordinate_system_code '2'
_symmetry_cell_setting 'orthorhombic'
loop_
_space_group_symop_operation_xyz
x,y,z
1/2-x,1/2-y,z
1/2+x,-y,-z
-x,1/2+y,-z
-x,-y,-z
1/2+x,1/2+y,-z
1/2-x,y,z
x,1/2-y,z
loop_
_atom_site_type_symbol
_atom_site_label
_atom_site_fract_x
_atom_site_fract_y
_atom_site_fract_z
Si Si1 0.095004 0.397917 0.306775
Si Si2 0.591004 0.559753 0.028046
Si Si3 0.904696 0.426290 0.565142
Si Si4 0.403997 0.086148 0.452074
Si Si5 0.906126 0.827213 0.924798
Si Si6 0.410728 0.615601 0.811427
Si Si7 0.406520 0.457146 0.824853
Si Si8 0.595906 0.057694 0.709582
O O1 0.250000 0.370563 0.292657
O O2 0.050979 0.381032 0.382108
O O3 0.094223 0.477636 0.297022
O O4 0.984257 0.364554 0.257566
O O5 0.750000 0.537258 0.022206
O O6 0.553156 0.573343 0.104268
O O7 0.500000 0.500000 0.000000
O O8 0.559590 0.628081 0.988666
O O9 0.750000 0.399675 0.555355
O O10 0.910786 0.505917 0.553791
O O11 0.954703 0.410295 0.639956
O O12 0.998966 0.388128 0.511434
O O13 0.250000 0.109366 0.469504
O O14 0.750000 0.842480 0.899781
O O15 0.921068 0.750000 0.947201
O O16 0.015420 0.841653 0.867846
O O17 0.250000 0.635193 0.807455
O O18 0.432472 0.537210 0.827765
O O19 0.250000 0.441408 0.806004
O O20 0.497678 0.420032 0.769376
O O21 0.750000 0.082804 0.725570
#
# Coordination Sequence:
#
# PCOD8239365 Si02
#       8
#     8   8   8   8   8   8   8   8
#     4   8  14  24  36  51  74 104 139 176 211 252
#     4  10  19  32  49  68  90 113 144 185 224 268
#     4   8  13  20  29  43  67  98 133 170 206 247
#     4   8  13  20  30  45  66  97 136 172 206 245
#     4  10  21  35  50  67  88 118 150 179 220 273
#     4  10  18  28  43  63  85 109 140 180 223 261
#     4   9  17  27  40  61  84 105 136 178 220 259
#     4   8  14  23  34  50  73 104 138 171 210 254
#
# _framework density 16.405823000000002
#
# number of rings (size 3 to 8) (size 9 to 14) (size 15 to 20)
#    0.000    3.125    1.250    1.875    0.000    2.250 
#    0.000    5.000    0.000    0.000    0.000    0.000 
#    0.000    0.000    0.000    1.125    0.000   20.750 
#
# Total GULP energy -793183.310646 kJ/mol
# GULP energy per Si atom -12393.489229 kJ/mol
# Density = 1.636848 g / cm^3
# Si number density = 16.405823 Si / 1000 Ang^3
#
#
#
# Elastic Constant Matrix: (Units=GPa)
#
#
# Indices 1 2 3 4 5 6 
#
# 1 105.5843 27.7634 94.2116 0.0000 0.0000 0.0000
# 2 27.7634 29.8989 34.6172 0.0000 0.0000 0.0000
# 3 94.2116 34.6172 166.3374 0.0000 0.0000 0.0000
# 4 0.0000 0.0000 0.0000 7.8030 0.0000 0.0000
# 5 0.0000 0.0000 0.0000 0.0000 35.6996 0.0000
# 6 0.0000 0.0000 0.0000 0.0000 0.0000 9.3231
#
#
#
# Elastic Compliance Matrix: (Units=1/GPa)
#
#
# Indices 1 2 3 4 5 6 
#
# 1 0.020287 -0.007291 -0.009973 0.000000 0.000000 0.000000
# 2 -0.007291 0.046684 -0.005586 0.000000 0.000000 0.000000
# 3 -0.009973 -0.005586 0.012823 0.000000 0.000000 0.000000
# 4 0.000000 0.000000 0.000000 0.128157 0.000000 0.000000
# 5 0.000000 0.000000 0.000000 0.000000 0.028012 0.000000
# 6 0.000000 0.000000 0.000000 0.000000 0.000000 0.107260
#
#
# Mechanical properties :
#
#
# Convention : Reuss Voigt Hill
#
# Bulk Modulus (GPa) = 29.33100 68.33389 48.83245
# Shear Modulus (GPa) = 12.49103 20.24702 16.36903
#
# Velocity S-wave (km/s) = 2.76230 3.51684 3.16216
# Velocity P-wave (km/s) = 5.30009 7.63109 6.56980
#
# Compressibility (1/GPa) = 0.03409362
#
# Stress axis : x y z
#
# Youngs Moduli (GPa) = 49.29226 21.42066 77.98520
#
# Poissons Ratio (x) = 0.15619 0.77774
# Poissons Ratio (y) = 0.35941 0.43561
# Poissons Ratio (z) = 0.49159 0.11965
#
# Static dielectric constant tensor:
#      x y z
#    x 3.285180 0.000000 0.000000 
#    y 0.000000 2.461980 0.000000 
#    z 0.000000 0.000000 3.490530 
# 
# 
# High freq. dielectric constant tensor:
#      x y z
#    x 1.636020 0.000000 0.000000 
#    y 0.000000 1.552900 0.000000 
#    z 0.000000 0.000000 1.645960 
# 
# From -- ./inp_files/29825.got.cif
#   From: 2010.03.12/outbox.cif.g09.slc.cpg/sg59_15_cif.got.tgz:29825.got - 2010.04.16 16:29:54.
