data_PCOD8239389
_publ_section_title
;
Structure prediction by ZEFSAII (Michael W. Deem and Ramdas Pophale) SiO2 
 PCOD8239389
Probable space group: P M M N
;
_chemical_formula_sum "Si O2"
_cell_formula_units_Z 56
_cell_length_a 9.271045
_cell_length_b 20.117261
_cell_length_c 17.780572
_cell_angle_alpha 90.000000
_cell_angle_beta 90.000000
_cell_angle_gamma 90.000000
_cell_volume 3316.219492
_symmetry_space_group_name_H-M "P M M N"
_symmetry_group_IT_number 59
_space_group.IT_coordinate_system_code '2'
_symmetry_cell_setting 'orthorhombic'
loop_
_space_group_symop_operation_xyz
x,y,z
1/2-x,1/2-y,z
1/2+x,-y,-z
-x,1/2+y,-z
-x,-y,-z
1/2+x,1/2+y,-z
1/2-x,y,z
x,1/2-y,z
loop_
_atom_site_type_symbol
_atom_site_label
_atom_site_fract_x
_atom_site_fract_y
_atom_site_fract_z
Si Si1 0.917914 0.563022 0.468844
Si Si2 0.416553 0.457047 0.698941
Si Si3 0.083622 0.325596 0.416247
Si Si4 0.417560 0.889124 0.716625
Si Si5 0.590380 0.594169 0.856994
Si Si6 0.586492 0.063700 0.840954
Si Si7 0.080597 0.432351 0.982048
O O1 0.750000 0.547422 0.478431
O O2 0.954847 0.575219 0.381361
O O3 0.965989 0.628433 0.514270
O O4 0.000000 0.500000 0.500000
O O5 0.250000 0.447064 0.721041
O O6 0.453247 0.535260 0.694237
O O7 0.513224 0.419556 0.760905
O O8 0.250000 0.338660 0.396302
O O9 0.056268 0.250000 0.441236
O O10 0.992156 0.340728 0.342381
O O11 0.250000 0.873346 0.716349
O O12 0.476504 0.872842 0.800336
O O13 0.750000 0.617746 0.832766
O O14 0.580981 0.514824 0.852810
O O15 0.560706 0.614927 0.944212
O O16 0.750000 0.090821 0.841668
O O17 0.494967 0.099217 0.907982
O O18 0.250000 0.445737 0.966469
O O19 0.000000 0.500000 0.000000
#
# Coordination Sequence:
#
# PCOD8239389 Si02
#       7
#     8   8   8   8   8   8   8
#     4  10  19  32  50  70  92 119 156 198 239 286
#     4   9  17  28  42  63  88 115 150 191 234 277
#     4  10  21  35  50  68  93 125 156 191 238 289
#     4  10  18  28  44  65  88 116 152 192 232 273
#     4   8  15  25  37  55  81 115 151 183 220 268
#     4   9  16  24  36  56  83 116 149 183 226 271
#     4   9  15  23  35  53  80 115 151 184 222 267
#
# _framework density 16.886699
#
# number of rings (size 3 to 8) (size 9 to 14) (size 15 to 20)
#    0.000    2.714    1.429    2.143    0.000    5.429 
#    0.000    0.000    0.000    0.000    0.000    0.000 
#    0.000    1.143    0.000    8.857    0.000    4.714 
#
# Total GULP energy -694142.304447 kJ/mol
# GULP energy per Si atom -12395.398294 kJ/mol
# Density = 1.684826 g / cm^3
# Si number density = 16.886699 Si / 1000 Ang^3
#
#
#
# Elastic Constant Matrix: (Units=GPa)
#
#
# Indices 1 2 3 4 5 6 
#
# 1 99.2150 32.3062 73.1496 0.0000 0.0000 0.0000
# 2 32.3062 45.0454 42.5527 0.0000 0.0000 0.0000
# 3 73.1496 42.5527 153.0565 0.0000 0.0000 0.0000
# 4 0.0000 0.0000 0.0000 12.0392 0.0000 0.0000
# 5 0.0000 0.0000 0.0000 0.0000 31.4252 0.0000
# 6 0.0000 0.0000 0.0000 0.0000 0.0000 11.9232
#
#
#
# Elastic Compliance Matrix: (Units=1/GPa)
#
#
# Indices 1 2 3 4 5 6 
#
# 1 0.016683 -0.006012 -0.006302 0.000000 0.000000 0.000000
# 2 -0.006012 0.032273 -0.006099 0.000000 0.000000 0.000000
# 3 -0.006302 -0.006099 0.011241 0.000000 0.000000 0.000000
# 4 0.000000 0.000000 0.000000 0.083062 0.000000 0.000000
# 5 0.000000 0.000000 0.000000 0.000000 0.031822 0.000000
# 6 0.000000 0.000000 0.000000 0.000000 0.000000 0.083870
#
#
# Mechanical properties :
#
#
# Convention : Reuss Voigt Hill
#
# Bulk Modulus (GPa) = 42.78756 65.92600 54.35678
# Shear Modulus (GPa) = 16.47081 21.03142 18.75112
#
# Velocity S-wave (km/s) = 3.12648 3.53291 3.33589
# Velocity P-wave (km/s) = 6.19889 7.46772 6.86269
#
# Compressibility (1/GPa) = 0.02337128
#
# Stress axis : x y z
#
# Youngs Moduli (GPa) = 59.94171 30.98538 88.95947
#
# Poissons Ratio (x) = 0.18628 0.56060
# Poissons Ratio (y) = 0.36036 0.54260
# Poissons Ratio (z) = 0.37774 0.18899
#
# Static dielectric constant tensor:
#      x y z
#    x 3.282810 0.000000 0.000000 
#    y 0.000000 2.592480 0.000000 
#    z 0.000000 0.000000 3.682450 
# 
# 
# High freq. dielectric constant tensor:
#      x y z
#    x 1.660550 0.000000 0.000000 
#    y 0.000000 1.570800 0.000000 
#    z 0.000000 0.000000 1.671260 
# 
# From -- ./inp_files/26009.got.cif
#   From: 2010.03.12/outbox.cif.g09.slc.cpg/sg59_14_cif.got.tgz:26009.got - 2010.04.16 16:29:54.
