data_PCOD8239381
_publ_section_title
;
Structure prediction by ZEFSAII (Michael W. Deem and Ramdas Pophale) SiO2 
 PCOD8239381
Probable space group: P M M N
;
_chemical_formula_sum "Si O2"
_cell_formula_units_Z 64
_cell_length_a 9.001591
_cell_length_b 19.573585
_cell_length_c 20.443963
_cell_angle_alpha 90.000000
_cell_angle_beta 90.000000
_cell_angle_gamma 90.000000
_cell_volume 3602.091485
_symmetry_space_group_name_H-M "P M M N"
_symmetry_group_IT_number 59
_space_group.IT_coordinate_system_code '2'
_symmetry_cell_setting 'orthorhombic'
loop_
_space_group_symop_operation_xyz
x,y,z
1/2-x,1/2-y,z
1/2+x,-y,-z
-x,1/2+y,-z
-x,-y,-z
1/2+x,1/2+y,-z
1/2-x,y,z
x,1/2-y,z
loop_
_atom_site_type_symbol
_atom_site_label
_atom_site_fract_x
_atom_site_fract_y
_atom_site_fract_z
Si Si1 0.574115 0.924729 0.294725
Si Si2 0.575179 0.069513 0.341372
Si Si3 0.421519 0.430370 0.985709
Si Si4 0.074395 0.572708 0.511524
Si Si5 0.922563 0.327096 0.234134
Si Si6 0.574069 0.828903 0.408396
Si Si7 0.575590 0.599575 0.875845
Si Si8 0.425134 0.044551 0.847075
O O1 0.750000 0.927430 0.296934
O O2 0.520770 0.860925 0.338880
O O3 0.519619 0.917412 0.219162
O O4 0.507934 0.994561 0.325824
O O5 0.750000 0.065927 0.331922
O O6 0.535864 0.093775 0.414232
O O7 0.509428 0.124457 0.290531
O O8 0.250000 0.447735 0.987152
O O9 0.459854 0.381126 0.047249
O O10 0.500000 0.500000 0.000000
O O11 0.463489 0.407381 0.911023
O O12 0.250000 0.566427 0.499497
O O13 0.000000 0.500000 0.500000
O O14 0.007119 0.631550 0.466487
O O15 0.750000 0.342118 0.221933
O O16 0.949825 0.250000 0.257091
O O17 0.008127 0.339402 0.166387
O O18 0.750000 0.837203 0.417983
O O19 0.525286 0.750000 0.409434
O O20 0.750000 0.594097 0.863617
O O21 0.503527 0.528356 0.853446
O O22 0.250000 0.030114 0.841898
#
# Coordination Sequence:
#
# PCOD8239381 Si02
#       8
#     8   8   8   8   8   8   8   8
#     4   9  15  28  52  76  98 127 164 206 251 292
#     4   9  17  31  52  75  96 123 164 211 251 291
#     4   8  15  25  40  66  95 123 154 195 240 286
#     4  11  21  35  57  81 107 136 170 208 253 307
#     4  10  20  34  51  69  90 124 171 212 246 294
#     4  10  21  37  55  77 106 137 170 210 257 307
#     4  10  18  28  43  67 102 131 156 196 253 303
#     4   9  15  27  49  71  93 125 168 207 239 283
#
# _framework density 17.767457
#
# number of rings (size 3 to 8) (size 9 to 14) (size 15 to 20)
#    0.000    2.500    2.500    0.750    0.000    1.500 
#    0.000    4.375    0.000    0.750    0.000    3.500 
#    0.000    0.000    0.000    0.000    0.000    0.000 
#
# Total GULP energy -792893.522159 kJ/mol
# GULP energy per Si atom -12388.961284 kJ/mol
# Density = 1.772702 g / cm^3
# Si number density = 17.767457 Si / 1000 Ang^3
#
#
#
# Elastic Constant Matrix: (Units=GPa)
#
#
# Indices 1 2 3 4 5 6 
#
# 1 36.3466 27.3844 36.7710 0.0000 0.0000 0.0000
# 2 27.3844 104.9319 75.4468 0.0000 0.0000 0.0000
# 3 36.7710 75.4468 180.1689 0.0000 0.0000 0.0000
# 4 0.0000 0.0000 0.0000 24.1777 0.0000 0.0000
# 5 0.0000 0.0000 0.0000 0.0000 24.0243 0.0000
# 6 0.0000 0.0000 0.0000 0.0000 0.0000 17.9669
#
#
#
# Elastic Compliance Matrix: (Units=1/GPa)
#
#
# Indices 1 2 3 4 5 6 
#
# 1 0.037198 -0.006080 -0.005046 0.000000 0.000000 0.000000
# 2 -0.006080 0.014629 -0.004885 0.000000 0.000000 0.000000
# 3 -0.005046 -0.004885 0.008626 0.000000 0.000000 0.000000
# 4 0.000000 0.000000 0.000000 0.041360 0.000000 0.000000
# 5 0.000000 0.000000 0.000000 0.000000 0.041624 0.000000
# 6 0.000000 0.000000 0.000000 0.000000 0.000000 0.055658
#
#
# Mechanical properties :
#
#
# Convention : Reuss Voigt Hill
#
# Bulk Modulus (GPa) = 35.17209 66.73909 50.95559
# Shear Modulus (GPa) = 20.78180 25.35680 23.06930
#
# Velocity S-wave (km/s) = 3.42373 3.78186 3.60724
# Velocity P-wave (km/s) = 5.95550 7.53087 6.78904
#
# Compressibility (1/GPa) = 0.02843164
#
# Stress axis : x y z
#
# Youngs Moduli (GPa) = 26.88292 68.35674 115.92977
#
# Poissons Ratio (x) = 0.41559 0.58498
# Poissons Ratio (y) = 0.16344 0.56634
# Poissons Ratio (z) = 0.13565 0.33394
#
# Static dielectric constant tensor:
#      x y z
#    x 3.037630 0.000000 0.000000 
#    y 0.000000 3.092360 0.000000 
#    z 0.000000 0.000000 4.089800 
# 
# 
# High freq. dielectric constant tensor:
#      x y z
#    x 1.662430 0.000000 0.000000 
#    y 0.000000 1.649620 0.000000 
#    z 0.000000 0.000000 1.713920 
# 
# From -- ./inp_files/29797.got.cif
#   From: 2010.03.12/outbox.cif.g09.slc.cpg/sg59_15_cif.got.tgz:29797.got - 2010.04.16 16:29:54.
