data_PCOD8239796
_publ_section_title
;
Structure prediction by ZEFSAII (Michael W. Deem and Ramdas Pophale) SiO2 
 PCOD8239796
Probable space group: P M M N
;
_chemical_formula_sum "Si O2"
_cell_formula_units_Z 48
_cell_length_a 9.346468
_cell_length_b 14.700114
_cell_length_c 19.852753
_cell_angle_alpha 90.000000
_cell_angle_beta 90.000000
_cell_angle_gamma 90.000000
_cell_volume 2727.652026
_symmetry_space_group_name_H-M "P M M N"
_symmetry_group_IT_number 59
_space_group.IT_coordinate_system_code '2'
_symmetry_cell_setting 'orthorhombic'
loop_
_space_group_symop_operation_xyz
x,y,z
1/2-x,1/2-y,z
1/2+x,-y,-z
-x,1/2+y,-z
-x,-y,-z
1/2+x,1/2+y,-z
1/2-x,y,z
x,1/2-y,z
loop_
_atom_site_type_symbol
_atom_site_label
_atom_site_fract_x
_atom_site_fract_y
_atom_site_fract_z
Si Si1 0.080351 0.250000 0.625375
Si Si2 0.416808 0.852684 0.919726
Si Si3 0.418696 0.483744 0.830853
Si Si4 0.414472 0.750000 0.512529
Si Si5 0.083691 0.355063 0.948144
Si Si6 0.080290 0.439822 0.684933
Si Si7 0.916903 0.052136 0.441930
O O1 0.250000 0.250000 0.616389
O O2 0.026776 0.338949 0.665378
O O3 0.014540 0.250000 0.551773
O O4 0.250000 0.861562 0.936741
O O5 0.459806 0.750000 0.900313
O O6 0.459148 0.915248 0.856260
O O7 0.500633 0.886789 0.985349
O O8 0.250000 0.471394 0.824969
O O9 0.477412 0.410508 0.884494
O O10 0.487727 0.466716 0.757290
O O11 0.250000 0.750000 0.488412
O O12 0.447620 0.839733 0.556827
O O13 0.250000 0.376038 0.960486
O O14 0.055181 0.250000 0.932363
O O15 0.250000 0.440861 0.689534
O O16 0.028713 0.513308 0.629680
O O17 0.750000 0.030827 0.452348
O O18 0.000000 0.000000 0.500000
#
# Coordination Sequence:
#
# PCOD8239796 Si02
#       7
#     4   8   8   4   8   8   8
#     4  10  18  30  52  76  94 121 158 196 238 283
#     4   9  17  30  47  66  90 121 155 189 226 271
#     4   9  17  29  45  68  95 120 150 190 233 273
#     4  10  20  32  50  74 100 127 156 198 244 285
#     4   9  17  28  46  70  91 115 149 189 230 271
#     4   9  18  30  47  72  98 122 154 196 236 278
#     4  10  19  33  51  73  99 127 161 198 238 284
#
# _framework density 17.597552
#
# number of rings (size 3 to 8) (size 9 to 14) (size 15 to 20)
#    0.000    2.667    1.667    0.500    1.167    0.000 
#    1.500    0.000    0.000    4.000    0.000    0.000 
#    0.000    0.000    0.000    0.000    0.000    0.000 
#
# Total GULP energy -595097.901017 kJ/mol
# GULP energy per Si atom -12397.872938 kJ/mol
# Density = 1.755750 g / cm^3
# Si number density = 17.597552 Si / 1000 Ang^3
#
#
#
# Elastic Constant Matrix: (Units=GPa)
#
#
# Indices 1 2 3 4 5 6 
#
# 1 23.9543 25.3490 29.5869 0.0000 0.0000 0.0000
# 2 25.3490 143.8543 93.2632 0.0000 0.0000 0.0000
# 3 29.5869 93.2632 166.0946 0.0000 0.0000 0.0000
# 4 0.0000 0.0000 0.0000 27.7212 0.0000 0.0000
# 5 0.0000 0.0000 0.0000 0.0000 21.0070 0.0000
# 6 0.0000 0.0000 0.0000 0.0000 0.0000 15.7554
#
#
#
# Elastic Compliance Matrix: (Units=1/GPa)
#
#
# Indices 1 2 3 4 5 6 
#
# 1 0.056023 -0.005349 -0.006976 0.000000 0.000000 0.000000
# 2 -0.005349 0.011441 -0.005471 0.000000 0.000000 0.000000
# 3 -0.006976 -0.005471 0.010336 0.000000 0.000000 0.000000
# 4 0.000000 0.000000 0.000000 0.036073 0.000000 0.000000
# 5 0.000000 0.000000 0.000000 0.000000 0.047603 0.000000
# 6 0.000000 0.000000 0.000000 0.000000 0.000000 0.063470
#
#
# Mechanical properties :
#
#
# Convention : Reuss Voigt Hill
#
# Bulk Modulus (GPa) = 23.69295 70.03347 46.86321
# Shear Modulus (GPa) = 18.20765 25.27699 21.74232
#
# Velocity S-wave (km/s) = 3.22012 3.79409 3.51883
# Velocity P-wave (km/s) = 5.22671 7.68617 6.57251
#
# Compressibility (1/GPa) = 0.04220666
#
# Stress axis : x y z
#
# Youngs Moduli (GPa) = 17.84972 87.40203 96.75327
#
# Poissons Ratio (x) = 0.46756 0.67493
# Poissons Ratio (y) = 0.09549 0.52938
# Poissons Ratio (z) = 0.12452 0.47822
#
# Static dielectric constant tensor:
#      x y z
#    x 2.871500 0.000000 0.000000 
#    y 0.000000 3.585490 0.000000 
#    z 0.000000 0.000000 3.503680 
# 
# 
# High freq. dielectric constant tensor:
#      x y z
#    x 1.638070 0.000000 0.000000 
#    y 0.000000 1.697370 0.000000 
#    z 0.000000 0.000000 1.676670 
# 
# From -- ./inp_files/25564.got.cif
#   From: 2010.03.12/outbox.cif.g09.slc.cpg/sg59_13_cif.got.tgz:25564.got - 2010.04.16 16:29:54.
