data_PCOD8239722
_publ_section_title
;
Structure prediction by ZEFSAII (Michael W. Deem and Ramdas Pophale) SiO2 
 PCOD8239722
Probable space group: P M M N
;
_chemical_formula_sum "Si O2"
_cell_formula_units_Z 64
_cell_length_a 24.858796
_cell_length_b 14.726920
_cell_length_c 9.197526
_cell_angle_alpha 90.000000
_cell_angle_beta 90.000000
_cell_angle_gamma 90.000000
_cell_volume 3367.154485
_symmetry_space_group_name_H-M "P M M N"
_symmetry_group_IT_number 59
_space_group.IT_coordinate_system_code '2'
_symmetry_cell_setting 'orthorhombic'
loop_
_space_group_symop_operation_xyz
x,y,z
1/2-x,1/2-y,z
1/2+x,-y,-z
-x,1/2+y,-z
-x,-y,-z
1/2+x,1/2+y,-z
1/2-x,y,z
x,1/2-y,z
loop_
_atom_site_type_symbol
_atom_site_label
_atom_site_fract_x
_atom_site_fract_y
_atom_site_fract_z
Si Si1 0.506057 0.357807 0.543415
Si Si2 0.592981 0.855130 0.278184
Si Si3 0.957754 0.918507 0.988313
Si Si4 0.688587 0.996815 0.244480
Si Si5 0.963570 0.352604 0.225929
Si Si6 0.310952 0.646056 0.515570
Si Si7 0.379765 0.940764 0.988245
Si Si8 0.894019 0.144866 0.715888
O O1 0.508193 0.250000 0.537919
O O2 0.445375 0.386510 0.587590
O O3 0.522642 0.395779 0.384044
O O4 0.548755 0.396672 0.663242
O O5 0.610591 0.750000 0.291818
O O6 0.554681 0.865364 0.137075
O O7 0.647212 0.914988 0.277877
O O8 0.902046 0.966138 0.938721
O O9 0.981259 0.849747 0.868671
O O10 0.000000 0.000000 0.000000
O O11 0.750000 0.960988 0.254868
O O12 0.678303 0.081925 0.348369
O O13 0.678195 0.036728 0.081677
O O14 0.942073 0.250000 0.241497
O O15 0.917865 0.412475 0.147982
O O16 0.250000 0.640532 0.461587
O O17 0.325998 0.750000 0.559288
O O18 0.346158 0.606352 0.383491
O O19 0.379355 0.866998 0.114766
O O20 0.897404 0.250000 0.686876
#
# Coordination Sequence:
#
# PCOD8239722 Si02
#       8
#     8   8   8   8   8   8   8   8
#     4   9  18  30  48  76 106 136 170 210 255 309
#     4  10  20  36  56  78 107 141 181 227 273 322
#     4   9  18  31  46  71 104 138 171 205 252 306
#     4  10  22  39  57  77 101 134 180 231 280 325
#     4  10  18  30  49  73 105 140 172 204 246 307
#     4   9  19  36  55  75 103 140 179 218 264 321
#     4  10  20  32  47  72 103 135 171 213 257 310
#     4  10  19  32  52  78 110 145 177 210 256 316
#
# _framework density 19.007147
#
# number of rings (size 3 to 8) (size 9 to 14) (size 15 to 20)
#    0.000    2.375    0.000    3.000    0.000    4.750 
#    0.000    6.875    0.000    0.000    0.000    0.000 
#    0.000    5.000    0.000    0.000    0.000    0.000 
#
# Total GULP energy -792945.951028 kJ/mol
# GULP energy per Si atom -12389.780485 kJ/mol
# Density = 1.896389 g / cm^3
# Si number density = 19.007147 Si / 1000 Ang^3
#
#
#
# Elastic Constant Matrix: (Units=GPa)
#
#
# Indices 1 2 3 4 5 6 
#
# 1 118.5422 40.9914 58.0048 0.0000 0.0000 0.0000
# 2 40.9914 54.9236 21.6145 0.0000 0.0000 0.0000
# 3 58.0048 21.6145 100.4470 0.0000 0.0000 0.0000
# 4 0.0000 0.0000 0.0000 16.2556 0.0000 0.0000
# 5 0.0000 0.0000 0.0000 0.0000 30.5682 0.0000
# 6 0.0000 0.0000 0.0000 0.0000 0.0000 24.3532
#
#
#
# Elastic Compliance Matrix: (Units=1/GPa)
#
#
# Indices 1 2 3 4 5 6 
#
# 1 0.014518 -0.008233 -0.006612 0.000000 0.000000 0.000000
# 2 -0.008233 0.024561 -0.000531 0.000000 0.000000 0.000000
# 3 -0.006612 -0.000531 0.013888 0.000000 0.000000 0.000000
# 4 0.000000 0.000000 0.000000 0.061517 0.000000 0.000000
# 5 0.000000 0.000000 0.000000 0.000000 0.032714 0.000000
# 6 0.000000 0.000000 0.000000 0.000000 0.000000 0.041062
#
#
# Mechanical properties :
#
#
# Convention : Reuss Voigt Hill
#
# Bulk Modulus (GPa) = 45.01493 57.23711 51.12602
# Shear Modulus (GPa) = 22.08308 24.45555 23.26931
#
# Velocity S-wave (km/s) = 3.41226 3.59088 3.50271
# Velocity P-wave (km/s) = 6.26572 6.88269 6.58144
#
# Compressibility (1/GPa) = 0.02221485
#
# Stress axis : x y z
#
# Youngs Moduli (GPa) = 68.87838 40.71534 72.00476
#
# Poissons Ratio (x) = 0.33523 0.47611
# Poissons Ratio (y) = 0.56710 0.03820
# Poissons Ratio (z) = 0.45544 0.02160
#
# Static dielectric constant tensor:
#      x y z
#    x 3.625610 0.000000 0.000000 
#    y 0.000000 3.426600 0.000000 
#    z 0.000000 0.000000 3.628830 
# 
# 
# High freq. dielectric constant tensor:
#      x y z
#    x 1.727410 0.000000 0.000000 
#    y 0.000000 1.726090 0.000000 
#    z 0.000000 0.000000 1.736010 
# 
# From -- ./inp_files/10810.got.cif
#   From: 2010.03.12/outbox.cif.g09.slc.cpg/sg59_6_cif.got.tgz:10810.got - 2010.04.16 16:29:54.
