data_PCOD8239472
_publ_section_title
;
Structure prediction by ZEFSAII (Michael W. Deem and Ramdas Pophale) SiO2 
 PCOD8239472
Probable space group: P M M N
;
_chemical_formula_sum "Si O2"
_cell_formula_units_Z 48
_cell_length_a 20.754185
_cell_length_b 9.334994
_cell_length_c 14.101006
_cell_angle_alpha 90.000000
_cell_angle_beta 90.000000
_cell_angle_gamma 90.000000
_cell_volume 2731.931616
_symmetry_space_group_name_H-M "P M M N"
_symmetry_group_IT_number 59
_space_group.IT_coordinate_system_code '2'
_symmetry_cell_setting 'orthorhombic'
loop_
_space_group_symop_operation_xyz
x,y,z
1/2-x,1/2-y,z
1/2+x,-y,-z
-x,1/2+y,-z
-x,-y,-z
1/2+x,1/2+y,-z
1/2-x,y,z
x,1/2-y,z
loop_
_atom_site_type_symbol
_atom_site_label
_atom_site_fract_x
_atom_site_fract_y
_atom_site_fract_z
Si Si1 0.178148 0.920157 0.097426
Si Si2 0.250000 0.920179 0.401675
Si Si3 0.824723 0.082049 0.112758
Si Si4 0.999826 0.919998 0.400521
Si Si5 0.250000 0.084886 0.594476
Si Si6 0.625096 0.079985 0.709681
Si Si7 0.125454 0.083915 0.716310
O O1 0.250000 0.981040 0.116245
O O2 0.182322 0.750000 0.099884
O O3 0.130673 0.975591 0.181098
O O4 0.153885 0.967514 0.993188
O O5 0.250000 0.750000 0.408649
O O6 0.186777 0.977220 0.347839
O O7 0.250000 0.982617 0.505658
O O8 0.750000 0.040608 0.129475
O O9 0.834772 0.250000 0.127047
O O10 0.871305 0.001074 0.185258
O O11 0.002651 0.750000 0.418713
O O12 0.936549 0.965202 0.342834
O O13 0.060238 0.977243 0.339104
O O14 0.000000 0.000000 0.500000
O O15 0.250000 0.250000 0.562014
O O16 0.187702 0.046476 0.655144
O O17 0.624442 0.250000 0.708673
O O18 0.121610 0.250000 0.742316
#
# Coordination Sequence:
#
# PCOD8239472 Si02
#       7
#     8   4   8   8   4   8   8
#     4   8  13  25  47  75 102 123 149 195 252 297
#     4  10  18  28  49  76  94 114 153 206 251 282
#     4   9  17  29  50  78  99 120 157 204 248 286
#     4  10  21  35  51  71  97 133 170 202 243 293
#     4  10  20  32  45  62  90 128 163 196 237 284
#     4   9  16  29  49  74  99 123 156 199 246 292
#     4  10  20  34  49  67  96 135 168 194 239 297
#
# _framework density 17.569986
#
# number of rings (size 3 to 8) (size 9 to 14) (size 15 to 20)
#    0.000    2.667    1.667    2.000    0.000    1.333 
#    0.000    0.833    0.000    2.000    0.000    0.000 
#    0.000    0.000    0.000    0.000    0.000    0.000 
#
# Total GULP energy -595035.081294 kJ/mol
# GULP energy per Si atom -12396.564194 kJ/mol
# Density = 1.753000 g / cm^3
# Si number density = 17.569986 Si / 1000 Ang^3
#
#
#
# Elastic Constant Matrix: (Units=GPa)
#
#
# Indices 1 2 3 4 5 6 
#
# 1 140.8554 27.2746 86.9065 0.0000 0.0000 0.0000
# 2 27.2746 25.8445 44.6001 0.0000 0.0000 0.0000
# 3 86.9065 44.6001 178.7681 0.0000 0.0000 0.0000
# 4 0.0000 0.0000 0.0000 21.4358 0.0000 0.0000
# 5 0.0000 0.0000 0.0000 0.0000 -389.7058 0.0000
# 6 0.0000 0.0000 0.0000 0.0000 0.0000 6.6871
#
#
#
# Elastic Compliance Matrix: (Units=1/GPa)
#
#
# Indices 1 2 3 4 5 6 
#
# 1 0.010365 -0.003939 -0.004056 0.000000 0.000000 0.000000
# 2 -0.003939 0.069443 -0.015410 0.000000 0.000000 0.000000
# 3 -0.004056 -0.015410 0.011410 0.000000 0.000000 0.000000
# 4 0.000000 0.000000 0.000000 0.046651 0.000000 0.000000
# 5 0.000000 0.000000 0.000000 0.000000 -0.002566 0.000000
# 6 0.000000 0.000000 0.000000 0.000000 0.000000 0.149541
#
#
# Mechanical properties :
#
#
# Convention : Reuss Voigt Hill
#
# Bulk Modulus (GPa) = 22.51841 73.67004 48.09423
# Shear Modulus (GPa) = 14.43179 -59.87081 -22.71951
#
# Velocity S-wave (km/s) = 2.86910 -5.84376 -3.59985
# Velocity P-wave (km/s) = 4.88056 1.87411 3.18650
#
# Compressibility (1/GPa) = 0.04440810
#
# Stress axis : x y z
#
# Youngs Moduli (GPa) = 96.48131 14.40026 87.64003
#
# Poissons Ratio (x) = 0.05672 0.35547
# Poissons Ratio (y) = 0.38001 1.35056
# Poissons Ratio (z) = 0.39133 0.22191
#
# Static dielectric constant tensor:
#      x y z
#    x 4.336250 0.000000 0.000000 
#    y 0.000000 2.849620 0.000000 
#    z 0.000000 0.000000 3.503410 
# 
# 
# High freq. dielectric constant tensor:
#      x y z
#    x 1.670930 0.000000 0.000000 
#    y 0.000000 1.636820 0.000000 
#    z 0.000000 0.000000 1.696180 
# 
# From -- ./inp_files/15951.got.cif
#   From: 2010.03.12/outbox.cif.g09.slc.cpg/sg59_8_cif.got.tgz:15951.got - 2010.04.16 16:29:54.
