data_PCOD8239547
_publ_section_title
;
Structure prediction by ZEFSAII (Michael W. Deem and Ramdas Pophale) SiO2 
 PCOD8239547
Probable space group: P M M N
;
_chemical_formula_sum "Si O2"
_cell_formula_units_Z 64
_cell_length_a 19.998035
_cell_length_b 8.990850
_cell_length_c 20.344117
_cell_angle_alpha 90.000000
_cell_angle_beta 90.000000
_cell_angle_gamma 90.000000
_cell_volume 3657.858667
_symmetry_space_group_name_H-M "P M M N"
_symmetry_group_IT_number 59
_space_group.IT_coordinate_system_code '2'
_symmetry_cell_setting 'orthorhombic'
loop_
_space_group_symop_operation_xyz
x,y,z
1/2-x,1/2-y,z
1/2+x,-y,-z
-x,1/2+y,-z
-x,-y,-z
1/2+x,1/2+y,-z
1/2-x,y,z
x,1/2-y,z
loop_
_atom_site_type_symbol
_atom_site_label
_atom_site_fract_x
_atom_site_fract_y
_atom_site_fract_z
Si Si1 0.099345 0.917111 0.683971
Si Si2 0.899688 0.578933 0.186866
Si Si3 0.059523 0.085098 0.303533
Si Si4 0.326755 0.080828 0.944330
Si Si5 0.962125 0.573223 0.840011
Si Si6 0.927457 0.416281 0.571305
Si Si7 0.413727 0.082565 0.556360
Si Si8 0.065932 0.573588 0.029819
O O1 0.128167 0.750000 0.685973
O O2 0.019840 0.915574 0.688770
O O3 0.128404 0.010105 0.745279
O O4 0.121363 0.992746 0.615505
O O5 0.920657 0.750000 0.199130
O O6 0.841595 0.564657 0.133081
O O7 0.962812 0.488548 0.159684
O O8 0.087447 0.250000 0.316653
O O9 0.075414 0.034778 0.228783
O O10 0.093811 0.978412 0.357130
O O11 0.250000 0.039789 0.956429
O O12 0.342563 0.250000 0.966818
O O13 0.370282 0.965928 0.986058
O O14 0.965536 0.750000 0.851267
O O15 0.921118 0.492632 0.897586
O O16 0.899920 0.250000 0.565596
O O17 0.893376 0.510974 0.513342
O O18 0.006880 0.421527 0.564485
O O19 0.386544 0.250000 0.557729
O O20 0.056156 0.750000 0.033042
O O21 0.000000 0.500000 0.000000
#
# Coordination Sequence:
#
# PCOD8239547 Si02
#       8
#     8   8   8   8   8   8   8   8
#     4   9  16  25  37  54  79 109 146 191 233 275
#     4  10  18  29  47  68  91 121 156 196 241 291
#     4   8  15  25  36  53  78 110 145 184 230 278
#     4  10  22  39  56  75 101 132 165 204 252 304
#     4  10  19  31  48  69  94 122 157 201 246 290
#     4   9  15  21  31  47  71 105 143 183 226 273
#     4   9  15  22  32  47  70 103 145 187 226 273
#     4  12  23  35  54  77 101 129 165 207 252 302
#
# _framework density 17.496575
#
# number of rings (size 3 to 8) (size 9 to 14) (size 15 to 20)
#    0.000    2.375    1.250    3.750    0.000    7.250 
#    0.000    0.000    0.000    0.000    0.000    0.000 
#    0.000    0.000    0.000    1.125    0.000   20.500 
#
# Total GULP energy -793467.474451 kJ/mol
# GULP energy per Si atom -12397.929288 kJ/mol
# Density = 1.745675 g / cm^3
# Si number density = 17.496575 Si / 1000 Ang^3
#
#
#
# Elastic Constant Matrix: (Units=GPa)
#
#
# Indices 1 2 3 4 5 6 
#
# 1 34.6274 24.4650 25.0004 0.0000 0.0000 0.0000
# 2 24.4650 148.7341 81.3804 0.0000 0.0000 0.0000
# 3 25.0004 81.3804 154.3683 0.0000 0.0000 0.0000
# 4 0.0000 0.0000 0.0000 38.4533 0.0000 0.0000
# 5 0.0000 0.0000 0.0000 0.0000 8.3972 0.0000
# 6 0.0000 0.0000 0.0000 0.0000 0.0000 11.6051
#
#
#
# Elastic Compliance Matrix: (Units=1/GPa)
#
#
# Indices 1 2 3 4 5 6 
#
# 1 0.034042 -0.003630 -0.003600 0.000000 0.000000 0.000000
# 2 -0.003630 0.009836 -0.004598 0.000000 0.000000 0.000000
# 3 -0.003600 -0.004598 0.009485 0.000000 0.000000 0.000000
# 4 0.000000 0.000000 0.000000 0.026006 0.000000 0.000000
# 5 0.000000 0.000000 0.000000 0.000000 0.119087 0.000000
# 6 0.000000 0.000000 0.000000 0.000000 0.000000 0.086169
#
#
# Mechanical properties :
#
#
# Convention : Reuss Voigt Hill
#
# Bulk Modulus (GPa) = 33.65998 66.60238 50.13118
# Shear Modulus (GPa) = 15.71427 25.48339 20.59883
#
# Velocity S-wave (km/s) = 3.00014 3.82052 3.43491
# Velocity P-wave (km/s) = 5.59293 7.59016 6.66676
#
# Compressibility (1/GPa) = 0.02970887
#
# Stress axis : x y z
#
# Youngs Moduli (GPa) = 29.37518 101.66685 105.43301
#
# Poissons Ratio (x) = 0.36906 0.37951
# Poissons Ratio (y) = 0.10663 0.48473
# Poissons Ratio (z) = 0.10574 0.46741
#
# Static dielectric constant tensor:
#      x y z
#    x 2.513780 0.000000 0.000000 
#    y 0.000000 3.451180 0.000000 
#    z 0.000000 0.000000 3.665010 
# 
# 
# High freq. dielectric constant tensor:
#      x y z
#    x 1.583910 0.000000 0.000000 
#    y 0.000000 1.692500 0.000000 
#    z 0.000000 0.000000 1.697660 
# 
# From -- ./inp_files/30915.got.cif
#   From: 2010.03.12/outbox.cif.g09.slc.cpg/sg59_16_cif.got.tgz:30915.got - 2010.04.16 16:29:54.
