data_PCOD8239524
_publ_section_title
;
Structure prediction by ZEFSAII (Michael W. Deem and Ramdas Pophale) SiO2 
 PCOD8239524
Probable space group: P M M N
;
_chemical_formula_sum "Si O2"
_cell_formula_units_Z 64
_cell_length_a 9.307025
_cell_length_b 19.602655
_cell_length_c 21.645301
_cell_angle_alpha 90.000000
_cell_angle_beta 90.000000
_cell_angle_gamma 90.000000
_cell_volume 3949.020666
_symmetry_space_group_name_H-M "P M M N"
_symmetry_group_IT_number 59
_space_group.IT_coordinate_system_code '2'
_symmetry_cell_setting 'orthorhombic'
loop_
_space_group_symop_operation_xyz
x,y,z
1/2-x,1/2-y,z
1/2+x,-y,-z
-x,1/2+y,-z
-x,-y,-z
1/2+x,1/2+y,-z
1/2-x,y,z
x,1/2-y,z
loop_
_atom_site_type_symbol
_atom_site_label
_atom_site_fract_x
_atom_site_fract_y
_atom_site_fract_z
Si Si1 0.417455 0.556977 0.326792
Si Si2 0.087103 0.327626 0.616752
Si Si3 0.416807 0.541135 0.187273
Si Si4 0.080146 0.323462 0.478544
Si Si5 0.911887 0.466510 0.087746
Si Si6 0.419782 0.032094 0.441906
Si Si7 0.915638 0.173023 0.887803
Si Si8 0.087987 0.103644 0.990442
O O1 0.250000 0.570908 0.332930
O O2 0.494650 0.628696 0.335982
O O3 0.456477 0.530472 0.258817
O O4 0.469767 0.502521 0.378113
O O5 0.250000 0.354501 0.618513
O O6 0.077906 0.250000 0.639148
O O7 0.021546 0.335852 0.547898
O O8 0.250000 0.526083 0.174219
O O9 0.509534 0.484976 0.151506
O O10 0.455063 0.618545 0.165788
O O11 0.250000 0.317511 0.483814
O O12 0.020743 0.250000 0.452993
O O13 0.035973 0.387687 0.436148
O O14 0.750000 0.441404 0.101653
O O15 0.908973 0.532414 0.044862
O O16 0.999145 0.405925 0.053928
O O17 0.250000 0.023947 0.453021
O O18 0.500000 0.000000 0.500000
O O19 0.750000 0.164074 0.907409
O O20 0.945561 0.250000 0.863451
O O21 0.011050 0.160379 0.948535
O O22 0.250000 0.127782 0.005737
#
# Coordination Sequence:
#
# PCOD8239524 Si02
#       8
#     8   8   8   8   8   8   8   8
#     4  10  20  30  43  66  92 118 153 196 243 286
#     4   9  17  29  44  61  83 116 154 186 221 274
#     4   9  18  31  43  59  88 123 155 187 225 273
#     4   8  14  26  44  63  83 110 143 178 221 277
#     4   9  16  27  44  65  86 110 145 184 219 261
#     4  10  18  29  46  67  89 114 146 190 241 287
#     4   9  17  29  44  61  85 121 159 186 210 252
#     4   9  16  26  43  66  89 112 138 178 227 261
#
# _framework density 16.206548999999999
#
# number of rings (size 3 to 8) (size 9 to 14) (size 15 to 20)
#    0.000    2.875    1.250    1.500    0.000    4.500 
#    0.000    1.250    0.000    0.375    0.000    0.875 
#    0.000    3.000    0.000    0.000    0.000    0.000 
#
# Total GULP energy -793276.659559 kJ/mol
# GULP energy per Si atom -12394.947806 kJ/mol
# Density = 1.616966 g / cm^3
# Si number density = 16.206549 Si / 1000 Ang^3
#
#
#
# Elastic Constant Matrix: (Units=GPa)
#
#
# Indices 1 2 3 4 5 6 
#
# 1 61.4878 28.8299 48.2382 0.0000 0.0000 0.0000
# 2 28.8299 65.2599 46.0421 0.0000 0.0000 0.0000
# 3 48.2382 46.0421 107.4139 0.0000 0.0000 0.0000
# 4 0.0000 0.0000 0.0000 19.5343 0.0000 0.0000
# 5 0.0000 0.0000 0.0000 0.0000 21.3896 0.0000
# 6 0.0000 0.0000 0.0000 0.0000 0.0000 20.0280
#
#
#
# Elastic Compliance Matrix: (Units=1/GPa)
#
#
# Indices 1 2 3 4 5 6 
#
# 1 0.026066 -0.004668 -0.009705 0.000000 0.000000 0.000000
# 2 -0.004668 0.022802 -0.007678 0.000000 0.000000 0.000000
# 3 -0.009705 -0.007678 0.016959 0.000000 0.000000 0.000000
# 4 0.000000 0.000000 0.000000 0.051192 0.000000 0.000000
# 5 0.000000 0.000000 0.000000 0.000000 0.046752 0.000000
# 6 0.000000 0.000000 0.000000 0.000000 0.000000 0.049930
#
#
# Mechanical properties :
#
#
# Convention : Reuss Voigt Hill
#
# Bulk Modulus (GPa) = 46.02800 53.37578 49.70189
# Shear Modulus (GPa) = 18.86477 19.59378 19.22928
#
# Velocity S-wave (km/s) = 3.41548 3.48085 3.44832
# Velocity P-wave (km/s) = 6.63449 7.01151 6.82560
#
# Compressibility (1/GPa) = 0.02172591
#
# Stress axis : x y z
#
# Youngs Moduli (GPa) = 38.36450 43.85524 58.96559
#
# Poissons Ratio (x) = 0.20472 0.57225
# Poissons Ratio (y) = 0.17909 0.45271
# Poissons Ratio (z) = 0.37232 0.33670
#
# Static dielectric constant tensor:
#      x y z
#    x 3.047040 0.000000 0.000000 
#    y 0.000000 3.130270 0.000000 
#    z 0.000000 0.000000 2.951130 
# 
# 
# High freq. dielectric constant tensor:
#      x y z
#    x 1.616790 0.000000 0.000000 
#    y 0.000000 1.604800 0.000000 
#    z 0.000000 0.000000 1.598980 
# 
# From -- ./inp_files/29676.got.cif
#   From: 2010.03.12/outbox.cif.g09.slc.cpg/sg59_15_cif.got.tgz:29676.got - 2010.04.16 16:29:54.
