data_PCOD8239127
_publ_section_title
;
Structure prediction by ZEFSAII (Michael W. Deem and Ramdas Pophale) SiO2 
 PCOD8239127
Probable space group: P M M N
;
_chemical_formula_sum "Si O2"
_cell_formula_units_Z 56
_cell_length_a 23.904358
_cell_length_b 29.662691
_cell_length_c 5.010248
_cell_angle_alpha 90.000000
_cell_angle_beta 90.000000
_cell_angle_gamma 90.000000
_cell_volume 3552.604449
_symmetry_space_group_name_H-M "P M M N"
_symmetry_group_IT_number 59
_space_group.IT_coordinate_system_code '2'
_symmetry_cell_setting 'orthorhombic'
loop_
_space_group_symop_operation_xyz
x,y,z
1/2-x,1/2-y,z
1/2+x,-y,-z
-x,1/2+y,-z
-x,-y,-z
1/2+x,1/2+y,-z
1/2-x,y,z
x,1/2-y,z
loop_
_atom_site_type_symbol
_atom_site_label
_atom_site_fract_x
_atom_site_fract_y
_atom_site_fract_z
Si Si1 0.976321 0.250000 0.697760
Si Si2 0.599753 0.344764 0.311310
Si Si3 0.812549 0.020493 0.798002
Si Si4 0.982301 0.942377 0.279287
Si Si5 0.904272 0.250000 0.198212
Si Si6 0.524985 0.346478 0.811753
Si Si7 0.188138 0.920554 0.703934
Si Si8 0.070795 0.015801 0.221752
O O1 0.960039 0.250000 0.386526
O O2 0.007368 0.201983 0.763619
O O3 0.921032 0.250000 0.887037
O O4 0.629284 0.295744 0.268696
O O5 0.577766 0.349930 0.611815
O O6 0.644578 0.381772 0.237609
O O7 0.546859 0.349087 0.113805
O O8 0.750000 0.998410 0.773927
O O9 0.862191 0.985378 0.733045
O O10 0.817286 0.062366 0.597405
O O11 0.823376 0.038036 0.096734
O O12 0.957512 0.949863 0.572591
O O13 0.984291 0.888758 0.234477
O O14 0.940311 0.965657 0.072820
O O15 0.043742 0.965678 0.255539
O O16 0.250000 0.900935 0.756335
#
# Coordination Sequence:
#
# PCOD8239127 Si02
#       8
#     4   8   8   8   4   8   8   8
#     4   8  16  28  42  60  81 104 141 172 196 248
#     4  10  17  28  43  58  81 106 139 176 209 251
#     4  10  20  33  47  61  81 111 145 178 209 243
#     4  10  19  28  43  64  89 113 135 168 212 253
#     4   8  16  26  39  58  76 104 136 170 211 250
#     4  10  18  29  45  63  82 112 140 168 209 250
#     4  10  19  29  43  61  77 102 142 182 215 245
#     4  10  19  30  42  63  88 112 140 169 206 255
#
# _framework density 15.763082000000001
#
# number of rings (size 3 to 8) (size 9 to 14) (size 15 to 20)
#    0.000    2.286    0.000    4.286    0.000    2.286 
#    0.000    0.357    0.000    0.000    0.000    9.000 
#    0.000    0.000    0.000    3.857    0.000    0.000 
#
# Total GULP energy -694028.499633 kJ/mol
# GULP energy per Si atom -12393.366065 kJ/mol
# Density = 1.572720 g / cm^3
# Si number density = 15.763082 Si / 1000 Ang^3
#
#
#
# Elastic Constant Matrix: (Units=GPa)
#
#
# Indices 1 2 3 4 5 6 
#
# 1 69.1047 32.2615 5.5612 0.0000 0.0000 0.0000
# 2 32.2615 85.8557 -0.9692 0.0000 0.0000 0.0000
# 3 5.5612 -0.9692 58.9417 0.0000 0.0000 0.0000
# 4 0.0000 0.0000 0.0000 15.9410 0.0000 0.0000
# 5 0.0000 0.0000 0.0000 0.0000 13.0036 0.0000
# 6 0.0000 0.0000 0.0000 0.0000 0.0000 15.1862
#
#
#
# Elastic Compliance Matrix: (Units=1/GPa)
#
#
# Indices 1 2 3 4 5 6 
#
# 1 0.017735 -0.006684 -0.001783 0.000000 0.000000 0.000000
# 2 -0.006684 0.014169 0.000864 0.000000 0.000000 0.000000
# 3 -0.001783 0.000864 0.017148 0.000000 0.000000 0.000000
# 4 0.000000 0.000000 0.000000 0.062731 0.000000 0.000000
# 5 0.000000 0.000000 0.000000 0.000000 0.076902 0.000000
# 6 0.000000 0.000000 0.000000 0.000000 0.000000 0.065849
#
#
# Mechanical properties :
#
#
# Convention : Reuss Voigt Hill
#
# Bulk Modulus (GPa) = 29.54690 31.95656 30.75173
# Shear Modulus (GPa) = 17.79209 20.62939 19.21074
#
# Velocity S-wave (km/s) = 3.36329 3.62154 3.49480
# Velocity P-wave (km/s) = 5.81956 6.14853 5.98631
#
# Compressibility (1/GPa) = 0.03384450
#
# Stress axis : x y z
#
# Youngs Moduli (GPa) = 56.38623 70.57716 58.31455
#
# Poissons Ratio (x) = 0.47175 0.10399
# Poissons Ratio (y) = 0.37690 -0.05036
# Poissons Ratio (z) = 0.10055 -0.06095
#
# Static dielectric constant tensor:
#      x y z
#    x 2.682350 0.000000 0.000000 
#    y 0.000000 3.070430 0.000000 
#    z 0.000000 0.000000 3.183510 
# 
# 
# High freq. dielectric constant tensor:
#      x y z
#    x 1.548780 0.000000 0.000000 
#    y 0.000000 1.593260 0.000000 
#    z 0.000000 0.000000 1.634730 
# 
# From -- ./inp_files/3911.got.cif
#   From: 2010.03.12/outbox.cif.g09.slc.cpg/sg59_2_cif.got.tgz:3911.got - 2010.04.16 16:29:54.
