data_PCOD8239373
_publ_section_title
;
Structure prediction by ZEFSAII (Michael W. Deem and Ramdas Pophale) SiO2 
 PCOD8239373
Probable space group: P M M N
;
_chemical_formula_sum "Si O2"
_cell_formula_units_Z 56
_cell_length_a 9.036491
_cell_length_b 24.284629
_cell_length_c 16.209653
_cell_angle_alpha 90.000000
_cell_angle_beta 90.000000
_cell_angle_gamma 90.000000
_cell_volume 3557.173199
_symmetry_space_group_name_H-M "P M M N"
_symmetry_group_IT_number 59
_space_group.IT_coordinate_system_code '2'
_symmetry_cell_setting 'orthorhombic'
loop_
_space_group_symop_operation_xyz
x,y,z
1/2-x,1/2-y,z
1/2+x,-y,-z
-x,1/2+y,-z
-x,-y,-z
1/2+x,1/2+y,-z
1/2-x,y,z
x,1/2-y,z
loop_
_atom_site_type_symbol
_atom_site_label
_atom_site_fract_x
_atom_site_fract_y
_atom_site_fract_z
Si Si1 0.424104 0.992125 0.796249
Si Si2 0.923587 0.982195 0.624250
Si Si3 0.916815 0.686589 0.221521
Si Si4 0.421898 0.597382 0.126368
Si Si5 0.581247 0.449350 0.037823
Si Si6 0.923302 0.415095 0.514099
Si Si7 0.922395 0.687171 0.411296
O O1 0.250000 0.996666 0.777014
O O2 0.509156 0.975546 0.714372
O O3 0.461005 0.943911 0.864923
O O4 0.480948 0.050456 0.830180
O O5 0.750000 0.971401 0.627885
O O6 0.995513 0.935403 0.567845
O O7 0.959611 0.043031 0.588994
O O8 0.750000 0.664925 0.207426
O O9 0.927426 0.750000 0.197393
O O10 0.963338 0.677565 0.316067
O O11 0.030791 0.655638 0.162640
O O12 0.250000 0.586057 0.146259
O O13 0.448635 0.601000 0.026033
O O14 0.750000 0.466761 0.035587
O O15 0.500000 0.500000 0.000000
O O16 0.750000 0.412673 0.495960
O O17 0.980418 0.354217 0.534743
O O18 0.750000 0.675062 0.426374
O O19 0.960228 0.750000 0.436917
#
# Coordination Sequence:
#
# PCOD8239373 Si02
#       7
#     8   8   8   8   8   8   8
#     4  10  18  29  45  64  88 118 149 180 218 262
#     4  10  20  32  46  66  92 120 150 186 226 269
#     4   9  18  31  45  63  88 118 151 182 214 256
#     4  10  18  28  43  64  90 118 148 181 217 257
#     4   8  16  28  41  60  86 114 143 175 210 252
#     4  10  20  32  46  66  91 119 150 183 222 269
#     4   9  18  32  48  65  88 119 151 184 222 262
#
# _framework density 15.742837
#
# number of rings (size 3 to 8) (size 9 to 14) (size 15 to 20)
#    0.000    2.571    0.000    3.429    0.000    6.286 
#    0.000    1.429    0.000    0.000    0.000    1.000 
#    0.000    5.714    0.000    0.000    0.000    0.000 
#
# Total GULP energy -693969.299329 kJ/mol
# GULP energy per Si atom -12392.308917 kJ/mol
# Density = 1.570701 g / cm^3
# Si number density = 15.742837 Si / 1000 Ang^3
#
#
#
# Elastic Constant Matrix: (Units=GPa)
#
#
# Indices 1 2 3 4 5 6 
#
# 1 73.3262 39.3170 58.4142 0.0000 0.0000 0.0000
# 2 39.3170 74.7531 51.0596 0.0000 0.0000 0.0000
# 3 58.4142 51.0596 126.4459 0.0000 0.0000 0.0000
# 4 0.0000 0.0000 0.0000 24.4648 0.0000 0.0000
# 5 0.0000 0.0000 0.0000 0.0000 27.1327 0.0000
# 6 0.0000 0.0000 0.0000 0.0000 0.0000 26.3960
#
#
#
# Elastic Compliance Matrix: (Units=1/GPa)
#
#
# Indices 1 2 3 4 5 6 
#
# 1 0.023940 -0.006956 -0.008251 0.000000 0.000000 0.000000
# 2 -0.006956 0.020493 -0.005062 0.000000 0.000000 0.000000
# 3 -0.008251 -0.005062 0.013764 0.000000 0.000000 0.000000
# 4 0.000000 0.000000 0.000000 0.040875 0.000000 0.000000
# 5 0.000000 0.000000 0.000000 0.000000 0.036856 0.000000
# 6 0.000000 0.000000 0.000000 0.000000 0.000000 0.037885
#
#
# Mechanical properties :
#
#
# Convention : Reuss Voigt Hill
#
# Bulk Modulus (GPa) = 56.62347 63.56741 60.09544
# Shear Modulus (GPa) = 22.70272 23.98097 23.34185
#
# Velocity S-wave (km/s) = 3.80162 3.90717 3.85476
# Velocity P-wave (km/s) = 7.43744 7.79878 7.62025
#
# Compressibility (1/GPa) = 0.01766052
#
# Stress axis : x y z
#
# Youngs Moduli (GPa) = 41.77053 48.79612 72.65221
#
# Poissons Ratio (x) = 0.33942 0.59944
# Poissons Ratio (y) = 0.29055 0.36776
# Poissons Ratio (z) = 0.34464 0.24700
#
# Static dielectric constant tensor:
#      x y z
#    x 3.030990 0.000000 0.000000 
#    y 0.000000 2.829890 0.000000 
#    z 0.000000 0.000000 3.278890 
# 
# 
# High freq. dielectric constant tensor:
#      x y z
#    x 1.618170 0.000000 0.000000 
#    y 0.000000 1.571780 0.000000 
#    z 0.000000 0.000000 1.602860 
# 
# From -- ./inp_files/20956.got.cif
#   From: 2010.03.12/outbox.cif.g09.slc.cpg/sg59_11_cif.got.tgz:20956.got - 2010.04.16 16:29:54.
