data_PCOD8239870
_publ_section_title
;
Structure prediction by ZEFSAII (Michael W. Deem and Ramdas Pophale) SiO2 
 PCOD8239870
Probable space group: P M M N
;
_chemical_formula_sum "Si O2"
_cell_formula_units_Z 64
_cell_length_a 22.768425
_cell_length_b 15.101982
_cell_length_c 9.846525
_cell_angle_alpha 90.000000
_cell_angle_beta 90.000000
_cell_angle_gamma 90.000000
_cell_volume 3385.711321
_symmetry_space_group_name_H-M "P M M N"
_symmetry_group_IT_number 59
_space_group.IT_coordinate_system_code '2'
_symmetry_cell_setting 'orthorhombic'
loop_
_space_group_symop_operation_xyz
x,y,z
1/2-x,1/2-y,z
1/2+x,-y,-z
-x,1/2+y,-z
-x,-y,-z
1/2+x,1/2+y,-z
1/2-x,y,z
x,1/2-y,z
loop_
_atom_site_type_symbol
_atom_site_label
_atom_site_fract_x
_atom_site_fract_y
_atom_site_fract_z
Si Si1 0.518583 0.569473 0.328064
Si Si2 0.819621 0.352817 0.907632
Si Si3 0.614505 0.474331 0.701974
Si Si4 0.599685 0.650941 0.121126
Si Si5 0.383463 0.937844 0.602415
Si Si6 0.681984 0.016837 0.147061
Si Si7 0.510863 0.344882 0.402551
Si Si8 0.419220 0.150345 0.184517
O O1 0.453351 0.550957 0.274621
O O2 0.548276 0.643636 0.233114
O O3 0.561051 0.485347 0.321790
O O4 0.518011 0.590209 0.488022
O O5 0.750000 0.355146 0.892034
O O6 0.840860 0.250000 0.920400
O O7 0.846884 0.399678 0.775752
O O8 0.840139 0.410184 0.038448
O O9 0.634553 0.475494 0.544276
O O10 0.625545 0.573769 0.761029
O O11 0.627103 0.750000 0.134118
O O12 0.650395 0.577876 0.137180
O O13 0.569866 0.637642 0.974839
O O14 0.416967 0.843640 0.592121
O O15 0.328173 0.941231 0.702772
O O16 0.750000 0.997397 0.126767
O O17 0.490613 0.250000 0.453971
O O18 0.482408 0.363925 0.255360
O O19 0.393923 0.250000 0.214441
#
# Coordination Sequence:
#
# PCOD8239870 Si02
#       8
#     8   8   8   8   8   8   8   8
#     4  10  19  33  52  81 117 152 183 219 275 324
#     4  10  23  42  61  81 107 144 188 233 284 332
#     4  11  19  36  60  82 117 150 187 228 270 333
#     4  10  21  35  55  84 114 144 184 231 275 330
#     4  10  20  34  54  82 114 146 187 227 273 322
#     4  10  22  40  60  79 106 146 186 233 285 329
#     4  10  18  31  51  77 114 152 182 216 270 336
#     4  10  19  32  52  84 117 148 182 221 273 326
#
# _framework density 18.90297
#
# number of rings (size 3 to 8) (size 9 to 14) (size 15 to 20)
#    0.000    1.875    3.750    1.125    0.000    5.250 
#    0.000    1.250    0.000    1.875    0.000    0.000 
#    0.000    0.000    0.000    0.000    0.000    0.000 
#
# Total GULP energy -792889.525141 kJ/mol
# GULP energy per Si atom -12388.898830 kJ/mol
# Density = 1.885995 g / cm^3
# Si number density = 18.902970 Si / 1000 Ang^3
#
#
#
# Elastic Constant Matrix: (Units=GPa)
#
#
# Indices 1 2 3 4 5 6 
#
# 1 41.8481 30.9034 30.2446 0.0000 0.0000 0.0000
# 2 30.9034 120.5919 44.4481 0.0000 0.0000 0.0000
# 3 30.2446 44.4481 119.8050 0.0000 0.0000 0.0000
# 4 0.0000 0.0000 0.0000 24.5312 0.0000 0.0000
# 5 0.0000 0.0000 0.0000 0.0000 27.7220 0.0000
# 6 0.0000 0.0000 0.0000 0.0000 0.0000 24.1946
#
#
#
# Elastic Compliance Matrix: (Units=1/GPa)
#
#
# Indices 1 2 3 4 5 6 
#
# 1 0.032796 -0.006201 -0.005979 0.000000 0.000000 0.000000
# 2 -0.006201 0.010778 -0.002433 0.000000 0.000000 0.000000
# 3 -0.005979 -0.002433 0.010759 0.000000 0.000000 0.000000
# 4 0.000000 0.000000 0.000000 0.040764 0.000000 0.000000
# 5 0.000000 0.000000 0.000000 0.000000 0.036072 0.000000
# 6 0.000000 0.000000 0.000000 0.000000 0.000000 0.041332
#
#
# Mechanical properties :
#
#
# Convention : Reuss Voigt Hill
#
# Bulk Modulus (GPa) = 39.82882 54.82634 47.32758
# Shear Modulus (GPa) = 23.79852 27.06614 25.43233
#
# Velocity S-wave (km/s) = 3.55206 3.78808 3.67197
# Velocity P-wave (km/s) = 6.15945 6.94261 6.56272
#
# Compressibility (1/GPa) = 0.02510745
#
# Stress axis : x y z
#
# Youngs Moduli (GPa) = 30.49152 92.77817 92.94495
#
# Poissons Ratio (x) = 0.57530 0.55570
# Poissons Ratio (y) = 0.18907 0.22618
# Poissons Ratio (z) = 0.18230 0.22577
#
# Static dielectric constant tensor:
#      x y z
#    x 3.196220 0.000000 0.000000 
#    y 0.000000 3.887570 0.000000 
#    z 0.000000 0.000000 3.566230 
# 
# 
# High freq. dielectric constant tensor:
#      x y z
#    x 1.696060 0.000000 0.000000 
#    y 0.000000 1.749690 0.000000 
#    z 0.000000 0.000000 1.744100 
# 
# From -- ./inp_files/12246.got.cif
#   From: 2010.03.12/outbox.cif.g09.slc.cpg/sg59_7_cif.got.tgz:12246.got - 2010.04.16 16:29:54.
