data_PCOD8239574
_publ_section_title
;
Structure prediction by ZEFSAII (Michael W. Deem and Ramdas Pophale) SiO2 
 PCOD8239574
Probable space group: P M M N
;
_chemical_formula_sum "Si O2"
_cell_formula_units_Z 64
_cell_length_a 8.857096
_cell_length_b 19.719121
_cell_length_c 20.032133
_cell_angle_alpha 90.000000
_cell_angle_beta 90.000000
_cell_angle_gamma 90.000000
_cell_volume 3498.695116
_symmetry_space_group_name_H-M "P M M N"
_symmetry_group_IT_number 59
_space_group.IT_coordinate_system_code '2'
_symmetry_cell_setting 'orthorhombic'
loop_
_space_group_symop_operation_xyz
x,y,z
1/2-x,1/2-y,z
1/2+x,-y,-z
-x,1/2+y,-z
-x,-y,-z
1/2+x,1/2+y,-z
1/2-x,y,z
x,1/2-y,z
loop_
_atom_site_type_symbol
_atom_site_label
_atom_site_fract_x
_atom_site_fract_y
_atom_site_fract_z
Si Si1 0.077342 0.403331 0.383273
Si Si2 0.426818 0.038667 0.663054
Si Si3 0.572315 0.417973 0.151148
Si Si4 0.926915 0.672393 0.961245
Si Si5 0.575732 0.931987 0.476904
Si Si6 0.923421 0.326782 0.900633
Si Si7 0.073535 0.946382 0.196912
Si Si8 0.076483 0.173913 0.256730
O O1 0.250000 0.430425 0.378677
O O2 0.043101 0.380383 0.460960
O O3 0.056364 0.338235 0.335960
O O4 0.967155 0.461789 0.356687
O O5 0.250000 0.043004 0.680032
O O6 0.475274 0.087094 0.599077
O O7 0.517048 0.062549 0.727654
O O8 0.750000 0.423751 0.145130
O O9 0.505950 0.493240 0.156544
O O10 0.529682 0.377265 0.217536
O O11 0.510561 0.379627 0.086712
O O12 0.750000 0.661821 0.952531
O O13 0.973168 0.750000 0.943607
O O14 0.972675 0.654782 0.036562
O O15 0.750000 0.948293 0.469695
O O16 0.500000 0.000000 0.500000
O O17 0.750000 0.335954 0.922830
O O18 0.954686 0.250000 0.876281
O O19 0.965148 0.376313 0.840123
O O20 0.250000 0.962321 0.198259
O O21 0.250000 0.162157 0.234653
O O22 0.025607 0.250000 0.240318
#
# Coordination Sequence:
#
# PCOD8239574 Si02
#       8
#     8   8   8   8   8   8   8   8
#     4   9  16  29  48  68  97 136 176 217 262 311
#     4  10  18  29  47  74 106 135 170 216 262 309
#     4  12  24  36  53  78 109 143 180 221 262 309
#     4  10  21  38  60  83 109 142 178 216 259 311
#     4   8  15  26  43  68  96 129 169 211 256 305
#     4   9  20  40  63  84 104 131 172 218 265 320
#     4  11  22  36  56  80 109 141 172 216 271 321
#     4  10  20  33  50  73 104 143 184 224 267 317
#
# _framework density 18.292534
#
# number of rings (size 3 to 8) (size 9 to 14) (size 15 to 20)
#    0.000    2.125    1.250    2.625    0.000    4.500 
#    0.000    0.000    0.000    0.750    0.000    1.750 
#    0.000    0.000    0.000    0.000    0.000    0.000 
#
# Total GULP energy -793099.287565 kJ/mol
# GULP energy per Si atom -12392.176368 kJ/mol
# Density = 1.825090 g / cm^3
# Si number density = 18.292534 Si / 1000 Ang^3
#
#
#
# Elastic Constant Matrix: (Units=GPa)
#
#
# Indices 1 2 3 4 5 6 
#
# 1 83.1786 39.4163 53.8090 0.0000 0.0000 0.0000
# 2 39.4163 84.4718 63.9520 0.0000 0.0000 0.0000
# 3 53.8090 63.9520 143.3159 0.0000 0.0000 0.0000
# 4 0.0000 0.0000 0.0000 18.2860 0.0000 0.0000
# 5 0.0000 0.0000 0.0000 0.0000 28.6856 0.0000
# 6 0.0000 0.0000 0.0000 0.0000 0.0000 16.0056
#
#
#
# Elastic Compliance Matrix: (Units=1/GPa)
#
#
# Indices 1 2 3 4 5 6 
#
# 1 0.017026 -0.004689 -0.004300 0.000000 0.000000 0.000000
# 2 -0.004689 0.019170 -0.006793 0.000000 0.000000 0.000000
# 3 -0.004300 -0.006793 0.011624 0.000000 0.000000 0.000000
# 4 0.000000 0.000000 0.000000 0.054687 0.000000 0.000000
# 5 0.000000 0.000000 0.000000 0.000000 0.034861 0.000000
# 6 0.000000 0.000000 0.000000 0.000000 0.000000 0.062478
#
#
# Mechanical properties :
#
#
# Convention : Reuss Voigt Hill
#
# Bulk Modulus (GPa) = 61.52442 69.48009 65.50226
# Shear Modulus (GPa) = 21.11236 22.84806 21.98021
#
# Velocity S-wave (km/s) = 3.40097 3.53801 3.47016
# Velocity P-wave (km/s) = 7.00919 7.39968 7.20708
#
# Compressibility (1/GPa) = 0.01625371
#
# Stress axis : x y z
#
# Youngs Moduli (GPa) = 58.73287 52.16605 86.03220
#
# Poissons Ratio (x) = 0.24462 0.36995
# Poissons Ratio (y) = 0.27541 0.58445
# Poissons Ratio (z) = 0.25256 0.35439
#
# Static dielectric constant tensor:
#      x y z
#    x 3.435620 0.000000 0.000000 
#    y 0.000000 3.182860 0.000000 
#    z 0.000000 0.000000 3.850800 
# 
# 
# High freq. dielectric constant tensor:
#      x y z
#    x 1.712870 0.000000 0.000000 
#    y 0.000000 1.670720 0.000000 
#    z 0.000000 0.000000 1.728080 
# 
# From -- ./inp_files/26330.got.cif
#   From: 2010.03.12/outbox.cif.g09.slc.cpg/sg59_14_cif.got.tgz:26330.got - 2010.04.16 16:29:54.
