data_PCOD8239315
_publ_section_title
;
Structure prediction by ZEFSAII (Michael W. Deem and Ramdas Pophale) SiO2 
 PCOD8239315
Probable space group: P M M N
;
_chemical_formula_sum "Si O2"
_cell_formula_units_Z 64
_cell_length_a 9.160197
_cell_length_b 19.157010
_cell_length_c 21.282074
_cell_angle_alpha 90.000000
_cell_angle_beta 90.000000
_cell_angle_gamma 90.000000
_cell_volume 3734.620602
_symmetry_space_group_name_H-M "P M M N"
_symmetry_group_IT_number 59
_space_group.IT_coordinate_system_code '2'
_symmetry_cell_setting 'orthorhombic'
loop_
_space_group_symop_operation_xyz
x,y,z
1/2-x,1/2-y,z
1/2+x,-y,-z
-x,1/2+y,-z
-x,-y,-z
1/2+x,1/2+y,-z
1/2-x,y,z
x,1/2-y,z
loop_
_atom_site_type_symbol
_atom_site_label
_atom_site_fract_x
_atom_site_fract_y
_atom_site_fract_z
Si Si1 0.079180 0.436368 0.305596
Si Si2 0.911039 0.979053 0.824945
Si Si3 0.422313 0.173010 0.406511
Si Si4 0.419470 0.074524 0.655891
Si Si5 0.419217 0.071355 0.513197
Si Si6 0.917591 0.673444 0.117894
Si Si7 0.921453 0.971487 0.060956
Si Si8 0.912801 0.130681 0.765556
O O1 0.250000 0.455248 0.314810
O O2 0.045625 0.424989 0.230795
O O3 0.036078 0.365633 0.341534
O O4 0.984644 0.497702 0.335680
O O5 0.750000 0.961930 0.853003
O O6 0.907117 0.052271 0.789766
O O7 0.028701 0.980059 0.880698
O O8 0.250000 0.179967 0.412639
O O9 0.494248 0.250000 0.405588
O O10 0.482722 0.130265 0.466422
O O11 0.250000 0.072312 0.674544
O O12 0.443271 0.098054 0.584133
O O13 0.499181 0.131661 0.700004
O O14 0.250000 0.057420 0.499048
O O15 0.500000 0.000000 0.500000
O O16 0.750000 0.659563 0.136002
O O17 0.936657 0.750000 0.084839
O O18 0.968417 0.609754 0.072517
O O19 0.007835 0.677190 0.182199
O O20 0.750000 0.979622 0.051894
O O21 0.000000 0.000000 0.000000
O O22 0.750000 0.160338 0.754666
#
# Coordination Sequence:
#
# PCOD8239315 Si02
#       8
#     8   8   8   8   8   8   8   8
#     4   9  16  28  48  70  91 118 154 199 248 293
#     4   8  15  27  44  68  94 119 151 191 235 281
#     4   9  17  30  48  69  93 122 160 206 255 305
#     4  10  18  27  43  69  95 121 158 203 247 293
#     4  10  19  30  47  69  93 124 166 210 252 301
#     4   9  18  33  52  74 101 133 168 206 248 294
#     4  10  19  31  50  75 103 134 165 200 239 281
#     4   9  17  29  46  69  96 126 157 196 241 288
#
# _framework density 17.136948
#
# number of rings (size 3 to 8) (size 9 to 14) (size 15 to 20)
#    0.000    2.750    1.250    1.875    0.000    4.250 
#    0.000    0.625    0.000    4.500    0.000    3.500 
#    0.000    0.000    0.000    0.000    0.000    0.000 
#
# Total GULP energy -793218.526596 kJ/mol
# GULP energy per Si atom -12394.039478 kJ/mol
# Density = 1.709794 g / cm^3
# Si number density = 17.136948 Si / 1000 Ang^3
#
#
#
# Elastic Constant Matrix: (Units=GPa)
#
#
# Indices 1 2 3 4 5 6 
#
# 1 73.9903 31.8231 50.7359 0.0000 0.0000 0.0000
# 2 31.8231 94.6898 59.4223 0.0000 0.0000 0.0000
# 3 50.7359 59.4223 129.6973 0.0000 0.0000 0.0000
# 4 0.0000 0.0000 0.0000 19.9626 0.0000 0.0000
# 5 0.0000 0.0000 0.0000 0.0000 27.8223 0.0000
# 6 0.0000 0.0000 0.0000 0.0000 0.0000 15.5565
#
#
#
# Elastic Compliance Matrix: (Units=1/GPa)
#
#
# Indices 1 2 3 4 5 6 
#
# 1 0.018849 -0.002397 -0.006276 0.000000 0.000000 0.000000
# 2 -0.002397 0.015127 -0.005993 0.000000 0.000000 0.000000
# 3 -0.006276 -0.005993 0.012911 0.000000 0.000000 0.000000
# 4 0.000000 0.000000 0.000000 0.050094 0.000000 0.000000
# 5 0.000000 0.000000 0.000000 0.000000 0.035942 0.000000
# 6 0.000000 0.000000 0.000000 0.000000 0.000000 0.064282
#
#
# Mechanical properties :
#
#
# Convention : Reuss Voigt Hill
#
# Bulk Modulus (GPa) = 56.95788 64.70442 60.83115
# Shear Modulus (GPa) = 21.51573 23.09471 22.30522
#
# Velocity S-wave (km/s) = 3.54717 3.67503 3.61166
# Velocity P-wave (km/s) = 7.07712 7.47308 7.27779
#
# Compressibility (1/GPa) = 0.01755683
#
# Stress axis : x y z
#
# Youngs Moduli (GPa) = 53.05249 66.10580 77.45316
#
# Poissons Ratio (x) = 0.15843 0.48606
# Poissons Ratio (y) = 0.12715 0.46419
# Poissons Ratio (z) = 0.33293 0.39619
#
# Static dielectric constant tensor:
#      x y z
#    x 3.222350 0.000000 0.000000 
#    y 0.000000 3.169180 0.000000 
#    z 0.000000 0.000000 3.380320 
# 
# 
# High freq. dielectric constant tensor:
#      x y z
#    x 1.654650 0.000000 0.000000 
#    y 0.000000 1.630620 0.000000 
#    z 0.000000 0.000000 1.659270 
# 
# From -- ./inp_files/29650.got.cif
#   From: 2010.03.12/outbox.cif.g09.slc.cpg/sg59_15_cif.got.tgz:29650.got - 2010.04.16 16:29:54.
