data_PCOD8239092
_publ_section_title
;
Structure prediction by ZEFSAII (Michael W. Deem and Ramdas Pophale) SiO2 
 PCOD8239092
Probable space group: P M M N
;
_chemical_formula_sum "Si O2"
_cell_formula_units_Z 64
_cell_length_a 23.218179
_cell_length_b 9.171765
_cell_length_c 20.090213
_cell_angle_alpha 90.000000
_cell_angle_beta 90.000000
_cell_angle_gamma 90.000000
_cell_volume 4278.244640
_symmetry_space_group_name_H-M "P M M N"
_symmetry_group_IT_number 59
_space_group.IT_coordinate_system_code '2'
_symmetry_cell_setting 'orthorhombic'
loop_
_space_group_symop_operation_xyz
x,y,z
1/2-x,1/2-y,z
1/2+x,-y,-z
-x,1/2+y,-z
-x,-y,-z
1/2+x,1/2+y,-z
1/2-x,y,z
x,1/2-y,z
loop_
_atom_site_type_symbol
_atom_site_label
_atom_site_fract_x
_atom_site_fract_y
_atom_site_fract_z
Si Si1 0.101638 0.919921 0.399494
Si Si2 0.814189 0.422581 0.714047
Si Si3 0.945701 0.088631 0.077281
Si Si4 0.514012 0.078424 0.215818
Si Si5 0.420074 0.086832 0.043507
Si Si6 0.941406 0.919139 0.484480
Si Si7 0.899357 0.077171 0.828310
Si Si8 0.475065 0.415432 0.656640
O O1 0.109711 0.750000 0.415097
O O2 0.150251 0.981230 0.349515
O O3 0.039912 0.950808 0.366407
O O4 0.107843 0.007403 0.469522
O O5 0.750000 0.490268 0.713324
O O6 0.811727 0.250000 0.708722
O O7 0.844953 0.466000 0.782938
O O8 0.920381 0.250000 0.065599
O O9 0.941606 0.044348 0.155176
O O10 0.012737 0.086877 0.059164
O O11 0.909979 0.979152 0.030322
O O12 0.499884 0.250000 0.218142
O O13 0.455331 0.989824 0.206307
O O14 0.543270 0.024569 0.284227
O O15 0.394728 0.250000 0.044732
O O16 0.387727 0.989621 0.098682
O O17 0.947643 0.750000 0.503207
O O18 0.930518 0.937557 0.405074
O O19 0.000000 0.000000 0.500000
O O20 0.908017 0.250000 0.834436
O O21 0.471762 0.250000 0.683121
#
# Coordination Sequence:
#
# PCOD8239092 Si02
#       8
#     8   8   8   8   8   8   8   8
#     4   9  16  28  42  57  75  98 131 168 202 238
#     4   9  17  29  44  60  77 101 136 173 206 241
#     4   8  15  25  34  50  73  98 126 155 186 223
#     4  10  18  25  37  56  78 102 130 161 193 229
#     4   9  16  25  37  53  71  94 127 161 191 226
#     4   9  17  27  39  56  76 100 129 161 196 237
#     4  10  17  27  41  54  72 100 130 164 202 235
#     4   9  16  26  38  55  77 102 132 160 193 236
#
# _framework density 14.959407000000001
#
# number of rings (size 3 to 8) (size 9 to 14) (size 15 to 20)
#    0.000    2.875    1.250    3.000    0.000    6.000 
#    0.000    0.000    0.000    3.375    0.000    0.000 
#    0.000    0.000    0.000    1.125    0.000   21.750 
#
# Total GULP energy -793143.907841 kJ/mol
# GULP energy per Si atom -12392.873560 kJ/mol
# Density = 1.492536 g / cm^3
# Si number density = 14.959407 Si / 1000 Ang^3
#
#
#
# Elastic Constant Matrix: (Units=GPa)
#
#
# Indices 1 2 3 4 5 6 
#
# 1 37.7195 21.5620 38.7336 0.0000 0.0000 0.0000
# 2 21.5620 87.3061 66.7085 0.0000 0.0000 0.0000
# 3 38.7336 66.7085 139.5081 0.0000 0.0000 0.0000
# 4 0.0000 0.0000 0.0000 31.5011 0.0000 0.0000
# 5 0.0000 0.0000 0.0000 0.0000 13.5130 0.0000
# 6 0.0000 0.0000 0.0000 0.0000 0.0000 7.7395
#
#
#
# Elastic Compliance Matrix: (Units=1/GPa)
#
#
# Indices 1 2 3 4 5 6 
#
# 1 0.037316 -0.002048 -0.009381 0.000000 0.000000 0.000000
# 2 -0.002048 0.018160 -0.008115 0.000000 0.000000 0.000000
# 3 -0.009381 -0.008115 0.013653 0.000000 0.000000 0.000000
# 4 0.000000 0.000000 0.000000 0.031745 0.000000 0.000000
# 5 0.000000 0.000000 0.000000 0.000000 0.074003 0.000000
# 6 0.000000 0.000000 0.000000 0.000000 0.000000 0.129208
#
#
# Mechanical properties :
#
#
# Convention : Reuss Voigt Hill
#
# Bulk Modulus (GPa) = 33.28833 57.61576 45.45205
# Shear Modulus (GPa) = 14.15682 19.71936 16.93809
#
# Velocity S-wave (km/s) = 3.07962 3.63463 3.36857
# Velocity P-wave (km/s) = 5.91153 7.49749 6.75124
#
# Compressibility (1/GPa) = 0.03004056
#
# Stress axis : x y z
#
# Youngs Moduli (GPa) = 26.79845 55.06532 73.24356
#
# Poissons Ratio (x) = 0.11276 0.68712
# Poissons Ratio (y) = 0.05488 0.59438
# Poissons Ratio (z) = 0.25140 0.44686
#
# Static dielectric constant tensor:
#      x y z
#    x 2.474240 0.000000 0.000000 
#    y 0.000000 2.965530 0.000000 
#    z 0.000000 0.000000 3.381570 
# 
# 
# High freq. dielectric constant tensor:
#      x y z
#    x 1.489990 0.000000 0.000000 
#    y 0.000000 1.576180 0.000000 
#    z 0.000000 0.000000 1.589210 
# 
# From -- ./inp_files/31056.got.cif
#   From: 2010.03.12/outbox.cif.g09.slc.cpg/sg59_16_cif.got.tgz:31056.got - 2010.04.16 16:29:54.
