data_PCOD8239602
_publ_section_title
;
Structure prediction by ZEFSAII (Michael W. Deem and Ramdas Pophale) SiO2 
 PCOD8239602
Probable space group: P M M N
;
_chemical_formula_sum "Si O2"
_cell_formula_units_Z 48
_cell_length_a 29.418098
_cell_length_b 13.175201
_cell_length_c 7.608086
_cell_angle_alpha 90.000000
_cell_angle_beta 90.000000
_cell_angle_gamma 90.000000
_cell_volume 2948.813139
_symmetry_space_group_name_H-M "P M M N"
_symmetry_group_IT_number 59
_space_group.IT_coordinate_system_code '2'
_symmetry_cell_setting 'orthorhombic'
loop_
_space_group_symop_operation_xyz
x,y,z
1/2-x,1/2-y,z
1/2+x,-y,-z
-x,1/2+y,-z
-x,-y,-z
1/2+x,1/2+y,-z
1/2-x,y,z
x,1/2-y,z
loop_
_atom_site_type_symbol
_atom_site_label
_atom_site_fract_x
_atom_site_fract_y
_atom_site_fract_z
Si Si1 0.525661 0.133104 0.155577
Si Si2 0.639812 0.865624 0.991328
Si Si3 0.128552 0.132426 0.611373
Si Si4 0.561721 0.008722 0.855197
Si Si5 0.052774 0.978196 0.526598
Si Si6 0.699962 0.631529 0.672139
O O1 0.511873 0.250000 0.149342
O O2 0.556827 0.110740 0.327802
O O3 0.481193 0.064701 0.162306
O O4 0.553540 0.104626 0.980772
O O5 0.623029 0.750000 0.959584
O O6 0.684084 0.888197 0.872740
O O7 0.601453 0.941873 0.932151
O O8 0.650968 0.882730 0.196470
O O9 0.117935 0.250000 0.572536
O O10 0.164051 0.086476 0.469047
O O11 0.080058 0.076226 0.598482
O O12 0.573784 0.053543 0.662229
O O13 0.000000 0.000000 0.500000
O O14 0.750000 0.581447 0.648703
O O15 0.703780 0.750000 0.632984
#
# Coordination Sequence:
#
# PCOD8239602 Si02
#       6
#     8   8   8   8   8   8
#     4  10  21  34  47  69 100 129 164 208 249 280
#     4  10  18  29  49  72  97 131 166 200 241 289
#     4  10  19  31  49  72 101 138 169 201 246 297
#     4  10  19  33  50  70  95 132 168 201 237 295
#     4  10  20  32  47  70  98 132 172 209 238 288
#     4   9  18  31  47  71 102 133 164 201 247 300
#
# _framework density 16.277736000000001
#
# number of rings (size 3 to 8) (size 9 to 14) (size 15 to 20)
#    0.000    2.167    3.333    0.500    0.000    4.000 
#    0.000    3.333    0.000    0.000    0.000    0.000 
#    0.000    4.000    0.000    0.000    0.000    0.000 
#
# Total GULP energy -594875.952216 kJ/mol
# GULP energy per Si atom -12393.249005 kJ/mol
# Density = 1.624069 g / cm^3
# Si number density = 16.277736 Si / 1000 Ang^3
#
#
#
# Elastic Constant Matrix: (Units=GPa)
#
#
# Indices 1 2 3 4 5 6 
#
# 1 80.0815 18.0576 28.3105 0.0000 0.0000 0.0000
# 2 18.0576 48.9812 34.3436 0.0000 0.0000 0.0000
# 3 28.3105 34.3436 130.8461 0.0000 0.0000 0.0000
# 4 0.0000 0.0000 0.0000 26.1312 0.0000 0.0000
# 5 0.0000 0.0000 0.0000 0.0000 18.2719 0.0000
# 6 0.0000 0.0000 0.0000 0.0000 0.0000 14.8973
#
#
#
# Elastic Compliance Matrix: (Units=1/GPa)
#
#
# Indices 1 2 3 4 5 6 
#
# 1 0.014059 -0.003738 -0.002061 0.000000 0.000000 0.000000
# 2 -0.003738 0.026015 -0.006019 0.000000 0.000000 0.000000
# 3 -0.002061 -0.006019 0.009668 0.000000 0.000000 0.000000
# 4 0.000000 0.000000 0.000000 0.038268 0.000000 0.000000
# 5 0.000000 0.000000 0.000000 0.000000 0.054729 0.000000
# 6 0.000000 0.000000 0.000000 0.000000 0.000000 0.067126
#
#
# Mechanical properties :
#
#
# Convention : Reuss Voigt Hill
#
# Bulk Modulus (GPa) = 38.30618 46.81470 42.56044
# Shear Modulus (GPa) = 20.64381 23.80654 22.22518
#
# Velocity S-wave (km/s) = 3.56508 3.82844 3.69910
# Velocity P-wave (km/s) = 6.36634 6.95450 6.66691
#
# Compressibility (1/GPa) = 0.02610545
#
# Stress axis : x y z
#
# Youngs Moduli (GPa) = 71.13051 38.43989 103.43030
#
# Poissons Ratio (x) = 0.14369 0.21313
# Poissons Ratio (y) = 0.26589 0.62258
# Poissons Ratio (z) = 0.14658 0.23138
#
# Static dielectric constant tensor:
#      x y z
#    x 3.060470 0.000000 0.000000 
#    y 0.000000 2.726400 0.000000 
#    z 0.000000 0.000000 3.804990 
# 
# 
# High freq. dielectric constant tensor:
#      x y z
#    x 1.603890 0.000000 0.000000 
#    y 0.000000 1.576290 0.000000 
#    z 0.000000 0.000000 1.657500 
# 
# From -- ./inp_files/12522.got.cif
#   From: 2010.03.12/outbox.cif.g09.slc.cpg/sg59_7_cif.got.tgz:12522.got - 2010.04.16 16:29:54.
