data_PCOD8239022
_publ_section_title
;
Structure prediction by ZEFSAII (Michael W. Deem and Ramdas Pophale) SiO2 
 PCOD8239022
Probable space group: P M M N
;
_chemical_formula_sum "Si O2"
_cell_formula_units_Z 56
_cell_length_a 9.500259
_cell_length_b 28.063768
_cell_length_c 13.826145
_cell_angle_alpha 90.000000
_cell_angle_beta 90.000000
_cell_angle_gamma 90.000000
_cell_volume 3686.230889
_symmetry_space_group_name_H-M "P M M N"
_symmetry_group_IT_number 59
_space_group.IT_coordinate_system_code '2'
_symmetry_cell_setting 'orthorhombic'
loop_
_space_group_symop_operation_xyz
x,y,z
1/2-x,1/2-y,z
1/2+x,-y,-z
-x,1/2+y,-z
-x,-y,-z
1/2+x,1/2+y,-z
1/2-x,y,z
x,1/2-y,z
loop_
_atom_site_type_symbol
_atom_site_label
_atom_site_fract_x
_atom_site_fract_y
_atom_site_fract_z
Si Si1 0.585129 0.466553 0.784751
Si Si2 0.584225 0.396209 0.939264
Si Si3 0.916407 0.513541 0.594808
Si Si4 0.409785 0.110293 0.299921
Si Si5 0.911437 0.556456 0.896558
Si Si6 0.085372 0.804241 0.750847
Si Si7 0.083132 0.698643 0.970914
O O1 0.750000 0.476428 0.777717
O O2 0.549707 0.414302 0.829579
O O3 0.528786 0.475497 0.676269
O O4 0.527768 0.506049 0.859226
O O5 0.750000 0.399788 0.959526
O O6 0.508765 0.430250 0.014458
O O7 0.529263 0.342121 0.955099
O O8 0.750000 0.509041 0.575793
O O9 0.955577 0.567107 0.629082
O O10 0.000000 0.500000 0.500000
O O11 0.250000 0.124690 0.322891
O O12 0.426380 0.094482 0.189246
O O13 0.504617 0.157483 0.316576
O O14 0.750000 0.553367 0.931811
O O15 0.250000 0.814712 0.740895
O O16 0.051394 0.750000 0.717444
O O17 0.033659 0.811442 0.861458
O O18 0.250000 0.700731 0.970942
O O19 0.023034 0.750000 0.005795
#
# Coordination Sequence:
#
# PCOD8239022 Si02
#       7
#     8   8   8   8   8   8   8
#     4   8  16  28  41  59  82 106 134 169 209 249
#     4  10  16  24  41  59  78 111 145 166 193 239
#     4   9  18  33  48  63  84 108 139 181 223 265
#     4   9  17  28  42  60  85 115 142 172 214 258
#     4   9  16  26  37  54  85 114 133 164 205 237
#     4   9  16  26  40  60  87 115 144 178 207 235
#     4   8  14  23  35  55  83 111 140 173 199 224
#
# _framework density 15.191668999999999
#
# number of rings (size 3 to 8) (size 9 to 14) (size 15 to 20)
#    0.000    3.143    1.429    3.000    0.000    0.857 
#    0.000    2.857    0.000    0.429    0.000    1.000 
#    0.000    3.429    0.000    0.000    0.000    0.000 
#
# Total GULP energy -693768.535219 kJ/mol
# GULP energy per Si atom -12388.723843 kJ/mol
# Density = 1.515709 g / cm^3
# Si number density = 15.191669 Si / 1000 Ang^3
#
#
#
# Elastic Constant Matrix: (Units=GPa)
#
#
# Indices 1 2 3 4 5 6 
#
# 1 37.2184 37.4858 31.7574 0.0000 0.0000 0.0000
# 2 37.4858 112.4133 59.8503 0.0000 0.0000 0.0000
# 3 31.7574 59.8503 89.1815 0.0000 0.0000 0.0000
# 4 0.0000 0.0000 0.0000 17.6696 0.0000 0.0000
# 5 0.0000 0.0000 0.0000 0.0000 17.3230 0.0000
# 6 0.0000 0.0000 0.0000 0.0000 0.0000 21.3137
#
#
#
# Elastic Compliance Matrix: (Units=1/GPa)
#
#
# Indices 1 2 3 4 5 6 
#
# 1 0.044865 -0.010043 -0.009236 0.000000 0.000000 0.000000
# 2 -0.010043 0.016090 -0.007221 0.000000 0.000000 0.000000
# 3 -0.009236 -0.007221 0.019348 0.000000 0.000000 0.000000
# 4 0.000000 0.000000 0.000000 0.056594 0.000000 0.000000
# 5 0.000000 0.000000 0.000000 0.000000 0.057727 0.000000
# 6 0.000000 0.000000 0.000000 0.000000 0.000000 0.046918
#
#
# Mechanical properties :
#
#
# Convention : Reuss Voigt Hill
#
# Bulk Modulus (GPa) = 36.62861 55.22223 45.92542
# Shear Modulus (GPa) = 16.46661 18.57589 17.52125
#
# Velocity S-wave (km/s) = 3.29587 3.50060 3.39978
# Velocity P-wave (km/s) = 6.21667 7.26417 6.76074
#
# Compressibility (1/GPa) = 0.02730106
#
# Stress axis : x y z
#
# Youngs Moduli (GPa) = 22.28911 62.15179 51.68381
#
# Poissons Ratio (x) = 0.62422 0.47736
# Poissons Ratio (y) = 0.22386 0.37323
# Poissons Ratio (z) = 0.20587 0.44882
#
# Static dielectric constant tensor:
#      x y z
#    x 2.664100 0.000000 0.000000 
#    y 0.000000 3.221910 0.000000 
#    z 0.000000 0.000000 2.685410 
# 
# 
# High freq. dielectric constant tensor:
#      x y z
#    x 1.558480 0.000000 0.000000 
#    y 0.000000 1.586100 0.000000 
#    z 0.000000 0.000000 1.542760 
# 
# From -- ./inp_files/18964.got.cif
#   From: 2010.03.12/outbox.cif.g09.slc.cpg/sg59_10_cif.got.tgz:18964.got - 2010.04.16 16:29:54.
