data_PCOD8239416
_publ_section_title
;
Structure prediction by ZEFSAII (Michael W. Deem and Ramdas Pophale) SiO2 
 PCOD8239416
Probable space group: P M M N
;
_chemical_formula_sum "Si O2"
_cell_formula_units_Z 64
_cell_length_a 8.728686
_cell_length_b 24.074374
_cell_length_c 16.963415
_cell_angle_alpha 90.000000
_cell_angle_beta 90.000000
_cell_angle_gamma 90.000000
_cell_volume 3564.652186
_symmetry_space_group_name_H-M "P M M N"
_symmetry_group_IT_number 59
_space_group.IT_coordinate_system_code '2'
_symmetry_cell_setting 'orthorhombic'
loop_
_space_group_symop_operation_xyz
x,y,z
1/2-x,1/2-y,z
1/2+x,-y,-z
-x,1/2+y,-z
-x,-y,-z
1/2+x,1/2+y,-z
1/2-x,y,z
x,1/2-y,z
loop_
_atom_site_type_symbol
_atom_site_label
_atom_site_fract_x
_atom_site_fract_y
_atom_site_fract_z
Si Si1 0.431785 0.022264 0.817700
Si Si2 0.568008 0.911240 0.857485
Si Si3 0.066589 0.687548 0.421649
Si Si4 0.917005 0.315645 0.409249
Si Si5 0.070356 0.619795 0.272882
Si Si6 0.426399 0.312900 0.861176
Si Si7 0.432758 0.686527 0.761200
Si Si8 0.427753 0.411457 0.967323
O O1 0.250000 0.018464 0.816710
O O2 0.483699 0.062464 0.746689
O O3 0.495920 0.046796 0.901111
O O4 0.504045 0.961648 0.804543
O O5 0.750000 0.911126 0.856481
O O6 0.509518 0.852677 0.825459
O O7 0.499477 0.919202 0.946156
O O8 0.250000 0.688552 0.425662
O O9 0.008129 0.750000 0.400693
O O10 0.999512 0.668129 0.507927
O O11 0.010129 0.643497 0.356554
O O12 0.750000 0.344329 0.408865
O O13 0.894992 0.250000 0.409711
O O14 0.998607 0.331283 0.326123
O O15 0.250000 0.607851 0.274579
O O16 0.035052 0.666997 0.208810
O O17 0.250000 0.320744 0.834212
O O18 0.466323 0.250000 0.882519
O O19 0.458612 0.348364 0.939737
O O20 0.250000 0.679963 0.762428
O O21 0.479067 0.750000 0.780926
O O22 0.250000 0.424309 0.973972
#
# Coordination Sequence:
#
# PCOD8239416 Si02
#       8
#     8   8   8   8   8   8   8   8
#     4  10  20  36  53  67  90 124 161 196 233 281
#     4  11  21  33  52  75  95 117 152 198 244 283
#     4   8  13  22  41  71 101 126 154 190 231 273
#     4   7  11  23  44  68  94 125 158 188 221 268
#     4  10  18  28  45  71 100 125 155 197 239 276
#     4   9  17  30  46  64  93 132 165 189 223 278
#     4   9  18  33  52  74 100 128 157 188 226 277
#     4   8  17  32  49  69  91 120 158 199 239 278
#
# _framework density 17.954066999999998
#
# number of rings (size 3 to 8) (size 9 to 14) (size 15 to 20)
#    0.000    3.000    0.000    4.125    0.000    1.500 
#    0.000    6.875    0.000    2.250    0.000    3.500 
#    0.000    0.000    0.000    0.000    0.000    0.000 
#
# Total GULP energy -792963.811795 kJ/mol
# GULP energy per Si atom -12390.059559 kJ/mol
# Density = 1.791320 g / cm^3
# Si number density = 17.954067 Si / 1000 Ang^3
#
#
#
# Elastic Constant Matrix: (Units=GPa)
#
#
# Indices 1 2 3 4 5 6 
#
# 1 39.4379 26.4871 21.5910 0.0000 0.0000 0.0000
# 2 26.4871 102.1080 36.5414 0.0000 0.0000 0.0000
# 3 21.5910 36.5414 93.0993 0.0000 0.0000 0.0000
# 4 0.0000 0.0000 0.0000 18.9672 0.0000 0.0000
# 5 0.0000 0.0000 0.0000 0.0000 13.6244 0.0000
# 6 0.0000 0.0000 0.0000 0.0000 0.0000 25.3800
#
#
#
# Elastic Compliance Matrix: (Units=1/GPa)
#
#
# Indices 1 2 3 4 5 6 
#
# 1 0.032538 -0.006678 -0.004925 0.000000 0.000000 0.000000
# 2 -0.006678 0.012765 -0.003461 0.000000 0.000000 0.000000
# 3 -0.004925 -0.003461 0.013242 0.000000 0.000000 0.000000
# 4 0.000000 0.000000 0.000000 0.052723 0.000000 0.000000
# 5 0.000000 0.000000 0.000000 0.000000 0.073398 0.000000
# 6 0.000000 0.000000 0.000000 0.000000 0.000000 0.039401
#
#
# Mechanical properties :
#
#
# Convention : Reuss Voigt Hill
#
# Bulk Modulus (GPa) = 35.19166 44.87600 40.03383
# Shear Modulus (GPa) = 18.96341 21.59603 20.27972
#
# Velocity S-wave (km/s) = 3.25348 3.47197 3.36450
# Velocity P-wave (km/s) = 5.81008 6.41264 6.11878
#
# Compressibility (1/GPa) = 0.02841582
#
# Stress axis : x y z
#
# Youngs Moduli (GPa) = 30.73377 78.34204 75.51766
#
# Poissons Ratio (x) = 0.52316 0.37191
# Poissons Ratio (y) = 0.20524 0.26140
# Poissons Ratio (z) = 0.15136 0.27117
#
# Static dielectric constant tensor:
#      x y z
#    x 2.942830 0.000000 0.000000 
#    y 0.000000 3.243100 0.000000 
#    z 0.000000 0.000000 3.740150 
# 
# 
# High freq. dielectric constant tensor:
#      x y z
#    x 1.660310 0.000000 0.000000 
#    y 0.000000 1.679190 0.000000 
#    z 0.000000 0.000000 1.695160 
# 
# From -- ./inp_files/26474.got.cif
#   From: 2010.03.12/outbox.cif.g09.slc.cpg/sg59_14_cif.got.tgz:26474.got - 2010.04.16 16:29:54.
