data_PCOD8239410
_publ_section_title
;
Structure prediction by ZEFSAII (Michael W. Deem and Ramdas Pophale) SiO2 
 PCOD8239410
Probable space group: P M M N
;
_chemical_formula_sum "Si O2"
_cell_formula_units_Z 64
_cell_length_a 9.368741
_cell_length_b 30.122523
_cell_length_c 14.369634
_cell_angle_alpha 90.000000
_cell_angle_beta 90.000000
_cell_angle_gamma 90.000000
_cell_volume 4055.256082
_symmetry_space_group_name_H-M "P M M N"
_symmetry_group_IT_number 59
_space_group.IT_coordinate_system_code '2'
_symmetry_cell_setting 'orthorhombic'
loop_
_space_group_symop_operation_xyz
x,y,z
1/2-x,1/2-y,z
1/2+x,-y,-z
-x,1/2+y,-z
-x,-y,-z
1/2+x,1/2+y,-z
1/2-x,y,z
x,1/2-y,z
loop_
_atom_site_type_symbol
_atom_site_label
_atom_site_fract_x
_atom_site_fract_y
_atom_site_fract_z
Si Si1 0.414061 0.199485 0.634036
Si Si2 0.415558 0.622832 0.428681
Si Si3 0.580444 0.701693 0.154749
Si Si4 0.915667 0.889745 0.081601
Si Si5 0.416716 0.462913 0.058039
Si Si6 0.588893 0.973167 0.731790
Si Si7 0.591287 0.425201 0.756172
Si Si8 0.420033 0.960146 0.552667
O O1 0.250000 0.185497 0.629734
O O2 0.436169 0.250000 0.601651
O O3 0.498384 0.168736 0.560268
O O4 0.472435 0.193339 0.739717
O O5 0.250000 0.633800 0.436340
O O6 0.459964 0.605680 0.327104
O O7 0.459031 0.586313 0.504235
O O8 0.750000 0.703950 0.154648
O O9 0.521916 0.750000 0.119473
O O10 0.525321 0.661192 0.088413
O O11 0.750000 0.889008 0.105531
O O12 0.986245 0.921241 0.157815
O O13 0.945039 0.913262 0.982585
O O14 0.250000 0.475821 0.053005
O O15 0.467608 0.461405 0.164816
O O16 0.500000 0.500000 0.000000
O O17 0.750000 0.954403 0.716518
O O18 0.478397 0.953531 0.657222
O O19 0.590176 0.025519 0.716346
O O20 0.750000 0.412324 0.789990
O O21 0.250000 0.969404 0.552029
O O22 0.500000 0.000000 0.500000
#
# Coordination Sequence:
#
# PCOD8239410 Si02
#       8
#     8   8   8   8   8   8   8   8
#     4   9  17  29  46  69  94 121 154 189 228 278
#     4  10  20  32  45  66  94 123 157 192 232 280
#     4   8  14  25  41  63  92 119 145 184 226 264
#     4  10  18  28  45  69  90 120 163 192 220 274
#     4  10  20  31  46  68  94 122 158 196 232 278
#     4  10  20  35  47  63  95 129 159 199 239 275
#     4  10  18  29  44  63  94 128 153 188 235 273
#     4  11  22  35  50  70  94 124 163 201 236 285
#
# _framework density 15.781988
#
# number of rings (size 3 to 8) (size 9 to 14) (size 15 to 20)
#    0.000    2.250    3.750    1.125    0.000    2.250 
#    0.000    0.000    0.000    0.375    0.000    0.875 
#    0.000    3.000    0.000    0.000    0.000    0.000 
#
# Total GULP energy -793218.013182 kJ/mol
# GULP energy per Si atom -12394.031456 kJ/mol
# Density = 1.574607 g / cm^3
# Si number density = 15.781988 Si / 1000 Ang^3
#
#
#
# Elastic Constant Matrix: (Units=GPa)
#
#
# Indices 1 2 3 4 5 6 
#
# 1 49.8402 38.8836 43.6493 0.0000 0.0000 0.0000
# 2 38.8836 101.8426 53.6479 0.0000 0.0000 0.0000
# 3 43.6493 53.6479 78.3452 0.0000 0.0000 0.0000
# 4 0.0000 0.0000 0.0000 22.6839 0.0000 0.0000
# 5 0.0000 0.0000 0.0000 0.0000 22.6195 0.0000
# 6 0.0000 0.0000 0.0000 0.0000 0.0000 22.5254
#
#
#
# Elastic Compliance Matrix: (Units=1/GPa)
#
#
# Indices 1 2 3 4 5 6 
#
# 1 0.041188 -0.005690 -0.019051 0.000000 0.000000 0.000000
# 2 -0.005690 0.016146 -0.007886 0.000000 0.000000 0.000000
# 3 -0.019051 -0.007886 0.028778 0.000000 0.000000 0.000000
# 4 0.000000 0.000000 0.000000 0.044084 0.000000 0.000000
# 5 0.000000 0.000000 0.000000 0.000000 0.044210 0.000000
# 6 0.000000 0.000000 0.000000 0.000000 0.000000 0.044394
#
#
# Mechanical properties :
#
#
# Convention : Reuss Voigt Hill
#
# Bulk Modulus (GPa) = 47.94379 55.82106 51.88242
# Shear Modulus (GPa) = 17.18177 19.82224 18.50201
#
# Velocity S-wave (km/s) = 3.30312 3.54786 3.42767
# Velocity P-wave (km/s) = 6.70762 7.22703 6.97216
#
# Compressibility (1/GPa) = 0.02085776
#
# Stress axis : x y z
#
# Youngs Moduli (GPa) = 24.27891 61.93673 34.74871
#
# Poissons Ratio (x) = 0.35242 0.66200
# Poissons Ratio (y) = 0.13815 0.27402
# Poissons Ratio (z) = 0.46254 0.48842
#
# Static dielectric constant tensor:
#      x y z
#    x 2.932200 0.000000 0.000000 
#    y 0.000000 3.194540 0.000000 
#    z 0.000000 0.000000 2.905530 
# 
# 
# High freq. dielectric constant tensor:
#      x y z
#    x 1.597170 0.000000 0.000000 
#    y 0.000000 1.602610 0.000000 
#    z 0.000000 0.000000 1.578700 
# 
# From -- ./inp_files/21919.got.cif
#   From: 2010.03.12/outbox.cif.g09.slc.cpg/sg59_11_cif.got.tgz:21919.got - 2010.04.16 16:29:54.
