data_PCOD8239221
_publ_section_title
;
Structure prediction by ZEFSAII (Michael W. Deem and Ramdas Pophale) SiO2 
 PCOD8239221
Probable space group: P M M N
;
_chemical_formula_sum "Si O2"
_cell_formula_units_Z 64
_cell_length_a 13.922488
_cell_length_b 18.806630
_cell_length_c 15.812099
_cell_angle_alpha 90.000000
_cell_angle_beta 90.000000
_cell_angle_gamma 90.000000
_cell_volume 4140.162214
_symmetry_space_group_name_H-M "P M M N"
_symmetry_group_IT_number 59
_space_group.IT_coordinate_system_code '2'
_symmetry_cell_setting 'orthorhombic'
loop_
_space_group_symop_operation_xyz
x,y,z
1/2-x,1/2-y,z
1/2+x,-y,-z
-x,1/2+y,-z
-x,-y,-z
1/2+x,1/2+y,-z
1/2-x,y,z
x,1/2-y,z
loop_
_atom_site_type_symbol
_atom_site_label
_atom_site_fract_x
_atom_site_fract_y
_atom_site_fract_z
Si Si1 0.643775 0.331823 0.667673
Si Si2 0.639951 0.666421 0.411764
Si Si3 0.041821 0.166283 0.758217
Si Si4 0.136334 0.327760 0.103465
Si Si5 0.548339 0.584566 0.564249
Si Si6 0.860009 0.665235 0.713311
Si Si7 0.141449 0.335198 0.922892
Si Si8 0.140375 0.557880 0.479726
O O1 0.750000 0.342747 0.706236
O O2 0.624610 0.250000 0.642318
O O3 0.568245 0.355888 0.739549
O O4 0.630793 0.375616 0.582432
O O5 0.750000 0.645917 0.426219
O O6 0.622313 0.750000 0.422113
O O7 0.608326 0.639640 0.319005
O O8 0.576629 0.626845 0.480398
O O9 0.054125 0.250000 0.766535
O O10 0.075501 0.132750 0.847585
O O11 0.250000 0.318360 0.099221
O O12 0.087844 0.250000 0.106161
O O13 0.111222 0.365672 0.193058
O O14 0.104960 0.365955 0.014886
O O15 0.567187 0.630775 0.647243
O O16 0.610374 0.512738 0.571486
O O17 0.433891 0.568069 0.557924
O O18 0.750000 0.644918 0.690365
O O19 0.871435 0.750000 0.711141
O O20 0.250000 0.359870 0.903805
O O21 0.136759 0.250000 0.927450
O O22 0.250000 0.551195 0.513732
#
# Coordination Sequence:
#
# PCOD8239221 Si02
#       8
#     8   8   8   8   8   8   8   8
#     4   9  17  30  45  58  77 106 140 179 213 241
#     4  10  18  26  38  60  90 116 136 163 202 247
#     4   9  15  23  36  57  81 108 138 164 199 246
#     4   7  11  20  34  55  84 114 139 164 199 241
#     4  11  20  30  45  62  83 111 141 172 206 250
#     4   9  16  26  42  65  91 116 142 173 208 246
#     4   8  12  19  33  55  85 114 134 159 199 246
#     4  10  21  34  45  59  81 108 142 178 210 247
#
# _framework density 15.458330999999999
#
# number of rings (size 3 to 8) (size 9 to 14) (size 15 to 20)
#    0.000    2.875    1.250    3.375    0.000    3.000 
#    0.000    0.000    0.000    0.000    0.000    1.750 
#    0.000    3.000    0.000    0.000    0.000    0.000 
#
# Total GULP energy -792859.985277 kJ/mol
# GULP energy per Si atom -12388.437270 kJ/mol
# Density = 1.542315 g / cm^3
# Si number density = 15.458331 Si / 1000 Ang^3
#
#
#
# Elastic Constant Matrix: (Units=GPa)
#
#
# Indices 1 2 3 4 5 6 
#
# 1 97.1210 21.5034 43.6699 0.0000 0.0000 0.0000
# 2 21.5034 31.4481 19.7198 0.0000 0.0000 0.0000
# 3 43.6699 19.7198 110.1400 0.0000 0.0000 0.0000
# 4 0.0000 0.0000 0.0000 -0.5071 0.0000 0.0000
# 5 0.0000 0.0000 0.0000 0.0000 16.0803 0.0000
# 6 0.0000 0.0000 0.0000 0.0000 0.0000 15.1463
#
#
#
# Elastic Compliance Matrix: (Units=1/GPa)
#
#
# Indices 1 2 3 4 5 6 
#
# 1 0.013680 -0.006706 -0.004224 0.000000 0.000000 0.000000
# 2 -0.006706 0.039107 -0.004343 0.000000 0.000000 0.000000
# 3 -0.004224 -0.004343 0.011532 0.000000 0.000000 0.000000
# 4 0.000000 0.000000 0.000000 -1.972173 0.000000 0.000000
# 5 0.000000 0.000000 0.000000 0.000000 0.062188 0.000000
# 6 0.000000 0.000000 0.000000 0.000000 0.000000 0.066023
#
#
# Mechanical properties :
#
#
# Convention : Reuss Voigt Hill
#
# Bulk Modulus (GPa) = 29.60845 45.38835 37.49840
# Shear Modulus (GPa) = -2.87713 16.39830 6.76058
#
# Velocity S-wave (km/s) = -1.36574 3.26054 2.09354
# Velocity P-wave (km/s) = 4.08758 6.60305 5.49129
#
# Compressibility (1/GPa) = 0.03377415
#
# Stress axis : x y z
#
# Youngs Moduli (GPa) = 73.09822 25.57082 86.71864
#
# Poissons Ratio (x) = 0.17147 0.36626
# Poissons Ratio (y) = 0.49018 0.37662
# Poissons Ratio (z) = 0.30873 0.11106
#
# Static dielectric constant tensor:
#      x y z
#    x 3.005490 0.000000 0.000000 
#    y 0.000000 2.670620 0.000000 
#    z 0.000000 0.000000 3.237440 
# 
# 
# High freq. dielectric constant tensor:
#      x y z
#    x 1.580150 0.000000 0.000000 
#    y 0.000000 1.552320 0.000000 
#    z 0.000000 0.000000 1.588930 
# 
# From -- ./inp_files/23496.got.cif
#   From: 2010.03.12/outbox.cif.g09.slc.cpg/sg59_12_cif.got.tgz:23496.got - 2010.04.16 16:29:54.
