data_PCOD8239955
_publ_section_title
;
Structure prediction by ZEFSAII (Michael W. Deem and Ramdas Pophale) SiO2 
 PCOD8239955
Probable space group: P M M N
;
_chemical_formula_sum "Si O2"
_cell_formula_units_Z 48
_cell_length_a 20.337343
_cell_length_b 8.818438
_cell_length_c 14.463904
_cell_angle_alpha 90.000000
_cell_angle_beta 90.000000
_cell_angle_gamma 90.000000
_cell_volume 2594.008589
_symmetry_space_group_name_H-M "P M M N"
_symmetry_group_IT_number 59
_space_group.IT_coordinate_system_code '2'
_symmetry_cell_setting 'orthorhombic'
loop_
_space_group_symop_operation_xyz
x,y,z
1/2-x,1/2-y,z
1/2+x,-y,-z
-x,1/2+y,-z
-x,-y,-z
1/2+x,1/2+y,-z
1/2-x,y,z
x,1/2-y,z
loop_
_atom_site_type_symbol
_atom_site_label
_atom_site_fract_x
_atom_site_fract_y
_atom_site_fract_z
Si Si1 0.822784 0.070096 0.061767
Si Si2 0.614845 0.424736 0.251857
Si Si3 0.938980 0.572178 0.553216
Si Si4 0.057881 0.570943 0.059130
Si Si5 0.023917 0.571509 0.263372
Si Si6 0.824834 0.423000 0.445678
O O1 0.750000 0.001649 0.043558
O O2 0.818472 0.250000 0.064108
O O3 0.849579 0.012274 0.160376
O O4 0.871942 0.015216 0.980901
O O5 0.592621 0.250000 0.239283
O O6 0.551822 0.526416 0.272352
O O7 0.665043 0.443489 0.336227
O O8 0.950540 0.750000 0.555124
O O9 0.934226 0.510530 0.657430
O O10 0.871054 0.534723 0.502775
O O11 0.000000 0.500000 0.500000
O O12 0.050440 0.750000 0.050536
O O13 0.053025 0.517638 0.165047
O O14 0.000000 0.500000 0.000000
O O15 0.030637 0.750000 0.276869
O O16 0.750000 0.465421 0.469225
O O17 0.840789 0.250000 0.474270
#
# Coordination Sequence:
#
# PCOD8239955 Si02
#       6
#     8   8   8   8   8   8
#     4   9  17  31  53  82 113 146 186 229 275 331
#     4  10  18  31  56  85 114 146 182 228 282 341
#     4  12  24  39  60  84 113 150 193 240 287 343
#     4  10  20  34  55  82 112 146 187 232 278 332
#     4  11  22  35  54  84 117 148 189 238 283 337
#     4  10  21  37  58  87 120 151 186 231 286 347
#
# _framework density 18.504179000000001
#
# number of rings (size 3 to 8) (size 9 to 14) (size 15 to 20)
#    0.000    1.667    3.333    2.500    0.000    3.000 
#    0.000    0.833    0.000    6.000    0.000    0.000 
#    0.000    0.000    0.000    0.000    0.000    0.000 
#
# Total GULP energy -595317.933031 kJ/mol
# GULP energy per Si atom -12402.456938 kJ/mol
# Density = 1.846206 g / cm^3
# Si number density = 18.504179 Si / 1000 Ang^3
#
#
#
# Elastic Constant Matrix: (Units=GPa)
#
#
# Indices 1 2 3 4 5 6 
#
# 1 111.4133 27.0400 53.5007 0.0000 0.0000 0.0000
# 2 27.0400 69.5384 44.7506 0.0000 0.0000 0.0000
# 3 53.5007 44.7506 137.4574 0.0000 0.0000 0.0000
# 4 0.0000 0.0000 0.0000 24.1220 0.0000 0.0000
# 5 0.0000 0.0000 0.0000 0.0000 33.0179 0.0000
# 6 0.0000 0.0000 0.0000 0.0000 0.0000 22.5809
#
#
#
# Elastic Compliance Matrix: (Units=1/GPa)
#
#
# Indices 1 2 3 4 5 6 
#
# 1 0.011248 -0.001969 -0.003737 0.000000 0.000000 0.000000
# 2 -0.001969 0.018537 -0.005268 0.000000 0.000000 0.000000
# 3 -0.003737 -0.005268 0.010445 0.000000 0.000000 0.000000
# 4 0.000000 0.000000 0.000000 0.041456 0.000000 0.000000
# 5 0.000000 0.000000 0.000000 0.000000 0.030287 0.000000
# 6 0.000000 0.000000 0.000000 0.000000 0.000000 0.044285
#
#
# Mechanical properties :
#
#
# Convention : Reuss Voigt Hill
#
# Bulk Modulus (GPa) = 54.70258 63.22127 58.96193
# Shear Modulus (GPa) = 27.12986 28.81869 27.97427
#
# Velocity S-wave (km/s) = 3.83318 3.95069 3.89238
# Velocity P-wave (km/s) = 7.01552 7.41962 7.22040
#
# Compressibility (1/GPa) = 0.01828067
#
# Stress axis : x y z
#
# Youngs Moduli (GPa) = 88.90556 53.94732 95.74312
#
# Poissons Ratio (x) = 0.10622 0.35778
# Poissons Ratio (y) = 0.17505 0.50442
# Poissons Ratio (z) = 0.33223 0.28422
#
# Static dielectric constant tensor:
#      x y z
#    x 3.490710 0.000000 0.000000 
#    y 0.000000 3.234060 0.000000 
#    z 0.000000 0.000000 3.710110 
# 
# 
# High freq. dielectric constant tensor:
#      x y z
#    x 1.714070 0.000000 0.000000 
#    y 0.000000 1.698870 0.000000 
#    z 0.000000 0.000000 1.726280 
# 
# From -- ./inp_files/20732.got.cif
#   From: 2010.03.12/outbox.cif.g09.slc.cpg/sg59_11_cif.got.tgz:20732.got - 2010.04.16 16:29:54.
