data_PCOD8239800
_publ_section_title
;
Structure prediction by ZEFSAII (Michael W. Deem and Ramdas Pophale) SiO2 
 PCOD8239800
Probable space group: P M M N
;
_chemical_formula_sum "Si O2"
_cell_formula_units_Z 64
_cell_length_a 13.104126
_cell_length_b 23.636483
_cell_length_c 11.126787
_cell_angle_alpha 90.000000
_cell_angle_beta 90.000000
_cell_angle_gamma 90.000000
_cell_volume 3446.360394
_symmetry_space_group_name_H-M "P M M N"
_symmetry_group_IT_number 59
_space_group.IT_coordinate_system_code '2'
_symmetry_cell_setting 'orthorhombic'
loop_
_space_group_symop_operation_xyz
x,y,z
1/2-x,1/2-y,z
1/2+x,-y,-z
-x,1/2+y,-z
-x,-y,-z
1/2+x,1/2+y,-z
1/2-x,y,z
x,1/2-y,z
loop_
_atom_site_type_symbol
_atom_site_label
_atom_site_fract_x
_atom_site_fract_y
_atom_site_fract_z
Si Si1 0.129174 0.813849 0.683888
Si Si2 0.364281 0.913474 0.102562
Si Si3 0.435873 0.813702 0.954205
Si Si4 0.636083 0.685640 0.084183
Si Si5 0.366566 0.524419 0.866247
Si Si6 0.048437 0.929092 0.629290
Si Si7 0.867825 0.962078 0.481052
Si Si8 0.935625 0.587158 0.234641
O O1 0.250000 0.820407 0.680905
O O2 0.097922 0.750000 0.641031
O O3 0.088628 0.825576 0.816819
O O4 0.079025 0.863460 0.601986
O O5 0.250000 0.924852 0.151194
O O6 0.442132 0.917383 0.213878
O O7 0.367178 0.852195 0.040086
O O8 0.397703 0.959184 0.001575
O O9 0.407157 0.750000 0.989434
O O10 0.556411 0.826209 0.976154
O O11 0.750000 0.671588 0.037106
O O12 0.628764 0.750000 0.129001
O O13 0.607004 0.648495 0.200238
O O14 0.250000 0.542578 0.840965
O O15 0.436679 0.557220 0.769972
O O16 0.378485 0.457364 0.851756
O O17 0.930165 0.941676 0.598109
O O18 0.117343 0.971342 0.547876
O O19 0.750000 0.949053 0.504098
O O20 0.911639 0.924469 0.372433
#
# Coordination Sequence:
#
# PCOD8239800 Si02
#       8
#     8   8   8   8   8   8   8   8
#     4  10  18  30  52  79 105 133 166 205 254 312
#     4  10  19  30  47  73 106 135 160 198 247 302
#     4   9  17  28  46  73 104 136 168 201 243 303
#     4   9  17  30  48  70  97 132 175 214 247 291
#     4  10  18  31  52  74 100 132 162 201 254 304
#     4  10  19  34  56  78 101 132 174 218 258 307
#     4  10  21  37  57  75  99 136 177 219 261 305
#     4  10  19  33  51  71  98 130 170 208 247 296
#
# _framework density 18.570315999999998
#
# number of rings (size 3 to 8) (size 9 to 14) (size 15 to 20)
#    0.000    2.250    1.250    3.750    0.000    0.750 
#    0.000    8.125    0.000    1.875    0.000    0.000 
#    0.000    0.000    0.000    0.000    0.000    0.000 
#
# Total GULP energy -793398.326632 kJ/mol
# GULP energy per Si atom -12396.848854 kJ/mol
# Density = 1.852805 g / cm^3
# Si number density = 18.570316 Si / 1000 Ang^3
#
#
#
# Elastic Constant Matrix: (Units=GPa)
#
#
# Indices 1 2 3 4 5 6 
#
# 1 126.7004 29.0830 38.4206 0.0000 0.0000 0.0000
# 2 29.0830 98.8224 18.2155 0.0000 0.0000 0.0000
# 3 38.4206 18.2155 31.7181 0.0000 0.0000 0.0000
# 4 0.0000 0.0000 0.0000 18.0168 0.0000 0.0000
# 5 0.0000 0.0000 0.0000 0.0000 25.9696 0.0000
# 6 0.0000 0.0000 0.0000 0.0000 0.0000 23.8276
#
#
#
# Elastic Compliance Matrix: (Units=1/GPa)
#
#
# Indices 1 2 3 4 5 6 
#
# 1 0.012562 -0.000998 -0.014644 0.000000 0.000000 0.000000
# 2 -0.000998 0.011396 -0.005336 0.000000 0.000000 0.000000
# 3 -0.014644 -0.005336 0.052331 0.000000 0.000000 0.000000
# 4 0.000000 0.000000 0.000000 0.055504 0.000000 0.000000
# 5 0.000000 0.000000 0.000000 0.000000 0.038507 0.000000
# 6 0.000000 0.000000 0.000000 0.000000 0.000000 0.041968
#
#
# Mechanical properties :
#
#
# Convention : Reuss Voigt Hill
#
# Bulk Modulus (GPa) = 29.12601 47.63100 38.37851
# Shear Modulus (GPa) = 18.82046 24.99756 21.90901
#
# Velocity S-wave (km/s) = 3.18696 3.67291 3.43853
# Velocity P-wave (km/s) = 5.40930 6.60997 6.03954
#
# Compressibility (1/GPa) = 0.03433357
#
# Stress axis : x y z
#
# Youngs Moduli (GPa) = 79.60341 87.74689 19.10924
#
# Poissons Ratio (x) = 0.08755 0.27983
# Poissons Ratio (y) = 0.07943 0.10197
# Poissons Ratio (z) = 1.16570 0.46824
#
# Static dielectric constant tensor:
#      x y z
#    x 3.526650 0.000000 0.000000 
#    y 0.000000 3.706000 0.000000 
#    z 0.000000 0.000000 3.023500 
# 
# 
# High freq. dielectric constant tensor:
#      x y z
#    x 1.724190 0.000000 0.000000 
#    y 0.000000 1.732230 0.000000 
#    z 0.000000 0.000000 1.677190 
# 
# From -- ./inp_files/16259.got.cif
#   From: 2010.03.12/outbox.cif.g09.slc.cpg/sg59_9_cif.got.tgz:16259.got - 2010.04.16 16:29:54.
