data_PCOD8239491
_publ_section_title
;
Structure prediction by ZEFSAII (Michael W. Deem and Ramdas Pophale) SiO2 
 PCOD8239491
Probable space group: P M M N
;
_chemical_formula_sum "Si O2"
_cell_formula_units_Z 56
_cell_length_a 8.671434
_cell_length_b 24.541674
_cell_length_c 16.262805
_cell_angle_alpha 90.000000
_cell_angle_beta 90.000000
_cell_angle_gamma 90.000000
_cell_volume 3460.912029
_symmetry_space_group_name_H-M "P M M N"
_symmetry_group_IT_number 59
_space_group.IT_coordinate_system_code '2'
_symmetry_cell_setting 'orthorhombic'
loop_
_space_group_symop_operation_xyz
x,y,z
1/2-x,1/2-y,z
1/2+x,-y,-z
-x,1/2+y,-z
-x,-y,-z
1/2+x,1/2+y,-z
1/2-x,y,z
x,1/2-y,z
loop_
_atom_site_type_symbol
_atom_site_label
_atom_site_fract_x
_atom_site_fract_y
_atom_site_fract_z
Si Si1 0.573363 0.812818 0.721672
Si Si2 0.567926 0.011453 0.873374
Si Si3 0.569317 0.097204 0.384319
Si Si4 0.569516 0.419269 0.023498
Si Si5 0.067058 0.055468 0.536309
Si Si6 0.928772 0.189202 0.104616
Si Si7 0.567228 0.011724 0.688895
O O1 0.750000 0.830636 0.709042
O O2 0.547374 0.750000 0.699232
O O3 0.463968 0.846526 0.661433
O O4 0.529439 0.823960 0.815765
O O5 0.750000 0.007666 0.873439
O O6 0.505687 0.953120 0.902519
O O7 0.509539 0.024151 0.781447
O O8 0.508553 0.059300 0.934948
O O9 0.750000 0.085274 0.387495
O O10 0.502499 0.102619 0.477666
O O11 0.486728 0.048546 0.335565
O O12 0.750000 0.429475 0.029535
O O13 0.528752 0.355259 0.034621
O O14 0.250000 0.056809 0.533144
O O15 0.008665 0.058347 0.630644
O O16 0.000000 0.000000 0.500000
O O17 0.750000 0.184392 0.129904
O O18 0.965508 0.250000 0.070524
O O19 0.750000 0.014968 0.680359
#
# Coordination Sequence:
#
# PCOD8239491 Si02
#       7
#     8   8   8   8   8   8   8
#     4  10  20  32  45  63  88 116 146 178 212 253
#     4   9  18  29  42  61  86 116 146 178 217 260
#     4  11  20  30  45  64  88 116 144 176 215 256
#     4   9  17  29  43  61  86 114 145 179 216 259
#     4  10  18  29  44  63  87 112 142 175 210 254
#     4   9  17  29  45  64  86 113 145 180 216 255
#     4  10  18  29  44  63  88 116 147 179 215 259
#
# _framework density 16.180707000000002
#
# number of rings (size 3 to 8) (size 9 to 14) (size 15 to 20)
#    0.000    2.286    0.000    6.000    0.000    4.857 
#    0.000    0.000    0.000    0.000    0.000    1.000 
#    0.000    3.429    0.000    0.000    0.000    0.000 
#
# Total GULP energy -694198.977565 kJ/mol
# GULP energy per Si atom -12396.410314 kJ/mol
# Density = 1.614388 g / cm^3
# Si number density = 16.180707 Si / 1000 Ang^3
#
#
#
# Elastic Constant Matrix: (Units=GPa)
#
#
# Indices 1 2 3 4 5 6 
#
# 1 55.2259 15.6189 30.4894 0.0000 0.0000 0.0000
# 2 15.6189 80.5502 51.5037 0.0000 0.0000 0.0000
# 3 30.4894 51.5037 122.7269 0.0000 0.0000 0.0000
# 4 0.0000 0.0000 0.0000 26.0161 0.0000 0.0000
# 5 0.0000 0.0000 0.0000 0.0000 23.0081 0.0000
# 6 0.0000 0.0000 0.0000 0.0000 0.0000 20.0802
#
#
#
# Elastic Compliance Matrix: (Units=1/GPa)
#
#
# Indices 1 2 3 4 5 6 
#
# 1 0.021046 -0.001008 -0.004805 0.000000 0.000000 0.000000
# 2 -0.001008 0.017016 -0.006890 0.000000 0.000000 0.000000
# 3 -0.004805 -0.006890 0.012234 0.000000 0.000000 0.000000
# 4 0.000000 0.000000 0.000000 0.038438 0.000000 0.000000
# 5 0.000000 0.000000 0.000000 0.000000 0.043463 0.000000
# 6 0.000000 0.000000 0.000000 0.000000 0.000000 0.049800
#
#
# Mechanical properties :
#
#
# Convention : Reuss Voigt Hill
#
# Bulk Modulus (GPa) = 40.18156 50.41410 45.29783
# Shear Modulus (GPa) = 23.18039 24.54694 23.86366
#
# Velocity S-wave (km/s) = 3.78907 3.89916 3.84451
# Velocity P-wave (km/s) = 6.63548 7.17606 6.91106
#
# Compressibility (1/GPa) = 0.02488704
#
# Stress axis : x y z
#
# Youngs Moduli (GPa) = 47.51605 58.76880 81.74222
#
# Poissons Ratio (x) = 0.05926 0.39279
# Poissons Ratio (y) = 0.04791 0.56324
# Poissons Ratio (z) = 0.22833 0.40494
#
# Static dielectric constant tensor:
#      x y z
#    x 3.108450 0.000000 0.000000 
#    y 0.000000 3.045640 0.000000 
#    z 0.000000 0.000000 3.552900 
# 
# 
# High freq. dielectric constant tensor:
#      x y z
#    x 1.632870 0.000000 0.000000 
#    y 0.000000 1.591990 0.000000 
#    z 0.000000 0.000000 1.617230 
# 
# From -- ./inp_files/26406.got.cif
#   From: 2010.03.12/outbox.cif.g09.slc.cpg/sg59_14_cif.got.tgz:26406.got - 2010.04.16 16:29:54.
