data_PCOD8239405
_publ_section_title
;
Structure prediction by ZEFSAII (Michael W. Deem and Ramdas Pophale) SiO2 
 PCOD8239405
Probable space group: P M M N
;
_chemical_formula_sum "Si O2"
_cell_formula_units_Z 64
_cell_length_a 9.349902
_cell_length_b 26.739902
_cell_length_c 16.673784
_cell_angle_alpha 90.000000
_cell_angle_beta 90.000000
_cell_angle_gamma 90.000000
_cell_volume 4168.703830
_symmetry_space_group_name_H-M "P M M N"
_symmetry_group_IT_number 59
_space_group.IT_coordinate_system_code '2'
_symmetry_cell_setting 'orthorhombic'
loop_
_space_group_symop_operation_xyz
x,y,z
1/2-x,1/2-y,z
1/2+x,-y,-z
-x,1/2+y,-z
-x,-y,-z
1/2+x,1/2+y,-z
1/2-x,y,z
x,1/2-y,z
loop_
_atom_site_type_symbol
_atom_site_label
_atom_site_fract_x
_atom_site_fract_y
_atom_site_fract_z
Si Si1 0.915406 0.376091 0.294795
Si Si2 0.915220 0.064697 0.665043
Si Si3 0.085518 0.449101 0.992337
Si Si4 0.587744 0.612815 0.465766
Si Si5 0.912736 0.963963 0.183571
Si Si6 0.582534 0.692883 0.595732
Si Si7 0.910866 0.545318 0.611349
Si Si8 0.086017 0.575152 0.866975
O O1 0.750000 0.370950 0.318395
O O2 0.934860 0.381335 0.198914
O O3 0.999305 0.327433 0.326198
O O4 0.975020 0.426564 0.333961
O O5 0.750000 0.078021 0.676082
O O6 0.987968 0.108255 0.612215
O O7 0.985289 0.062376 0.752485
O O8 0.939999 0.013314 0.617143
O O9 0.250000 0.456955 0.017013
O O10 0.074117 0.432155 0.899407
O O11 0.000000 0.500000 0.000000
O O12 0.011596 0.410889 0.055547
O O13 0.750000 0.619833 0.436065
O O14 0.538184 0.660922 0.517630
O O15 0.572311 0.562954 0.519668
O O16 0.750000 0.962725 0.215576
O O17 0.960560 0.021473 0.169890
O O18 0.750000 0.686524 0.613227
O O19 0.539091 0.750000 0.580336
O O20 0.750000 0.558353 0.641554
O O21 0.250000 0.571538 0.895480
#
# Coordination Sequence:
#
# PCOD8239405 Si02
#       8
#     8   8   8   8   8   8   8   8
#     4  10  18  28  45  68  90 114 146 183 221 261
#     4  11  20  27  40  62  86 114 150 186 216 253
#     4   9  17  27  40  57  80 113 151 185 215 249
#     4   9  18  31  45  60  82 112 142 177 221 265
#     4   9  17  29  40  55  83 119 152 181 217 252
#     4   9  19  36  53  67  86 112 143 180 223 270
#     4   9  18  30  41  58  84 116 151 180 214 256
#     4   9  17  28  41  60  86 115 148 182 215 253
#
# _framework density 15.352494999999999
#
# number of rings (size 3 to 8) (size 9 to 14) (size 15 to 20)
#    0.000    2.625    1.250    3.000    0.000    6.250 
#    0.000    0.000    0.000    0.000    0.000    0.000 
#    0.000    1.000    0.000    9.000    0.000    5.250 
#
# Total GULP energy -793348.947864 kJ/mol
# GULP energy per Si atom -12396.077310 kJ/mol
# Density = 1.531755 g / cm^3
# Si number density = 15.352495 Si / 1000 Ang^3
#
#
#
# Elastic Constant Matrix: (Units=GPa)
#
#
# Indices 1 2 3 4 5 6 
#
# 1 93.1842 33.5139 62.5302 0.0000 0.0000 0.0000
# 2 33.5139 55.6612 38.1120 0.0000 0.0000 0.0000
# 3 62.5302 38.1120 99.6764 0.0000 0.0000 0.0000
# 4 0.0000 0.0000 0.0000 12.3189 0.0000 0.0000
# 5 0.0000 0.0000 0.0000 0.0000 31.7124 0.0000
# 6 0.0000 0.0000 0.0000 0.0000 0.0000 15.7959
#
#
#
# Elastic Compliance Matrix: (Units=1/GPa)
#
#
# Indices 1 2 3 4 5 6 
#
# 1 0.019338 -0.004520 -0.010403 0.000000 0.000000 0.000000
# 2 -0.004520 0.025394 -0.006874 0.000000 0.000000 0.000000
# 3 -0.010403 -0.006874 0.019187 0.000000 0.000000 0.000000
# 4 0.000000 0.000000 0.000000 0.081176 0.000000 0.000000
# 5 0.000000 0.000000 0.000000 0.000000 0.031533 0.000000
# 6 0.000000 0.000000 0.000000 0.000000 0.000000 0.063308
#
#
# Mechanical properties :
#
#
# Convention : Reuss Voigt Hill
#
# Bulk Modulus (GPa) = 49.20146 57.42602 53.31374
# Shear Modulus (GPa) = 17.22322 19.58981 18.40652
#
# Velocity S-wave (km/s) = 3.35304 3.57599 3.46631
# Velocity P-wave (km/s) = 6.86352 7.38488 7.12897
#
# Compressibility (1/GPa) = 0.02032460
#
# Stress axis : x y z
#
# Youngs Moduli (GPa) = 51.71164 39.37892 52.11909
#
# Poissons Ratio (x) = 0.17801 0.54219
# Poissons Ratio (y) = 0.23376 0.35826
# Poissons Ratio (z) = 0.53795 0.27069
#
# Static dielectric constant tensor:
#      x y z
#    x 3.070790 0.000000 0.000000 
#    y 0.000000 2.583970 0.000000 
#    z 0.000000 0.000000 3.110510 
# 
# 
# High freq. dielectric constant tensor:
#      x y z
#    x 1.601060 0.000000 0.000000 
#    y 0.000000 1.527840 0.000000 
#    z 0.000000 0.000000 1.586660 
# 
# From -- ./inp_files/21908.got.cif
#   From: 2010.03.12/outbox.cif.g09.slc.cpg/sg59_11_cif.got.tgz:21908.got - 2010.04.16 16:29:54.
