data_PCOD8239168
_publ_section_title
;
Structure prediction by ZEFSAII (Michael W. Deem and Ramdas Pophale) SiO2 
 PCOD8239168
Probable space group: P M M N
;
_chemical_formula_sum "Si O2"
_cell_formula_units_Z 48
_cell_length_a 18.630104
_cell_length_b 13.480581
_cell_length_c 11.761466
_cell_angle_alpha 90.000000
_cell_angle_beta 90.000000
_cell_angle_gamma 90.000000
_cell_volume 2953.828980
_symmetry_space_group_name_H-M "P M M N"
_symmetry_group_IT_number 59
_space_group.IT_coordinate_system_code '2'
_symmetry_cell_setting 'orthorhombic'
loop_
_space_group_symop_operation_xyz
x,y,z
1/2-x,1/2-y,z
1/2+x,-y,-z
-x,1/2+y,-z
-x,-y,-z
1/2+x,1/2+y,-z
1/2-x,y,z
x,1/2-y,z
loop_
_atom_site_type_symbol
_atom_site_label
_atom_site_fract_x
_atom_site_fract_y
_atom_site_fract_z
Si Si1 0.599129 0.637112 0.370997
Si Si2 0.476357 0.443851 0.829473
Si Si3 0.441002 0.861802 0.364955
Si Si4 0.032604 0.137146 0.076139
Si Si5 0.170073 0.135965 0.214650
Si Si6 0.167874 0.484824 0.438339
O O1 0.625329 0.750000 0.351698
O O2 0.593485 0.580663 0.248556
O O3 0.519036 0.636310 0.427722
O O4 0.655289 0.581413 0.450398
O O5 0.548315 0.410276 0.760797
O O6 0.479431 0.561068 0.858902
O O7 0.471911 0.377959 0.942013
O O8 0.412815 0.750000 0.350380
O O9 0.383251 0.919402 0.441142
O O10 0.010166 0.250000 0.106888
O O11 0.114328 0.114108 0.113745
O O12 0.250000 0.105832 0.172282
O O13 0.167898 0.250000 0.251207
O O14 0.148105 0.077182 0.327104
O O15 0.250000 0.520313 0.437909
#
# Coordination Sequence:
#
# PCOD8239168 Si02
#       6
#     8   8   8   8   8   8
#     4   9  18  33  51  70  97 131 165 202 245 296
#     4   9  18  32  49  72  99 126 165 208 246 290
#     4   9  18  33  50  69  96 130 168 207 247 293
#     4  10  17  29  51  75  98 125 161 206 250 293
#     4   9  17  28  43  67  97 125 153 193 248 300
#     4  11  20  31  48  72 102 130 164 206 251 300
#
# _framework density 16.250094000000001
#
# number of rings (size 3 to 8) (size 9 to 14) (size 15 to 20)
#    1.000    1.500    1.667    2.000    0.000    1.333 
#    0.000    1.667    0.000    2.000    0.000    0.000 
#    0.000    1.667    0.000    0.000    0.000    0.000 
#
# Total GULP energy -594817.022387 kJ/mol
# GULP energy per Si atom -12392.021300 kJ/mol
# Density = 1.621311 g / cm^3
# Si number density = 16.250094 Si / 1000 Ang^3
#
#
#
# Elastic Constant Matrix: (Units=GPa)
#
#
# Indices 1 2 3 4 5 6 
#
# 1 33.4402 15.0436 18.3211 0.0000 0.0000 0.0000
# 2 15.0436 89.5494 29.5438 0.0000 0.0000 0.0000
# 3 18.3211 29.5438 63.7915 0.0000 0.0000 0.0000
# 4 0.0000 0.0000 0.0000 23.1470 0.0000 0.0000
# 5 0.0000 0.0000 0.0000 0.0000 22.5573 0.0000
# 6 0.0000 0.0000 0.0000 0.0000 0.0000 14.5105
#
#
#
# Elastic Compliance Matrix: (Units=1/GPa)
#
#
# Indices 1 2 3 4 5 6 
#
# 1 0.036217 -0.003131 -0.008952 0.000000 0.000000 0.000000
# 2 -0.003131 0.013452 -0.005331 0.000000 0.000000 0.000000
# 3 -0.008952 -0.005331 0.020716 0.000000 0.000000 0.000000
# 4 0.000000 0.000000 0.000000 0.043202 0.000000 0.000000
# 5 0.000000 0.000000 0.000000 0.000000 0.044332 0.000000
# 6 0.000000 0.000000 0.000000 0.000000 0.000000 0.068916
#
#
# Mechanical properties :
#
#
# Convention : Reuss Voigt Hill
#
# Bulk Modulus (GPa) = 28.12295 34.73309 31.42802
# Shear Modulus (GPa) = 18.28068 20.30114 19.29091
#
# Velocity S-wave (km/s) = 3.35768 3.53837 3.44921
# Velocity P-wave (km/s) = 5.68998 6.17365 5.93674
#
# Compressibility (1/GPa) = 0.03555814
#
# Stress axis : x y z
#
# Youngs Moduli (GPa) = 27.61133 74.34020 48.27233
#
# Poissons Ratio (x) = 0.23275 0.43211
# Poissons Ratio (y) = 0.08645 0.25732
# Poissons Ratio (z) = 0.24717 0.39628
#
# Static dielectric constant tensor:
#      x y z
#    x 2.869250 0.000000 0.000000 
#    y 0.000000 3.075700 0.000000 
#    z 0.000000 0.000000 2.893190 
# 
# 
# High freq. dielectric constant tensor:
#      x y z
#    x 1.596620 0.000000 0.000000 
#    y 0.000000 1.631270 0.000000 
#    z 0.000000 0.000000 1.612010 
# 
# From -- ./inp_files/17697.got.cif
#   From: 2010.03.12/outbox.cif.g09.slc.cpg/sg59_9_cif.got.tgz:17697.got - 2010.04.16 16:29:54.
