data_PCOD8239858
_publ_section_title
;
Structure prediction by ZEFSAII (Michael W. Deem and Ramdas Pophale) SiO2 
 PCOD8239858
Probable space group: P M M N
;
_chemical_formula_sum "Si O2"
_cell_formula_units_Z 64
_cell_length_a 19.224054
_cell_length_b 8.886019
_cell_length_c 20.894436
_cell_angle_alpha 90.000000
_cell_angle_beta 90.000000
_cell_angle_gamma 90.000000
_cell_volume 3569.298488
_symmetry_space_group_name_H-M "P M M N"
_symmetry_group_IT_number 59
_space_group.IT_coordinate_system_code '2'
_symmetry_cell_setting 'orthorhombic'
loop_
_space_group_symop_operation_xyz
x,y,z
1/2-x,1/2-y,z
1/2+x,-y,-z
-x,1/2+y,-z
-x,-y,-z
1/2+x,1/2+y,-z
1/2-x,y,z
x,1/2-y,z
loop_
_atom_site_type_symbol
_atom_site_label
_atom_site_fract_x
_atom_site_fract_y
_atom_site_fract_z
Si Si1 0.533577 0.424939 0.438470
Si Si2 0.673006 0.422690 0.003853
Si Si3 0.673460 0.572182 0.136307
Si Si4 0.036163 0.575249 0.059898
Si Si5 0.172543 0.921260 0.499022
Si Si6 0.038124 0.928942 0.318240
Si Si7 0.968723 0.571234 0.188822
Si Si8 0.671013 0.926506 0.633110
O O1 0.500000 0.500000 0.500000
O O2 0.512472 0.250000 0.435071
O O3 0.617241 0.446318 0.444074
O O4 0.508116 0.508255 0.375606
O O5 0.750000 0.464572 0.978488
O O6 0.669277 0.250000 0.026114
O O7 0.652842 0.520758 0.065328
O O8 0.619096 0.453685 0.946307
O O9 0.750000 0.507694 0.156472
O O10 0.676367 0.750000 0.135210
O O11 0.612428 0.518715 0.184696
O O12 0.017136 0.750000 0.057568
O O13 0.010255 0.506329 0.127241
O O14 0.000000 0.500000 0.000000
O O15 0.250000 0.955707 0.525833
O O16 0.167423 0.750000 0.473287
O O17 0.154381 0.029714 0.440007
O O18 0.038329 0.750000 0.321552
O O19 0.003530 0.992093 0.253180
O O20 0.117428 0.987725 0.320649
O O21 0.973923 0.750000 0.189486
O O22 0.750000 0.973565 0.651181
O O23 0.659621 0.750000 0.640752
#
# Coordination Sequence:
#
# PCOD8239858 Si02
#       8
#     8   8   8   8   8   8   8   8
#     4  11  21  34  55  81 108 137 173 220 266 315
#     4   9  17  28  45  73 104 130 161 208 263 310
#     4   9  16  29  51  74  98 132 172 212 253 302
#     4  10  18  31  51  74 101 131 168 215 260 307
#     4   9  18  33  54  79 105 135 172 214 263 318
#     4  11  22  36  53  75 107 146 181 218 259 312
#     4   9  19  34  50  73 105 137 176 217 255 305
#     4  10  20  34  54  79 105 133 171 220 267 314
#
# _framework density 17.930693999999999
#
# number of rings (size 3 to 8) (size 9 to 14) (size 15 to 20)
#    0.000    2.250    2.500    1.125    0.000    1.250 
#    0.000    3.750    0.000    3.000    0.000    1.750 
#    0.000    0.000    0.000    0.000    0.000    0.000 
#
# Total GULP energy -793329.041395 kJ/mol
# GULP energy per Si atom -12395.766272 kJ/mol
# Density = 1.788988 g / cm^3
# Si number density = 17.930694 Si / 1000 Ang^3
#
#
#
# Elastic Constant Matrix: (Units=GPa)
#
#
# Indices 1 2 3 4 5 6 
#
# 1 150.8100 37.4699 80.3689 0.0000 0.0000 0.0000
# 2 37.4699 49.6185 31.7004 0.0000 0.0000 0.0000
# 3 80.3689 31.7004 125.7265 0.0000 0.0000 0.0000
# 4 0.0000 0.0000 0.0000 20.8676 0.0000 0.0000
# 5 0.0000 0.0000 0.0000 0.0000 30.2750 0.0000
# 6 0.0000 0.0000 0.0000 0.0000 0.0000 24.2045
#
#
#
# Elastic Compliance Matrix: (Units=1/GPa)
#
#
# Indices 1 2 3 4 5 6 
#
# 1 0.010831 -0.004477 -0.005795 0.000000 0.000000 0.000000
# 2 -0.004477 0.025874 -0.003662 0.000000 0.000000 0.000000
# 3 -0.005795 -0.003662 0.012581 0.000000 0.000000 0.000000
# 4 0.000000 0.000000 0.000000 0.047921 0.000000 0.000000
# 5 0.000000 0.000000 0.000000 0.000000 0.033031 0.000000
# 6 0.000000 0.000000 0.000000 0.000000 0.000000 0.041315
#
#
# Mechanical properties :
#
#
# Convention : Reuss Voigt Hill
#
# Bulk Modulus (GPa) = 46.68742 69.47036 58.07889
# Shear Modulus (GPa) = 24.20585 26.84380 25.52483
#
# Velocity S-wave (km/s) = 3.67818 3.87342 3.77706
# Velocity P-wave (km/s) = 6.64326 7.67023 7.17514
#
# Compressibility (1/GPa) = 0.02141905
#
# Stress axis : x y z
#
# Youngs Moduli (GPa) = 92.32332 38.64836 79.48201
#
# Poissons Ratio (x) = 0.17304 0.46060
# Poissons Ratio (y) = 0.41335 0.29106
# Poissons Ratio (z) = 0.53502 0.14153
#
# Static dielectric constant tensor:
#      x y z
#    x 3.995870 0.000000 0.000000 
#    y 0.000000 3.219190 0.000000 
#    z 0.000000 0.000000 -3.545340 
# 
# 
# High freq. dielectric constant tensor:
#      x y z
#    x 1.718210 0.000000 0.000000 
#    y 0.000000 1.684390 0.000000 
#    z 0.000000 0.000000 1.657580 
# 
# From -- ./inp_files/30948.got.cif
#   From: 2010.03.12/outbox.cif.g09.slc.cpg/sg59_16_cif.got.tgz:30948.got - 2010.04.16 16:29:54.
