data_PCOD8239609
_publ_section_title
;
Structure prediction by ZEFSAII (Michael W. Deem and Ramdas Pophale) SiO2 
 PCOD8239609
Probable space group: P M M N
;
_chemical_formula_sum "Si O2"
_cell_formula_units_Z 40
_cell_length_a 9.023291
_cell_length_b 20.759064
_cell_length_c 12.440908
_cell_angle_alpha 90.000000
_cell_angle_beta 90.000000
_cell_angle_gamma 90.000000
_cell_volume 2330.369620
_symmetry_space_group_name_H-M "P M M N"
_symmetry_group_IT_number 59
_space_group.IT_coordinate_system_code '2'
_symmetry_cell_setting 'orthorhombic'
loop_
_space_group_symop_operation_xyz
x,y,z
1/2-x,1/2-y,z
1/2+x,-y,-z
-x,1/2+y,-z
-x,-y,-z
1/2+x,1/2+y,-z
1/2-x,y,z
x,1/2-y,z
loop_
_atom_site_type_symbol
_atom_site_label
_atom_site_fract_x
_atom_site_fract_y
_atom_site_fract_z
Si Si1 0.921210 0.174869 0.261781
Si Si2 0.923549 0.589358 0.568836
Si Si3 0.577309 0.555137 0.141350
Si Si4 0.923857 0.446755 0.640825
Si Si5 0.421414 0.587270 0.934049
O O1 0.750000 0.159454 0.287877
O O2 0.953010 0.250000 0.252201
O O3 0.965998 0.143399 0.148247
O O4 0.021201 0.147068 0.356650
O O5 0.750000 0.596265 0.548445
O O6 0.963604 0.521822 0.625178
O O7 0.005825 0.594905 0.454946
O O8 0.750000 0.568055 0.156423
O O9 0.493577 0.577907 0.248223
O O10 0.540387 0.480377 0.121862
O O11 0.518339 0.596942 0.041130
O O12 0.750000 0.434299 0.642593
O O13 0.250000 0.590221 0.967409
#
# Coordination Sequence:
#
# PCOD8239609 Si02
#       5
#     8   8   8   8   8
#     4  10  20  35  54  74 101 137 173 207 244 295
#     4  10  20  32  49  74 103 133 168 208 254 301
#     4  10  18  29  49  74 102 132 163 207 257 302
#     4  10  19  31  50  74 103 134 164 206 258 308
#     4   9  18  31  47  71 102 133 167 205 249 300
#
# _framework density 17.164657999999999
#
# number of rings (size 3 to 8) (size 9 to 14) (size 15 to 20)
#    0.000    2.200    2.000    1.800    0.000    3.600 
#    0.000    0.000    0.000    1.200    0.000    2.800 
#    0.000    0.000    0.000    0.000    0.000    0.000 
#
# Total GULP energy -496169.246014 kJ/mol
# GULP energy per Si atom -12404.231150 kJ/mol
# Density = 1.712559 g / cm^3
# Si number density = 17.164658 Si / 1000 Ang^3
#
#
#
# Elastic Constant Matrix: (Units=GPa)
#
#
# Indices 1 2 3 4 5 6 
#
# 1 86.8662 30.5534 73.6804 0.0000 0.0000 0.0000
# 2 30.5534 64.7391 46.2616 0.0000 0.0000 0.0000
# 3 73.6804 46.2616 155.3279 0.0000 0.0000 0.0000
# 4 0.0000 0.0000 0.0000 22.6616 0.0000 0.0000
# 5 0.0000 0.0000 0.0000 0.0000 37.7930 0.0000
# 6 0.0000 0.0000 0.0000 0.0000 0.0000 19.6240
#
#
#
# Elastic Compliance Matrix: (Units=1/GPa)
#
#
# Indices 1 2 3 4 5 6 
#
# 1 0.019817 -0.003348 -0.008403 0.000000 0.000000 0.000000
# 2 -0.003348 0.020188 -0.004425 0.000000 0.000000 0.000000
# 3 -0.008403 -0.004425 0.011742 0.000000 0.000000 0.000000
# 4 0.000000 0.000000 0.000000 0.044128 0.000000 0.000000
# 5 0.000000 0.000000 0.000000 0.000000 0.026460 0.000000
# 6 0.000000 0.000000 0.000000 0.000000 0.000000 0.050958
#
#
# Mechanical properties :
#
#
# Convention : Reuss Voigt Hill
#
# Bulk Modulus (GPa) = 51.55711 67.54712 59.55211
# Shear Modulus (GPa) = 23.57267 26.44490 25.00879
#
# Velocity S-wave (km/s) = 3.70986 3.92938 3.82120
# Velocity P-wave (km/s) = 6.96080 7.74755 7.36469
#
# Compressibility (1/GPa) = 0.01939597
#
# Stress axis : x y z
#
# Youngs Moduli (GPa) = 50.46125 49.53328 85.16477
#
# Poissons Ratio (x) = 0.16583 0.71566
# Poissons Ratio (y) = 0.16893 0.37683
# Poissons Ratio (z) = 0.42404 0.21917
#
# Static dielectric constant tensor:
#      x y z
#    x 3.215660 0.000000 0.000000 
#    y 0.000000 2.841800 0.000000 
#    z 0.000000 0.000000 3.278350 
# 
# 
# High freq. dielectric constant tensor:
#      x y z
#    x 1.672020 0.000000 0.000000 
#    y 0.000000 1.615060 0.000000 
#    z 0.000000 0.000000 1.674610 
# 
# From -- ./inp_files/13853.got.cif
#   From: 2010.03.12/outbox.cif.g09.slc.cpg/sg59_7_cif.got.tgz:13853.got - 2010.04.16 16:29:54.
