data_PCOD8239129
_publ_section_title
;
Structure prediction by ZEFSAII (Michael W. Deem and Ramdas Pophale) SiO2 
 PCOD8239129
Probable space group: P M M N
;
_chemical_formula_sum "Si O2"
_cell_formula_units_Z 64
_cell_length_a 23.687397
_cell_length_b 9.108109
_cell_length_c 18.964363
_cell_angle_alpha 90.000000
_cell_angle_beta 90.000000
_cell_angle_gamma 90.000000
_cell_volume 4091.511892
_symmetry_space_group_name_H-M "P M M N"
_symmetry_group_IT_number 59
_space_group.IT_coordinate_system_code '2'
_symmetry_cell_setting 'orthorhombic'
loop_
_space_group_symop_operation_xyz
x,y,z
1/2-x,1/2-y,z
1/2+x,-y,-z
-x,1/2+y,-z
-x,-y,-z
1/2+x,1/2+y,-z
1/2-x,y,z
x,1/2-y,z
loop_
_atom_site_type_symbol
_atom_site_label
_atom_site_fract_x
_atom_site_fract_y
_atom_site_fract_z
Si Si1 0.187809 0.923896 0.607230
Si Si2 0.128456 0.575920 0.750582
Si Si3 0.187297 0.575849 0.892863
Si Si4 0.084929 0.920381 0.985725
Si Si5 0.475447 0.420100 0.105841
Si Si6 0.008739 0.421189 0.759354
Si Si7 0.084001 0.577807 0.523894
Si Si8 0.987504 0.080989 0.603709
O O1 0.250000 0.994288 0.596790
O O2 0.193273 0.750000 0.608084
O O3 0.161691 0.975824 0.681267
O O4 0.147289 0.976881 0.542886
O O5 0.116879 0.750000 0.752175
O O6 0.166034 0.523621 0.816545
O O7 0.069428 0.494211 0.753766
O O8 0.250000 0.511233 0.907281
O O9 0.189073 0.750000 0.893435
O O10 0.144161 0.522771 0.953637
O O11 0.086982 0.750000 0.007389
O O12 0.072550 0.015424 0.054824
O O13 0.037280 0.946471 0.926659
O O14 0.462787 0.250000 0.118135
O O15 0.471619 0.503445 0.180047
O O16 0.015996 0.250000 0.776556
O O17 0.974888 0.446370 0.685992
O O18 0.080577 0.750000 0.536361
O O19 0.067028 0.534501 0.443681
O O20 0.041455 0.510754 0.580502
O O21 0.002394 0.250000 0.589324
#
# Coordination Sequence:
#
# PCOD8239129 Si02
#       8
#     8   8   8   8   8   8   8   8
#     4   9  16  25  42  67  90 115 150 188 221 256
#     4  10  17  28  43  64  91 120 155 183 209 253
#     4   9  16  27  45  67  91 119 150 182 215 256
#     4   9  17  30  46  67  90 114 145 183 223 262
#     4  10  19  31  47  66  88 116 150 185 224 269
#     4  11  20  29  43  64  91 121 150 183 227 269
#     4   9  16  28  45  63  85 114 148 184 221 263
#     4   9  18  29  42  62  88 116 146 183 227 267
#
# _framework density 15.642139999999999
#
# number of rings (size 3 to 8) (size 9 to 14) (size 15 to 20)
#    0.000    2.500    2.500    1.125    0.000    2.500 
#    0.000    0.000    0.000    3.750    0.000    0.875 
#    0.000    5.000    0.000    0.000    0.000    0.000 
#
# Total GULP energy -793357.726289 kJ/mol
# GULP energy per Si atom -12396.214473 kJ/mol
# Density = 1.560654 g / cm^3
# Si number density = 15.642140 Si / 1000 Ang^3
#
#
#
# Elastic Constant Matrix: (Units=GPa)
#
#
# Indices 1 2 3 4 5 6 
#
# 1 105.9330 25.4372 70.9669 0.0000 0.0000 0.0000
# 2 25.4372 44.4569 40.4766 0.0000 0.0000 0.0000
# 3 70.9669 40.4766 121.1178 0.0000 0.0000 0.0000
# 4 0.0000 0.0000 0.0000 18.5265 0.0000 0.0000
# 5 0.0000 0.0000 0.0000 0.0000 23.3415 0.0000
# 6 0.0000 0.0000 0.0000 0.0000 0.0000 15.2044
#
#
#
# Elastic Compliance Matrix: (Units=1/GPa)
#
#
# Indices 1 2 3 4 5 6 
#
# 1 0.015563 -0.000866 -0.008829 0.000000 0.000000 0.000000
# 2 -0.000866 0.032379 -0.010314 0.000000 0.000000 0.000000
# 3 -0.008829 -0.010314 0.016877 0.000000 0.000000 0.000000
# 4 0.000000 0.000000 0.000000 0.053977 0.000000 0.000000
# 5 0.000000 0.000000 0.000000 0.000000 0.042842 0.000000
# 6 0.000000 0.000000 0.000000 0.000000 0.000000 0.065770
#
#
# Mechanical properties :
#
#
# Convention : Reuss Voigt Hill
#
# Bulk Modulus (GPa) = 40.32084 60.58545 50.45315
# Shear Modulus (GPa) = 18.13614 20.38962 19.26288
#
# Velocity S-wave (km/s) = 3.40875 3.61433 3.51304
# Velocity P-wave (km/s) = 6.42851 7.49894 6.98426
#
# Compressibility (1/GPa) = 0.02480107
#
# Stress axis : x y z
#
# Youngs Moduli (GPa) = 64.25545 30.88397 59.25359
#
# Poissons Ratio (x) = 0.02674 0.52318
# Poissons Ratio (y) = 0.05563 0.61112
# Poissons Ratio (z) = 0.56734 0.31852
#
# Static dielectric constant tensor:
#      x y z
#    x 3.138310 0.000000 0.000000 
#    y 0.000000 2.834570 0.000000 
#    z 0.000000 0.000000 3.180100 
# 
# 
# High freq. dielectric constant tensor:
#      x y z
#    x 1.578010 0.000000 0.000000 
#    y 0.000000 1.582230 0.000000 
#    z 0.000000 0.000000 1.599100 
# 
# From -- ./inp_files/28420.got.cif
#   From: 2010.03.12/outbox.cif.g09.slc.cpg/sg59_15_cif.got.tgz:28420.got - 2010.04.16 16:29:54.
