data_PCOD8239738
_publ_section_title
;
Structure prediction by ZEFSAII (Michael W. Deem and Ramdas Pophale) SiO2 
 PCOD8239738
Probable space group: P M M N
;
_chemical_formula_sum "Si O2"
_cell_formula_units_Z 64
_cell_length_a 9.381318
_cell_length_b 20.032611
_cell_length_c 20.192535
_cell_angle_alpha 90.000000
_cell_angle_beta 90.000000
_cell_angle_gamma 90.000000
_cell_volume 3794.829427
_symmetry_space_group_name_H-M "P M M N"
_symmetry_group_IT_number 59
_space_group.IT_coordinate_system_code '2'
_symmetry_cell_setting 'orthorhombic'
loop_
_space_group_symop_operation_xyz
x,y,z
1/2-x,1/2-y,z
1/2+x,-y,-z
-x,1/2+y,-z
-x,-y,-z
1/2+x,1/2+y,-z
1/2-x,y,z
x,1/2-y,z
loop_
_atom_site_type_symbol
_atom_site_label
_atom_site_fract_x
_atom_site_fract_y
_atom_site_fract_z
Si Si1 0.413812 0.325422 0.921468
Si Si2 0.083032 0.173690 0.414938
Si Si3 0.582267 0.958968 0.831543
Si Si4 0.918684 0.081981 0.665178
Si Si5 0.916702 0.326685 0.546928
Si Si6 0.418172 0.064498 0.024502
Si Si7 0.417726 0.607811 0.188444
Si Si8 0.580247 0.566010 0.688774
O O1 0.250000 0.340172 0.904683
O O2 0.437310 0.250000 0.945532
O O3 0.466633 0.372149 0.981568
O O4 0.502687 0.336919 0.854787
O O5 0.250000 0.162378 0.427725
O O6 0.050874 0.250000 0.394493
O O7 0.023061 0.126344 0.356487
O O8 0.000545 0.153457 0.481064
O O9 0.750000 0.961158 0.822356
O O10 0.521230 0.924512 0.764385
O O11 0.530200 0.035437 0.837204
O O12 0.538324 0.920466 0.898739
O O13 0.750000 0.081185 0.661181
O O14 0.979398 0.126589 0.605274
O O15 0.963715 0.115508 0.734830
O O16 0.974670 0.005524 0.660751
O O17 0.750000 0.339376 0.534442
O O18 0.945569 0.250000 0.566729
O O19 0.250000 0.050448 0.019257
O O20 0.500000 0.000000 0.000000
O O21 0.250000 0.618205 0.179204
O O22 0.750000 0.567095 0.688570
#
# Coordination Sequence:
#
# PCOD8239738 Si02
#       8
#     8   8   8   8   8   8   8   8
#     4  10  21  33  43  64 100 131 150 180 232 282
#     4   9  17  29  45  65  88 115 148 182 219 266
#     4   8  14  26  46  70  89 109 146 190 227 262
#     4   8  15  27  45  68  90 113 145 187 227 260
#     4   9  17  29  44  62  86 116 149 183 221 267
#     4  10  18  30  50  70  90 120 157 192 225 270
#     4   9  16  29  49  69  87 113 154 194 224 262
#     4   8  14  26  44  66  91 114 139 182 230 262
#
# _framework density 16.865054000000001
#
# number of rings (size 3 to 8) (size 9 to 14) (size 15 to 20)
#    0.000    3.125    1.250    1.500    0.000    1.250 
#    0.000    2.500    0.000    9.000    0.000    0.000 
#    0.000    2.000    0.000    0.000    0.000    0.000 
#
# Total GULP energy -793195.843889 kJ/mol
# GULP energy per Si atom -12393.685061 kJ/mol
# Density = 1.682667 g / cm^3
# Si number density = 16.865054 Si / 1000 Ang^3
#
#
#
# Elastic Constant Matrix: (Units=GPa)
#
#
# Indices 1 2 3 4 5 6 
#
# 1 24.8468 27.4446 33.6019 0.0000 0.0000 0.0000
# 2 27.4446 105.3344 88.2361 0.0000 0.0000 0.0000
# 3 33.6019 88.2361 155.7231 0.0000 0.0000 0.0000
# 4 0.0000 0.0000 0.0000 32.6443 0.0000 0.0000
# 5 0.0000 0.0000 0.0000 0.0000 22.5002 0.0000
# 6 0.0000 0.0000 0.0000 0.0000 0.0000 15.7708
#
#
#
# Elastic Compliance Matrix: (Units=1/GPa)
#
#
# Indices 1 2 3 4 5 6 
#
# 1 0.061276 -0.009307 -0.007949 0.000000 0.000000 0.000000
# 2 -0.009307 0.019484 -0.009032 0.000000 0.000000 0.000000
# 3 -0.007949 -0.009032 0.013255 0.000000 0.000000 0.000000
# 4 0.000000 0.000000 0.000000 0.030633 0.000000 0.000000
# 5 0.000000 0.000000 0.000000 0.000000 0.044444 0.000000
# 6 0.000000 0.000000 0.000000 0.000000 0.000000 0.063408
#
#
# Mechanical properties :
#
#
# Convention : Reuss Voigt Hill
#
# Bulk Modulus (GPa) = 24.13136 64.94103 44.53620
# Shear Modulus (GPa) = 16.72863 23.29118 20.00990
#
# Velocity S-wave (km/s) = 3.15288 3.72026 3.44826
# Velocity P-wave (km/s) = 5.25298 7.55272 6.50528
#
# Compressibility (1/GPa) = 0.04143985
#
# Stress axis : x y z
#
# Youngs Moduli (GPa) = 16.31959 51.32318 75.44581
#
# Poissons Ratio (x) = 0.47766 0.59969
# Poissons Ratio (y) = 0.15189 0.68143
# Poissons Ratio (z) = 0.12972 0.46355
#
# Static dielectric constant tensor:
#      x y z
#    x 2.780010 0.000000 0.000000 
#    y 0.000000 3.228280 0.000000 
#    z 0.000000 0.000000 3.598180 
# 
# 
# High freq. dielectric constant tensor:
#      x y z
#    x 1.607440 0.000000 0.000000 
#    y 0.000000 1.639840 0.000000 
#    z 0.000000 0.000000 1.661600 
# 
# From -- ./inp_files/27223.got.cif
#   From: 2010.03.12/outbox.cif.g09.slc.cpg/sg59_14_cif.got.tgz:27223.got - 2010.04.16 16:29:54.
