data_PCOD8239951
_publ_section_title
;
Structure prediction by ZEFSAII (Michael W. Deem and Ramdas Pophale) SiO2 
 PCOD8239951
Probable space group: P M M N
;
_chemical_formula_sum "Si O2"
_cell_formula_units_Z 64
_cell_length_a 9.141158
_cell_length_b 15.253495
_cell_length_c 24.036261
_cell_angle_alpha 90.000000
_cell_angle_beta 90.000000
_cell_angle_gamma 90.000000
_cell_volume 3351.486627
_symmetry_space_group_name_H-M "P M M N"
_symmetry_group_IT_number 59
_space_group.IT_coordinate_system_code '2'
_symmetry_cell_setting 'orthorhombic'
loop_
_space_group_symop_operation_xyz
x,y,z
1/2-x,1/2-y,z
1/2+x,-y,-z
-x,1/2+y,-z
-x,-y,-z
1/2+x,1/2+y,-z
1/2-x,y,z
x,1/2-y,z
loop_
_atom_site_type_symbol
_atom_site_label
_atom_site_fract_x
_atom_site_fract_y
_atom_site_fract_z
Si Si1 0.577207 0.499509 0.183660
Si Si2 0.076520 0.155118 0.615970
Si Si3 0.577784 0.351359 0.884147
Si Si4 0.077954 0.995574 0.687904
Si Si5 0.589206 0.353540 0.008192
Si Si6 0.078949 0.352541 0.115877
Si Si7 0.921661 0.908651 0.502136
Si Si8 0.917768 0.650557 0.622253
O O1 0.750000 0.495502 0.173573
O O2 0.513861 0.587397 0.156533
O O3 0.535330 0.505052 0.248098
O O4 0.505730 0.410371 0.160797
O O5 0.250000 0.151642 0.620538
O O6 0.019059 0.250000 0.636988
O O7 0.027520 0.145657 0.551809
O O8 0.009963 0.078556 0.654583
O O9 0.750000 0.363290 0.873253
O O10 0.531899 0.250000 0.874409
O O11 0.538587 0.383555 0.946808
O O12 0.250000 0.990539 0.679342
O O13 0.012896 0.906887 0.663613
O O14 0.750000 0.392744 0.022680
O O15 0.602771 0.250000 0.006521
O O16 0.472634 0.383186 0.054451
O O17 0.250000 0.371711 0.120567
O O18 0.043090 0.250000 0.126494
O O19 0.750000 0.925438 0.500305
O O20 0.968481 0.858256 0.558115
O O21 0.000000 0.000000 0.500000
O O22 0.750000 0.621297 0.628112
O O23 0.940643 0.750000 0.641258
#
# Coordination Sequence:
#
# PCOD8239951 Si02
#       8
#     8   8   8   8   8   8   8   8
#     4  11  24  38  55  80 110 147 191 236 278 326
#     4   9  17  32  56  81 106 139 177 217 264 320
#     4   9  19  37  60  85 114 148 183 222 274 333
#     4  10  22  39  56  78 106 141 188 233 273 317
#     4   8  15  31  56  84 113 143 176 219 273 332
#     4  10  21  37  58  83 110 143 184 230 281 336
#     4  10  18  31  55  83 112 144 175 214 267 324
#     4  10  21  36  56  83 112 143 180 222 273 331
#
# _framework density 19.096003
#
# number of rings (size 3 to 8) (size 9 to 14) (size 15 to 20)
#    0.000    2.375    1.250    1.875    0.000    5.750 
#    0.000    5.000    0.000    2.250    0.000    0.000 
#    0.000    0.000    0.000    0.000    0.000    0.000 
#
# Total GULP energy -793470.159723 kJ/mol
# GULP energy per Si atom -12397.971246 kJ/mol
# Density = 1.905254 g / cm^3
# Si number density = 19.096003 Si / 1000 Ang^3
#
#
#
# Elastic Constant Matrix: (Units=GPa)
#
#
# Indices 1 2 3 4 5 6 
#
# 1 57.4144 41.5396 62.6337 0.0000 0.0000 0.0000
# 2 41.5396 112.9313 67.6460 0.0000 0.0000 0.0000
# 3 62.6337 67.6460 128.6503 0.0000 0.0000 0.0000
# 4 0.0000 0.0000 0.0000 12.7494 0.0000 0.0000
# 5 0.0000 0.0000 0.0000 0.0000 17.3866 0.0000
# 6 0.0000 0.0000 0.0000 0.0000 0.0000 30.4257
#
#
#
# Elastic Compliance Matrix: (Units=1/GPa)
#
#
# Indices 1 2 3 4 5 6 
#
# 1 0.038515 -0.004285 -0.016498 0.000000 0.000000 0.000000
# 2 -0.004285 0.013403 -0.004961 0.000000 0.000000 0.000000
# 3 -0.016498 -0.004961 0.018414 0.000000 0.000000 0.000000
# 4 0.000000 0.000000 0.000000 0.078435 0.000000 0.000000
# 5 0.000000 0.000000 0.000000 0.000000 0.057516 0.000000
# 6 0.000000 0.000000 0.000000 0.000000 0.000000 0.032867
#
#
# Mechanical properties :
#
#
# Convention : Reuss Voigt Hill
#
# Bulk Modulus (GPa) = 53.06884 71.40385 62.23635
# Shear Modulus (GPa) = 16.83957 20.59079 18.71518
#
# Velocity S-wave (km/s) = 2.97280 3.28728 3.13398
# Velocity P-wave (km/s) = 6.29557 7.20288 6.76445
#
# Compressibility (1/GPa) = 0.01884345
#
# Stress axis : x y z
#
# Youngs Moduli (GPa) = 25.96368 74.61107 54.30623
#
# Poissons Ratio (x) = 0.31968 0.89597
# Poissons Ratio (y) = 0.11124 0.26944
# Poissons Ratio (z) = 0.42836 0.37018
#
# Static dielectric constant tensor:
#      x y z
#    x 3.355110 0.000000 0.000000 
#    y 0.000000 3.493630 0.000000 
#    z 0.000000 0.000000 3.396510 
# 
# 
# High freq. dielectric constant tensor:
#      x y z
#    x 1.723760 0.000000 0.000000 
#    y 0.000000 1.747050 0.000000 
#    z 0.000000 0.000000 1.744880 
# 
# From -- ./inp_files/31530.got.cif
#   From: 2010.03.12/outbox.cif.g09.slc.cpg/sg59_16_cif.got.tgz:31530.got - 2010.04.16 16:29:54.
