data_PCOD8239716
_publ_section_title
;
Structure prediction by ZEFSAII (Michael W. Deem and Ramdas Pophale) SiO2 
 PCOD8239716
Probable space group: P M M N
;
_chemical_formula_sum "Si O2"
_cell_formula_units_Z 64
_cell_length_a 19.232028
_cell_length_b 8.890413
_cell_length_c 20.904653
_cell_angle_alpha 90.000000
_cell_angle_beta 90.000000
_cell_angle_gamma 90.000000
_cell_volume 3574.291613
_symmetry_space_group_name_H-M "P M M N"
_symmetry_group_IT_number 59
_space_group.IT_coordinate_system_code '2'
_symmetry_cell_setting 'orthorhombic'
loop_
_space_group_symop_operation_xyz
x,y,z
1/2-x,1/2-y,z
1/2+x,-y,-z
-x,1/2+y,-z
-x,-y,-z
1/2+x,1/2+y,-z
1/2-x,y,z
x,1/2-y,z
loop_
_atom_site_type_symbol
_atom_site_label
_atom_site_fract_x
_atom_site_fract_y
_atom_site_fract_z
Si Si1 0.540404 0.572160 0.440998
Si Si2 0.673042 0.577363 0.003771
Si Si3 0.826528 0.427646 0.136113
Si Si4 0.036173 0.075244 0.059856
Si Si5 0.329085 0.925035 0.511058
Si Si6 0.030367 0.074452 0.320717
Si Si7 0.968891 0.428552 0.188583
Si Si8 0.672768 0.921586 0.621696
O O1 0.500000 0.500000 0.500000
O O2 0.535732 0.750000 0.446705
O O3 0.620645 0.519237 0.442677
O O4 0.507642 0.519197 0.375034
O O5 0.750000 0.534994 0.978553
O O6 0.669511 0.750000 0.025909
O O7 0.652731 0.479977 0.065364
O O8 0.619067 0.546412 0.946334
O O9 0.750000 0.491853 0.156453
O O10 0.823482 0.250000 0.134507
O O11 0.887576 0.479676 0.184705
O O12 0.017158 0.250000 0.057588
O O13 0.010165 0.005749 0.127091
O O14 0.000000 0.000000 0.000000
O O15 0.250000 0.960811 0.531437
O O16 0.346531 0.750000 0.518102
O O17 0.342171 0.969987 0.437666
O O18 0.011472 0.250000 0.328781
O O19 0.113922 0.049192 0.324714
O O20 0.003673 0.008443 0.253139
O O21 0.975430 0.250000 0.188850
O O22 0.750000 0.952888 0.650584
O O23 0.667699 0.750000 0.596631
#
# Coordination Sequence:
#
# PCOD8239716 Si02
#       8
#     8   8   8   8   8   8   8   8
#     4  12  23  36  56  81 109 140 177 221 265 315
#     4   9  17  28  44  70 101 130 163 208 261 309
#     4   9  16  28  48  71  95 128 171 214 255 305
#     4  10  18  30  49  72  99 131 168 212 258 307
#     4  10  20  34  55  83 111 139 174 217 266 316
#     4  10  20  35  53  74 105 142 175 217 266 317
#     4   9  18  32  49  72 102 134 172 215 262 309
#     4   9  17  30  50  75 101 133 175 219 263 313
#
# _framework density 17.905646000000001
#
# number of rings (size 3 to 8) (size 9 to 14) (size 15 to 20)
#    0.000    2.250    2.500    1.500    0.000    0.750 
#    0.000    2.500    0.000    6.000    0.000    0.000 
#    0.000    6.000    0.000    0.000    0.000    0.000 
#
# Total GULP energy -793327.499154 kJ/mol
# GULP energy per Si atom -12395.742174 kJ/mol
# Density = 1.786489 g / cm^3
# Si number density = 17.905646 Si / 1000 Ang^3
#
#
#
# Elastic Constant Matrix: (Units=GPa)
#
#
# Indices 1 2 3 4 5 6 
#
# 1 152.0968 39.9544 80.4498 0.0000 0.0000 0.0000
# 2 39.9544 54.7476 32.5752 0.0000 0.0000 0.0000
# 3 80.4498 32.5752 122.5084 0.0000 0.0000 0.0000
# 4 0.0000 0.0000 0.0000 20.1135 0.0000 0.0000
# 5 0.0000 0.0000 0.0000 0.0000 30.0984 0.0000
# 6 0.0000 0.0000 0.0000 0.0000 0.0000 22.0573
#
#
#
# Elastic Compliance Matrix: (Units=1/GPa)
#
#
# Indices 1 2 3 4 5 6 
#
# 1 0.010894 -0.004388 -0.005987 0.000000 0.000000 0.000000
# 2 -0.004388 0.023466 -0.003358 0.000000 0.000000 0.000000
# 3 -0.005987 -0.003358 0.012988 0.000000 0.000000 0.000000
# 4 0.000000 0.000000 0.000000 0.049718 0.000000 0.000000
# 5 0.000000 0.000000 0.000000 0.000000 0.033224 0.000000
# 6 0.000000 0.000000 0.000000 0.000000 0.000000 0.045337
#
#
# Mechanical properties :
#
#
# Convention : Reuss Voigt Hill
#
# Bulk Modulus (GPa) = 50.29973 70.59017 60.44495
# Shear Modulus (GPa) = 23.84120 26.21207 25.02663
#
# Velocity S-wave (km/s) = 3.65292 3.83025 3.74263
# Velocity P-wave (km/s) = 6.77822 7.68570 7.24618
#
# Compressibility (1/GPa) = 0.01988082
#
# Stress axis : x y z
#
# Youngs Moduli (GPa) = 91.78968 42.61464 76.99709
#
# Poissons Ratio (x) = 0.18700 0.46102
# Poissons Ratio (y) = 0.40278 0.25856
# Poissons Ratio (z) = 0.54959 0.14310
#
# Static dielectric constant tensor:
#      x y z
#    x 3.968300 0.000000 0.000000 
#    y 0.000000 2.753020 0.000000 
#    z 0.000000 0.000000 3.221930 
# 
# 
# High freq. dielectric constant tensor:
#      x y z
#    x 1.716640 0.000000 0.000000 
#    y 0.000000 1.677380 0.000000 
#    z 0.000000 0.000000 1.656550 
# 
# From -- ./inp_files/30950.got.cif
#   From: 2010.03.12/outbox.cif.g09.slc.cpg/sg59_16_cif.got.tgz:30950.got - 2010.04.16 16:29:54.
