data_PCOD8239995
_publ_section_title
;
Structure prediction by ZEFSAII (Michael W. Deem and Ramdas Pophale) SiO2 
 PCOD8239995
Probable space group: P M M N
;
_chemical_formula_sum "Si O2"
_cell_formula_units_Z 64
_cell_length_a 29.143986
_cell_length_b 8.571518
_cell_length_c 12.674892
_cell_angle_alpha 90.000000
_cell_angle_beta 90.000000
_cell_angle_gamma 90.000000
_cell_volume 3166.291963
_symmetry_space_group_name_H-M "P M M N"
_symmetry_group_IT_number 59
_space_group.IT_coordinate_system_code '2'
_symmetry_cell_setting 'orthorhombic'
loop_
_space_group_symop_operation_xyz
x,y,z
1/2-x,1/2-y,z
1/2+x,-y,-z
-x,1/2+y,-z
-x,-y,-z
1/2+x,1/2+y,-z
1/2-x,y,z
x,1/2-y,z
loop_
_atom_site_type_symbol
_atom_site_label
_atom_site_fract_x
_atom_site_fract_y
_atom_site_fract_z
Si Si1 0.431296 0.568891 0.021530
Si Si2 0.449486 0.068602 0.245284
Si Si3 0.800328 0.072339 0.862217
Si Si4 0.338971 0.069398 0.949837
Si Si5 0.197570 0.564144 0.524681
Si Si6 0.139414 0.934132 0.328408
Si Si7 0.547670 0.434428 0.205953
Si Si8 0.647812 0.435696 0.264176
O O1 0.440133 0.750000 0.049006
O O2 0.378512 0.544419 0.992168
O O3 0.458573 0.509804 0.916541
O O4 0.442400 0.464410 0.122011
O O5 0.442813 0.250000 0.265902
O O6 0.502138 0.014759 0.271351
O O7 0.414121 0.982180 0.323472
O O8 0.750000 0.065564 0.809736
O O9 0.813004 0.250000 0.891918
O O10 0.836331 0.003489 0.777597
O O11 0.798561 0.964234 0.966776
O O12 0.353247 0.250000 0.949077
O O13 0.324797 0.014354 0.832713
O O14 0.250000 0.500545 0.518549
O O15 0.198390 0.750000 0.521859
O O16 0.166588 0.496400 0.428964
O O17 0.172705 0.504249 0.630625
O O18 0.142633 0.750000 0.334271
O O19 0.551395 0.250000 0.201341
O O20 0.594529 0.496692 0.260465
O O21 0.650425 0.250000 0.255149
#
# Coordination Sequence:
#
# PCOD8239995 Si02
#       8
#     8   8   8   8   8   8   8   8
#     4  10  18  32  52  75 106 145 187 226 265 314
#     4  11  20  31  49  76 110 147 185 222 269 327
#     4  10  20  34  53  75 104 143 181 220 273 334
#     4  11  21  33  51  79 114 146 176 218 273 331
#     4   9  18  35  62  89 105 130 183 240 279 319
#     4  10  20  35  55  80 110 140 179 231 278 322
#     4   8  17  31  49  75 108 147 185 222 267 322
#     4   9  18  36  59  80 108 143 184 231 276 324
#
# _framework density 20.212917999999998
#
# number of rings (size 3 to 8) (size 9 to 14) (size 15 to 20)
#    0.000    2.250    1.250    3.375    0.000    2.250 
#    0.000    8.125    0.000    1.875    0.000    0.000 
#    0.000    0.000    0.000    0.000    0.000    0.000 
#
# Total GULP energy -793156.449690 kJ/mol
# GULP energy per Si atom -12393.069526 kJ/mol
# Density = 2.016691 g / cm^3
# Si number density = 20.212918 Si / 1000 Ang^3
#
#
#
# Elastic Constant Matrix: (Units=GPa)
#
#
# Indices 1 2 3 4 5 6 
#
# 1 91.9603 3.5278 55.3105 0.0000 0.0000 0.0000
# 2 3.5278 29.2235 20.8674 0.0000 0.0000 0.0000
# 3 55.3105 20.8674 126.5294 0.0000 0.0000 0.0000
# 4 0.0000 0.0000 0.0000 14.5150 0.0000 0.0000
# 5 0.0000 0.0000 0.0000 0.0000 25.6021 0.0000
# 6 0.0000 0.0000 0.0000 0.0000 0.0000 21.7574
#
#
#
# Elastic Compliance Matrix: (Units=1/GPa)
#
#
# Indices 1 2 3 4 5 6 
#
# 1 0.015022 0.003259 -0.007104 0.000000 0.000000 0.000000
# 2 0.003259 0.039494 -0.007938 0.000000 0.000000 0.000000
# 3 -0.007104 -0.007938 0.012318 0.000000 0.000000 0.000000
# 4 0.000000 0.000000 0.000000 0.068894 0.000000 0.000000
# 5 0.000000 0.000000 0.000000 0.000000 0.039059 0.000000
# 6 0.000000 0.000000 0.000000 0.000000 0.000000 0.045961
#
#
# Mechanical properties :
#
#
# Convention : Reuss Voigt Hill
#
# Bulk Modulus (GPa) = 23.11173 45.23606 34.17390
# Shear Modulus (GPa) = 19.32459 23.57541 21.45000
#
# Velocity S-wave (km/s) = 3.09536 3.41890 3.26114
# Velocity P-wave (km/s) = 4.92280 6.16551 5.57887
#
# Compressibility (1/GPa) = 0.04326807
#
# Stress axis : x y z
#
# Youngs Moduli (GPa) = 66.56840 25.32031 81.18201
#
# Poissons Ratio (x) = -0.08253 0.57674
# Poissons Ratio (y) = -0.21697 0.64444
# Poissons Ratio (z) = 0.47292 0.20100
#
# Static dielectric constant tensor:
#      x y z
#    x 3.945500 0.000000 0.000000 
#    y 0.000000 3.209500 0.000000 
#    z 0.000000 0.000000 3.706760 
# 
# 
# High freq. dielectric constant tensor:
#      x y z
#    x 1.797650 0.000000 0.000000 
#    y 0.000000 1.752940 0.000000 
#    z 0.000000 0.000000 1.770610 
# 
# From -- ./inp_files/19268.got.cif
#   From: 2010.03.12/outbox.cif.g09.slc.cpg/sg59_10_cif.got.tgz:19268.got - 2010.04.16 16:29:54.
