data_PCOD8239633
_publ_section_title
;
Structure prediction by ZEFSAII (Michael W. Deem and Ramdas Pophale) SiO2 
 PCOD8239633
Probable space group: P M M N
;
_chemical_formula_sum "Si O2"
_cell_formula_units_Z 64
_cell_length_a 29.080517
_cell_length_b 8.861000
_cell_length_c 12.267012
_cell_angle_alpha 90.000000
_cell_angle_beta 90.000000
_cell_angle_gamma 90.000000
_cell_volume 3160.993843
_symmetry_space_group_name_H-M "P M M N"
_symmetry_group_IT_number 59
_space_group.IT_coordinate_system_code '2'
_symmetry_cell_setting 'orthorhombic'
loop_
_space_group_symop_operation_xyz
x,y,z
1/2-x,1/2-y,z
1/2+x,-y,-z
-x,1/2+y,-z
-x,-y,-z
1/2+x,1/2+y,-z
1/2-x,y,z
x,1/2-y,z
loop_
_atom_site_type_symbol
_atom_site_label
_atom_site_fract_x
_atom_site_fract_y
_atom_site_fract_z
Si Si1 0.353888 0.426614 0.289178
Si Si2 0.699359 0.419420 0.146655
Si Si3 0.697451 0.071593 0.512354
Si Si4 0.945536 0.079259 0.764368
Si Si5 0.140938 0.425054 0.679299
Si Si6 0.832640 0.574999 0.954151
Si Si7 0.454106 0.425248 0.779936
Si Si8 0.424081 0.923518 0.991284
O O1 0.351525 0.250000 0.312901
O O2 0.322369 0.511895 0.374621
O O3 0.407651 0.473578 0.292926
O O4 0.332510 0.470806 0.172405
O O5 0.750000 0.421435 0.199680
O O6 0.679151 0.250000 0.152312
O O7 0.666715 0.534801 0.209369
O O8 0.704143 0.475943 0.021261
O O9 0.750000 0.012472 0.495554
O O10 0.697230 0.250000 0.514508
O O11 0.663339 0.019513 0.417474
O O12 0.930356 0.250000 0.738155
O O13 0.996944 0.044672 0.719085
O O14 0.950259 0.054315 0.894533
O O15 0.147386 0.250000 0.652023
O O16 0.087080 0.466759 0.696000
O O17 0.821462 0.750000 0.968365
O O18 0.880944 0.535023 0.009588
O O19 0.450283 0.250000 0.814769
O O20 0.454520 0.527434 0.888433
O O21 0.408495 0.750000 0.977175
#
# Coordination Sequence:
#
# PCOD8239633 Si02
#       8
#     8   8   8   8   8   8   8   8
#     4  10  22  40  63  90 120 152 195 250 300 353
#     4  11  23  37  55  82 117 154 193 240 296 359
#     4  11  25  45  68  90 113 148 196 249 304 362
#     4   9  19  35  55  84 122 162 201 241 290 348
#     4  11  23  39  61  88 119 155 197 246 297 350
#     4  10  20  35  55  82 117 154 190 235 291 351
#     4  10  20  34  54  83 121 161 200 242 290 348
#     4  10  18  29  51  81 116 159 200 240 283 339
#
# _framework density 20.246797000000001
#
# number of rings (size 3 to 8) (size 9 to 14) (size 15 to 20)
#    0.000    1.750    1.250    3.000    0.000    7.000 
#    0.000    3.125    0.000    0.000    0.000    0.000 
#    0.000    0.000    0.000    0.000    0.000    0.000 
#
# Total GULP energy -793440.144531 kJ/mol
# GULP energy per Si atom -12397.502258 kJ/mol
# Density = 2.020071 g / cm^3
# Si number density = 20.246797 Si / 1000 Ang^3
#
#
#
# Elastic Constant Matrix: (Units=GPa)
#
#
# Indices 1 2 3 4 5 6 
#
# 1 95.7177 32.1787 33.5060 0.0000 0.0000 0.0000
# 2 32.1787 66.7654 32.0703 0.0000 0.0000 0.0000
# 3 33.5060 32.0703 80.0363 0.0000 0.0000 0.0000
# 4 0.0000 0.0000 0.0000 33.9873 0.0000 0.0000
# 5 0.0000 0.0000 0.0000 0.0000 21.7718 0.0000
# 6 0.0000 0.0000 0.0000 0.0000 0.0000 29.2794
#
#
#
# Elastic Compliance Matrix: (Units=1/GPa)
#
#
# Indices 1 2 3 4 5 6 
#
# 1 0.013304 -0.004627 -0.003715 0.000000 0.000000 0.000000
# 2 -0.004627 0.020157 -0.006140 0.000000 0.000000 0.000000
# 3 -0.003715 -0.006140 0.016510 0.000000 0.000000 0.000000
# 4 0.000000 0.000000 0.000000 0.029423 0.000000 0.000000
# 5 0.000000 0.000000 0.000000 0.000000 0.045931 0.000000
# 6 0.000000 0.000000 0.000000 0.000000 0.000000 0.034154
#
#
# Mechanical properties :
#
#
# Convention : Reuss Voigt Hill
#
# Bulk Modulus (GPa) = 47.60534 48.66994 48.13764
# Shear Modulus (GPa) = 25.58271 26.65866 26.12069
#
# Velocity S-wave (km/s) = 3.55849 3.63255 3.59571
# Velocity P-wave (km/s) = 6.35983 6.45635 6.40827
#
# Compressibility (1/GPa) = 0.02100605
#
# Stress axis : x y z
#
# Youngs Moduli (GPa) = 75.16813 49.60999 60.57001
#
# Poissons Ratio (x) = 0.22956 0.22503
# Poissons Ratio (y) = 0.34783 0.37189
# Poissons Ratio (z) = 0.27926 0.30459
#
# Static dielectric constant tensor:
#      x y z
#    x 3.836370 0.000000 0.000000 
#    y 0.000000 3.654610 0.000000 
#    z 0.000000 0.000000 3.590120 
# 
# 
# High freq. dielectric constant tensor:
#      x y z
#    x 1.796700 0.000000 0.000000 
#    y 0.000000 1.794750 0.000000 
#    z 0.000000 0.000000 1.770280 
# 
# From -- ./inp_files/19270.got.cif
#   From: 2010.03.12/outbox.cif.g09.slc.cpg/sg59_10_cif.got.tgz:19270.got - 2010.04.16 16:29:54.
