data_PCOD8239684
_publ_section_title
;
Structure prediction by ZEFSAII (Michael W. Deem and Ramdas Pophale) SiO2 
 PCOD8239684
Probable space group: P M M N
;
_chemical_formula_sum "Si O2"
_cell_formula_units_Z 48
_cell_length_a 8.717266
_cell_length_b 20.933123
_cell_length_c 14.315300
_cell_angle_alpha 90.000000
_cell_angle_beta 90.000000
_cell_angle_gamma 90.000000
_cell_volume 2612.250238
_symmetry_space_group_name_H-M "P M M N"
_symmetry_group_IT_number 59
_space_group.IT_coordinate_system_code '2'
_symmetry_cell_setting 'orthorhombic'
loop_
_space_group_symop_operation_xyz
x,y,z
1/2-x,1/2-y,z
1/2+x,-y,-z
-x,1/2+y,-z
-x,-y,-z
1/2+x,1/2+y,-z
1/2-x,y,z
x,1/2-y,z
loop_
_atom_site_type_symbol
_atom_site_label
_atom_site_fract_x
_atom_site_fract_y
_atom_site_fract_z
Si Si1 0.429787 0.104982 0.134786
Si Si2 0.567735 0.434564 0.959358
Si Si3 0.567895 0.522781 0.217831
Si Si4 0.070325 0.177503 0.475639
Si Si5 0.918264 0.324081 0.286799
Si Si6 0.569827 0.950125 0.426844
O O1 0.250000 0.093551 0.123870
O O2 0.468968 0.165095 0.199346
O O3 0.506943 0.046113 0.188625
O O4 0.504217 0.118187 0.032307
O O5 0.750000 0.435309 0.958301
O O6 0.503651 0.424763 0.854249
O O7 0.500000 0.500000 0.000000
O O8 0.750000 0.526010 0.210475
O O9 0.508710 0.536759 0.322322
O O10 0.250000 0.178958 0.456157
O O11 0.015882 0.250000 0.504140
O O12 0.027104 0.124301 0.552904
O O13 0.991328 0.150298 0.382278
O O14 0.750000 0.356333 0.271904
O O15 0.897069 0.250000 0.298649
O O16 0.750000 0.960421 0.431942
O O17 0.500000 0.000000 0.500000
#
# Coordination Sequence:
#
# PCOD8239684 Si02
#       6
#     8   8   8   8   8   8
#     4  11  20  31  49  72  98 127 160 198 243 294
#     4  10  18  30  48  70  95 125 159 194 239 293
#     4  10  19  32  48  70 100 130 162 201 247 294
#     4   9  18  34  53  72  97 131 170 206 243 293
#     4  10  20  33  49  71  98 127 160 199 244 293
#     4  10  21  33  49  74 102 132 165 207 254 295
#
# _framework density 18.374963000000001
#
# number of rings (size 3 to 8) (size 9 to 14) (size 15 to 20)
#    0.000    2.000    0.000    7.000    0.000    5.667 
#    0.000    0.000    0.000    1.000    0.000    2.333 
#    0.000    0.000    0.000    0.000    0.000    0.000 
#
# Total GULP energy -594864.299360 kJ/mol
# GULP energy per Si atom -12393.006237 kJ/mol
# Density = 1.833314 g / cm^3
# Si number density = 18.374963 Si / 1000 Ang^3
#
#
#
# Elastic Constant Matrix: (Units=GPa)
#
#
# Indices 1 2 3 4 5 6 
#
# 1 99.4453 20.1042 53.9869 0.0000 0.0000 0.0000
# 2 20.1042 49.6192 39.5741 0.0000 0.0000 0.0000
# 3 53.9869 39.5741 166.9104 0.0000 0.0000 0.0000
# 4 0.0000 0.0000 0.0000 26.8682 0.0000 0.0000
# 5 0.0000 0.0000 0.0000 0.0000 31.4972 0.0000
# 6 0.0000 0.0000 0.0000 0.0000 0.0000 20.4635
#
#
#
# Elastic Compliance Matrix: (Units=1/GPa)
#
#
# Indices 1 2 3 4 5 6 
#
# 1 0.012398 -0.002251 -0.003477 0.000000 0.000000 0.000000
# 2 -0.002251 0.025262 -0.005262 0.000000 0.000000 0.000000
# 3 -0.003477 -0.005262 0.008363 0.000000 0.000000 0.000000
# 4 0.000000 0.000000 0.000000 0.037219 0.000000 0.000000
# 5 0.000000 0.000000 0.000000 0.000000 0.031749 0.000000
# 6 0.000000 0.000000 0.000000 0.000000 0.000000 0.048868
#
#
# Mechanical properties :
#
#
# Convention : Reuss Voigt Hill
#
# Bulk Modulus (GPa) = 41.58750 60.36728 50.97739
# Shear Modulus (GPa) = 25.79304 29.25310 27.52307
#
# Velocity S-wave (km/s) = 3.75067 3.99433 3.87441
# Velocity P-wave (km/s) = 6.43728 7.36187 6.91505
#
# Compressibility (1/GPa) = 0.02404569
#
# Stress axis : x y z
#
# Youngs Moduli (GPa) = 80.65738 39.58553 119.57116
#
# Poissons Ratio (x) = 0.08909 0.41569
# Poissons Ratio (y) = 0.18153 0.62913
# Poissons Ratio (z) = 0.28041 0.20828
#
# Static dielectric constant tensor:
#      x y z
#    x 3.649260 0.000000 0.000000 
#    y 0.000000 3.315870 0.000000 
#    z 0.000000 0.000000 4.002210 
# 
# 
# High freq. dielectric constant tensor:
#      x y z
#    x 1.723310 0.000000 0.000000 
#    y 0.000000 1.677050 0.000000 
#    z 0.000000 0.000000 1.719620 
# 
# From -- ./inp_files/20747.got.cif
#   From: 2010.03.12/outbox.cif.g09.slc.cpg/sg59_11_cif.got.tgz:20747.got - 2010.04.16 16:29:54.
