data_PCOD8239505
_publ_section_title
;
Structure prediction by ZEFSAII (Michael W. Deem and Ramdas Pophale) SiO2 
 PCOD8239505
Probable space group: P M M N
;
_chemical_formula_sum "Si O2"
_cell_formula_units_Z 56
_cell_length_a 24.270174
_cell_length_b 8.887539
_cell_length_c 16.193081
_cell_angle_alpha 90.000000
_cell_angle_beta 90.000000
_cell_angle_gamma 90.000000
_cell_volume 3492.881868
_symmetry_space_group_name_H-M "P M M N"
_symmetry_group_IT_number 59
_space_group.IT_coordinate_system_code '2'
_symmetry_cell_setting 'orthorhombic'
loop_
_space_group_symop_operation_xyz
x,y,z
1/2-x,1/2-y,z
1/2+x,-y,-z
-x,1/2+y,-z
-x,-y,-z
1/2+x,1/2+y,-z
1/2-x,y,z
x,1/2-y,z
loop_
_atom_site_type_symbol
_atom_site_label
_atom_site_fract_x
_atom_site_fract_y
_atom_site_fract_z
Si Si1 0.491292 0.572419 0.702666
Si Si2 0.687247 0.427457 0.909152
Si Si3 0.052142 0.577280 0.536759
Si Si4 0.185971 0.078041 0.263610
Si Si5 0.008065 0.426161 0.873612
Si Si6 0.915007 0.926079 0.975180
Si Si7 0.600237 0.073042 0.627109
O O1 0.496574 0.750000 0.718716
O O2 0.443165 0.533496 0.634096
O O3 0.472700 0.490938 0.786093
O O4 0.549666 0.509538 0.671784
O O5 0.750000 0.471126 0.933367
O O6 0.679615 0.250000 0.905613
O O7 0.670917 0.495187 0.820972
O O8 0.645443 0.497983 0.975964
O O9 0.037266 0.750000 0.533305
O O10 0.102117 0.541987 0.473045
O O11 0.000000 0.500000 0.500000
O O12 0.250000 0.066971 0.283333
O O13 0.166133 0.250000 0.256581
O O14 0.156535 0.994421 0.338830
O O15 0.996260 0.250000 0.867340
O O16 0.951673 0.505297 0.901663
O O17 0.057149 0.462475 0.937171
O O18 0.908928 0.750000 0.959504
O O19 0.596110 0.250000 0.646269
#
# Coordination Sequence:
#
# PCOD8239505 Si02
#       7
#     8   8   8   8   8   8   8
#     4  10  18  29  45  65  90 118 148 179 215 259
#     4  10  20  33  49  68  90 117 149 185 224 265
#     4   8  16  28  42  62  86 113 143 174 208 249
#     4  10  20  32  45  63  88 117 149 181 214 256
#     4  10  20  32  46  66  92 121 152 185 223 267
#     4  10  20  33  48  66  90 120 152 185 223 267
#     4  10  18  29  45  64  89 118 147 180 217 256
#
# _framework density 16.032606999999999
#
# number of rings (size 3 to 8) (size 9 to 14) (size 15 to 20)
#    0.000    2.286    0.000    3.429    0.000    4.571 
#    0.000    0.000    0.000    0.000    0.000    1.000 
#    0.000    1.143    0.000    0.000    0.000    0.000 
#
# Total GULP energy -694055.378510 kJ/mol
# GULP energy per Si atom -12393.846045 kJ/mol
# Density = 1.599612 g / cm^3
# Si number density = 16.032607 Si / 1000 Ang^3
#
#
#
# Elastic Constant Matrix: (Units=GPa)
#
#
# Indices 1 2 3 4 5 6 
#
# 1 71.1164 32.1961 45.0363 0.0000 0.0000 0.0000
# 2 32.1961 69.4066 45.3216 0.0000 0.0000 0.0000
# 3 45.0363 45.3216 111.1669 0.0000 0.0000 0.0000
# 4 0.0000 0.0000 0.0000 25.7405 0.0000 0.0000
# 5 0.0000 0.0000 0.0000 0.0000 23.9173 0.0000
# 6 0.0000 0.0000 0.0000 0.0000 0.0000 25.7571
#
#
#
# Elastic Compliance Matrix: (Units=1/GPa)
#
#
# Indices 1 2 3 4 5 6 
#
# 1 0.020361 -0.005531 -0.005994 0.000000 0.000000 0.000000
# 2 -0.005531 0.021138 -0.006377 0.000000 0.000000 0.000000
# 3 -0.005994 -0.006377 0.014023 0.000000 0.000000 0.000000
# 4 0.000000 0.000000 0.000000 0.038849 0.000000 0.000000
# 5 0.000000 0.000000 0.000000 0.000000 0.041811 0.000000
# 6 0.000000 0.000000 0.000000 0.000000 0.000000 0.038824
#
#
# Mechanical properties :
#
#
# Convention : Reuss Voigt Hill
#
# Bulk Modulus (GPa) = 50.71314 55.19976 52.95645
# Shear Modulus (GPa) = 23.00086 23.69204 23.34645
#
# Velocity S-wave (km/s) = 3.79176 3.84831 3.82014
# Velocity P-wave (km/s) = 7.13231 7.36549 7.24984
#
# Compressibility (1/GPa) = 0.01971876
#
# Stress axis : x y z
#
# Youngs Moduli (GPa) = 49.11270 47.30912 71.30916
#
# Poissons Ratio (x) = 0.26168 0.42741
# Poissons Ratio (y) = 0.27165 0.45472
# Poissons Ratio (z) = 0.29437 0.30168
#
# Static dielectric constant tensor:
#      x y z
#    x 2.934670 0.000000 0.000000 
#    y 0.000000 3.159930 0.000000 
#    z 0.000000 0.000000 3.368990 
# 
# 
# High freq. dielectric constant tensor:
#      x y z
#    x 1.584920 0.000000 0.000000 
#    y 0.000000 1.637640 0.000000 
#    z 0.000000 0.000000 1.612720 
# 
# From -- ./inp_files/28380.got.cif
#   From: 2010.03.12/outbox.cif.g09.slc.cpg/sg59_15_cif.got.tgz:28380.got - 2010.04.16 16:29:54.
