data_PCOD8239122
_publ_section_title
;
Structure prediction by ZEFSAII (Michael W. Deem and Ramdas Pophale) SiO2 
 PCOD8239122
Probable space group: P M M N
;
_chemical_formula_sum "Si O2"
_cell_formula_units_Z 56
_cell_length_a 9.101987
_cell_length_b 28.042915
_cell_length_c 13.537818
_cell_angle_alpha 90.000000
_cell_angle_beta 90.000000
_cell_angle_gamma 90.000000
_cell_volume 3455.477248
_symmetry_space_group_name_H-M "P M M N"
_symmetry_group_IT_number 59
_space_group.IT_coordinate_system_code '2'
_symmetry_cell_setting 'orthorhombic'
loop_
_space_group_symop_operation_xyz
x,y,z
1/2-x,1/2-y,z
1/2+x,-y,-z
-x,1/2+y,-z
-x,-y,-z
1/2+x,1/2+y,-z
1/2-x,y,z
x,1/2-y,z
loop_
_atom_site_type_symbol
_atom_site_label
_atom_site_fract_x
_atom_site_fract_y
_atom_site_fract_z
Si Si1 0.583731 0.461901 0.791447
Si Si2 0.419722 0.389911 0.913180
Si Si3 0.923516 0.519149 0.596913
Si Si4 0.577445 0.099963 0.296749
Si Si5 0.916771 0.559157 0.884129
Si Si6 0.076351 0.801676 0.776337
Si Si7 0.079919 0.695467 0.997634
O O1 0.750000 0.443572 0.784801
O O2 0.484123 0.416427 0.817024
O O3 0.534571 0.483985 0.686518
O O4 0.566835 0.502071 0.876345
O O5 0.250000 0.381126 0.894357
O O6 0.451710 0.424098 0.005969
O O7 0.493477 0.338525 0.927286
O O8 0.750000 0.522966 0.581418
O O9 0.000000 0.500000 0.500000
O O10 0.986153 0.571912 0.620178
O O11 0.750000 0.091648 0.314403
O O12 0.535407 0.082985 0.187384
O O13 0.534356 0.156361 0.300462
O O14 0.750000 0.573492 0.851925
O O15 0.250000 0.799042 0.788586
O O16 0.017485 0.750000 0.737848
O O17 0.014804 0.811750 0.886787
O O18 0.250000 0.681130 0.001998
O O19 0.056425 0.750000 0.031603
#
# Coordination Sequence:
#
# PCOD8239122 Si02
#       7
#     8   8   8   8   8   8   8
#     4   9  19  33  47  64  90 122 156 190 227 280
#     4  11  20  28  43  67  96 126 159 198 237 273
#     4  10  21  37  54  72  95 120 152 196 242 293
#     4  10  17  27  48  72  94 126 161 195 236 280
#     4   9  18  30  41  61  95 129 159 193 229 268
#     4   8  14  25  42  66  94 125 163 198 225 265
#     4   9  17  30  46  63  89 129 171 202 230 271
#
# _framework density 16.206156
#
# number of rings (size 3 to 8) (size 9 to 14) (size 15 to 20)
#    0.000    2.571    1.429    3.429    0.000    3.714 
#    0.000    0.000    0.000    1.714    0.000    1.000 
#    0.000    3.429    0.000    0.000    0.000    0.000 
#
# Total GULP energy -694153.533573 kJ/mol
# GULP energy per Si atom -12395.598814 kJ/mol
# Density = 1.616927 g / cm^3
# Si number density = 16.206156 Si / 1000 Ang^3
#
#
#
# Elastic Constant Matrix: (Units=GPa)
#
#
# Indices 1 2 3 4 5 6 
#
# 1 76.0912 55.4590 37.5958 0.0000 0.0000 0.0000
# 2 55.4590 122.6698 51.8367 0.0000 0.0000 0.0000
# 3 37.5958 51.8367 60.5027 0.0000 0.0000 0.0000
# 4 0.0000 0.0000 0.0000 18.8299 0.0000 0.0000
# 5 0.0000 0.0000 0.0000 0.0000 22.4278 0.0000
# 6 0.0000 0.0000 0.0000 0.0000 0.0000 25.0914
#
#
#
# Elastic Compliance Matrix: (Units=1/GPa)
#
#
# Indices 1 2 3 4 5 6 
#
# 1 0.021823 -0.006483 -0.008006 0.000000 0.000000 0.000000
# 2 -0.006483 0.014704 -0.008570 0.000000 0.000000 0.000000
# 3 -0.008006 -0.008570 0.028845 0.000000 0.000000 0.000000
# 4 0.000000 0.000000 0.000000 0.053107 0.000000 0.000000
# 5 0.000000 0.000000 0.000000 0.000000 0.044588 0.000000
# 6 0.000000 0.000000 0.000000 0.000000 0.000000 0.039854
#
#
# Mechanical properties :
#
#
# Convention : Reuss Voigt Hill
#
# Bulk Modulus (GPa) = 51.93469 61.00519 56.46994
# Shear Modulus (GPa) = 19.57275 20.89463 20.23369
#
# Velocity S-wave (km/s) = 3.47902 3.59458 3.53727
# Velocity P-wave (km/s) = 6.94651 7.41303 7.18355
#
# Compressibility (1/GPa) = 0.01925495
#
# Stress axis : x y z
#
# Youngs Moduli (GPa) = 45.82313 68.00779 34.66767
#
# Poissons Ratio (x) = 0.44090 0.27756
# Poissons Ratio (y) = 0.29707 0.29709
# Poissons Ratio (z) = 0.36687 0.58280
#
# Static dielectric constant tensor:
#      x y z
#    x 2.988100 0.000000 0.000000 
#    y 0.000000 3.268280 0.000000 
#    z 0.000000 0.000000 2.715860 
# 
# 
# High freq. dielectric constant tensor:
#      x y z
#    x 1.620870 0.000000 0.000000 
#    y 0.000000 1.625310 0.000000 
#    z 0.000000 0.000000 1.576180 
# 
# From -- ./inp_files/21741.got.cif
#   From: 2010.03.12/outbox.cif.g09.slc.cpg/sg59_11_cif.got.tgz:21741.got - 2010.04.16 16:29:54.
