data_PCOD8239818
_publ_section_title
;
Structure prediction by ZEFSAII (Michael W. Deem and Ramdas Pophale) SiO2 
 PCOD8239818
Probable space group: P M M N
;
_chemical_formula_sum "Si O2"
_cell_formula_units_Z 64
_cell_length_a 8.971749
_cell_length_b 28.319285
_cell_length_c 15.588593
_cell_angle_alpha 90.000000
_cell_angle_beta 90.000000
_cell_angle_gamma 90.000000
_cell_volume 3960.648647
_symmetry_space_group_name_H-M "P M M N"
_symmetry_group_IT_number 59
_space_group.IT_coordinate_system_code '2'
_symmetry_cell_setting 'orthorhombic'
loop_
_space_group_symop_operation_xyz
x,y,z
1/2-x,1/2-y,z
1/2+x,-y,-z
-x,1/2+y,-z
-x,-y,-z
1/2+x,1/2+y,-z
1/2-x,y,z
x,1/2-y,z
loop_
_atom_site_type_symbol
_atom_site_label
_atom_site_fract_x
_atom_site_fract_y
_atom_site_fract_z
Si Si1 0.074664 0.550424 0.005026
Si Si2 0.427216 0.439792 0.671419
Si Si3 0.076577 0.953135 0.683316
Si Si4 0.424455 0.550362 0.495465
Si Si5 0.574536 0.109728 0.829213
Si Si6 0.924114 0.697173 0.896594
Si Si7 0.926600 0.392621 0.160787
Si Si8 0.422136 0.303830 0.906252
O O1 0.250000 0.543194 0.000157
O O2 0.017884 0.581549 0.925308
O O3 0.026079 0.576245 0.092184
O O4 0.000000 0.500000 0.000000
O O5 0.250000 0.436983 0.666536
O O6 0.487166 0.493339 0.686655
O O7 0.495128 0.420610 0.580805
O O8 0.486856 0.406536 0.745691
O O9 0.250000 0.958012 0.702597
O O10 0.049628 0.927752 0.590796
O O11 0.004942 0.921007 0.757930
O O12 0.500000 0.500000 0.500000
O O13 0.250000 0.545543 0.475192
O O14 0.750000 0.107746 0.812402
O O15 0.526629 0.163266 0.848552
O O16 0.750000 0.688123 0.886541
O O17 0.965807 0.750000 0.865989
O O18 0.011165 0.660423 0.836967
O O19 0.972137 0.690582 0.995258
O O20 0.750000 0.389648 0.165370
O O21 0.250000 0.318619 0.895087
O O22 0.445990 0.250000 0.875970
#
# Coordination Sequence:
#
# PCOD8239818 Si02
#       8
#     8   8   8   8   8   8   8   8
#     4  10  21  32  43  63  94 130 163 192 224 268
#     4  10  19  32  49  68  93 130 164 196 238 283
#     4   8  16  29  47  68  94 126 157 191 235 278
#     4   9  16  29  47  69  95 124 158 199 241 282
#     4  11  21  32  46  70  97 124 159 199 238 278
#     4   9  18  32  48  67  91 119 154 196 239 278
#     4  10  18  31  47  67  93 123 159 193 227 275
#     4   9  18  33  51  68  89 121 159 197 239 286
#
# _framework density 16.158968999999999
#
# number of rings (size 3 to 8) (size 9 to 14) (size 15 to 20)
#    0.000    2.500    1.250    3.375    0.000    3.000 
#    0.000    5.000    0.000    0.000    0.000    0.875 
#    0.000    5.000    0.000    0.000    0.000    0.000 
#
# Total GULP energy -793386.953333 kJ/mol
# GULP energy per Si atom -12396.671146 kJ/mol
# Density = 1.612219 g / cm^3
# Si number density = 16.158969 Si / 1000 Ang^3
#
#
#
# Elastic Constant Matrix: (Units=GPa)
#
#
# Indices 1 2 3 4 5 6 
#
# 1 51.5134 26.9024 33.9938 0.0000 0.0000 0.0000
# 2 26.9024 82.8984 33.7503 0.0000 0.0000 0.0000
# 3 33.9938 33.7503 95.3568 0.0000 0.0000 0.0000
# 4 0.0000 0.0000 0.0000 14.3710 0.0000 0.0000
# 5 0.0000 0.0000 0.0000 0.0000 21.6928 0.0000
# 6 0.0000 0.0000 0.0000 0.0000 0.0000 28.0006
#
#
#
# Elastic Compliance Matrix: (Units=1/GPa)
#
#
# Indices 1 2 3 4 5 6 
#
# 1 0.027565 -0.005777 -0.007782 0.000000 0.000000 0.000000
# 2 -0.005777 0.015305 -0.003357 0.000000 0.000000 0.000000
# 3 -0.007782 -0.003357 0.014449 0.000000 0.000000 0.000000
# 4 0.000000 0.000000 0.000000 0.069584 0.000000 0.000000
# 5 0.000000 0.000000 0.000000 0.000000 0.046098 0.000000
# 6 0.000000 0.000000 0.000000 0.000000 0.000000 0.035714
#
#
# Mechanical properties :
#
#
# Convention : Reuss Voigt Hill
#
# Bulk Modulus (GPa) = 42.57851 46.56241 44.57046
# Shear Modulus (GPa) = 19.96994 21.82103 20.89549
#
# Velocity S-wave (km/s) = 3.51927 3.67876 3.59990
# Velocity P-wave (km/s) = 6.55139 6.84997 6.70234
#
# Compressibility (1/GPa) = 0.02348603
#
# Stress axis : x y z
#
# Youngs Moduli (GPa) = 36.27828 65.33955 69.20717
#
# Poissons Ratio (x) = 0.37748 0.53856
# Poissons Ratio (y) = 0.20959 0.23236
# Poissons Ratio (z) = 0.28231 0.21937
#
# Static dielectric constant tensor:
#      x y z
#    x 2.995240 0.000000 0.000000 
#    y 0.000000 2.942770 0.000000 
#    z 0.000000 0.000000 3.350490 
# 
# 
# High freq. dielectric constant tensor:
#      x y z
#    x 1.617240 0.000000 0.000000 
#    y 0.000000 1.598530 0.000000 
#    z 0.000000 0.000000 1.616200 
# 
# From -- ./inp_files/21906.got.cif
#   From: 2010.03.12/outbox.cif.g09.slc.cpg/sg59_11_cif.got.tgz:21906.got - 2010.04.16 16:29:54.
