data_PCOD8239591
_publ_section_title
;
Structure prediction by ZEFSAII (Michael W. Deem and Ramdas Pophale) SiO2 
 PCOD8239591
Probable space group: P M M N
;
_chemical_formula_sum "Si O2"
_cell_formula_units_Z 64
_cell_length_a 23.367930
_cell_length_b 8.956866
_cell_length_c 15.593837
_cell_angle_alpha 90.000000
_cell_angle_beta 90.000000
_cell_angle_gamma 90.000000
_cell_volume 3263.843379
_symmetry_space_group_name_H-M "P M M N"
_symmetry_group_IT_number 59
_space_group.IT_coordinate_system_code '2'
_symmetry_cell_setting 'orthorhombic'
loop_
_space_group_symop_operation_xyz
x,y,z
1/2-x,1/2-y,z
1/2+x,-y,-z
-x,1/2+y,-z
-x,-y,-z
1/2+x,1/2+y,-z
1/2-x,y,z
x,1/2-y,z
loop_
_atom_site_type_symbol
_atom_site_label
_atom_site_fract_x
_atom_site_fract_y
_atom_site_fract_z
Si Si1 0.854950 0.413948 0.400613
Si Si2 0.011520 0.914710 0.584179
Si Si3 0.377037 0.425173 0.252411
Si Si4 0.880374 0.574381 0.233224
Si Si5 0.683698 0.073775 0.586644
Si Si6 0.682804 0.414316 0.891910
Si Si7 0.316282 0.577440 0.917669
Si Si8 0.009570 0.924980 0.252037
O O1 0.826507 0.250000 0.387490
O O2 0.921962 0.394915 0.405179
O O3 0.844484 0.512434 0.315294
O O4 0.830881 0.484629 0.489696
O O5 0.982367 0.750000 0.588111
O O6 0.000000 0.000000 0.500000
O O7 0.982469 0.027129 0.650082
O O8 0.382543 0.250000 0.265668
O O9 0.356731 0.495274 0.343097
O O10 0.331294 0.461880 0.178713
O O11 0.436173 0.490312 0.210622
O O12 0.881089 0.750000 0.245084
O O13 0.850059 0.528479 0.146390
O O14 0.946491 0.517685 0.223761
O O15 0.750000 0.036908 0.606788
O O16 0.671518 0.250000 0.591504
O O17 0.750000 0.403154 0.901473
O O18 0.659278 0.250000 0.863991
O O19 0.659477 0.455981 0.986777
O O20 0.250000 0.535587 0.910213
O O21 0.326640 0.750000 0.893291
O O22 0.016658 0.750000 0.237776
#
# Coordination Sequence:
#
# PCOD8239591 Si02
#       8
#     8   8   8   8   8   8   8   8
#     4   9  19  34  51  73 104 143 183 219 259 315
#     4  10  18  29  48  73 101 136 178 223 269 315
#     4  12  24  36  55  83 112 144 184 232 286 336
#     4  10  21  36  57  85 115 147 182 227 280 326
#     4  10  21  37  56  78 108 149 192 230 273 331
#     4   9  19  38  62  85 110 144 185 225 270 329
#     4   9  19  37  62  88 112 143 182 221 266 327
#     4  10  21  37  54  74 106 147 189 229 272 328
#
# _framework density 19.608785000000001
#
# number of rings (size 3 to 8) (size 9 to 14) (size 15 to 20)
#    0.000    2.125    0.000    4.125    0.000    6.750 
#    0.000    3.125    0.000    0.000    0.000    0.000 
#    0.000    0.000    0.000    0.000    0.000    0.000 
#
# Total GULP energy -793030.874454 kJ/mol
# GULP energy per Si atom -12391.107413 kJ/mol
# Density = 1.956415 g / cm^3
# Si number density = 19.608785 Si / 1000 Ang^3
#
#
#
# Elastic Constant Matrix: (Units=GPa)
#
#
# Indices 1 2 3 4 5 6 
#
# 1 59.7310 32.6127 29.3814 0.0000 0.0000 0.0000
# 2 32.6127 69.4206 33.5436 0.0000 0.0000 0.0000
# 3 29.3814 33.5436 107.0637 0.0000 0.0000 0.0000
# 4 0.0000 0.0000 0.0000 22.9448 0.0000 0.0000
# 5 0.0000 0.0000 0.0000 0.0000 21.9204 0.0000
# 6 0.0000 0.0000 0.0000 0.0000 0.0000 25.6473
#
#
#
# Elastic Compliance Matrix: (Units=1/GPa)
#
#
# Indices 1 2 3 4 5 6 
#
# 1 0.023603 -0.009378 -0.003539 0.000000 0.000000 0.000000
# 2 -0.009378 0.020701 -0.003912 0.000000 0.000000 0.000000
# 3 -0.003539 -0.003912 0.011537 0.000000 0.000000 0.000000
# 4 0.000000 0.000000 0.000000 0.043583 0.000000 0.000000
# 5 0.000000 0.000000 0.000000 0.000000 0.045620 0.000000
# 6 0.000000 0.000000 0.000000 0.000000 0.000000 0.038991
#
#
# Mechanical properties :
#
#
# Convention : Reuss Voigt Hill
#
# Bulk Modulus (GPa) = 45.08094 47.47673 46.27884
# Shear Modulus (GPa) = 22.21361 23.48100 22.84731
#
# Velocity S-wave (km/s) = 3.36942 3.46421 3.41714
# Velocity P-wave (km/s) = 6.17879 6.34551 6.26270
#
# Compressibility (1/GPa) = 0.02218232
#
# Stress axis : x y z
#
# Youngs Moduli (GPa) = 42.36737 48.30687 86.67671
#
# Poissons Ratio (x) = 0.45304 0.30676
# Poissons Ratio (y) = 0.39733 0.33908
# Poissons Ratio (z) = 0.14994 0.18898
#
# Static dielectric constant tensor:
#      x y z
#    x 3.572780 0.000000 0.000000 
#    y 0.000000 3.266870 0.000000 
#    z 0.000000 0.000000 3.565900 
# 
# 
# High freq. dielectric constant tensor:
#      x y z
#    x 1.759950 0.000000 0.000000 
#    y 0.000000 1.757160 0.000000 
#    z 0.000000 0.000000 1.759950 
# 
# From -- ./inp_files/24767.got.cif
#   From: 2010.03.12/outbox.cif.g09.slc.cpg/sg59_13_cif.got.tgz:24767.got - 2010.04.16 16:29:54.
