data_PCOD8239209
_publ_section_title
;
Structure prediction by ZEFSAII (Michael W. Deem and Ramdas Pophale) SiO2 
 PCOD8239209
Probable space group: P M M N
;
_chemical_formula_sum "Si O2"
_cell_formula_units_Z 48
_cell_length_a 18.617252
_cell_length_b 14.092583
_cell_length_c 9.168725
_cell_angle_alpha 90.000000
_cell_angle_beta 90.000000
_cell_angle_gamma 90.000000
_cell_volume 2405.554085
_symmetry_space_group_name_H-M "P M M N"
_symmetry_group_IT_number 59
_space_group.IT_coordinate_system_code '2'
_symmetry_cell_setting 'orthorhombic'
loop_
_space_group_symop_operation_xyz
x,y,z
1/2-x,1/2-y,z
1/2+x,-y,-z
-x,1/2+y,-z
-x,-y,-z
1/2+x,1/2+y,-z
1/2-x,y,z
x,1/2-y,z
loop_
_atom_site_type_symbol
_atom_site_label
_atom_site_fract_x
_atom_site_fract_y
_atom_site_fract_z
Si Si1 0.250000 0.977473 0.988883
Si Si2 0.103730 0.138852 0.340119
Si Si3 0.250000 0.390051 0.753725
Si Si4 0.643671 0.355965 0.187898
Si Si5 0.250000 0.032660 0.313552
Si Si6 0.590120 0.852725 0.325311
Si Si7 0.750000 0.084958 0.409636
Si Si8 0.989064 0.474874 0.167726
O O1 0.250000 0.979979 0.160675
O O2 0.320198 0.923245 0.931926
O O3 0.250000 0.086074 0.927457
O O4 0.097931 0.250000 0.289274
O O5 0.184947 0.104036 0.336047
O O6 0.076562 0.127350 0.504814
O O7 0.062631 0.062257 0.238712
O O8 0.324465 0.340326 0.709839
O O9 0.250000 0.488159 0.674226
O O10 0.650033 0.250000 0.128596
O O11 0.678924 0.360880 0.350846
O O12 0.561331 0.384737 0.196088
O O13 0.250000 0.939836 0.420085
O O14 0.556576 0.750000 0.284673
O O15 0.547220 0.932750 0.239202
O O16 0.000000 0.500000 0.000000
#
# Coordination Sequence:
#
# PCOD8239209 Si02
#       8
#     4   8   4   8   4   8   4   8
#     4  10  20  35  60  88 124 160 195 244 312 355
#     4  11  24  40  63  91 122 161 204 252 310 369
#     4  10  17  39  61  91 118 163 195 240 302 361
#     4  10  20  40  63  84 119 167 211 243 296 371
#     4  12  21  39  61  93 124 156 194 258 318 360
#     4  11  22  40  65  93 123 160 205 253 302 365
#     4  10  18  35  66  88 116 155 202 244 302 356
#     4  12  24  41  60  89 125 166 205 255 310 363
#
# _framework density 19.953824000000001
#
# number of rings (size 3 to 8) (size 9 to 14) (size 15 to 20)
#    0.000    1.333    5.000    3.500    0.000    2.667 
#    0.000    2.500    0.000    1.000    0.000    0.000 
#    0.000    0.000    0.000    0.000    0.000    0.000 
#
# Total GULP energy -594722.994522 kJ/mol
# GULP energy per Si atom -12390.062386 kJ/mol
# Density = 1.990841 g / cm^3
# Si number density = 19.953824 Si / 1000 Ang^3
#
#
#
# Elastic Constant Matrix: (Units=GPa)
#
#
# Indices 1 2 3 4 5 6 
#
# 1 93.8653 36.4411 28.1675 0.0000 0.0000 0.0000
# 2 36.4411 122.3750 49.1262 0.0000 0.0000 0.0000
# 3 28.1675 49.1262 128.3547 0.0000 0.0000 0.0000
# 4 0.0000 0.0000 0.0000 20.0219 0.0000 0.0000
# 5 0.0000 0.0000 0.0000 0.0000 19.8561 0.0000
# 6 0.0000 0.0000 0.0000 0.0000 0.0000 -4.3983
#
#
#
# Elastic Compliance Matrix: (Units=1/GPa)
#
#
# Indices 1 2 3 4 5 6 
#
# 1 0.012296 -0.003046 -0.001532 0.000000 0.000000 0.000000
# 2 -0.003046 0.010410 -0.003316 0.000000 0.000000 0.000000
# 3 -0.001532 -0.003316 0.009396 0.000000 0.000000 0.000000
# 4 0.000000 0.000000 0.000000 0.049945 0.000000 0.000000
# 5 0.000000 0.000000 0.000000 0.000000 0.050362 0.000000
# 6 0.000000 0.000000 0.000000 0.000000 0.000000 -0.227361
#
#
# Mechanical properties :
#
#
# Convention : Reuss Voigt Hill
#
# Bulk Modulus (GPa) = 61.30021 63.56273 62.43147
# Shear Modulus (GPa) = -67.81981 22.48663 -22.66659
#
# Velocity S-wave (km/s) = -5.83628 3.36062 -3.37405
# Velocity P-wave (km/s) = 3.82472 6.85438 4.02206
#
# Compressibility (1/GPa) = 0.01631316
#
# Stress axis : x y z
#
# Youngs Moduli (GPa) = 81.32658 96.06311 106.42550
#
# Poissons Ratio (x) = 0.29265 0.16309
# Poissons Ratio (y) = 0.24775 0.35288
# Poissons Ratio (z) = 0.12463 0.31852
#
# Static dielectric constant tensor:
#      x y z
#    x 3.378430 0.000000 0.000000 
#    y 0.000000 4.979360 0.000000 
#    z 0.000000 0.000000 4.754080 
# 
# 
# High freq. dielectric constant tensor:
#      x y z
#    x 1.779550 0.000000 0.000000 
#    y 0.000000 1.786020 0.000000 
#    z 0.000000 0.000000 1.769100 
# 
# From -- ./inp_files/10302.got.cif
#   From: 2010.03.12/outbox.cif.g09.slc.cpg/sg59_6_cif.got.tgz:10302.got - 2010.04.16 16:29:54.
