data_PCOD8239780
_publ_section_title
;
Structure prediction by ZEFSAII (Michael W. Deem and Ramdas Pophale) SiO2 
 PCOD8239780
Probable space group: P M M N
;
_chemical_formula_sum "Si O2"
_cell_formula_units_Z 48
_cell_length_a 10.319194
_cell_length_b 16.280878
_cell_length_c 14.250569
_cell_angle_alpha 90.000000
_cell_angle_beta 90.000000
_cell_angle_gamma 90.000000
_cell_volume 2394.174520
_symmetry_space_group_name_H-M "P M M N"
_symmetry_group_IT_number 59
_space_group.IT_coordinate_system_code '2'
_symmetry_cell_setting 'orthorhombic'
loop_
_space_group_symop_operation_xyz
x,y,z
1/2-x,1/2-y,z
1/2+x,-y,-z
-x,1/2+y,-z
-x,-y,-z
1/2+x,1/2+y,-z
1/2-x,y,z
x,1/2-y,z
loop_
_atom_site_type_symbol
_atom_site_label
_atom_site_fract_x
_atom_site_fract_y
_atom_site_fract_z
Si Si1 0.750000 0.152928 0.790958
Si Si2 0.250000 0.152336 0.776962
Si Si3 0.501531 0.347523 0.673865
Si Si4 0.250000 0.893087 0.000971
Si Si5 0.396247 0.652276 0.518265
Si Si6 0.250000 0.419910 0.982034
Si Si7 0.986843 0.843655 0.912207
Si Si8 0.104450 0.652329 0.723545
O O1 0.750000 0.250000 0.811452
O O2 0.874627 0.124610 0.732842
O O3 0.750000 0.103013 0.887035
O O4 0.250000 0.250000 0.772047
O O5 0.374568 0.115024 0.723350
O O6 0.250000 0.128625 0.885126
O O7 0.492191 0.250000 0.672388
O O8 0.513860 0.381343 0.566625
O O9 0.377719 0.845557 0.967496
O O10 0.250000 0.984318 0.959177
O O11 0.250000 0.620056 0.503471
O O12 0.394529 0.750000 0.514307
O O13 0.447989 0.623262 0.620957
O O14 0.121154 0.399418 0.040051
O O15 0.936663 0.750000 0.911295
O O16 0.009543 0.878341 0.806311
O O17 0.250000 0.617794 0.740187
O O18 0.110925 0.750000 0.727557
#
# Coordination Sequence:
#
# PCOD8239780 Si02
#       8
#     4   4   8   4   8   4   8   8
#     4  10  18  30  51  78 101 130 179 230 269 308
#     4  10  20  34  49  68 101 146 185 212 261 334
#     4   9  16  27  46  74 104 134 169 215 269 321
#     4  12  24  38  57  82 108 144 193 242 277 324
#     4   8  12  22  43  75 110 131 157 216 280 315
#     4  12  26  40  53  78 116 156 183 228 293 336
#     4  11  21  38  60  83 109 144 190 232 275 328
#     4   8  14  26  49  80 107 134 172 222 273 317
#
# _framework density 20.048665
#
# number of rings (size 3 to 8) (size 9 to 14) (size 15 to 20)
#    0.000    2.333    1.667    4.000    0.000    1.333 
#    0.000    0.833    0.000    4.000    0.000    7.000 
#    0.000    0.000    0.000    0.000    0.000    0.000 
#
# Total GULP energy -594992.212924 kJ/mol
# GULP energy per Si atom -12395.671103 kJ/mol
# Density = 2.000303 g / cm^3
# Si number density = 20.048665 Si / 1000 Ang^3
#
#
#
# Elastic Constant Matrix: (Units=GPa)
#
#
# Indices 1 2 3 4 5 6 
#
# 1 125.9031 4.4170 72.4471 0.0000 0.0000 0.0000
# 2 4.4170 20.4729 1.4192 0.0000 0.0000 0.0000
# 3 72.4471 1.4192 188.0513 0.0000 0.0000 0.0000
# 4 0.0000 0.0000 0.0000 1.2429 0.0000 0.0000
# 5 0.0000 0.0000 0.0000 0.0000 36.4333 0.0000
# 6 0.0000 0.0000 0.0000 0.0000 0.0000 11.5149
#
#
#
# Elastic Compliance Matrix: (Units=1/GPa)
#
#
# Indices 1 2 3 4 5 6 
#
# 1 0.010282 -0.001945 -0.003946 0.000000 0.000000 0.000000
# 2 -0.001945 0.049238 0.000378 0.000000 0.000000 0.000000
# 3 -0.003946 0.000378 0.006835 0.000000 0.000000 0.000000
# 4 0.000000 0.000000 0.000000 0.804596 0.000000 0.000000
# 5 0.000000 0.000000 0.000000 0.000000 0.027447 0.000000
# 6 0.000000 0.000000 0.000000 0.000000 0.000000 0.086844
#
#
# Mechanical properties :
#
#
# Convention : Reuss Voigt Hill
#
# Bulk Modulus (GPa) = 18.07391 54.55488 36.31439
# Shear Modulus (GPa) = 4.92750 26.91447 15.92098
#
# Velocity S-wave (km/s) = 1.56943 3.66793 2.82107
# Velocity P-wave (km/s) = 3.50980 6.72373 5.36318
#
# Compressibility (1/GPa) = 0.05532839
#
# Stress axis : x y z
#
# Youngs Moduli (GPa) = 97.26069 20.30934 146.30182
#
# Poissons Ratio (x) = 0.03950 0.57736
# Poissons Ratio (y) = 0.18914 -0.05524
# Poissons Ratio (z) = 0.38382 -0.00767
#
# Static dielectric constant tensor:
#      x y z
#    x 3.682910 0.000000 0.000000 
#    y 0.000000 2.991990 0.000000 
#    z 0.000000 0.000000 4.184270 
# 
# 
# High freq. dielectric constant tensor:
#      x y z
#    x 1.769340 0.000000 0.000000 
#    y 0.000000 1.726240 0.000000 
#    z 0.000000 0.000000 1.806480 
# 
# From -- ./inp_files/20641.got.cif
#   From: 2010.03.12/outbox.cif.g09.slc.cpg/sg59_11_cif.got.tgz:20641.got - 2010.04.16 16:29:54.
