data_PCOD8239018
_publ_section_title
;
Structure prediction by ZEFSAII (Michael W. Deem and Ramdas Pophale) SiO2 
 PCOD8239018
Probable space group: P M M N
;
_chemical_formula_sum "Si O2"
_cell_formula_units_Z 48
_cell_length_a 20.225394
_cell_length_b 14.232272
_cell_length_c 9.150148
_cell_angle_alpha 90.000000
_cell_angle_beta 90.000000
_cell_angle_gamma 90.000000
_cell_volume 2633.900377
_symmetry_space_group_name_H-M "P M M N"
_symmetry_group_IT_number 59
_space_group.IT_coordinate_system_code '2'
_symmetry_cell_setting 'orthorhombic'
loop_
_space_group_symop_operation_xyz
x,y,z
1/2-x,1/2-y,z
1/2+x,-y,-z
-x,1/2+y,-z
-x,-y,-z
1/2+x,1/2+y,-z
1/2-x,y,z
x,1/2-y,z
loop_
_atom_site_type_symbol
_atom_site_label
_atom_site_fract_x
_atom_site_fract_y
_atom_site_fract_z
Si Si1 0.507932 0.601966 0.931580
Si Si2 0.035056 0.638294 0.331245
Si Si3 0.059082 0.861649 0.655709
Si Si4 0.597608 0.644863 0.169519
Si Si5 0.620984 0.353114 0.926500
Si Si6 0.175021 0.537768 0.819118
O O1 0.503788 0.603452 0.754582
O O2 0.500000 0.500000 0.000000
O O3 0.574625 0.646610 0.998413
O O4 0.445010 0.664111 0.978146
O O5 0.036396 0.750000 0.326416
O O6 0.044835 0.598693 0.493772
O O7 0.096605 0.603195 0.229239
O O8 0.964012 0.606395 0.266837
O O9 0.064434 0.750000 0.652932
O O10 0.128554 0.903064 0.711525
O O11 0.620416 0.750000 0.214883
O O12 0.657679 0.572818 0.188801
O O13 0.655105 0.250000 0.908636
O O14 0.668383 0.425293 0.012922
O O15 0.250000 0.550612 0.766522
#
# Coordination Sequence:
#
# PCOD8239018 Si02
#       6
#     8   8   8   8   8   8
#     4  10  15  28  49  76 102 123 154 203 252 297
#     4   8  17  32  53  80 104 127 161 206 268 321
#     4  10  19  33  53  80 108 130 161 212 264 314
#     4  10  19  34  52  72 102 135 167 211 258 305
#     4   9  17  32  51  72  99 128 160 204 254 306
#     4  11  22  34  49  72  99 137 181 209 243 299
#
# _framework density 18.223924
#
# number of rings (size 3 to 8) (size 9 to 14) (size 15 to 20)
#    0.000    2.333    3.333    4.000    0.000    2.333 
#    0.000    0.833    0.000    3.000    0.000    0.000 
#    0.000    6.667    0.000    0.000    0.000    0.000 
#
# Total GULP energy -594698.703404 kJ/mol
# GULP energy per Si atom -12389.556321 kJ/mol
# Density = 1.818245 g / cm^3
# Si number density = 18.223924 Si / 1000 Ang^3
#
#
#
# Elastic Constant Matrix: (Units=GPa)
#
#
# Indices 1 2 3 4 5 6 
#
# 1 66.0685 21.6083 29.5776 0.0000 0.0000 0.0000
# 2 21.6083 91.5043 23.3025 0.0000 0.0000 0.0000
# 3 29.5776 23.3025 141.6076 0.0000 0.0000 0.0000
# 4 0.0000 0.0000 0.0000 17.7302 0.0000 0.0000
# 5 0.0000 0.0000 0.0000 0.0000 12.3796 0.0000
# 6 0.0000 0.0000 0.0000 0.0000 0.0000 13.1730
#
#
#
# Elastic Compliance Matrix: (Units=1/GPa)
#
#
# Indices 1 2 3 4 5 6 
#
# 1 0.017639 -0.003368 -0.003130 0.000000 0.000000 0.000000
# 2 -0.003368 0.012050 -0.001279 0.000000 0.000000 0.000000
# 3 -0.003130 -0.001279 0.007926 0.000000 0.000000 0.000000
# 4 0.000000 0.000000 0.000000 0.056401 0.000000 0.000000
# 5 0.000000 0.000000 0.000000 0.000000 0.080778 0.000000
# 6 0.000000 0.000000 0.000000 0.000000 0.000000 0.075913
#
#
# Mechanical properties :
#
#
# Convention : Reuss Voigt Hill
#
# Bulk Modulus (GPa) = 45.33221 49.79524 47.56372
# Shear Modulus (GPa) = 18.27393 23.63604 20.95499
#
# Velocity S-wave (km/s) = 3.17005 3.60527 3.39464
# Velocity P-wave (km/s) = 6.19097 6.68685 6.44368
#
# Compressibility (1/GPa) = 0.02205937
#
# Stress axis : x y z
#
# Youngs Moduli (GPa) = 56.69384 82.99011 126.16648
#
# Poissons Ratio (x) = 0.27953 0.39489
# Poissons Ratio (y) = 0.19096 0.16141
# Poissons Ratio (z) = 0.17745 0.10617
#
# Static dielectric constant tensor:
#      x y z
#    x 2.926930 0.000000 0.000000 
#    y 0.000000 3.392840 0.000000 
#    z 0.000000 0.000000 3.822650 
# 
# 
# High freq. dielectric constant tensor:
#      x y z
#    x 1.647170 0.000000 0.000000 
#    y 0.000000 1.717650 0.000000 
#    z 0.000000 0.000000 1.699780 
# 
# From -- ./inp_files/11274.got.cif
#   From: 2010.03.12/outbox.cif.g09.slc.cpg/sg59_6_cif.got.tgz:11274.got - 2010.04.16 16:29:54.
