data_PCOD8239070
_publ_section_title
;
Structure prediction by ZEFSAII (Michael W. Deem and Ramdas Pophale) SiO2 
 PCOD8239070
Probable space group: P M M N
;
_chemical_formula_sum "Si O2"
_cell_formula_units_Z 64
_cell_length_a 27.129908
_cell_length_b 8.816902
_cell_length_c 17.009251
_cell_angle_alpha 90.000000
_cell_angle_beta 90.000000
_cell_angle_gamma 90.000000
_cell_volume 4068.642437
_symmetry_space_group_name_H-M "P M M N"
_symmetry_group_IT_number 59
_space_group.IT_coordinate_system_code '2'
_symmetry_cell_setting 'orthorhombic'
loop_
_space_group_symop_operation_xyz
x,y,z
1/2-x,1/2-y,z
1/2+x,-y,-z
-x,1/2+y,-z
-x,-y,-z
1/2+x,1/2+y,-z
1/2-x,y,z
x,1/2-y,z
loop_
_atom_site_type_symbol
_atom_site_label
_atom_site_fract_x
_atom_site_fract_y
_atom_site_fract_z
Si Si1 0.552962 0.569500 0.979740
Si Si2 0.616305 0.423936 0.288866
Si Si3 0.071964 0.926185 0.868659
Si Si4 0.542836 0.571509 0.397589
Si Si5 0.968355 0.070443 0.827144
Si Si6 0.938421 0.071903 0.652974
Si Si7 0.805517 0.071311 0.413440
Si Si8 0.618777 0.929122 0.525550
O O1 0.552496 0.750000 0.975947
O O2 0.567510 0.499161 0.894996
O O3 0.500000 0.500000 0.000000
O O4 0.588213 0.512264 0.050872
O O5 0.605306 0.250000 0.310282
O O6 0.616702 0.447088 0.194283
O O7 0.571073 0.522307 0.319497
O O8 0.667058 0.474434 0.331662
O O9 0.062614 0.750000 0.887393
O O10 0.021926 0.994138 0.832060
O O11 0.540855 0.750000 0.397077
O O12 0.487145 0.509362 0.392522
O O13 0.572393 0.511305 0.473467
O O14 0.974641 0.250000 0.838202
O O15 0.942340 0.030208 0.744737
O O16 0.931771 0.250000 0.641551
O O17 0.891148 0.989217 0.613916
O O18 0.750000 0.008562 0.407446
O O19 0.805939 0.250000 0.426310
O O20 0.831284 0.996667 0.489264
O O21 0.623761 0.750000 0.525675
#
# Coordination Sequence:
#
# PCOD8239070 Si02
#       8
#     8   8   8   8   8   8   8   8
#     4  10  18  27  39  55  79 112 148 180 210 247
#     4   9  17  27  43  66  86 110 145 182 217 257
#     4  10  17  26  40  59  84 111 144 181 214 253
#     4   9  17  29  41  58  84 115 146 178 215 253
#     4  10  18  28  41  57  81 115 150 182 214 247
#     4  10  19  29  42  59  85 117 149 180 214 257
#     4   9  18  34  52  66  85 113 143 178 222 267
#     4  10  20  30  44  64  86 111 143 181 219 260
#
# _framework density 15.730062
#
# number of rings (size 3 to 8) (size 9 to 14) (size 15 to 20)
#    0.000    2.375    1.250    4.125    0.000    2.750 
#    0.000    0.000    0.000    0.000    0.000    0.000 
#    0.000    1.000    0.000    7.750    0.000    1.875 
#
# Total GULP energy -793124.224389 kJ/mol
# GULP energy per Si atom -12392.566006 kJ/mol
# Density = 1.569426 g / cm^3
# Si number density = 15.730062 Si / 1000 Ang^3
#
#
#
# Elastic Constant Matrix: (Units=GPa)
#
#
# Indices 1 2 3 4 5 6 
#
# 1 68.1178 20.6380 49.5083 0.0000 0.0000 0.0000
# 2 20.6380 55.2408 41.3395 0.0000 0.0000 0.0000
# 3 49.5083 41.3395 112.3857 0.0000 0.0000 0.0000
# 4 0.0000 0.0000 0.0000 24.5027 0.0000 0.0000
# 5 0.0000 0.0000 0.0000 0.0000 13.9882 0.0000
# 6 0.0000 0.0000 0.0000 0.0000 0.0000 14.5257
#
#
#
# Elastic Compliance Matrix: (Units=1/GPa)
#
#
# Indices 1 2 3 4 5 6 
#
# 1 0.021663 -0.001313 -0.009060 0.000000 0.000000 0.000000
# 2 -0.001313 0.025058 -0.008639 0.000000 0.000000 0.000000
# 3 -0.009060 -0.008639 0.016067 0.000000 0.000000 0.000000
# 4 0.000000 0.000000 0.000000 0.040812 0.000000 0.000000
# 5 0.000000 0.000000 0.000000 0.000000 0.071489 0.000000
# 6 0.000000 0.000000 0.000000 0.000000 0.000000 0.068843
#
#
# Mechanical properties :
#
#
# Convention : Reuss Voigt Hill
#
# Bulk Modulus (GPa) = 40.38145 50.96844 45.67494
# Shear Modulus (GPa) = 17.22888 18.88724 18.05806
#
# Velocity S-wave (km/s) = 3.31310 3.46888 3.39189
# Velocity P-wave (km/s) = 6.35317 6.96538 6.66630
#
# Compressibility (1/GPa) = 0.02476385
#
# Stress axis : x y z
#
# Youngs Moduli (GPa) = 46.16118 39.90740 62.24055
#
# Poissons Ratio (x) = 0.05241 0.56390
# Poissons Ratio (y) = 0.06062 0.53768
# Poissons Ratio (z) = 0.41822 0.34475
#
# Static dielectric constant tensor:
#      x y z
#    x 2.747330 0.000000 0.000000 
#    y 0.000000 2.995690 0.000000 
#    z 0.000000 0.000000 3.468370 
# 
# 
# High freq. dielectric constant tensor:
#      x y z
#    x 1.539920 0.000000 0.000000 
#    y 0.000000 1.612750 0.000000 
#    z 0.000000 0.000000 1.613320 
# 
# From -- ./inp_files/28541.got.cif
#   From: 2010.03.12/outbox.cif.g09.slc.cpg/sg59_15_cif.got.tgz:28541.got - 2010.04.16 16:29:54.
