data_PCOD8239697
_publ_section_title
;
Structure prediction by ZEFSAII (Michael W. Deem and Ramdas Pophale) SiO2 
 PCOD8239697
Probable space group: P M M N
;
_chemical_formula_sum "Si O2"
_cell_formula_units_Z 64
_cell_length_a 18.821226
_cell_length_b 8.946461
_cell_length_c 21.503050
_cell_angle_alpha 90.000000
_cell_angle_beta 90.000000
_cell_angle_gamma 90.000000
_cell_volume 3620.755903
_symmetry_space_group_name_H-M "P M M N"
_symmetry_group_IT_number 59
_space_group.IT_coordinate_system_code '2'
_symmetry_cell_setting 'orthorhombic'
loop_
_space_group_symop_operation_xyz
x,y,z
1/2-x,1/2-y,z
1/2+x,-y,-z
-x,1/2+y,-z
-x,-y,-z
1/2+x,1/2+y,-z
1/2-x,y,z
x,1/2-y,z
loop_
_atom_site_type_symbol
_atom_site_label
_atom_site_fract_x
_atom_site_fract_y
_atom_site_fract_z
Si Si1 0.367315 0.416817 0.264803
Si Si2 0.464429 0.070996 0.440256
Si Si3 0.912569 0.423807 0.851477
Si Si4 0.170409 0.922738 0.387134
Si Si5 0.170575 0.072232 0.906081
Si Si6 0.069730 0.421589 0.800390
Si Si7 0.926309 0.572494 0.980496
Si Si8 0.974775 0.413424 0.313068
O O1 0.334377 0.250000 0.258794
O O2 0.359801 0.505637 0.199920
O O3 0.327300 0.508242 0.318195
O O4 0.449357 0.402835 0.280981
O O5 0.460659 0.250000 0.444636
O O6 0.513599 0.018860 0.382050
O O7 0.500000 0.000000 0.500000
O O8 0.384357 0.009650 0.431902
O O9 0.894399 0.250000 0.859621
O O10 0.898672 0.510257 0.915226
O O11 0.993872 0.447661 0.831929
O O12 0.250000 0.937359 0.415286
O O13 0.146873 0.750000 0.382661
O O14 0.250000 0.005994 0.905710
O O15 0.171182 0.250000 0.901927
O O16 0.128305 0.006633 0.846394
O O17 0.132199 0.022996 0.969265
O O18 0.085997 0.250000 0.790337
O O19 0.076172 0.490196 0.731173
O O20 0.936055 0.750000 0.977216
O O21 0.000000 0.500000 0.000000
O O22 0.940045 0.250000 0.318765
#
# Coordination Sequence:
#
# PCOD8239697 Si02
#       8
#     8   8   8   8   8   8   8   8
#     4   9  17  30  48  73 101 132 167 207 255 305
#     4  10  20  34  54  80 111 144 183 225 265 310
#     4  10  18  30  48  73  99 125 164 213 259 307
#     4  10  20  34  53  78 109 145 182 221 268 320
#     4   9  18  33  50  69  95 126 164 210 260 313
#     4   9  16  28  48  72  92 119 160 203 250 298
#     4  11  20  32  50  72  96 128 170 216 264 317
#     4   8  16  29  46  72 101 127 156 198 248 294
#
# _framework density 17.675868000000001
#
# number of rings (size 3 to 8) (size 9 to 14) (size 15 to 20)
#    0.000    2.500    1.250    2.625    0.000    5.000 
#    0.000    0.625    0.000    6.375    0.000    3.500 
#    0.000    0.000    0.000    0.000    0.000    0.000 
#
# Total GULP energy -793345.653457 kJ/mol
# GULP energy per Si atom -12396.025835 kJ/mol
# Density = 1.763564 g / cm^3
# Si number density = 17.675868 Si / 1000 Ang^3
#
#
#
# Elastic Constant Matrix: (Units=GPa)
#
#
# Indices 1 2 3 4 5 6 
#
# 1 75.7318 39.6098 52.0302 0.0000 0.0000 0.0000
# 2 39.6098 94.3445 57.5403 0.0000 0.0000 0.0000
# 3 52.0302 57.5403 148.5280 0.0000 0.0000 0.0000
# 4 0.0000 0.0000 0.0000 34.1968 0.0000 0.0000
# 5 0.0000 0.0000 0.0000 0.0000 18.1890 0.0000
# 6 0.0000 0.0000 0.0000 0.0000 0.0000 16.6588
#
#
#
# Elastic Compliance Matrix: (Units=1/GPa)
#
#
# Indices 1 2 3 4 5 6 
#
# 1 0.019138 -0.005167 -0.004702 0.000000 0.000000 0.000000
# 2 -0.005167 0.015274 -0.004107 0.000000 0.000000 0.000000
# 3 -0.004702 -0.004107 0.009971 0.000000 0.000000 0.000000
# 4 0.000000 0.000000 0.000000 0.029243 0.000000 0.000000
# 5 0.000000 0.000000 0.000000 0.000000 0.054978 0.000000
# 6 0.000000 0.000000 0.000000 0.000000 0.000000 0.060028
#
#
# Mechanical properties :
#
#
# Convention : Reuss Voigt Hill
#
# Bulk Modulus (GPa) = 60.86521 68.55165 64.70843
# Shear Modulus (GPa) = 22.51642 25.10386 23.81014
#
# Velocity S-wave (km/s) = 3.57298 3.77269 3.67419
# Velocity P-wave (km/s) = 7.17847 7.60555 7.39509
#
# Compressibility (1/GPa) = 0.01642975
#
# Stress axis : x y z
#
# Youngs Moduli (GPa) = 52.25335 65.47247 100.28983
#
# Poissons Ratio (x) = 0.33828 0.47160
# Poissons Ratio (y) = 0.26998 0.41190
# Poissons Ratio (z) = 0.24571 0.26890
#
# Static dielectric constant tensor:
#      x y z
#    x 3.123510 0.000000 0.000000 
#    y 0.000000 3.383940 0.000000 
#    z 0.000000 0.000000 3.461240 
# 
# 
# High freq. dielectric constant tensor:
#      x y z
#    x 1.650720 0.000000 0.000000 
#    y 0.000000 1.683650 0.000000 
#    z 0.000000 0.000000 1.683730 
# 
# From -- ./inp_files/30929.got.cif
#   From: 2010.03.12/outbox.cif.g09.slc.cpg/sg59_16_cif.got.tgz:30929.got - 2010.04.16 16:29:54.
