data_PCOD8239233
_publ_section_title
;
Structure prediction by ZEFSAII (Michael W. Deem and Ramdas Pophale) SiO2 
 PCOD8239233
Probable space group: P M M N
;
_chemical_formula_sum "Si O2"
_cell_formula_units_Z 40
_cell_length_a 14.103905
_cell_length_b 35.321247
_cell_length_c 5.243078
_cell_angle_alpha 90.000000
_cell_angle_beta 90.000000
_cell_angle_gamma 90.000000
_cell_volume 2611.931123
_symmetry_space_group_name_H-M "P M M N"
_symmetry_group_IT_number 59
_space_group.IT_coordinate_system_code '2'
_symmetry_cell_setting 'orthorhombic'
loop_
_space_group_symop_operation_xyz
x,y,z
1/2-x,1/2-y,z
1/2+x,-y,-z
-x,1/2+y,-z
-x,-y,-z
1/2+x,1/2+y,-z
1/2-x,y,z
x,1/2-y,z
loop_
_atom_site_type_symbol
_atom_site_label
_atom_site_fract_x
_atom_site_fract_y
_atom_site_fract_z
Si Si1 0.043639 0.582243 0.295851
Si Si2 0.522043 0.550821 0.803644
Si Si3 0.137389 0.707512 0.809977
Si Si4 0.358144 0.516102 0.070308
Si Si5 0.137331 0.663494 0.309620
O O1 0.980223 0.574828 0.545319
O O2 0.125744 0.550109 0.274138
O O3 0.091705 0.622574 0.316522
O O4 0.976178 0.579714 0.045302
O O5 0.614828 0.524227 0.803414
O O6 0.427817 0.523806 0.827626
O O7 0.250000 0.709273 0.811653
O O8 0.095500 0.750000 0.812651
O O9 0.101645 0.686377 0.556608
O O10 0.101021 0.685454 0.059353
O O11 0.250000 0.515306 0.977596
O O12 0.250000 0.658925 0.308621
#
# Coordination Sequence:
#
# PCOD8239233 Si02
#       5
#     8   8   8   8   8
#     4  10  18  32  41  61  86 107 140 188 218 236
#     4   9  20  32  43  61  87 109 142 188 216 256
#     4   9  17  28  39  55  80 105 137 176 204 243
#     4   9  19  31  47  62  82 115 147 182 217 254
#     4  10  18  26  41  60  76 107 144 171 212 249
#
# _framework density 15.314339
#
# number of rings (size 3 to 8) (size 9 to 14) (size 15 to 20)
#    1.200    1.400    0.000    3.000    0.000    4.000 
#    0.000    0.000    0.000    0.000    0.000    0.000 
#    0.000    0.000    0.000    0.000    0.000   70.000 
#
# Total GULP energy -495678.767597 kJ/mol
# GULP energy per Si atom -12391.969190 kJ/mol
# Density = 1.527948 g / cm^3
# Si number density = 15.314339 Si / 1000 Ang^3
#
#
#
# Elastic Constant Matrix: (Units=GPa)
#
#
# Indices 1 2 3 4 5 6 
#
# 1 25.5085 12.7994 7.6252 0.0000 0.0000 0.0000
# 2 12.7994 113.1316 48.9681 0.0000 0.0000 0.0000
# 3 7.6252 48.9681 118.4212 0.0000 0.0000 0.0000
# 4 0.0000 0.0000 0.0000 25.4968 0.0000 0.0000
# 5 0.0000 0.0000 0.0000 0.0000 6.3291 0.0000
# 6 0.0000 0.0000 0.0000 0.0000 0.0000 21.2144
#
#
#
# Elastic Compliance Matrix: (Units=1/GPa)
#
#
# Indices 1 2 3 4 5 6 
#
# 1 0.041640 -0.004324 -0.000893 0.000000 0.000000 0.000000
# 2 -0.004324 0.011215 -0.004359 0.000000 0.000000 0.000000
# 3 -0.000893 -0.004359 0.010304 0.000000 0.000000 0.000000
# 4 0.000000 0.000000 0.000000 0.039221 0.000000 0.000000
# 5 0.000000 0.000000 0.000000 0.000000 0.158000 0.000000
# 6 0.000000 0.000000 0.000000 0.000000 0.000000 0.047138
#
#
# Mechanical properties :
#
#
# Convention : Reuss Voigt Hill
#
# Bulk Modulus (GPa) = 22.72412 43.98294 33.35353
# Shear Modulus (GPa) = 14.64816 23.11930 18.88373
#
# Velocity S-wave (km/s) = 3.09609 3.88964 3.51533
# Velocity P-wave (km/s) = 5.25849 6.99677 6.18896
#
# Compressibility (1/GPa) = 0.04400611
#
# Stress axis : x y z
#
# Youngs Moduli (GPa) = 24.01566 89.16354 97.04507
#
# Poissons Ratio (x) = 0.38558 0.08666
# Poissons Ratio (y) = 0.10385 0.42304
# Poissons Ratio (z) = 0.02145 0.38868
#
# Static dielectric constant tensor:
#      x y z
#    x 2.380280 0.000000 0.000000 
#    y 0.000000 2.931090 0.000000 
#    z 0.000000 0.000000 3.059520 
# 
# 
# High freq. dielectric constant tensor:
#      x y z
#    x 1.516490 0.000000 0.000000 
#    y 0.000000 1.585910 0.000000 
#    z 0.000000 0.000000 1.599410 
# 
# From -- ./inp_files/2066.got.cif
#   From: 2010.03.12/outbox.cif.g09.slc.cpg/sg59_2_cif.got.tgz:2066.got - 2010.04.16 16:29:54.
