data_PCOD8239750
_publ_section_title
;
Structure prediction by ZEFSAII (Michael W. Deem and Ramdas Pophale) SiO2 
 PCOD8239750
Probable space group: P M M N
;
_chemical_formula_sum "Si O2"
_cell_formula_units_Z 32
_cell_length_a 8.934924
_cell_length_b 18.884564
_cell_length_c 11.760322
_cell_angle_alpha 90.000000
_cell_angle_beta 90.000000
_cell_angle_gamma 90.000000
_cell_volume 1984.344347
_symmetry_space_group_name_H-M "P M M N"
_symmetry_group_IT_number 59
_space_group.IT_coordinate_system_code '2'
_symmetry_cell_setting 'orthorhombic'
loop_
_space_group_symop_operation_xyz
x,y,z
1/2-x,1/2-y,z
1/2+x,-y,-z
-x,1/2+y,-z
-x,-y,-z
1/2+x,1/2+y,-z
1/2-x,y,z
x,1/2-y,z
loop_
_atom_site_type_symbol
_atom_site_label
_atom_site_fract_x
_atom_site_fract_y
_atom_site_fract_z
Si Si1 0.918378 0.088466 0.800600
Si Si2 0.426893 0.494791 0.622072
Si Si3 0.575743 0.668493 0.006580
Si Si4 0.581152 0.566821 0.811355
O O1 0.750000 0.112430 0.769655
O O2 0.012820 0.077116 0.683759
O O3 0.992038 0.148441 0.877861
O O4 0.916708 0.012426 0.866501
O O5 0.500000 0.500000 0.500000
O O6 0.250000 0.492656 0.610936
O O7 0.478943 0.563326 0.697240
O O8 0.750000 0.652018 0.024566
O O9 0.544811 0.750000 0.978489
O O10 0.512788 0.622405 0.901201
O O11 0.750000 0.589649 0.777017
#
# Coordination Sequence:
#
# PCOD8239750 Si02
#       4
#     8   8   8   8
#     4   9  18  31  48  70  97 126 159 198 239 279
#     4  10  18  30  50  73  95 120 156 201 243 284
#     4  10  19  31  48  71 100 131 160 192 233 282
#     4   8  17  31  47  70  98 125 158 196 237 281
#
# _framework density 16.126234
#
# number of rings (size 3 to 8) (size 9 to 14) (size 15 to 20)
#    1.500    1.250    0.000    3.000    0.000    1.500 
#    0.000    0.000    0.000    1.500    0.000    3.500 
#    0.000    0.000    0.000    0.000    0.000    0.000 
#
# Total GULP energy -396426.747864 kJ/mol
# GULP energy per Si atom -12388.335871 kJ/mol
# Density = 1.608953 g / cm^3
# Si number density = 16.126234 Si / 1000 Ang^3
#
#
#
# Elastic Constant Matrix: (Units=GPa)
#
#
# Indices 1 2 3 4 5 6 
#
# 1 110.9369 22.2634 55.0041 0.0000 0.0000 0.0000
# 2 22.2634 46.4862 25.7147 0.0000 0.0000 0.0000
# 3 55.0041 25.7147 106.1932 0.0000 0.0000 0.0000
# 4 0.0000 0.0000 0.0000 9.1293 0.0000 0.0000
# 5 0.0000 0.0000 0.0000 0.0000 29.7839 0.0000
# 6 0.0000 0.0000 0.0000 0.0000 0.0000 19.3586
#
#
#
# Elastic Compliance Matrix: (Units=1/GPa)
#
#
# Indices 1 2 3 4 5 6 
#
# 1 0.012429 -0.002761 -0.005769 0.000000 0.000000 0.000000
# 2 -0.002761 0.025452 -0.004733 0.000000 0.000000 0.000000
# 3 -0.005769 -0.004733 0.013551 0.000000 0.000000 0.000000
# 4 0.000000 0.000000 0.000000 0.109537 0.000000 0.000000
# 5 0.000000 0.000000 0.000000 0.000000 0.033575 0.000000
# 6 0.000000 0.000000 0.000000 0.000000 0.000000 0.051657
#
#
# Mechanical properties :
#
#
# Convention : Reuss Voigt Hill
#
# Bulk Modulus (GPa) = 40.15170 52.17561 46.16366
# Shear Modulus (GPa) = 17.79176 22.36331 20.07753
#
# Velocity S-wave (km/s) = 3.32517 3.72797 3.53232
# Velocity P-wave (km/s) = 6.30038 7.13828 6.73238
#
# Compressibility (1/GPa) = 0.02490555
#
# Stress axis : x y z
#
# Youngs Moduli (GPa) = 80.45980 39.28912 73.79530
#
# Poissons Ratio (x) = 0.10848 0.42572
# Poissons Ratio (y) = 0.22216 0.34928
# Poissons Ratio (z) = 0.46417 0.18596
#
# Static dielectric constant tensor:
#      x y z
#    x 3.119160 0.000000 0.000000 
#    y 0.000000 2.767760 0.000000 
#    z 0.000000 0.000000 2.882840 
# 
# 
# High freq. dielectric constant tensor:
#      x y z
#    x 1.627460 0.000000 0.000000 
#    y 0.000000 1.583400 0.000000 
#    z 0.000000 0.000000 1.605690 
# 
# From -- ./inp_files/9944.got.cif
#   From: 2010.03.12/outbox.cif.g09.slc.cpg/sg59_5_cif.got.tgz:9944.got - 2010.04.16 16:29:54.
