data_PCOD8239621
_publ_section_title
;
Structure prediction by ZEFSAII (Michael W. Deem and Ramdas Pophale) SiO2 
 PCOD8239621
Probable space group: P M M N
;
_chemical_formula_sum "Si O2"
_cell_formula_units_Z 64
_cell_length_a 19.271055
_cell_length_b 9.160428
_cell_length_c 19.752725
_cell_angle_alpha 90.000000
_cell_angle_beta 90.000000
_cell_angle_gamma 90.000000
_cell_volume 3486.970506
_symmetry_space_group_name_H-M "P M M N"
_symmetry_group_IT_number 59
_space_group.IT_coordinate_system_code '2'
_symmetry_cell_setting 'orthorhombic'
loop_
_space_group_symop_operation_xyz
x,y,z
1/2-x,1/2-y,z
1/2+x,-y,-z
-x,1/2+y,-z
-x,-y,-z
1/2+x,1/2+y,-z
1/2-x,y,z
x,1/2-y,z
loop_
_atom_site_type_symbol
_atom_site_label
_atom_site_fract_x
_atom_site_fract_y
_atom_site_fract_z
Si Si1 0.095279 0.414109 0.731977
Si Si2 0.589766 0.416640 0.032760
Si Si3 0.442901 0.079261 0.095236
Si Si4 0.924582 0.421842 0.399468
Si Si5 0.169780 0.909448 0.840073
Si Si6 0.436298 0.916274 0.232186
Si Si7 0.169820 0.419155 0.492385
Si Si8 0.579337 0.918249 0.634987
O O1 0.114547 0.250000 0.710063
O O2 0.109880 0.520792 0.669431
O O3 0.142873 0.461768 0.793528
O O4 0.017841 0.425208 0.758143
O O5 0.583348 0.250000 0.007249
O O6 0.522578 0.458896 0.077936
O O7 0.655102 0.444134 0.081317
O O8 0.601494 0.519322 0.967994
O O9 0.429704 0.250000 0.104388
O O10 0.417150 0.000802 0.163549
O O11 0.915191 0.250000 0.404457
O O12 0.882265 0.491321 0.460749
O O13 0.006199 0.467985 0.399972
O O14 0.250000 0.899029 0.828348
O O15 0.135635 0.750000 0.822491
O O16 0.409836 0.750000 0.226801
O O17 0.401573 0.990602 0.297927
O O18 0.250000 0.472956 0.497839
O O19 0.164494 0.250000 0.512845
O O20 0.142987 0.443119 0.416048
O O21 0.571786 0.750000 0.656550
#
# Coordination Sequence:
#
# PCOD8239621 Si02
#       8
#     8   8   8   8   8   8   8   8
#     4  10  20  33  50  73 102 133 168 208 251 299
#     4   9  18  31  47  71 101 131 165 206 250 296
#     4  10  18  29  50  75 101 131 162 206 256 300
#     4  10  20  34  55  79 105 137 174 216 258 306
#     4  10  20  34  51  70  98 137 174 207 247 299
#     4  10  19  31  51  78 105 131 163 209 259 305
#     4  10  21  37  56  78 106 138 172 213 262 315
#     4   9  19  35  55  79 106 137 172 213 262 313
#
# _framework density 18.354042
#
# number of rings (size 3 to 8) (size 9 to 14) (size 15 to 20)
#    0.000    2.250    1.250    1.875    0.000    4.000 
#    0.000    0.000    0.000    0.750    0.000    0.000 
#    0.000    0.000    0.000    0.000    0.000    0.000 
#
# Total GULP energy -793530.413879 kJ/mol
# GULP energy per Si atom -12398.912717 kJ/mol
# Density = 1.831227 g / cm^3
# Si number density = 18.354042 Si / 1000 Ang^3
#
#
#
# Elastic Constant Matrix: (Units=GPa)
#
#
# Indices 1 2 3 4 5 6 
#
# 1 33.2892 24.0352 17.9660 0.0000 0.0000 0.0000
# 2 24.0352 85.2943 55.4304 0.0000 0.0000 0.0000
# 3 17.9660 55.4304 102.3672 0.0000 0.0000 0.0000
# 4 0.0000 0.0000 0.0000 39.4649 0.0000 0.0000
# 5 0.0000 0.0000 0.0000 0.0000 16.0709 0.0000
# 6 0.0000 0.0000 0.0000 0.0000 0.0000 15.3081
#
#
#
# Elastic Compliance Matrix: (Units=1/GPa)
#
#
# Indices 1 2 3 4 5 6 
#
# 1 0.037831 -0.009791 -0.001338 0.000000 0.000000 0.000000
# 2 -0.009791 0.020624 -0.009449 0.000000 0.000000 0.000000
# 3 -0.001338 -0.009449 0.015120 0.000000 0.000000 0.000000
# 4 0.000000 0.000000 0.000000 0.025339 0.000000 0.000000
# 5 0.000000 0.000000 0.000000 0.000000 0.062224 0.000000
# 6 0.000000 0.000000 0.000000 0.000000 0.000000 0.065325
#
#
# Mechanical properties :
#
#
# Convention : Reuss Voigt Hill
#
# Bulk Modulus (GPa) = 30.84615 46.20155 38.52385
# Shear Modulus (GPa) = 17.95814 22.40340 20.18077
#
# Velocity S-wave (km/s) = 3.13138 3.49753 3.31951
# Velocity P-wave (km/s) = 5.46962 6.44495 5.97721
#
# Compressibility (1/GPa) = 0.03241896
#
# Stress axis : x y z
#
# Youngs Moduli (GPa) = 26.43332 48.48752 66.13696
#
# Poissons Ratio (x) = 0.47474 0.08848
# Poissons Ratio (y) = 0.25881 0.62494
# Poissons Ratio (z) = 0.03536 0.45817
#
# Static dielectric constant tensor:
#      x y z
#    x 3.092950 0.000000 0.000000 
#    y 0.000000 3.546030 0.000000 
#    z 0.000000 0.000000 3.459870 
# 
# 
# High freq. dielectric constant tensor:
#      x y z
#    x 1.672710 0.000000 0.000000 
#    y 0.000000 1.717780 0.000000 
#    z 0.000000 0.000000 1.718220 
# 
# From -- ./inp_files/28220.got.cif
#   From: 2010.03.12/outbox.cif.g09.slc.cpg/sg59_15_cif.got.tgz:28220.got - 2010.04.16 16:29:54.
