data_PCOD8239799
_publ_section_title
;
Structure prediction by ZEFSAII (Michael W. Deem and Ramdas Pophale) SiO2 
 PCOD8239799
Probable space group: P M M N
;
_chemical_formula_sum "Si O2"
_cell_formula_units_Z 64
_cell_length_a 16.051322
_cell_length_b 8.709752
_cell_length_c 23.462375
_cell_angle_alpha 90.000000
_cell_angle_beta 90.000000
_cell_angle_gamma 90.000000
_cell_volume 3280.111207
_symmetry_space_group_name_H-M "P M M N"
_symmetry_group_IT_number 59
_space_group.IT_coordinate_system_code '2'
_symmetry_cell_setting 'orthorhombic'
loop_
_space_group_symop_operation_xyz
x,y,z
1/2-x,1/2-y,z
1/2+x,-y,-z
-x,1/2+y,-z
-x,-y,-z
1/2+x,1/2+y,-z
1/2-x,y,z
x,1/2-y,z
loop_
_atom_site_type_symbol
_atom_site_label
_atom_site_fract_x
_atom_site_fract_y
_atom_site_fract_z
Si Si1 0.920375 0.570727 0.628437
Si Si2 0.342335 0.432227 0.056183
Si Si3 0.419551 0.428390 0.575397
Si Si4 0.155425 0.069206 0.926393
Si Si5 0.994877 0.567167 0.868371
Si Si6 0.655745 0.421432 0.530033
Si Si7 0.999307 0.931753 0.741745
Si Si8 0.658444 0.427409 0.323722
O O1 0.900896 0.750000 0.626966
O O2 0.847251 0.480771 0.595651
O O3 0.003587 0.533938 0.593421
O O4 0.931322 0.514355 0.694337
O O5 0.250000 0.489840 0.076679
O O6 0.343389 0.250000 0.059560
O O7 0.417916 0.500277 0.094324
O O8 0.357328 0.485625 0.991441
O O9 0.441986 0.250000 0.580343
O O10 0.396084 0.465941 0.510486
O O11 0.345005 0.473139 0.618332
O O12 0.250000 0.025676 0.906583
O O13 0.141904 0.250000 0.921022
O O14 0.085708 0.985784 0.888978
O O15 0.994032 0.750000 0.870030
O O16 0.979954 0.501963 0.804356
O O17 0.750000 0.421400 0.509256
O O18 0.618167 0.250000 0.526598
O O19 0.998643 0.750000 0.745083
O O20 0.091073 0.987731 0.722072
O O21 0.750000 0.448202 0.296611
O O22 0.640703 0.250000 0.339582
#
# Coordination Sequence:
#
# PCOD8239799 Si02
#       8
#     8   8   8   8   8   8   8   8
#     4  10  20  37  56  71  95 130 165 199 240 292
#     4   8  15  29  49  73 102 135 169 207 255 307
#     4  11  21  33  52  77 102 126 158 200 245 294
#     4   9  18  32  48  70 105 143 170 198 249 311
#     4  10  18  30  52  78 100 128 172 219 255 292
#     4  11  23  37  53  75 102 128 156 195 245 297
#     4   8  17  32  49  72  99 127 162 205 250 292
#     4   9  17  31  49  67  94 133 167 197 243 300
#
# _framework density 19.511531999999999
#
# number of rings (size 3 to 8) (size 9 to 14) (size 15 to 20)
#    0.000    2.500    0.000    4.500    0.000    3.500 
#    0.000    5.000    0.000    3.375    0.000    0.000 
#    0.000    0.000    0.000    0.000    0.000    0.000 
#
# Total GULP energy -793150.479407 kJ/mol
# GULP energy per Si atom -12392.976241 kJ/mol
# Density = 1.946712 g / cm^3
# Si number density = 19.511532 Si / 1000 Ang^3
#
#
#
# Elastic Constant Matrix: (Units=GPa)
#
#
# Indices 1 2 3 4 5 6 
#
# 1 75.7238 11.2229 42.3483 0.0000 0.0000 0.0000
# 2 11.2229 39.9954 16.4149 0.0000 0.0000 0.0000
# 3 42.3483 16.4149 127.8843 0.0000 0.0000 0.0000
# 4 0.0000 0.0000 0.0000 18.4463 0.0000 0.0000
# 5 0.0000 0.0000 0.0000 0.0000 21.6343 0.0000
# 6 0.0000 0.0000 0.0000 0.0000 0.0000 21.7894
#
#
#
# Elastic Compliance Matrix: (Units=1/GPa)
#
#
# Indices 1 2 3 4 5 6 
#
# 1 0.016443 -0.002512 -0.005123 0.000000 0.000000 0.000000
# 2 -0.002512 0.026777 -0.002605 0.000000 0.000000 0.000000
# 3 -0.005123 -0.002605 0.009850 0.000000 0.000000 0.000000
# 4 0.000000 0.000000 0.000000 0.054211 0.000000 0.000000
# 5 0.000000 0.000000 0.000000 0.000000 0.046223 0.000000
# 6 0.000000 0.000000 0.000000 0.000000 0.000000 0.045894
#
#
# Mechanical properties :
#
#
# Convention : Reuss Voigt Hill
#
# Bulk Modulus (GPa) = 30.68318 42.61952 36.65135
# Shear Modulus (GPa) = 21.66932 23.94851 22.80891
#
# Velocity S-wave (km/s) = 3.33617 3.50723 3.42277
# Velocity P-wave (km/s) = 5.53171 6.18802 5.86905
#
# Compressibility (1/GPa) = 0.03259115
#
# Stress axis : x y z
#
# Youngs Moduli (GPa) = 60.81639 37.34566 101.51962
#
# Poissons Ratio (x) = 0.09379 0.52005
# Poissons Ratio (y) = 0.15274 0.26449
# Poissons Ratio (z) = 0.31154 0.09730
#
# Static dielectric constant tensor:
#      x y z
#    x 3.731070 0.000000 0.000000 
#    y 0.000000 3.270160 0.000000 
#    z 0.000000 0.000000 3.879520 
# 
# 
# High freq. dielectric constant tensor:
#      x y z
#    x 1.757700 0.000000 0.000000 
#    y 0.000000 1.728710 0.000000 
#    z 0.000000 0.000000 1.753920 
# 
# From -- ./inp_files/30817.got.cif
#   From: 2010.03.12/outbox.cif.g09.slc.cpg/sg59_16_cif.got.tgz:30817.got - 2010.04.16 16:29:54.
