data_PCOD8239150
_publ_section_title
;
Structure prediction by ZEFSAII (Michael W. Deem and Ramdas Pophale) SiO2 
 PCOD8239150
Probable space group: P M M N
;
_chemical_formula_sum "Si O2"
_cell_formula_units_Z 64
_cell_length_a 20.922677
_cell_length_b 12.808935
_cell_length_c 14.747430
_cell_angle_alpha 90.000000
_cell_angle_beta 90.000000
_cell_angle_gamma 90.000000
_cell_volume 3952.270091
_symmetry_space_group_name_H-M "P M M N"
_symmetry_group_IT_number 59
_space_group.IT_coordinate_system_code '2'
_symmetry_cell_setting 'orthorhombic'
loop_
_space_group_symop_operation_xyz
x,y,z
1/2-x,1/2-y,z
1/2+x,-y,-z
-x,1/2+y,-z
-x,-y,-z
1/2+x,1/2+y,-z
1/2-x,y,z
x,1/2-y,z
loop_
_atom_site_type_symbol
_atom_site_label
_atom_site_fract_x
_atom_site_fract_y
_atom_site_fract_z
Si Si1 0.071164 0.872044 0.491886
Si Si2 0.823753 0.514087 0.200644
Si Si3 0.322493 0.632873 0.629681
Si Si4 0.512971 0.978952 0.638461
Si Si5 0.554000 0.631664 0.230120
Si Si6 0.031930 0.368148 0.184530
Si Si7 0.960100 0.052144 0.921866
Si Si8 0.602963 0.134357 0.085286
O O1 0.063244 0.750000 0.466686
O O2 0.138078 0.896026 0.540164
O O3 0.067592 0.943699 0.401513
O O4 0.015133 0.907758 0.559132
O O5 0.750000 0.551718 0.195128
O O6 0.837249 0.445045 0.289253
O O7 0.872199 0.611959 0.200919
O O8 0.840649 0.444180 0.112996
O O9 0.250000 0.625681 0.598046
O O10 0.340566 0.750000 0.662923
O O11 0.461651 0.053850 0.687459
O O12 0.539692 0.894121 0.709544
O O13 0.548574 0.750000 0.264603
O O14 0.505004 0.617644 0.146156
O O15 0.054939 0.250000 0.164697
O O16 0.074239 0.455306 0.131467
O O17 0.958953 0.386407 0.149798
O O18 0.910237 0.124311 0.976592
O O19 0.000000 0.000000 0.000000
O O20 0.628482 0.250000 0.102509
#
# Coordination Sequence:
#
# PCOD8239150 Si02
#       8
#     8   8   8   8   8   8   8   8
#     4  10  18  28  45  67  92 120 151 192 236 278
#     4  11  20  31  45  66  95 129 163 188 216 267
#     4   9  17  30  48  68  91 122 156 188 226 273
#     4  10  18  29  43  66  95 120 151 189 236 278
#     4  11  20  32  46  64  93 126 157 190 231 277
#     4   9  16  27  46  66  90 119 148 183 228 277
#     4   9  16  30  45  68  90 116 152 191 232 270
#     4  10  17  29  47  69  95 121 151 190 232 270
#
# _framework density 16.193225000000002
#
# number of rings (size 3 to 8) (size 9 to 14) (size 15 to 20)
#    0.000    2.125    5.000    1.500    0.000    3.500 
#    0.000    0.000    0.000    0.000    0.000    3.500 
#    0.000   10.000    0.000    0.000    0.000    0.000 
#
# Total GULP energy -792963.247629 kJ/mol
# GULP energy per Si atom -12390.050744 kJ/mol
# Density = 1.615637 g / cm^3
# Si number density = 16.193225 Si / 1000 Ang^3
#
#
#
# Elastic Constant Matrix: (Units=GPa)
#
#
# Indices 1 2 3 4 5 6 
#
# 1 51.0959 17.4202 21.3713 0.0000 0.0000 0.0000
# 2 17.4202 70.5053 18.7040 0.0000 0.0000 0.0000
# 3 21.3713 18.7040 64.7918 0.0000 0.0000 0.0000
# 4 0.0000 0.0000 0.0000 22.4370 0.0000 0.0000
# 5 0.0000 0.0000 0.0000 0.0000 20.8836 0.0000
# 6 0.0000 0.0000 0.0000 0.0000 0.0000 12.9791
#
#
#
# Elastic Compliance Matrix: (Units=1/GPa)
#
#
# Indices 1 2 3 4 5 6 
#
# 1 0.023752 -0.004104 -0.006649 0.000000 0.000000 0.000000
# 2 -0.004104 0.016069 -0.003285 0.000000 0.000000 0.000000
# 3 -0.006649 -0.003285 0.018576 0.000000 0.000000 0.000000
# 4 0.000000 0.000000 0.000000 0.044569 0.000000 0.000000
# 5 0.000000 0.000000 0.000000 0.000000 0.047885 0.000000
# 6 0.000000 0.000000 0.000000 0.000000 0.000000 0.077047
#
#
# Mechanical properties :
#
#
# Convention : Reuss Voigt Hill
#
# Bulk Modulus (GPa) = 32.98325 33.48710 33.23517
# Shear Modulus (GPa) = 18.79130 19.85310 19.32220
#
# Velocity S-wave (km/s) = 3.41022 3.50525 3.45806
# Velocity P-wave (km/s) = 5.99324 6.09154 6.04259
#
# Compressibility (1/GPa) = 0.03031842
#
# Stress axis : x y z
#
# Youngs Moduli (GPa) = 42.10243 62.23214 53.83398
#
# Poissons Ratio (x) = 0.25543 0.35797
# Poissons Ratio (y) = 0.17281 0.17684
# Poissons Ratio (z) = 0.27996 0.20443
#
# Static dielectric constant tensor:
#      x y z
#    x 2.789920 0.000000 0.000000 
#    y 0.000000 3.324800 0.000000 
#    z 0.000000 0.000000 3.291390 
# 
# 
# High freq. dielectric constant tensor:
#      x y z
#    x 1.569310 0.000000 0.000000 
#    y 0.000000 1.633710 0.000000 
#    z 0.000000 0.000000 1.621110 
# 
# From -- ./inp_files/24034.got.cif
#   From: 2010.03.12/outbox.cif.g09.slc.cpg/sg59_13_cif.got.tgz:24034.got - 2010.04.16 16:29:54.
