data_PCOD8239346
_publ_section_title
;
Structure prediction by ZEFSAII (Michael W. Deem and Ramdas Pophale) SiO2 
 PCOD8239346
Probable space group: P M M N
;
_chemical_formula_sum "Si O2"
_cell_formula_units_Z 64
_cell_length_a 8.952722
_cell_length_b 21.583896
_cell_length_c 20.378997
_cell_angle_alpha 90.000000
_cell_angle_beta 90.000000
_cell_angle_gamma 90.000000
_cell_volume 3937.927753
_symmetry_space_group_name_H-M "P M M N"
_symmetry_group_IT_number 59
_space_group.IT_coordinate_system_code '2'
_symmetry_cell_setting 'orthorhombic'
loop_
_space_group_symop_operation_xyz
x,y,z
1/2-x,1/2-y,z
1/2+x,-y,-z
-x,1/2+y,-z
-x,-y,-z
1/2+x,1/2+y,-z
1/2-x,y,z
x,1/2-y,z
loop_
_atom_site_type_symbol
_atom_site_label
_atom_site_fract_x
_atom_site_fract_y
_atom_site_fract_z
Si Si1 0.924008 0.564475 0.014835
Si Si2 0.076691 0.045323 0.589967
Si Si3 0.078227 0.177618 0.362529
Si Si4 0.076386 0.590810 0.535520
Si Si5 0.083672 0.406615 0.123189
Si Si6 0.084387 0.946206 0.139118
Si Si7 0.072278 0.976197 0.279266
Si Si8 0.426529 0.607219 0.748966
O O1 0.750000 0.552561 0.021120
O O2 0.983164 0.589728 0.085191
O O3 0.958185 0.610473 0.952848
O O4 0.000000 0.500000 0.000000
O O5 0.250000 0.063030 0.594249
O O6 0.998464 0.088086 0.535864
O O7 0.996290 0.059758 0.658897
O O8 0.053069 0.973419 0.573468
O O9 0.250000 0.156520 0.355123
O O10 0.065057 0.250000 0.375691
O O11 0.005165 0.144180 0.424517
O O12 0.988554 0.162028 0.296231
O O13 0.250000 0.606949 0.527687
O O14 0.250000 0.382178 0.140123
O O15 0.080717 0.480499 0.127920
O O16 0.968370 0.377377 0.175206
O O17 0.250000 0.919720 0.129485
O O18 0.030922 0.935739 0.214322
O O19 0.250000 0.984060 0.286051
O O20 0.000325 0.043874 0.275080
O O21 0.250000 0.601999 0.741279
#
# Coordination Sequence:
#
# PCOD8239346 Si02
#       8
#     8   8   8   8   8   8   8   8
#     4   9  15  22  33  49  71 102 138 174 209 244
#     4  10  19  30  47  69  91 116 146 183 225 268
#     4  11  23  37  52  67  87 117 148 183 227 272
#     4  10  20  33  49  69  90 114 144 182 225 268
#     4   8  15  26  37  51  74 105 139 176 214 251
#     4   8  15  24  34  51  76 107 140 173 211 250
#     4  10  18  28  42  60  86 117 146 181 221 263
#     4  11  20  29  43  63  83 108 144 184 223 262
#
# _framework density 16.252202
#
# number of rings (size 3 to 8) (size 9 to 14) (size 15 to 20)
#    0.000    2.375    1.250    4.500    0.000    7.500 
#    0.000    0.000    0.000    0.000    0.000    0.000 
#    0.000    0.000    0.000    1.125    0.000   19.375 
#
# Total GULP energy -793223.950063 kJ/mol
# GULP energy per Si atom -12394.124220 kJ/mol
# Density = 1.621521 g / cm^3
# Si number density = 16.252202 Si / 1000 Ang^3
#
#
#
# Elastic Constant Matrix: (Units=GPa)
#
#
# Indices 1 2 3 4 5 6 
#
# 1 119.0555 25.2442 78.0893 0.0000 0.0000 0.0000
# 2 25.2442 27.9435 28.1888 0.0000 0.0000 0.0000
# 3 78.0893 28.1888 167.4242 0.0000 0.0000 0.0000
# 4 0.0000 0.0000 0.0000 10.3137 0.0000 0.0000
# 5 0.0000 0.0000 0.0000 0.0000 36.0305 0.0000
# 6 0.0000 0.0000 0.0000 0.0000 0.0000 13.3790
#
#
#
# Elastic Compliance Matrix: (Units=1/GPa)
#
#
# Indices 1 2 3 4 5 6 
#
# 1 0.013102 -0.006832 -0.004961 0.000000 0.000000 0.000000
# 2 -0.006832 0.046671 -0.004671 0.000000 0.000000 0.000000
# 3 -0.004961 -0.004671 0.009073 0.000000 0.000000 0.000000
# 4 0.000000 0.000000 0.000000 0.096959 0.000000 0.000000
# 5 0.000000 0.000000 0.000000 0.000000 0.027754 0.000000
# 6 0.000000 0.000000 0.000000 0.000000 0.000000 0.074744
#
#
# Mechanical properties :
#
#
# Convention : Reuss Voigt Hill
#
# Bulk Modulus (GPa) = 27.84133 64.16306 46.00219
# Shear Modulus (GPa) = 15.96410 24.13804 20.05107
#
# Velocity S-wave (km/s) = 3.13752 3.85803 3.51628
# Velocity P-wave (km/s) = 5.50394 7.70787 6.69719
#
# Compressibility (1/GPa) = 0.03591783
#
# Stress axis : x y z
#
# Youngs Moduli (GPa) = 76.32559 21.42669 110.21667
#
# Poissons Ratio (x) = 0.14639 0.54674
# Poissons Ratio (y) = 0.52146 0.51485
# Poissons Ratio (z) = 0.37862 0.10009
#
# Static dielectric constant tensor:
#      x y z
#    x 4.635310 0.000000 0.000000 
#    y 0.000000 2.489000 0.000000 
#    z 0.000000 0.000000 4.922350 
# 
# 
# High freq. dielectric constant tensor:
#      x y z
#    x 1.640870 0.000000 0.000000 
#    y 0.000000 1.534310 0.000000 
#    z 0.000000 0.000000 1.650430 
# 
# From -- ./inp_files/29715.got.cif
#   From: 2010.03.12/outbox.cif.g09.slc.cpg/sg59_15_cif.got.tgz:29715.got - 2010.04.16 16:29:54.
