data_PCOD8239509
_publ_section_title
;
Structure prediction by ZEFSAII (Michael W. Deem and Ramdas Pophale) SiO2 
 PCOD8239509
Probable space group: P M M N
;
_chemical_formula_sum "Si O2"
_cell_formula_units_Z 64
_cell_length_a 20.097622
_cell_length_b 9.110799
_cell_length_c 20.674402
_cell_angle_alpha 90.000000
_cell_angle_beta 90.000000
_cell_angle_gamma 90.000000
_cell_volume 3785.594533
_symmetry_space_group_name_H-M "P M M N"
_symmetry_group_IT_number 59
_space_group.IT_coordinate_system_code '2'
_symmetry_cell_setting 'orthorhombic'
loop_
_space_group_symop_operation_xyz
x,y,z
1/2-x,1/2-y,z
1/2+x,-y,-z
-x,1/2+y,-z
-x,-y,-z
1/2+x,1/2+y,-z
1/2-x,y,z
x,1/2-y,z
loop_
_atom_site_type_symbol
_atom_site_label
_atom_site_fract_x
_atom_site_fract_y
_atom_site_fract_z
Si Si1 0.325016 0.916642 0.533988
Si Si2 0.356417 0.414335 0.661989
Si Si3 0.050622 0.921475 0.452047
Si Si4 0.012614 0.913374 0.314266
Si Si5 0.004681 0.909649 0.805154
Si Si6 0.824043 0.921324 0.089138
Si Si7 0.456175 0.573344 0.945124
Si Si8 0.842667 0.087984 0.218448
O O1 0.250000 0.942431 0.509192
O O2 0.335329 0.750000 0.558688
O O3 0.373895 0.949744 0.474286
O O4 0.342131 0.025462 0.591386
O O5 0.327830 0.250000 0.666052
O O6 0.434111 0.414110 0.676479
O O7 0.318586 0.514726 0.714612
O O8 0.031342 0.750000 0.451522
O O9 0.044441 0.985648 0.378983
O O10 0.000000 0.000000 0.500000
O O11 0.040453 0.750000 0.305763
O O12 0.034923 0.994371 0.247806
O O13 0.970082 0.750000 0.807875
O O14 0.008669 0.976200 0.877724
O O15 0.078890 0.893604 0.779683
O O16 0.750000 0.941119 0.057521
O O17 0.844070 0.750000 0.090733
O O18 0.880655 0.011128 0.050019
O O19 0.819177 0.982056 0.161533
O O20 0.453257 0.750000 0.950933
O O21 0.500000 0.500000 0.000000
O O22 0.810277 0.250000 0.210896
#
# Coordination Sequence:
#
# PCOD8239509 Si02
#       8
#     8   8   8   8   8   8   8   8
#     4  10  21  34  46  62  88 122 156 194 243 298
#     4  10  18  29  45  65  90 121 158 199 241 284
#     4  10  19  32  49  69  91 117 156 201 245 292
#     4   9  17  28  45  69  92 116 152 198 243 283
#     4   8  16  29  45  69  97 124 155 192 238 287
#     4  10  20  33  49  71 100 134 172 210 247 290
#     4  10  20  34  53  77 105 137 171 207 249 298
#     4   9  17  29  45  65  92 127 165 201 238 283
#
# _framework density 16.906196000000001
#
# number of rings (size 3 to 8) (size 9 to 14) (size 15 to 20)
#    0.000    2.500    1.250    2.250    0.000    6.250 
#    0.000    0.000    0.000    0.000    0.000    0.875 
#    0.000    3.000    0.000    0.000    0.000    0.000 
#
# Total GULP energy -793106.970033 kJ/mol
# GULP energy per Si atom -12392.296407 kJ/mol
# Density = 1.686772 g / cm^3
# Si number density = 16.906196 Si / 1000 Ang^3
#
#
#
# Elastic Constant Matrix: (Units=GPa)
#
#
# Indices 1 2 3 4 5 6 
#
# 1 47.9308 35.9956 42.5954 0.0000 0.0000 0.0000
# 2 35.9956 96.0029 54.1995 0.0000 0.0000 0.0000
# 3 42.5954 54.1995 121.1031 0.0000 0.0000 0.0000
# 4 0.0000 0.0000 0.0000 28.7874 0.0000 0.0000
# 5 0.0000 0.0000 0.0000 0.0000 1.5781 0.0000
# 6 0.0000 0.0000 0.0000 0.0000 0.0000 10.0054
#
#
#
# Elastic Compliance Matrix: (Units=1/GPa)
#
#
# Indices 1 2 3 4 5 6 
#
# 1 0.034539 -0.008151 -0.008500 0.000000 0.000000 0.000000
# 2 -0.008151 0.015862 -0.004232 0.000000 0.000000 0.000000
# 3 -0.008500 -0.004232 0.013141 0.000000 0.000000 0.000000
# 4 0.000000 0.000000 0.000000 0.034737 0.000000 0.000000
# 5 0.000000 0.000000 0.000000 0.000000 0.633654 0.000000
# 6 0.000000 0.000000 0.000000 0.000000 0.000000 0.099946
#
#
# Mechanical properties :
#
#
# Convention : Reuss Voigt Hill
#
# Bulk Modulus (GPa) = 45.92392 58.95754 52.44073
# Shear Modulus (GPa) = 5.67599 16.89062 11.28330
#
# Velocity S-wave (km/s) = 1.83429 3.16425 2.58622
# Velocity P-wave (km/s) = 5.63108 6.94975 6.32488
#
# Compressibility (1/GPa) = 0.02177514
#
# Stress axis : x y z
#
# Youngs Moduli (GPa) = 28.95285 63.04466 76.09669
#
# Poissons Ratio (x) = 0.51389 0.64684
# Poissons Ratio (y) = 0.23600 0.32203
# Poissons Ratio (z) = 0.24611 0.26680
#
# Static dielectric constant tensor:
#      x y z
#    x 3.068520 0.000000 0.000000 
#    y 0.000000 3.522260 0.000000 
#    z 0.000000 0.000000 3.191720 
# 
# 
# High freq. dielectric constant tensor:
#      x y z
#    x 1.618740 0.000000 0.000000 
#    y 0.000000 1.661950 0.000000 
#    z 0.000000 0.000000 1.637320 
# 
# From -- ./inp_files/31014.got.cif
#   From: 2010.03.12/outbox.cif.g09.slc.cpg/sg59_16_cif.got.tgz:31014.got - 2010.04.16 16:29:54.
