data_PCOD8239220
_publ_section_title
;
Structure prediction by ZEFSAII (Michael W. Deem and Ramdas Pophale) SiO2 
 PCOD8239220
Probable space group: P M M N
;
_chemical_formula_sum "Si O2"
_cell_formula_units_Z 64
_cell_length_a 9.254893
_cell_length_b 22.939774
_cell_length_c 20.170949
_cell_angle_alpha 90.000000
_cell_angle_beta 90.000000
_cell_angle_gamma 90.000000
_cell_volume 4282.396430
_symmetry_space_group_name_H-M "P M M N"
_symmetry_group_IT_number 59
_space_group.IT_coordinate_system_code '2'
_symmetry_cell_setting 'orthorhombic'
loop_
_space_group_symop_operation_xyz
x,y,z
1/2-x,1/2-y,z
1/2+x,-y,-z
-x,1/2+y,-z
-x,-y,-z
1/2+x,1/2+y,-z
1/2-x,y,z
x,1/2-y,z
loop_
_atom_site_type_symbol
_atom_site_label
_atom_site_fract_x
_atom_site_fract_y
_atom_site_fract_z
Si Si1 0.085276 0.961082 0.921502
Si Si2 0.417425 0.554669 0.529034
Si Si3 0.578928 0.816466 0.298671
Si Si4 0.416405 0.109199 0.823738
Si Si5 0.419280 0.028950 0.349410
Si Si6 0.413804 0.601934 0.392643
Si Si7 0.412998 0.522743 0.779065
Si Si8 0.915325 0.076699 0.942436
O O1 0.250000 0.986715 0.927537
O O2 0.065540 0.937964 0.845842
O O3 0.064511 0.910663 0.977978
O O4 0.967405 0.010707 0.932931
O O5 0.500000 0.500000 0.500000
O O6 0.250000 0.539120 0.542170
O O7 0.496629 0.570849 0.598139
O O8 0.429839 0.604899 0.472903
O O9 0.750000 0.821806 0.303172
O O10 0.526055 0.750000 0.299365
O O11 0.521753 0.846230 0.231038
O O12 0.515896 0.849042 0.362447
O O13 0.250000 0.121849 0.837033
O O14 0.496240 0.119939 0.894256
O O15 0.445199 0.044158 0.797929
O O16 0.250000 0.041839 0.354549
O O17 0.475523 0.044699 0.276199
O O18 0.457503 0.961778 0.365131
O O19 0.250000 0.615477 0.371527
O O20 0.250000 0.528694 0.751382
O O21 0.750000 0.081851 0.920734
#
# Coordination Sequence:
#
# PCOD8239220 Si02
#       8
#     8   8   8   8   8   8   8   8
#     4   8  15  25  34  50  74  99 128 158 190 225
#     4   9  17  28  41  58  77  99 128 160 195 237
#     4  10  20  32  45  59  75 101 137 172 206 243
#     4   9  17  28  39  53  73  99 130 165 203 238
#     4  10  18  26  38  59  81 103 132 162 193 235
#     4   9  18  30  42  57  77  99 127 165 204 239
#     4   9  15  24  38  53  74 106 132 159 195 228
#     4   9  15  23  37  53  70  95 128 162 192 228
#
# _framework density 14.944903
#
# number of rings (size 3 to 8) (size 9 to 14) (size 15 to 20)
#    0.000    2.875    1.250    2.625    0.000    5.750 
#    0.000    0.000    0.000    0.000    0.000    0.000 
#    0.000    0.000    0.000    1.125    0.000   19.500 
#
# Total GULP energy -792951.068622 kJ/mol
# GULP energy per Si atom -12389.860447 kJ/mol
# Density = 1.491089 g / cm^3
# Si number density = 14.944903 Si / 1000 Ang^3
#
#
#
# Elastic Constant Matrix: (Units=GPa)
#
#
# Indices 1 2 3 4 5 6 
#
# 1 71.8341 18.5946 57.0946 0.0000 0.0000 0.0000
# 2 18.5946 31.5424 30.9248 0.0000 0.0000 0.0000
# 3 57.0946 30.9248 136.4119 0.0000 0.0000 0.0000
# 4 0.0000 0.0000 0.0000 11.3204 0.0000 0.0000
# 5 0.0000 0.0000 0.0000 0.0000 30.2236 0.0000
# 6 0.0000 0.0000 0.0000 0.0000 0.0000 11.9454
#
#
#
# Elastic Compliance Matrix: (Units=1/GPa)
#
#
# Indices 1 2 3 4 5 6 
#
# 1 0.021443 -0.004940 -0.007855 0.000000 0.000000 0.000000
# 2 -0.004940 0.041902 -0.007432 0.000000 0.000000 0.000000
# 3 -0.007855 -0.007432 0.012303 0.000000 0.000000 0.000000
# 4 0.000000 0.000000 0.000000 0.088336 0.000000 0.000000
# 5 0.000000 0.000000 0.000000 0.000000 0.033087 0.000000
# 6 0.000000 0.000000 0.000000 0.000000 0.000000 0.083714
#
#
# Mechanical properties :
#
#
# Convention : Reuss Voigt Hill
#
# Bulk Modulus (GPa) = 28.41315 50.33517 39.37416
# Shear Modulus (GPa) = 15.01643 19.57618 17.29630
#
# Velocity S-wave (km/s) = 3.17327 3.62317 3.40566
# Velocity P-wave (km/s) = 5.69907 7.15938 6.47055
#
# Compressibility (1/GPa) = 0.03519497
#
# Stress axis : x y z
#
# Youngs Moduli (GPa) = 46.63556 23.86546 81.27971
#
# Poissons Ratio (x) = 0.11789 0.63845
# Poissons Ratio (y) = 0.23036 0.60405
# Poissons Ratio (z) = 0.36632 0.17736
#
# Static dielectric constant tensor:
#      x y z
#    x 2.964090 0.000000 0.000000 
#    y 0.000000 2.367030 0.000000 
#    z 0.000000 0.000000 3.499840 
# 
# 
# High freq. dielectric constant tensor:
#      x y z
#    x 1.583000 0.000000 0.000000 
#    y 0.000000 1.483150 0.000000 
#    z 0.000000 0.000000 1.592380 
# 
# From -- ./inp_files/29679.got.cif
#   From: 2010.03.12/outbox.cif.g09.slc.cpg/sg59_15_cif.got.tgz:29679.got - 2010.04.16 16:29:54.
