data_PCOD8239860
_publ_section_title
;
Structure prediction by ZEFSAII (Michael W. Deem and Ramdas Pophale) SiO2 
 PCOD8239860
Probable space group: P M M N
;
_chemical_formula_sum "Si O2"
_cell_formula_units_Z 64
_cell_length_a 8.930582
_cell_length_b 23.113104
_cell_length_c 16.600515
_cell_angle_alpha 90.000000
_cell_angle_beta 90.000000
_cell_angle_gamma 90.000000
_cell_volume 3426.569914
_symmetry_space_group_name_H-M "P M M N"
_symmetry_group_IT_number 59
_space_group.IT_coordinate_system_code '2'
_symmetry_cell_setting 'orthorhombic'
loop_
_space_group_symop_operation_xyz
x,y,z
1/2-x,1/2-y,z
1/2+x,-y,-z
-x,1/2+y,-z
-x,-y,-z
1/2+x,1/2+y,-z
1/2-x,y,z
x,1/2-y,z
loop_
_atom_site_type_symbol
_atom_site_label
_atom_site_fract_x
_atom_site_fract_y
_atom_site_fract_z
Si Si1 0.913169 0.816429 0.677715
Si Si2 0.425579 0.622345 0.541605
Si Si3 0.428188 0.093027 0.728522
Si Si4 0.574604 0.183006 0.622786
Si Si5 0.924882 0.388925 0.206674
Si Si6 0.573769 0.476040 0.343955
Si Si7 0.925421 0.442623 0.895047
Si Si8 0.424475 0.072760 0.055291
O O1 0.750000 0.847366 0.689497
O O2 0.883623 0.750000 0.679129
O O3 0.982252 0.831674 0.591898
O O4 0.032662 0.830552 0.747234
O O5 0.250000 0.630956 0.558517
O O6 0.465294 0.639063 0.450259
O O7 0.474737 0.557076 0.572437
O O8 0.250000 0.095567 0.732275
O O9 0.490097 0.155021 0.699019
O O10 0.488757 0.080556 0.817345
O O11 0.485592 0.041866 0.666861
O O12 0.750000 0.182522 0.640355
O O13 0.522116 0.250000 0.608773
O O14 0.750000 0.393423 0.187598
O O15 0.982253 0.440211 0.266014
O O16 0.016931 0.385042 0.124320
O O17 0.750000 0.477920 0.341070
O O18 0.750000 0.430919 0.884534
O O19 0.963778 0.509437 0.910555
O O20 0.987537 0.410128 0.974086
O O21 0.250000 0.080829 0.038572
#
# Coordination Sequence:
#
# PCOD8239860 Si02
#       8
#     8   8   8   8   8   8   8   8
#     4  10  20  32  48  74 107 140 178 225 271 316
#     4   9  18  35  57  78 102 138 180 223 270 325
#     4  11  21  35  55  79 111 143 177 224 274 326
#     4  10  22  39  57  77 103 139 187 236 275 318
#     4  10  18  31  51  74 107 145 180 218 259 316
#     4   8  16  30  50  78 109 137 169 212 266 319
#     4  10  20  33  52  79 110 144 179 214 259 318
#     4  10  19  31  51  80 112 143 177 217 262 314
#
# _framework density 18.677572000000001
#
# number of rings (size 3 to 8) (size 9 to 14) (size 15 to 20)
#    0.000    2.250    1.250    3.000    0.000    3.750 
#    0.000    0.625    0.000    0.750    0.000    0.000 
#    0.000    0.000    0.000    0.000    0.000    0.000 
#
# Total GULP energy -793031.829091 kJ/mol
# GULP energy per Si atom -12391.122330 kJ/mol
# Density = 1.863506 g / cm^3
# Si number density = 18.677572 Si / 1000 Ang^3
#
#
#
# Elastic Constant Matrix: (Units=GPa)
#
#
# Indices 1 2 3 4 5 6 
#
# 1 51.5794 31.7374 40.8112 0.0000 0.0000 0.0000
# 2 31.7374 71.6563 48.6181 0.0000 0.0000 0.0000
# 3 40.8112 48.6181 111.4593 0.0000 0.0000 0.0000
# 4 0.0000 0.0000 0.0000 17.0089 0.0000 0.0000
# 5 0.0000 0.0000 0.0000 0.0000 27.5355 0.0000
# 6 0.0000 0.0000 0.0000 0.0000 0.0000 23.1323
#
#
#
# Elastic Compliance Matrix: (Units=1/GPa)
#
#
# Indices 1 2 3 4 5 6 
#
# 1 0.030500 -0.008425 -0.007493 0.000000 0.000000 0.000000
# 2 -0.008425 0.022149 -0.006576 0.000000 0.000000 0.000000
# 3 -0.007493 -0.006576 0.014584 0.000000 0.000000 0.000000
# 4 0.000000 0.000000 0.000000 0.058793 0.000000 0.000000
# 5 0.000000 0.000000 0.000000 0.000000 0.036317 0.000000
# 6 0.000000 0.000000 0.000000 0.000000 0.000000 0.043230
#
#
# Mechanical properties :
#
#
# Convention : Reuss Voigt Hill
#
# Bulk Modulus (GPa) = 44.95467 53.00317 48.97892
# Shear Modulus (GPa) = 19.38166 21.10391 20.24278
#
# Velocity S-wave (km/s) = 3.22483 3.36505 3.29569
# Velocity P-wave (km/s) = 6.16336 6.59831 6.38454
#
# Compressibility (1/GPa) = 0.02224463
#
# Stress axis : x y z
#
# Youngs Moduli (GPa) = 32.78677 45.14836 68.56832
#
# Poissons Ratio (x) = 0.38038 0.51376
# Poissons Ratio (y) = 0.27623 0.45094
# Poissons Ratio (z) = 0.24566 0.29692
#
# Static dielectric constant tensor:
#      x y z
#    x 3.405920 0.000000 0.000000 
#    y 0.000000 3.406570 0.000000 
#    z 0.000000 0.000000 3.444020 
# 
# 
# High freq. dielectric constant tensor:
#      x y z
#    x 1.725910 0.000000 0.000000 
#    y 0.000000 1.695770 0.000000 
#    z 0.000000 0.000000 1.723730 
# 
# From -- ./inp_files/21465.got.cif
#   From: 2010.03.12/outbox.cif.g09.slc.cpg/sg59_11_cif.got.tgz:21465.got - 2010.04.16 16:29:54.
