data_PCOD8239992
_publ_section_title
;
Structure prediction by ZEFSAII (Michael W. Deem and Ramdas Pophale) SiO2 
 PCOD8239992
Probable space group: P M M N
;
_chemical_formula_sum "Si O2"
_cell_formula_units_Z 64
_cell_length_a 9.230656
_cell_length_b 22.954280
_cell_length_c 17.450969
_cell_angle_alpha 90.000000
_cell_angle_beta 90.000000
_cell_angle_gamma 90.000000
_cell_volume 3697.564754
_symmetry_space_group_name_H-M "P M M N"
_symmetry_group_IT_number 59
_space_group.IT_coordinate_system_code '2'
_symmetry_cell_setting 'orthorhombic'
loop_
_space_group_symop_operation_xyz
x,y,z
1/2-x,1/2-y,z
1/2+x,-y,-z
-x,1/2+y,-z
-x,-y,-z
1/2+x,1/2+y,-z
1/2-x,y,z
x,1/2-y,z
loop_
_atom_site_type_symbol
_atom_site_label
_atom_site_fract_x
_atom_site_fract_y
_atom_site_fract_z
Si Si1 0.080353 0.813551 0.250176
Si Si2 0.083489 0.588310 0.813695
Si Si3 0.417665 0.018895 0.924558
Si Si4 0.085311 0.045092 0.327243
Si Si5 0.080455 0.633938 0.090588
Si Si6 0.417216 0.060058 0.496262
Si Si7 0.422251 0.586659 0.362594
Si Si8 0.922438 0.184879 0.070718
O O1 0.250000 0.812854 0.264872
O O2 0.014927 0.750000 0.272879
O O3 0.048507 0.822708 0.160441
O O4 0.017390 0.865825 0.302073
O O5 0.250000 0.600718 0.795678
O O6 0.061836 0.529626 0.860646
O O7 0.018041 0.642180 0.862930
O O8 0.004313 0.582582 0.733082
O O9 0.250000 0.029011 0.944485
O O10 0.489288 0.076609 0.891118
O O11 0.500000 0.000000 0.000000
O O12 0.250000 0.043484 0.298742
O O13 0.071560 0.080320 0.407726
O O14 0.030465 0.977968 0.334372
O O15 0.250000 0.617455 0.084996
O O16 0.023643 0.663110 0.012316
O O17 0.250000 0.052307 0.520354
O O18 0.498220 0.102321 0.556758
O O19 0.500000 0.000000 0.500000
O O20 0.250000 0.589233 0.375067
O O21 0.750000 0.184061 0.070138
O O22 0.981781 0.250000 0.085755
#
# Coordination Sequence:
#
# PCOD8239992 Si02
#       8
#     8   8   8   8   8   8   8   8
#     4   9  17  29  49  76 102 133 174 213 245 287
#     4  10  20  32  47  72  98 122 160 201 240 287
#     4  11  21  33  48  71 100 128 160 200 247 297
#     4   9  18  31  48  73 100 126 155 195 247 299
#     4  10  18  32  52  73  97 128 167 205 246 292
#     4   9  17  30  49  73  99 125 157 191 235 295
#     4   9  17  30  48  73 103 130 162 200 242 292
#     4   9  17  31  50  69  91 122 163 207 241 276
#
# _framework density 17.308689999999999
#
# number of rings (size 3 to 8) (size 9 to 14) (size 15 to 20)
#    0.000    2.500    1.250    2.625    0.000    6.000 
#    0.000    0.625    0.000    4.500    0.000    5.250 
#    0.000    0.000    0.000    0.000    0.000    0.000 
#
# Total GULP energy -793293.257469 kJ/mol
# GULP energy per Si atom -12395.207148 kJ/mol
# Density = 1.726929 g / cm^3
# Si number density = 17.308690 Si / 1000 Ang^3
#
#
#
# Elastic Constant Matrix: (Units=GPa)
#
#
# Indices 1 2 3 4 5 6 
#
# 1 52.5718 25.9921 41.5092 0.0000 0.0000 0.0000
# 2 25.9921 110.5459 56.4002 0.0000 0.0000 0.0000
# 3 41.5092 56.4002 131.0886 0.0000 0.0000 0.0000
# 4 0.0000 0.0000 0.0000 18.4553 0.0000 0.0000
# 5 0.0000 0.0000 0.0000 0.0000 29.0697 0.0000
# 6 0.0000 0.0000 0.0000 0.0000 0.0000 17.0209
#
#
#
# Elastic Compliance Matrix: (Units=1/GPa)
#
#
# Indices 1 2 3 4 5 6 
#
# 1 0.025866 -0.002438 -0.007141 0.000000 0.000000 0.000000
# 2 -0.002438 0.011820 -0.004313 0.000000 0.000000 0.000000
# 3 -0.007141 -0.004313 0.011746 0.000000 0.000000 0.000000
# 4 0.000000 0.000000 0.000000 0.054185 0.000000 0.000000
# 5 0.000000 0.000000 0.000000 0.000000 0.034400 0.000000
# 6 0.000000 0.000000 0.000000 0.000000 0.000000 0.058751
#
#
# Mechanical properties :
#
#
# Convention : Reuss Voigt Hill
#
# Bulk Modulus (GPa) = 46.19938 60.22325 53.21132
# Shear Modulus (GPa) = 21.57323 24.26283 22.91803
#
# Velocity S-wave (km/s) = 3.53424 3.74809 3.64273
# Velocity P-wave (km/s) = 6.58816 7.32121 6.96434
#
# Compressibility (1/GPa) = 0.02164531
#
# Stress axis : x y z
#
# Youngs Moduli (GPa) = 38.66130 84.60239 85.13845
#
# Poissons Ratio (x) = 0.20627 0.60800
# Poissons Ratio (y) = 0.09426 0.36724
# Poissons Ratio (z) = 0.27609 0.36493
#
# Static dielectric constant tensor:
#      x y z
#    x 3.172500 0.000000 0.000000 
#    y 0.000000 3.322730 0.000000 
#    z 0.000000 0.000000 3.483150 
# 
# 
# High freq. dielectric constant tensor:
#      x y z
#    x 1.643410 0.000000 0.000000 
#    y 0.000000 1.648270 0.000000 
#    z 0.000000 0.000000 1.674680 
# 
# From -- ./inp_files/26304.got.cif
#   From: 2010.03.12/outbox.cif.g09.slc.cpg/sg59_14_cif.got.tgz:26304.got - 2010.04.16 16:29:54.
