data_PCOD8239518
_publ_section_title
;
Structure prediction by ZEFSAII (Michael W. Deem and Ramdas Pophale) SiO2 
 PCOD8239518
Probable space group: P M M N
;
_chemical_formula_sum "Si O2"
_cell_formula_units_Z 48
_cell_length_a 20.245224
_cell_length_b 8.977354
_cell_length_c 15.213805
_cell_angle_alpha 90.000000
_cell_angle_beta 90.000000
_cell_angle_gamma 90.000000
_cell_volume 2765.086887
_symmetry_space_group_name_H-M "P M M N"
_symmetry_group_IT_number 59
_space_group.IT_coordinate_system_code '2'
_symmetry_cell_setting 'orthorhombic'
loop_
_space_group_symop_operation_xyz
x,y,z
1/2-x,1/2-y,z
1/2+x,-y,-z
-x,1/2+y,-z
-x,-y,-z
1/2+x,1/2+y,-z
1/2-x,y,z
x,1/2-y,z
loop_
_atom_site_type_symbol
_atom_site_label
_atom_site_fract_x
_atom_site_fract_y
_atom_site_fract_z
Si Si1 0.432450 0.581868 0.601984
Si Si2 0.912301 0.917382 0.567799
Si Si3 0.547382 0.922693 0.224336
Si Si4 0.676466 0.426912 0.912898
Si Si5 0.436367 0.572658 0.956213
Si Si6 0.105715 0.577942 0.259743
O O1 0.406956 0.750000 0.615316
O O2 0.509807 0.579663 0.582835
O O3 0.393981 0.509495 0.519701
O O4 0.416963 0.486353 0.688913
O O5 0.886334 0.750000 0.555598
O O6 0.876465 0.988837 0.651983
O O7 0.565783 0.750000 0.213830
O O8 0.469241 0.946486 0.229638
O O9 0.574534 0.014848 0.142052
O O10 0.750000 0.489589 0.930937
O O11 0.676369 0.250000 0.909892
O O12 0.651437 0.485402 0.818263
O O13 0.627817 0.480988 0.989674
O O14 0.444941 0.750000 0.957377
O O15 0.500000 0.500000 0.000000
O O16 0.119420 0.750000 0.279912
#
# Coordination Sequence:
#
# PCOD8239518 Si02
#       6
#     8   8   8   8   8   8
#     4   9  16  26  40  63  93 126 158 194 235 282
#     4   9  16  25  39  62  92 126 156 190 234 282
#     4  10  18  29  45  69  97 127 161 201 246 294
#     4   9  18  33  51  71  96 128 168 209 247 291
#     4  11  20  32  50  73  97 128 166 208 253 299
#     4   9  16  28  45  66  91 124 161 197 238 286
#
# _framework density 17.359310000000001
#
# number of rings (size 3 to 8) (size 9 to 14) (size 15 to 20)
#    0.000    2.500    1.667    2.000    0.000    4.667 
#    0.000    0.000    0.000    4.500    0.000    1.167 
#    0.000    9.333    0.000    0.000    0.000    0.000 
#
# Total GULP energy -595156.386605 kJ/mol
# GULP energy per Si atom -12399.091388 kJ/mol
# Density = 1.731980 g / cm^3
# Si number density = 17.359310 Si / 1000 Ang^3
#
#
#
# Elastic Constant Matrix: (Units=GPa)
#
#
# Indices 1 2 3 4 5 6 
#
# 1 62.1664 31.4294 51.5043 0.0000 0.0000 0.0000
# 2 31.4294 97.8056 60.9575 0.0000 0.0000 0.0000
# 3 51.5043 60.9575 160.8279 0.0000 0.0000 0.0000
# 4 0.0000 0.0000 0.0000 37.0042 0.0000 0.0000
# 5 0.0000 0.0000 0.0000 0.0000 16.5378 0.0000
# 6 0.0000 0.0000 0.0000 0.0000 0.0000 10.6663
#
#
#
# Elastic Compliance Matrix: (Units=1/GPa)
#
#
# Indices 1 2 3 4 5 6 
#
# 1 0.022845 -0.003642 -0.005936 0.000000 0.000000 0.000000
# 2 -0.003642 0.013967 -0.004128 0.000000 0.000000 0.000000
# 3 -0.005936 -0.004128 0.009683 0.000000 0.000000 0.000000
# 4 0.000000 0.000000 0.000000 0.027024 0.000000 0.000000
# 5 0.000000 0.000000 0.000000 0.000000 0.060468 0.000000
# 6 0.000000 0.000000 0.000000 0.000000 0.000000 0.093753
#
#
# Mechanical properties :
#
#
# Convention : Reuss Voigt Hill
#
# Bulk Modulus (GPa) = 52.39690 67.62025 60.00858
# Shear Modulus (GPa) = 19.11964 24.63556 21.87760
#
# Velocity S-wave (km/s) = 3.32234 3.77126 3.55389
# Velocity P-wave (km/s) = 6.70571 7.61584 7.17522
#
# Compressibility (1/GPa) = 0.01908510
#
# Stress axis : x y z
#
# Youngs Moduli (GPa) = 43.77416 71.59656 103.27219
#
# Poissons Ratio (x) = 0.26073 0.61298
# Poissons Ratio (y) = 0.15941 0.42627
# Poissons Ratio (z) = 0.25983 0.29553
#
# Static dielectric constant tensor:
#      x y z
#    x 2.865290 0.000000 0.000000 
#    y 0.000000 3.244320 0.000000 
#    z 0.000000 0.000000 3.507060 
# 
# 
# High freq. dielectric constant tensor:
#      x y z
#    x 1.605490 0.000000 0.000000 
#    y 0.000000 1.668610 0.000000 
#    z 0.000000 0.000000 1.689260 
# 
# From -- ./inp_files/20761.got.cif
#   From: 2010.03.12/outbox.cif.g09.slc.cpg/sg59_11_cif.got.tgz:20761.got - 2010.04.16 16:29:54.
