data_PCOD8239713
_publ_section_title
;
Structure prediction by ZEFSAII (Michael W. Deem and Ramdas Pophale) SiO2 
 PCOD8239713
Probable space group: P M M N
;
_chemical_formula_sum "Si O2"
_cell_formula_units_Z 64
_cell_length_a 8.933676
_cell_length_b 28.194947
_cell_length_c 15.556978
_cell_angle_alpha 90.000000
_cell_angle_beta 90.000000
_cell_angle_gamma 90.000000
_cell_volume 3918.561957
_symmetry_space_group_name_H-M "P M M N"
_symmetry_group_IT_number 59
_space_group.IT_coordinate_system_code '2'
_symmetry_cell_setting 'orthorhombic'
loop_
_space_group_symop_operation_xyz
x,y,z
1/2-x,1/2-y,z
1/2+x,-y,-z
-x,1/2+y,-z
-x,-y,-z
1/2+x,1/2+y,-z
1/2-x,y,z
x,1/2-y,z
loop_
_atom_site_type_symbol
_atom_site_label
_atom_site_fract_x
_atom_site_fract_y
_atom_site_fract_z
Si Si1 0.572155 0.302810 0.334421
Si Si2 0.926538 0.357965 0.845165
Si Si3 0.424025 0.850790 0.836868
Si Si4 0.420958 0.193892 0.690152
Si Si5 0.924526 0.694845 0.997116
Si Si6 0.416808 0.806413 0.478773
Si Si7 0.078460 0.552364 0.919197
Si Si8 0.923261 0.946710 0.097226
O O1 0.750000 0.300089 0.338000
O O2 0.507355 0.250000 0.316955
O O3 0.517940 0.337588 0.258498
O O4 0.518531 0.322653 0.427801
O O5 0.750000 0.357251 0.849912
O O6 0.977737 0.330033 0.761642
O O7 0.983867 0.412269 0.840102
O O8 0.989294 0.334277 0.930888
O O9 0.250000 0.837398 0.848625
O O10 0.517829 0.820134 0.903918
O O11 0.450322 0.907010 0.848709
O O12 0.250000 0.178545 0.703686
O O13 0.440959 0.250000 0.698778
O O14 0.474175 0.175633 0.596670
O O15 0.750000 0.683240 0.004826
O O16 0.957111 0.750000 0.011757
O O17 0.250000 0.827013 0.462347
O O18 0.408922 0.750000 0.479606
O O19 0.250000 0.553444 0.952727
O O20 0.043349 0.501280 0.876562
O O21 0.970270 0.562126 0.998837
O O22 0.750000 0.933898 0.106603
#
# Coordination Sequence:
#
# PCOD8239713 Si02
#       8
#     8   8   8   8   8   8   8   8
#     4   8  14  25  44  70  98 127 158 192 228 267
#     4  12  23  34  49  69  91 121 162 198 235 284
#     4  10  18  30  49  72  96 125 163 198 230 274
#     4  10  20  33  49  70  96 124 154 191 237 284
#     4  11  23  35  45  63  95 131 162 192 231 277
#     4   8  14  27  46  67  92 123 158 192 226 268
#     4   9  18  31  48  71  94 122 160 200 239 283
#     4  10  19  32  49  67  93 124 156 199 247 283
#
# _framework density 16.332522000000001
#
# number of rings (size 3 to 8) (size 9 to 14) (size 15 to 20)
#    0.000    2.250    1.250    3.750    0.000    4.250 
#    0.000    0.625    0.000    2.250    0.000    0.875 
#    0.000    0.000    0.000    0.000    0.000    0.000 
#
# Total GULP energy -793487.468201 kJ/mol
# GULP energy per Si atom -12398.241691 kJ/mol
# Density = 1.629535 g / cm^3
# Si number density = 16.332522 Si / 1000 Ang^3
#
#
#
# Elastic Constant Matrix: (Units=GPa)
#
#
# Indices 1 2 3 4 5 6 
#
# 1 87.1182 42.5225 41.8558 0.0000 0.0000 0.0000
# 2 42.5225 66.7968 34.3164 0.0000 0.0000 0.0000
# 3 41.8558 34.3164 103.2543 0.0000 0.0000 0.0000
# 4 0.0000 0.0000 0.0000 8.9896 0.0000 0.0000
# 5 0.0000 0.0000 0.0000 0.0000 9.1589 0.0000
# 6 0.0000 0.0000 0.0000 0.0000 0.0000 20.7420
#
#
#
# Elastic Compliance Matrix: (Units=1/GPa)
#
#
# Indices 1 2 3 4 5 6 
#
# 1 0.018060 -0.009328 -0.004220 0.000000 0.000000 0.000000
# 2 -0.009328 0.022872 -0.003820 0.000000 0.000000 0.000000
# 3 -0.004220 -0.003820 0.012665 0.000000 0.000000 0.000000
# 4 0.000000 0.000000 0.000000 0.111239 0.000000 0.000000
# 5 0.000000 0.000000 0.000000 0.000000 0.109183 0.000000
# 6 0.000000 0.000000 0.000000 0.000000 0.000000 0.048211
#
#
# Mechanical properties :
#
#
# Convention : Reuss Voigt Hill
#
# Bulk Modulus (GPa) = 53.02554 54.95096 53.98825
# Shear Modulus (GPa) = 13.76448 17.00977 15.38712
#
# Velocity S-wave (km/s) = 2.90619 3.23068 3.07272
# Velocity P-wave (km/s) = 6.61800 6.90178 6.76138
#
# Compressibility (1/GPa) = 0.01885884
#
# Stress axis : x y z
#
# Youngs Moduli (GPa) = 55.37234 43.72230 78.95649
#
# Poissons Ratio (x) = 0.40786 0.33323
# Poissons Ratio (y) = 0.51653 0.30161
# Poissons Ratio (z) = 0.23370 0.16702
#
# Static dielectric constant tensor:
#      x y z
#    x 3.097900 0.000000 0.000000 
#    y 0.000000 3.136140 0.000000 
#    z 0.000000 0.000000 3.257490 
# 
# 
# High freq. dielectric constant tensor:
#      x y z
#    x 1.626470 0.000000 0.000000 
#    y 0.000000 1.611000 0.000000 
#    z 0.000000 0.000000 1.616520 
# 
# From -- ./inp_files/21962.got.cif
#   From: 2010.03.12/outbox.cif.g09.slc.cpg/sg59_11_cif.got.tgz:21962.got - 2010.04.16 16:29:54.
