data_PCOD8239777
_publ_section_title
;
Structure prediction by ZEFSAII (Michael W. Deem and Ramdas Pophale) SiO2 
 PCOD8239777
Probable space group: P M M N
;
_chemical_formula_sum "Si O2"
_cell_formula_units_Z 40
_cell_length_a 18.172224
_cell_length_b 8.447959
_cell_length_c 13.830300
_cell_angle_alpha 90.000000
_cell_angle_beta 90.000000
_cell_angle_gamma 90.000000
_cell_volume 2123.202807
_symmetry_space_group_name_H-M "P M M N"
_symmetry_group_IT_number 59
_space_group.IT_coordinate_system_code '2'
_symmetry_cell_setting 'orthorhombic'
loop_
_space_group_symop_operation_xyz
x,y,z
1/2-x,1/2-y,z
1/2+x,-y,-z
-x,1/2+y,-z
-x,-y,-z
1/2+x,1/2+y,-z
1/2-x,y,z
x,1/2-y,z
loop_
_atom_site_type_symbol
_atom_site_label
_atom_site_fract_x
_atom_site_fract_y
_atom_site_fract_z
Si Si1 0.832609 0.066580 0.181504
Si Si2 0.612635 0.936016 0.374667
Si Si3 0.533298 0.563867 0.703907
Si Si4 0.668410 0.937639 0.581063
Si Si5 0.023583 0.434426 0.897672
O O1 0.750000 0.027996 0.146088
O O2 0.851791 0.250000 0.166773
O O3 0.839317 0.025239 0.294354
O O4 0.889670 0.964949 0.118365
O O5 0.626224 0.750000 0.363477
O O6 0.638486 0.000732 0.478444
O O7 0.526672 0.973018 0.360547
O O8 0.521700 0.750000 0.689168
O O9 0.613545 0.508363 0.666648
O O10 0.525197 0.521046 0.816368
O O11 0.750000 0.007229 0.601519
O O12 0.671903 0.750000 0.576570
O O13 0.007227 0.250000 0.891597
O O14 0.000000 0.500000 0.000000
#
# Coordination Sequence:
#
# PCOD8239777 Si02
#       5
#     8   8   8   8   8
#     4  10  20  34  53  80 111 137 167 213 263 307
#     4  10  18  30  51  76 105 140 176 212 251 302
#     4  10  19  33  53  75 102 135 173 217 261 307
#     4   9  18  31  48  73 105 141 178 213 250 297
#     4  11  22  38  59  79 102 133 172 215 262 317
#
# _framework density 18.839462999999999
#
# number of rings (size 3 to 8) (size 9 to 14) (size 15 to 20)
#    0.000    2.000    0.000    7.200    0.000    2.400 
#    0.000    4.000    0.000   10.800    0.000    0.000 
#    0.000    0.000    0.000    0.000    0.000    0.000 
#
# Total GULP energy -496016.611639 kJ/mol
# GULP energy per Si atom -12400.415291 kJ/mol
# Density = 1.879658 g / cm^3
# Si number density = 18.839463 Si / 1000 Ang^3
#
#
#
# Elastic Constant Matrix: (Units=GPa)
#
#
# Indices 1 2 3 4 5 6 
#
# 1 130.2215 8.3112 68.8506 0.0000 0.0000 0.0000
# 2 8.3112 36.4810 3.1275 0.0000 0.0000 0.0000
# 3 68.8506 3.1275 111.8462 0.0000 0.0000 0.0000
# 4 0.0000 0.0000 0.0000 26.8271 0.0000 0.0000
# 5 0.0000 0.0000 0.0000 0.0000 20.2579 0.0000
# 6 0.0000 0.0000 0.0000 0.0000 0.0000 25.6711
#
#
#
# Elastic Compliance Matrix: (Units=1/GPa)
#
#
# Indices 1 2 3 4 5 6 
#
# 1 0.011532 -0.002023 -0.007042 0.000000 0.000000 0.000000
# 2 -0.002023 0.027832 0.000467 0.000000 0.000000 0.000000
# 3 -0.007042 0.000467 0.013263 0.000000 0.000000 0.000000
# 4 0.000000 0.000000 0.000000 0.037276 0.000000 0.000000
# 5 0.000000 0.000000 0.000000 0.000000 0.049364 0.000000
# 6 0.000000 0.000000 0.000000 0.000000 0.000000 0.038954
#
#
# Mechanical properties :
#
#
# Convention : Reuss Voigt Hill
#
# Bulk Modulus (GPa) = 28.22432 48.79191 38.50812
# Shear Modulus (GPa) = 24.12811 27.76850 25.94830
#
# Velocity S-wave (km/s) = 3.58260 3.84338 3.71528
# Velocity P-wave (km/s) = 5.66810 6.75651 6.23610
#
# Compressibility (1/GPa) = 0.03543044
#
# Stress axis : x y z
#
# Youngs Moduli (GPa) = 86.71770 35.92931 75.39887
#
# Poissons Ratio (x) = 0.07270 0.53097
# Poissons Ratio (y) = 0.17547 -0.03524
# Poissons Ratio (z) = 0.61068 -0.01679
#
# Static dielectric constant tensor:
#      x y z
#    x 3.703000 0.000000 0.000000 
#    y 0.000000 3.416980 0.000000 
#    z 0.000000 0.000000 3.360620 
# 
# 
# High freq. dielectric constant tensor:
#      x y z
#    x 1.735990 0.000000 0.000000 
#    y 0.000000 1.727600 0.000000 
#    z 0.000000 0.000000 1.717970 
# 
# From -- ./inp_files/20125.got.cif
#   From: 2010.03.12/outbox.cif.g09.slc.cpg/sg59_11_cif.got.tgz:20125.got - 2010.04.16 16:29:54.
