data_PCOD8239207
_publ_section_title
;
Structure prediction by ZEFSAII (Michael W. Deem and Ramdas Pophale) SiO2 
 PCOD8239207
Probable space group: P M M N
;
_chemical_formula_sum "Si O2"
_cell_formula_units_Z 56
_cell_length_a 14.275988
_cell_length_b 21.500300
_cell_length_c 9.108566
_cell_angle_alpha 90.000000
_cell_angle_beta 90.000000
_cell_angle_gamma 90.000000
_cell_volume 2795.765257
_symmetry_space_group_name_H-M "P M M N"
_symmetry_group_IT_number 59
_space_group.IT_coordinate_system_code '2'
_symmetry_cell_setting 'orthorhombic'
loop_
_space_group_symop_operation_xyz
x,y,z
1/2-x,1/2-y,z
1/2+x,-y,-z
-x,1/2+y,-z
-x,-y,-z
1/2+x,1/2+y,-z
1/2-x,y,z
x,1/2-y,z
loop_
_atom_site_type_symbol
_atom_site_label
_atom_site_fract_x
_atom_site_fract_y
_atom_site_fract_z
Si Si1 0.140809 0.359910 0.236524
Si Si2 0.849951 0.001154 0.772961
Si Si3 0.639226 0.128893 0.244789
Si Si4 0.098334 0.501139 0.913995
Si Si5 0.500929 0.678689 0.530274
Si Si6 0.007352 0.097168 0.748286
Si Si7 0.992327 0.179873 0.015703
O O1 0.250000 0.341819 0.225081
O O2 0.124228 0.431736 0.277757
O O3 0.089652 0.345748 0.082753
O O4 0.089824 0.319454 0.361101
O O5 0.750000 0.020751 0.703403
O O6 0.927820 0.046753 0.708231
O O7 0.830494 0.000836 0.950330
O O8 0.750000 0.139115 0.259080
O O9 0.614106 0.059561 0.192056
O O10 0.589747 0.144287 0.399982
O O11 0.594654 0.176697 0.128211
O O12 0.099447 0.440237 0.807715
O O13 0.000000 0.500000 0.000000
O O14 0.475656 0.750000 0.489227
O O15 0.533352 0.639984 0.388351
O O16 0.964162 0.139959 0.875099
O O17 0.007812 0.250000 0.965302
#
# Coordination Sequence:
#
# PCOD8239207 Si02
#       7
#     8   8   8   8   8   8   8
#     4  10  21  40  65  88 112 152 202 254 308 360
#     4  10  19  34  61  93 120 146 188 249 309 358
#     4  11  22  38  62  90 120 160 203 246 295 355
#     4  10  17  34  61  87 118 145 186 254 310 343
#     4  11  25  42  58  82 124 170 203 241 293 356
#     4  11  21  38  59  86 122 158 193 245 304 359
#     4  11  21  36  60  87 114 156 208 250 291 348
#
# _framework density 20.030294999999999
#
# number of rings (size 3 to 8) (size 9 to 14) (size 15 to 20)
#    0.000    1.429    4.286    5.143    0.000    5.143 
#    0.000    3.571    0.000    4.286    0.000    0.000 
#    0.000    0.000    0.000    0.000    0.000    0.000 
#
# Total GULP energy -694057.438651 kJ/mol
# GULP energy per Si atom -12393.882833 kJ/mol
# Density = 1.998471 g / cm^3
# Si number density = 20.030295 Si / 1000 Ang^3
#
#
#
# Elastic Constant Matrix: (Units=GPa)
#
#
# Indices 1 2 3 4 5 6 
#
# 1 113.8850 23.9185 8.8904 0.0000 0.0000 0.0000
# 2 23.9185 98.4356 21.3214 0.0000 0.0000 0.0000
# 3 8.8904 21.3214 60.8244 0.0000 0.0000 0.0000
# 4 0.0000 0.0000 0.0000 26.9029 0.0000 0.0000
# 5 0.0000 0.0000 0.0000 0.0000 11.9530 0.0000
# 6 0.0000 0.0000 0.0000 0.0000 0.0000 17.1402
#
#
#
# Elastic Compliance Matrix: (Units=1/GPa)
#
#
# Indices 1 2 3 4 5 6 
#
# 1 0.009274 -0.002121 -0.000612 0.000000 0.000000 0.000000
# 2 -0.002121 0.011479 -0.003714 0.000000 0.000000 0.000000
# 3 -0.000612 -0.003714 0.017832 0.000000 0.000000 0.000000
# 4 0.000000 0.000000 0.000000 0.037171 0.000000 0.000000
# 5 0.000000 0.000000 0.000000 0.000000 0.083661 0.000000
# 6 0.000000 0.000000 0.000000 0.000000 0.000000 0.058343
#
#
# Mechanical properties :
#
#
# Convention : Reuss Voigt Hill
#
# Bulk Modulus (GPa) = 38.92365 42.37841 40.65103
# Shear Modulus (GPa) = 20.90161 25.80019 23.35090
#
# Velocity S-wave (km/s) = 3.23383 3.59285 3.41805
# Velocity P-wave (km/s) = 5.78084 6.19794 5.99302
#
# Compressibility (1/GPa) = 0.02569132
#
# Stress axis : x y z
#
# Youngs Moduli (GPa) = 107.82828 87.11808 56.07884
#
# Poissons Ratio (x) = 0.18477 0.03432
# Poissons Ratio (y) = 0.22869 0.20826
# Poissons Ratio (z) = 0.06600 0.32353
#
# Static dielectric constant tensor:
#      x y z
#    x 3.704300 0.000000 0.000000 
#    y 0.000000 3.795830 0.000000 
#    z 0.000000 0.000000 3.711430 
# 
# 
# High freq. dielectric constant tensor:
#      x y z
#    x 1.769190 0.000000 0.000000 
#    y 0.000000 1.792560 0.000000 
#    z 0.000000 0.000000 1.760900 
# 
# From -- ./inp_files/9352.got.cif
#   From: 2010.03.12/outbox.cif.g09.slc.cpg/sg59_5_cif.got.tgz:9352.got - 2010.04.16 16:29:54.
