data_PCOD8239972
_publ_section_title
;
Structure prediction by ZEFSAII (Michael W. Deem and Ramdas Pophale) SiO2 
 PCOD8239972
Probable space group: P M M N
;
_chemical_formula_sum "Si O2"
_cell_formula_units_Z 64
_cell_length_a 31.222837
_cell_length_b 8.945921
_cell_length_c 12.128915
_cell_angle_alpha 90.000000
_cell_angle_beta 90.000000
_cell_angle_gamma 90.000000
_cell_volume 3387.812554
_symmetry_space_group_name_H-M "P M M N"
_symmetry_group_IT_number 59
_space_group.IT_coordinate_system_code '2'
_symmetry_cell_setting 'orthorhombic'
loop_
_space_group_symop_operation_xyz
x,y,z
1/2-x,1/2-y,z
1/2+x,-y,-z
-x,1/2+y,-z
-x,-y,-z
1/2+x,1/2+y,-z
1/2-x,y,z
x,1/2-y,z
loop_
_atom_site_type_symbol
_atom_site_label
_atom_site_fract_x
_atom_site_fract_y
_atom_site_fract_z
Si Si1 0.984685 0.074392 0.610247
Si Si2 0.047000 0.428508 0.991817
Si Si3 0.611291 0.076196 0.631883
Si Si4 0.635753 0.574173 0.412080
Si Si5 0.799752 0.417305 0.267918
Si Si6 0.297518 0.572304 0.979450
Si Si7 0.122703 0.574059 0.120965
Si Si8 0.937295 0.926008 0.251402
O O1 0.986775 0.250000 0.592717
O O2 0.937458 0.019447 0.639614
O O3 0.015607 0.023160 0.709355
O O4 0.000000 0.000000 0.500000
O O5 0.042556 0.250000 0.001700
O O6 0.067942 0.478233 0.874709
O O7 0.079383 0.490191 0.084126
O O8 0.000000 0.500000 0.000000
O O9 0.613724 0.250000 0.602924
O O10 0.632159 0.041773 0.750470
O O11 0.635468 0.989487 0.535466
O O12 0.631769 0.750000 0.421698
O O13 0.680121 0.529262 0.356044
O O14 0.598156 0.504512 0.334238
O O15 0.750000 0.413298 0.293444
O O16 0.818960 0.250000 0.280589
O O17 0.808295 0.479748 0.144754
O O18 0.250000 0.511881 0.014682
O O19 0.296050 0.750000 0.983347
O O20 0.335183 0.511199 0.058294
O O21 0.115490 0.750000 0.099913
O O22 0.932263 0.750000 0.258124
#
# Coordination Sequence:
#
# PCOD8239972 Si02
#       8
#     8   8   8   8   8   8   8   8
#     4  10  18  32  50  69  98 136 178 218 260 308
#     4  11  22  37  55  77 109 145 182 224 275 331
#     4  10  21  35  52  75 108 147 181 222 270 317
#     4  11  21  34  54  78 105 137 176 219 261 311
#     4   9  18  34  56  81 109 136 165 210 265 317
#     4   8  15  31  58  88 111 135 174 222 268 323
#     4  10  20  36  57  80 110 146 184 226 275 326
#     4   9  19  34  52  75 105 136 168 217 272 313
#
# _framework density 18.891247
#
# number of rings (size 3 to 8) (size 9 to 14) (size 15 to 20)
#    0.000    2.250    1.250    3.000    0.000    2.750 
#    0.000    5.000    0.000    3.375    0.000    0.000 
#    0.000    0.000    0.000    0.000    0.000    0.000 
#
# Total GULP energy -793432.173538 kJ/mol
# GULP energy per Si atom -12397.377712 kJ/mol
# Density = 1.884825 g / cm^3
# Si number density = 18.891247 Si / 1000 Ang^3
#
#
#
# Elastic Constant Matrix: (Units=GPa)
#
#
# Indices 1 2 3 4 5 6 
#
# 1 104.7066 33.3537 61.0159 0.0000 0.0000 0.0000
# 2 33.3537 43.8787 40.5065 0.0000 0.0000 0.0000
# 3 61.0159 40.5065 132.7900 0.0000 0.0000 0.0000
# 4 0.0000 0.0000 0.0000 23.9383 0.0000 0.0000
# 5 0.0000 0.0000 0.0000 0.0000 33.2622 0.0000
# 6 0.0000 0.0000 0.0000 0.0000 0.0000 23.6751
#
#
#
# Elastic Compliance Matrix: (Units=1/GPa)
#
#
# Indices 1 2 3 4 5 6 
#
# 1 0.014331 -0.006702 -0.004541 0.000000 0.000000 0.000000
# 2 -0.006702 0.034857 -0.007553 0.000000 0.000000 0.000000
# 3 -0.004541 -0.007553 0.011921 0.000000 0.000000 0.000000
# 4 0.000000 0.000000 0.000000 0.041774 0.000000 0.000000
# 5 0.000000 0.000000 0.000000 0.000000 0.030064 0.000000
# 6 0.000000 0.000000 0.000000 0.000000 0.000000 0.042238
#
#
# Mechanical properties :
#
#
# Convention : Reuss Voigt Hill
#
# Bulk Modulus (GPa) = 42.52124 61.23637 51.87881
# Shear Modulus (GPa) = 22.66355 25.94174 24.30265
#
# Velocity S-wave (km/s) = 3.46740 3.70971 3.59060
# Velocity P-wave (km/s) = 6.21191 7.12986 6.68665
#
# Compressibility (1/GPa) = 0.02351766
#
# Stress axis : x y z
#
# Youngs Moduli (GPa) = 69.77666 28.68827 83.88367
#
# Poissons Ratio (x) = 0.19227 0.38090
# Poissons Ratio (y) = 0.46764 0.63361
# Poissons Ratio (z) = 0.31684 0.21670
#
# Static dielectric constant tensor:
#      x y z
#    x 3.583100 0.000000 0.000000 
#    y 0.000000 3.037400 0.000000 
#    z 0.000000 0.000000 3.554020 
# 
# 
# High freq. dielectric constant tensor:
#      x y z
#    x 1.732450 0.000000 0.000000 
#    y 0.000000 1.705000 0.000000 
#    z 0.000000 0.000000 1.740050 
# 
# From -- ./inp_files/19321.got.cif
#   From: 2010.03.12/outbox.cif.g09.slc.cpg/sg59_10_cif.got.tgz:19321.got - 2010.04.16 16:29:54.
