data_PCOD8239841
_publ_section_title
;
Structure prediction by ZEFSAII (Michael W. Deem and Ramdas Pophale) SiO2 
 PCOD8239841
Probable space group: P M M N
;
_chemical_formula_sum "Si O2"
_cell_formula_units_Z 64
_cell_length_a 8.935346
_cell_length_b 20.030071
_cell_length_c 20.214106
_cell_angle_alpha 90.000000
_cell_angle_beta 90.000000
_cell_angle_gamma 90.000000
_cell_volume 3617.832049
_symmetry_space_group_name_H-M "P M M N"
_symmetry_group_IT_number 59
_space_group.IT_coordinate_system_code '2'
_symmetry_cell_setting 'orthorhombic'
loop_
_space_group_symop_operation_xyz
x,y,z
1/2-x,1/2-y,z
1/2+x,-y,-z
-x,1/2+y,-z
-x,-y,-z
1/2+x,1/2+y,-z
1/2-x,y,z
x,1/2-y,z
loop_
_atom_site_type_symbol
_atom_site_label
_atom_site_fract_x
_atom_site_fract_y
_atom_site_fract_z
Si Si1 0.427034 0.323694 0.419522
Si Si2 0.575810 0.568119 0.478688
Si Si3 0.574696 0.826371 0.089387
Si Si4 0.574247 0.551511 0.836952
Si Si5 0.925961 0.582618 0.695702
Si Si6 0.427508 0.069341 0.019486
Si Si7 0.424171 0.055386 0.670230
Si Si8 0.072473 0.905648 0.201416
O O1 0.250000 0.318332 0.426110
O O2 0.499298 0.250000 0.425628
O O3 0.490587 0.371165 0.477481
O O4 0.470539 0.353250 0.347508
O O5 0.500000 0.500000 0.500000
O O6 0.750000 0.558790 0.493807
O O7 0.547225 0.586558 0.402159
O O8 0.750000 0.836829 0.101091
O O9 0.536374 0.750000 0.072189
O O10 0.490051 0.846220 0.156392
O O11 0.516472 0.871258 0.027999
O O12 0.750000 0.544976 0.841223
O O13 0.528570 0.595523 0.772726
O O14 0.517188 0.585057 0.905157
O O15 0.512620 0.475967 0.828479
O O16 0.750000 0.566132 0.690034
O O17 0.013924 0.519498 0.667883
O O18 0.250000 0.061856 0.015285
O O19 0.500000 0.000000 0.000000
O O20 0.250000 0.053729 0.688303
O O21 0.509316 0.101019 0.724053
O O22 0.250000 0.901028 0.204117
#
# Coordination Sequence:
#
# PCOD8239841 Si02
#       8
#     8   8   8   8   8   8   8   8
#     4   9  17  30  49  73 101 134 172 212 255 304
#     4  10  19  31  50  75 103 135 174 216 260 308
#     4  10  21  35  51  74 106 142 175 213 265 318
#     4   8  15  27  46  73  99 122 159 206 251 291
#     4   9  16  29  49  72  99 131 167 209 254 304
#     4  10  18  31  50  73 103 134 170 212 253 304
#     4  10  19  30  48  76 104 129 166 215 264 311
#     4  10  19  33  53  75 100 132 169 215 262 310
#
# _framework density 17.690152000000001
#
# number of rings (size 3 to 8) (size 9 to 14) (size 15 to 20)
#    0.000    2.500    2.500    1.500    0.000    0.750 
#    0.000    1.250    0.000    7.500    0.000    0.000 
#    0.000    2.250    0.000    0.000    0.000    0.000 
#
# Total GULP energy -793293.670506 kJ/mol
# GULP energy per Si atom -12395.213602 kJ/mol
# Density = 1.764989 g / cm^3
# Si number density = 17.690152 Si / 1000 Ang^3
#
#
#
# Elastic Constant Matrix: (Units=GPa)
#
#
# Indices 1 2 3 4 5 6 
#
# 1 40.5507 29.7882 36.4339 0.0000 0.0000 0.0000
# 2 29.7882 122.1650 82.4291 0.0000 0.0000 0.0000
# 3 36.4339 82.4291 161.2113 0.0000 0.0000 0.0000
# 4 0.0000 0.0000 0.0000 28.1427 0.0000 0.0000
# 5 0.0000 0.0000 0.0000 0.0000 20.8942 0.0000
# 6 0.0000 0.0000 0.0000 0.0000 0.0000 19.1604
#
#
#
# Elastic Compliance Matrix: (Units=1/GPa)
#
#
# Indices 1 2 3 4 5 6 
#
# 1 0.032509 -0.004534 -0.005029 0.000000 0.000000 0.000000
# 2 -0.004534 0.013129 -0.005689 0.000000 0.000000 0.000000
# 3 -0.005029 -0.005689 0.010248 0.000000 0.000000 0.000000
# 4 0.000000 0.000000 0.000000 0.035533 0.000000 0.000000
# 5 0.000000 0.000000 0.000000 0.000000 0.047860 0.000000
# 6 0.000000 0.000000 0.000000 0.000000 0.000000 0.052191
#
#
# Mechanical properties :
#
#
# Convention : Reuss Voigt Hill
#
# Bulk Modulus (GPa) = 39.39424 69.02548 54.20986
# Shear Modulus (GPa) = 21.69802 25.32449 23.51126
#
# Velocity S-wave (km/s) = 3.50603 3.78770 3.64958
# Velocity P-wave (km/s) = 6.22149 7.63104 6.96203
#
# Compressibility (1/GPa) = 0.02538442
#
# Stress axis : x y z
#
# Youngs Moduli (GPa) = 30.76034 76.16477 97.57777
#
# Poissons Ratio (x) = 0.34531 0.49072
# Poissons Ratio (y) = 0.13946 0.55508
# Poissons Ratio (z) = 0.15469 0.43327
#
# Static dielectric constant tensor:
#      x y z
#    x 3.061000 0.000000 0.000000 
#    y 0.000000 3.199090 0.000000 
#    z 0.000000 0.000000 3.896480 
# 
# 
# High freq. dielectric constant tensor:
#      x y z
#    x 1.659780 0.000000 0.000000 
#    y 0.000000 1.653940 0.000000 
#    z 0.000000 0.000000 1.704650 
# 
# From -- ./inp_files/29732.got.cif
#   From: 2010.03.12/outbox.cif.g09.slc.cpg/sg59_15_cif.got.tgz:29732.got - 2010.04.16 16:29:54.
