data_PCOD8239236
_publ_section_title
;
Structure prediction by ZEFSAII (Michael W. Deem and Ramdas Pophale) SiO2 
 PCOD8239236
Probable space group: P M M N
;
_chemical_formula_sum "Si O2"
_cell_formula_units_Z 64
_cell_length_a 9.365354
_cell_length_b 26.470379
_cell_length_c 16.804394
_cell_angle_alpha 90.000000
_cell_angle_beta 90.000000
_cell_angle_gamma 90.000000
_cell_volume 4165.884386
_symmetry_space_group_name_H-M "P M M N"
_symmetry_group_IT_number 59
_space_group.IT_coordinate_system_code '2'
_symmetry_cell_setting 'orthorhombic'
loop_
_space_group_symop_operation_xyz
x,y,z
1/2-x,1/2-y,z
1/2+x,-y,-z
-x,1/2+y,-z
-x,-y,-z
1/2+x,1/2+y,-z
1/2-x,y,z
x,1/2-y,z
loop_
_atom_site_type_symbol
_atom_site_label
_atom_site_fract_x
_atom_site_fract_y
_atom_site_fract_z
Si Si1 0.415461 0.308306 0.585688
Si Si2 0.589168 0.455153 0.611439
Si Si3 0.416239 0.384968 0.720244
Si Si4 0.416124 0.549452 0.974897
Si Si5 0.915922 0.538614 0.828496
Si Si6 0.913724 0.566757 0.650702
Si Si7 0.588086 0.078250 0.855799
Si Si8 0.414096 0.621140 0.526638
O O1 0.250000 0.316646 0.563609
O O2 0.455463 0.250000 0.594657
O O3 0.450838 0.334408 0.670315
O O4 0.509709 0.331653 0.515364
O O5 0.750000 0.445722 0.644243
O O6 0.477921 0.433146 0.674154
O O7 0.561358 0.514584 0.603109
O O8 0.568886 0.429068 0.526338
O O9 0.250000 0.393202 0.732403
O O10 0.488955 0.382613 0.807237
O O11 0.250000 0.537016 0.959776
O O12 0.489478 0.569455 0.893603
O O13 0.500000 0.500000 0.000000
O O14 0.432381 0.588075 0.049321
O O15 0.750000 0.547331 0.848007
O O16 0.957644 0.560245 0.742523
O O17 0.952827 0.479249 0.832551
O O18 0.750000 0.584093 0.643304
O O19 0.011840 0.609816 0.611240
O O20 0.750000 0.089175 0.830738
O O21 0.250000 0.635607 0.541153
#
# Coordination Sequence:
#
# PCOD8239236 Si02
#       8
#     8   8   8   8   8   8   8   8
#     4   9  19  36  52  64  84 113 142 176 222 270
#     4   9  17  30  42  55  84 119 145 175 215 255
#     4  10  18  26  43  68  85 106 145 185 216 254
#     4   9  17  27  39  55  79 113 149 181 212 246
#     4   9  17  28  41  57  81 117 153 181 212 247
#     4  10  18  29  43  58  85 121 150 176 213 258
#     4   9  16  28  41  56  84 117 145 175 215 257
#     4  10  20  30  44  66  86 108 143 183 219 257
#
# _framework density 15.362883999999999
#
# number of rings (size 3 to 8) (size 9 to 14) (size 15 to 20)
#    0.000    2.625    1.250    2.250    0.000    4.750 
#    0.000    0.000    0.000    0.000    0.000    0.000 
#    0.000    1.000    0.000    5.500    0.000    3.750 
#
# Total GULP energy -793356.862824 kJ/mol
# GULP energy per Si atom -12396.200982 kJ/mol
# Density = 1.532792 g / cm^3
# Si number density = 15.362884 Si / 1000 Ang^3
#
#
#
# Elastic Constant Matrix: (Units=GPa)
#
#
# Indices 1 2 3 4 5 6 
#
# 1 92.0067 40.8687 63.9608 0.0000 0.0000 0.0000
# 2 40.8687 52.8912 40.3732 0.0000 0.0000 0.0000
# 3 63.9608 40.3732 108.7971 0.0000 0.0000 0.0000
# 4 0.0000 0.0000 0.0000 12.6743 0.0000 0.0000
# 5 0.0000 0.0000 0.0000 0.0000 32.7164 0.0000
# 6 0.0000 0.0000 0.0000 0.0000 0.0000 16.2887
#
#
#
# Elastic Compliance Matrix: (Units=1/GPa)
#
#
# Indices 1 2 3 4 5 6 
#
# 1 0.021431 -0.009686 -0.009005 0.000000 0.000000 0.000000
# 2 -0.009686 0.030757 -0.005719 0.000000 0.000000 0.000000
# 3 -0.009005 -0.005719 0.016608 0.000000 0.000000 0.000000
# 4 0.000000 0.000000 0.000000 0.078900 0.000000 0.000000
# 5 0.000000 0.000000 0.000000 0.000000 0.030566 0.000000
# 6 0.000000 0.000000 0.000000 0.000000 0.000000 0.061392
#
#
# Mechanical properties :
#
#
# Convention : Reuss Voigt Hill
#
# Bulk Modulus (GPa) = 50.06145 60.45560 55.25853
# Shear Modulus (GPa) = 16.94161 19.56871 18.25516
#
# Velocity S-wave (km/s) = 3.32439 3.57286 3.45086
# Velocity P-wave (km/s) = 6.88419 7.51382 7.20589
#
# Compressibility (1/GPa) = 0.01997545
#
# Stress axis : x y z
#
# Youngs Moduli (GPa) = 46.66092 32.51331 60.21374
#
# Poissons Ratio (x) = 0.31493 0.54221
# Poissons Ratio (y) = 0.45196 0.34436
# Poissons Ratio (z) = 0.42017 0.18594
#
# Static dielectric constant tensor:
#      x y z
#    x 3.072190 0.000000 0.000000 
#    y 0.000000 2.506020 0.000000 
#    z 0.000000 0.000000 3.241490 
# 
# 
# High freq. dielectric constant tensor:
#      x y z
#    x 1.600220 0.000000 0.000000 
#    y 0.000000 1.525080 0.000000 
#    z 0.000000 0.000000 1.593560 
# 
# From -- ./inp_files/26517.got.cif
#   From: 2010.03.12/outbox.cif.g09.slc.cpg/sg59_14_cif.got.tgz:26517.got - 2010.04.16 16:29:54.
