data_PCOD8239486
_publ_section_title
;
Structure prediction by ZEFSAII (Michael W. Deem and Ramdas Pophale) SiO2 
 PCOD8239486
Probable space group: P M M N
;
_chemical_formula_sum "Si O2"
_cell_formula_units_Z 64
_cell_length_a 8.888187
_cell_length_b 26.377608
_cell_length_c 18.580634
_cell_angle_alpha 90.000000
_cell_angle_beta 90.000000
_cell_angle_gamma 90.000000
_cell_volume 4356.213151
_symmetry_space_group_name_H-M "P M M N"
_symmetry_group_IT_number 59
_space_group.IT_coordinate_system_code '2'
_symmetry_cell_setting 'orthorhombic'
loop_
_space_group_symop_operation_xyz
x,y,z
1/2-x,1/2-y,z
1/2+x,-y,-z
-x,1/2+y,-z
-x,-y,-z
1/2+x,1/2+y,-z
1/2-x,y,z
x,1/2-y,z
loop_
_atom_site_type_symbol
_atom_site_label
_atom_site_fract_x
_atom_site_fract_y
_atom_site_fract_z
Si Si1 0.425287 0.808689 0.169419
Si Si2 0.928577 0.893688 0.080456
Si Si3 0.073892 0.548470 0.964753
Si Si4 0.425298 0.009543 0.830354
Si Si5 0.427707 0.307081 0.680227
Si Si6 0.572961 0.544472 0.545440
Si Si7 0.573748 0.601887 0.412436
Si Si8 0.428941 0.002784 0.670271
O O1 0.250000 0.821630 0.169187
O O2 0.456297 0.750000 0.152299
O O3 0.508727 0.840513 0.108154
O O4 0.492283 0.823701 0.246523
O O5 0.750000 0.891901 0.076367
O O6 0.989046 0.939328 0.131918
O O7 0.993421 0.902336 0.999279
O O8 0.250000 0.550268 0.982176
O O9 0.045676 0.540979 0.878872
O O10 0.000000 0.500000 0.000000
O O11 0.250000 0.019410 0.820420
O O12 0.495163 0.000565 0.751342
O O13 0.250000 0.311771 0.692836
O O14 0.472972 0.250000 0.657794
O O15 0.488280 0.344525 0.617379
O O16 0.500000 0.500000 0.500000
O O17 0.750000 0.535766 0.552638
O O18 0.537469 0.595284 0.497969
O O19 0.498116 0.544607 0.624717
O O20 0.750000 0.601296 0.399994
O O21 0.510574 0.555009 0.365165
O O22 0.250000 0.997646 0.667990
#
# Coordination Sequence:
#
# PCOD8239486 Si02
#       8
#     8   8   8   8   8   8   8   8
#     4  10  20  31  41  57  82 107 131 165 205 236
#     4  10  18  29  44  59  77 106 140 167 196 235
#     4   9  16  27  41  59  82 107 134 163 197 236
#     4   8  15  26  41  59  80 106 131 158 194 235
#     4   9  16  27  43  59  74  98 133 164 189 226
#     4   9  16  26  37  51  73  99 126 157 192 227
#     4   8  14  24  38  54  75 102 127 156 193 227
#     4   9  15  25  39  54  75 102 130 156 185 224
#
# _framework density 14.691659
#
# number of rings (size 3 to 8) (size 9 to 14) (size 15 to 20)
#    0.000    3.000    0.000    3.750    0.000    2.750 
#    0.000    9.375    0.000    0.000    0.000    0.000 
#    0.000    1.000    0.000    6.750    0.000    2.500 
#
# Total GULP energy -792917.465028 kJ/mol
# GULP energy per Si atom -12389.335391 kJ/mol
# Density = 1.465822 g / cm^3
# Si number density = 14.691659 Si / 1000 Ang^3
#
#
#
# Elastic Constant Matrix: (Units=GPa)
#
#
# Indices 1 2 3 4 5 6 
#
# 1 48.8399 24.5089 28.5408 0.0000 0.0000 0.0000
# 2 24.5089 68.8189 48.7800 0.0000 0.0000 0.0000
# 3 28.5408 48.7800 103.7783 0.0000 0.0000 0.0000
# 4 0.0000 0.0000 0.0000 28.5247 0.0000 0.0000
# 5 0.0000 0.0000 0.0000 0.0000 22.1565 0.0000
# 6 0.0000 0.0000 0.0000 0.0000 0.0000 17.3750
#
#
#
# Elastic Compliance Matrix: (Units=1/GPa)
#
#
# Indices 1 2 3 4 5 6 
#
# 1 0.026104 -0.006310 -0.004213 0.000000 0.000000 0.000000
# 2 -0.006310 0.023317 -0.009224 0.000000 0.000000 0.000000
# 3 -0.004213 -0.009224 0.015130 0.000000 0.000000 0.000000
# 4 0.000000 0.000000 0.000000 0.035057 0.000000 0.000000
# 5 0.000000 0.000000 0.000000 0.000000 0.045133 0.000000
# 6 0.000000 0.000000 0.000000 0.000000 0.000000 0.057554
#
#
# Mechanical properties :
#
#
# Convention : Reuss Voigt Hill
#
# Bulk Modulus (GPa) = 39.91120 47.23293 43.57206
# Shear Modulus (GPa) = 19.98867 21.58508 20.78687
#
# Velocity S-wave (km/s) = 3.69256 3.83718 3.76556
# Velocity P-wave (km/s) = 6.73831 7.20078 6.97338
#
# Compressibility (1/GPa) = 0.02505562
#
# Stress axis : x y z
#
# Youngs Moduli (GPa) = 38.30889 42.88800 66.09256
#
# Poissons Ratio (x) = 0.27064 0.27844
# Poissons Ratio (y) = 0.24174 0.60966
# Poissons Ratio (z) = 0.16139 0.39561
#
# Static dielectric constant tensor:
#      x y z
#    x 2.834650 0.000000 0.000000 
#    y 0.000000 2.855720 0.000000 
#    z 0.000000 0.000000 3.274610 
# 
# 
# High freq. dielectric constant tensor:
#      x y z
#    x 1.555400 0.000000 0.000000 
#    y 0.000000 1.527030 0.000000 
#    z 0.000000 0.000000 1.555520 
# 
# From -- ./inp_files/26659.got.cif
#   From: 2010.03.12/outbox.cif.g09.slc.cpg/sg59_14_cif.got.tgz:26659.got - 2010.04.16 16:29:54.
