data_PCOD8239351
_publ_section_title
;
Structure prediction by ZEFSAII (Michael W. Deem and Ramdas Pophale) SiO2 
 PCOD8239351
Probable space group: P M M N
;
_chemical_formula_sum "Si O2"
_cell_formula_units_Z 56
_cell_length_a 9.154643
_cell_length_b 28.160462
_cell_length_c 13.660381
_cell_angle_alpha 90.000000
_cell_angle_beta 90.000000
_cell_angle_gamma 90.000000
_cell_volume 3521.632238
_symmetry_space_group_name_H-M "P M M N"
_symmetry_group_IT_number 59
_space_group.IT_coordinate_system_code '2'
_symmetry_cell_setting 'orthorhombic'
loop_
_space_group_symop_operation_xyz
x,y,z
1/2-x,1/2-y,z
1/2+x,-y,-z
-x,1/2+y,-z
-x,-y,-z
1/2+x,1/2+y,-z
1/2-x,y,z
x,1/2-y,z
loop_
_atom_site_type_symbol
_atom_site_label
_atom_site_fract_x
_atom_site_fract_y
_atom_site_fract_z
Si Si1 0.424572 0.989747 0.398159
Si Si2 0.920561 0.198312 0.773521
Si Si3 0.080269 0.197011 0.976434
Si Si4 0.419441 0.960707 0.777694
Si Si5 0.915094 0.555625 0.114032
Si Si6 0.080613 0.395981 0.085710
Si Si7 0.080204 0.600141 0.285169
O O1 0.250000 0.995605 0.405728
O O2 0.474861 0.935827 0.369361
O O3 0.500000 0.000000 0.500000
O O4 0.487878 0.026127 0.318336
O O5 0.750000 0.197656 0.797063
O O6 0.967269 0.250000 0.730083
O O7 0.958261 0.156024 0.695626
O O8 0.998837 0.188349 0.875342
O O9 0.250000 0.190199 0.952847
O O10 0.047355 0.250000 0.018053
O O11 0.031733 0.157375 0.055324
O O12 0.250000 0.954055 0.748671
O O13 0.483233 0.911787 0.821683
O O14 0.440733 0.000446 0.861516
O O15 0.750000 0.570523 0.138648
O O16 0.016465 0.588117 0.179914
O O17 0.950671 0.566728 0.001589
O O18 0.250000 0.397214 0.116544
O O19 0.250000 0.591685 0.275232
#
# Coordination Sequence:
#
# PCOD8239351 Si02
#       7
#     8   8   8   8   8   8   8
#     4  10  20  35  52  69  90 115 146 187 234 282
#     4   9  16  26  41  63  91 121 152 183 215 256
#     4   9  17  28  42  61  88 124 161 192 222 257
#     4  10  20  31  45  66  90 117 151 187 224 269
#     4   9  17  28  41  61  90 122 154 185 217 256
#     4  10  18  28  42  62  91 124 156 188 221 259
#     4   9  17  28  44  66  91 120 150 181 221 267
#
# _framework density 15.901718000000001
#
# number of rings (size 3 to 8) (size 9 to 14) (size 15 to 20)
#    0.000    2.571    1.429    1.286    0.000    2.286 
#    0.000    0.000    0.000    0.000    0.000    1.000 
#    0.000    3.429    0.000    0.000    0.000    0.000 
#
# Total GULP energy -693934.513848 kJ/mol
# GULP energy per Si atom -12391.687747 kJ/mol
# Density = 1.586553 g / cm^3
# Si number density = 15.901718 Si / 1000 Ang^3
#
#
#
# Elastic Constant Matrix: (Units=GPa)
#
#
# Indices 1 2 3 4 5 6 
#
# 1 42.9015 38.6729 33.7642 0.0000 0.0000 0.0000
# 2 38.6729 118.7907 56.5626 0.0000 0.0000 0.0000
# 3 33.7642 56.5626 76.0232 0.0000 0.0000 0.0000
# 4 0.0000 0.0000 0.0000 15.0276 0.0000 0.0000
# 5 0.0000 0.0000 0.0000 0.0000 24.2879 0.0000
# 6 0.0000 0.0000 0.0000 0.0000 0.0000 18.4554
#
#
#
# Elastic Compliance Matrix: (Units=1/GPa)
#
#
# Indices 1 2 3 4 5 6 
#
# 1 0.039198 -0.006925 -0.012257 0.000000 0.000000 0.000000
# 2 -0.006925 0.014260 -0.007534 0.000000 0.000000 0.000000
# 3 -0.012257 -0.007534 0.024203 0.000000 0.000000 0.000000
# 4 0.000000 0.000000 0.000000 0.066544 0.000000 0.000000
# 5 0.000000 0.000000 0.000000 0.000000 0.041173 0.000000
# 6 0.000000 0.000000 0.000000 0.000000 0.000000 0.054185
#
#
# Mechanical properties :
#
#
# Convention : Reuss Voigt Hill
#
# Bulk Modulus (GPa) = 41.27230 55.07943 48.17587
# Shear Modulus (GPa) = 16.60741 18.80188 17.70464
#
# Velocity S-wave (km/s) = 3.23519 3.44231 3.34035
# Velocity P-wave (km/s) = 6.32189 7.10717 6.72600
#
# Compressibility (1/GPa) = 0.02422932
#
# Stress axis : x y z
#
# Youngs Moduli (GPa) = 25.51160 70.12594 41.31731
#
# Poissons Ratio (x) = 0.48563 0.50641
# Poissons Ratio (y) = 0.17667 0.31129
# Poissons Ratio (z) = 0.31269 0.52834
#
# Static dielectric constant tensor:
#      x y z
#    x 3.121610 0.000000 0.000000 
#    y 0.000000 3.490210 0.000000 
#    z 0.000000 0.000000 2.688200 
# 
# 
# High freq. dielectric constant tensor:
#      x y z
#    x 1.617400 0.000000 0.000000 
#    y 0.000000 1.617810 0.000000 
#    z 0.000000 0.000000 1.562230 
# 
# From -- ./inp_files/21733.got.cif
#   From: 2010.03.12/outbox.cif.g09.slc.cpg/sg59_11_cif.got.tgz:21733.got - 2010.04.16 16:29:54.
