data_PCOD8239322
_publ_section_title
;
Structure prediction by ZEFSAII (Michael W. Deem and Ramdas Pophale) SiO2 
 PCOD8239322
Probable space group: P M M N
;
_chemical_formula_sum "Si O2"
_cell_formula_units_Z 64
_cell_length_a 9.064556
_cell_length_b 13.946831
_cell_length_c 31.281118
_cell_angle_alpha 90.000000
_cell_angle_beta 90.000000
_cell_angle_gamma 90.000000
_cell_volume 3954.616201
_symmetry_space_group_name_H-M "P M M N"
_symmetry_group_IT_number 59
_space_group.IT_coordinate_system_code '2'
_symmetry_cell_setting 'orthorhombic'
loop_
_space_group_symop_operation_xyz
x,y,z
1/2-x,1/2-y,z
1/2+x,-y,-z
-x,1/2+y,-z
-x,-y,-z
1/2+x,1/2+y,-z
1/2-x,y,z
x,1/2-y,z
loop_
_atom_site_type_symbol
_atom_site_label
_atom_site_fract_x
_atom_site_fract_y
_atom_site_fract_z
Si Si1 0.421041 0.639012 0.431266
Si Si2 0.583939 0.636192 0.773651
Si Si3 0.574402 0.356452 0.473801
Si Si4 0.078034 0.468367 0.064541
Si Si5 0.075246 0.526260 0.606287
Si Si6 0.078718 0.139132 0.977416
Si Si7 0.077476 0.638731 0.689346
Si Si8 0.575927 0.138979 0.141034
O O1 0.250000 0.615213 0.425718
O O2 0.452972 0.750000 0.423141
O O3 0.476165 0.609045 0.479015
O O4 0.511988 0.581166 0.395434
O O5 0.750000 0.595619 0.776635
O O6 0.583654 0.750000 0.772327
O O7 0.507517 0.597621 0.730584
O O8 0.491463 0.601163 0.814487
O O9 0.750000 0.354411 0.472439
O O10 0.513009 0.250000 0.465527
O O11 0.510383 0.421943 0.436003
O O12 0.250000 0.475918 0.075569
O O13 0.017569 0.574984 0.054823
O O14 0.991255 0.426071 0.104290
O O15 0.048484 0.396477 0.025394
O O16 0.250000 0.524497 0.605955
O O17 0.018844 0.580047 0.648550
O O18 0.250000 0.126616 0.965562
O O19 0.029337 0.250000 0.973621
O O20 0.250000 0.622961 0.697341
O O21 0.042227 0.750000 0.680919
O O22 0.750000 0.124691 0.142636
O O23 0.533734 0.250000 0.132849
#
# Coordination Sequence:
#
# PCOD8239322 Si02
#       8
#     8   8   8   8   8   8   8   8
#     4   9  18  31  44  58  81 114 147 179 216 255
#     4   9  17  29  45  65  90 119 148 179 217 261
#     4   8  14  26  43  62  85 113 143 173 209 255
#     4  10  19  30  46  69  95 123 159 200 237 274
#     4  10  18  27  44  67  86 109 143 180 214 250
#     4   9  18  32  47  64  92 129 164 198 236 275
#     4   9  17  29  44  64  91 118 142 170 210 264
#     4  10  19  30  46  68  94 124 156 189 226 270
#
# _framework density 16.183619
#
# number of rings (size 3 to 8) (size 9 to 14) (size 15 to 20)
#    0.000    2.750    0.000    3.000    0.000    5.750 
#    0.000    0.000    0.000    1.875    0.000    0.875 
#    0.000    3.000    0.000    0.000    0.000    0.000 
#
# Total GULP energy -793484.924705 kJ/mol
# GULP energy per Si atom -12398.201949 kJ/mol
# Density = 1.614678 g / cm^3
# Si number density = 16.183619 Si / 1000 Ang^3
#
#
#
# Elastic Constant Matrix: (Units=GPa)
#
#
# Indices 1 2 3 4 5 6 
#
# 1 61.5261 38.2418 52.8991 0.0000 0.0000 0.0000
# 2 38.2418 79.7636 58.4700 0.0000 0.0000 0.0000
# 3 52.8991 58.4700 119.3985 0.0000 0.0000 0.0000
# 4 0.0000 0.0000 0.0000 22.8707 0.0000 0.0000
# 5 0.0000 0.0000 0.0000 0.0000 27.1053 0.0000
# 6 0.0000 0.0000 0.0000 0.0000 0.0000 24.0450
#
#
#
# Elastic Compliance Matrix: (Units=1/GPa)
#
#
# Indices 1 2 3 4 5 6 
#
# 1 0.028480 -0.006872 -0.009253 0.000000 0.000000 0.000000
# 2 -0.006872 0.021216 -0.007345 0.000000 0.000000 0.000000
# 3 -0.009253 -0.007345 0.016072 0.000000 0.000000 0.000000
# 4 0.000000 0.000000 0.000000 0.043724 0.000000 0.000000
# 5 0.000000 0.000000 0.000000 0.000000 0.036893 0.000000
# 6 0.000000 0.000000 0.000000 0.000000 0.000000 0.041589
#
#
# Mechanical properties :
#
#
# Convention : Reuss Voigt Hill
#
# Bulk Modulus (GPa) = 53.11162 62.21225 57.66193
# Shear Modulus (GPa) = 20.73071 22.20935 21.47003
#
# Velocity S-wave (km/s) = 3.58294 3.70852 3.64627
# Velocity P-wave (km/s) = 7.07149 7.54072 7.30987
#
# Compressibility (1/GPa) = 0.01882827
#
# Stress axis : x y z
#
# Youngs Moduli (GPa) = 35.11264 47.13467 62.22146
#
# Poissons Ratio (x) = 0.32389 0.57572
# Poissons Ratio (y) = 0.24128 0.45702
# Poissons Ratio (z) = 0.32489 0.34620
#
# Static dielectric constant tensor:
#      x y z
#    x 2.977010 0.000000 0.000000 
#    y 0.000000 2.929020 0.000000 
#    z 0.000000 0.000000 3.104310 
# 
# 
# High freq. dielectric constant tensor:
#      x y z
#    x 1.617520 0.000000 0.000000 
#    y 0.000000 1.598570 0.000000 
#    z 0.000000 0.000000 1.615270 
# 
# From -- ./inp_files/33231.got.cif
#   From: 2010.03.12/outbox.cif.g09.slc.cpg/sg59_17_cif.got.tgz:33231.got - 2010.04.16 16:29:54.
