data_PCOD8239964
_publ_section_title
;
Structure prediction by ZEFSAII (Michael W. Deem and Ramdas Pophale) SiO2 
 PCOD8239964
Probable space group: P M M N
;
_chemical_formula_sum "Si O2"
_cell_formula_units_Z 48
_cell_length_a 9.338584
_cell_length_b 9.777456
_cell_length_c 29.137099
_cell_angle_alpha 90.000000
_cell_angle_beta 90.000000
_cell_angle_gamma 90.000000
_cell_volume 2660.438411
_symmetry_space_group_name_H-M "P M M N"
_symmetry_group_IT_number 59
_space_group.IT_coordinate_system_code '2'
_symmetry_cell_setting 'orthorhombic'
loop_
_space_group_symop_operation_xyz
x,y,z
1/2-x,1/2-y,z
1/2+x,-y,-z
-x,1/2+y,-z
-x,-y,-z
1/2+x,1/2+y,-z
1/2-x,y,z
x,1/2-y,z
loop_
_atom_site_type_symbol
_atom_site_label
_atom_site_fract_x
_atom_site_fract_y
_atom_site_fract_z
Si Si1 0.084025 0.405698 0.123515
Si Si2 0.583372 0.250000 0.440849
Si Si3 0.080124 0.250000 0.535579
Si Si4 0.418047 0.589787 0.037253
Si Si5 0.081921 0.473818 0.605286
Si Si6 0.419407 0.096062 0.704656
Si Si7 0.083436 0.907157 0.785465
O O1 0.250000 0.413110 0.136199
O O2 0.044162 0.250000 0.107529
O O3 0.044366 0.517742 0.085352
O O4 0.996202 0.448784 0.168166
O O5 0.750000 0.250000 0.454640
O O6 0.492718 0.250000 0.486609
O O7 0.541057 0.374258 0.408354
O O8 0.250000 0.250000 0.527831
O O9 0.023568 0.379172 0.564444
O O10 0.250000 0.580234 0.026654
O O11 0.467088 0.750000 0.037586
O O12 0.500000 0.500000 0.000000
O O13 0.250000 0.447546 0.609166
O O14 0.012848 0.439977 0.654862
O O15 0.250000 0.076090 0.702074
O O16 0.461714 0.250000 0.717993
O O17 0.481283 0.996133 0.743732
O O18 0.250000 0.938242 0.793344
O O19 0.056069 0.750000 0.772650
#
# Coordination Sequence:
#
# PCOD8239964 Si02
#       7
#     8   4   4   8   8   8   8
#     4   9  18  34  53  72 101 140 173 202 247 307
#     4  10  20  30  46  72  94 116 150 194 235 274
#     4  10  18  32  50  66  90 124 156 184 227 286
#     4  10  21  36  55  80 108 141 181 222 262 306
#     4   9  17  29  46  69  93 119 153 191 233 282
#     4   9  16  28  46  69  95 121 153 195 240 286
#     4   9  18  30  48  75 100 122 156 206 252 286
#
# _framework density 18.042138999999999
#
# number of rings (size 3 to 8) (size 9 to 14) (size 15 to 20)
#    0.000    2.667    0.833    1.000    1.167    2.333 
#    0.000    1.667    0.000    2.000    0.000    0.000 
#    0.000    0.000    0.000    0.000    0.000    0.000 
#
# Total GULP energy -595037.488639 kJ/mol
# GULP energy per Si atom -12396.614347 kJ/mol
# Density = 1.800107 g / cm^3
# Si number density = 18.042139 Si / 1000 Ang^3
#
#
#
# Elastic Constant Matrix: (Units=GPa)
#
#
# Indices 1 2 3 4 5 6 
#
# 1 28.9920 31.8122 43.4965 0.0000 0.0000 0.0000
# 2 31.8122 136.8645 79.1037 0.0000 0.0000 0.0000
# 3 43.4965 79.1037 145.9490 0.0000 0.0000 0.0000
# 4 0.0000 0.0000 0.0000 42.7573 0.0000 0.0000
# 5 0.0000 0.0000 0.0000 0.0000 25.5166 0.0000
# 6 0.0000 0.0000 0.0000 0.0000 0.0000 10.0759
#
#
#
# Elastic Compliance Matrix: (Units=1/GPa)
#
#
# Indices 1 2 3 4 5 6 
#
# 1 0.065330 -0.005725 -0.016367 0.000000 0.000000 0.000000
# 2 -0.005725 0.011141 -0.004332 0.000000 0.000000 0.000000
# 3 -0.016367 -0.004332 0.014077 0.000000 0.000000 0.000000
# 4 0.000000 0.000000 0.000000 0.023388 0.000000 0.000000
# 5 0.000000 0.000000 0.000000 0.000000 0.039190 0.000000
# 6 0.000000 0.000000 0.000000 0.000000 0.000000 0.099247
#
#
# Mechanical properties :
#
#
# Convention : Reuss Voigt Hill
#
# Bulk Modulus (GPa) = 26.52551 68.95892 47.74221
# Shear Modulus (GPa) = 15.73377 26.16284 20.94831
#
# Velocity S-wave (km/s) = 2.95626 3.81214 3.41115
# Velocity P-wave (km/s) = 5.13678 7.59477 6.48333
#
# Compressibility (1/GPa) = 0.03769957
#
# Stress axis : x y z
#
# Youngs Moduli (GPa) = 15.30701 89.75755 71.03585
#
# Poissons Ratio (x) = 0.51390 1.16262
# Poissons Ratio (y) = 0.08764 0.30774
# Poissons Ratio (z) = 0.25053 0.38884
#
# Static dielectric constant tensor:
#      x y z
#    x 2.941930 0.000000 0.000000 
#    y 0.000000 3.527250 0.000000 
#    z 0.000000 0.000000 3.476350 
# 
# 
# High freq. dielectric constant tensor:
#      x y z
#    x 1.651960 0.000000 0.000000 
#    y 0.000000 1.712870 0.000000 
#    z 0.000000 0.000000 1.708840 
# 
# From -- ./inp_files/32987.got.cif
#   From: 2010.03.12/outbox.cif.g09.slc.cpg/sg59_17_cif.got.tgz:32987.got - 2010.04.16 16:29:54.
