data_PCOD8239706
_publ_section_title
;
Structure prediction by ZEFSAII (Michael W. Deem and Ramdas Pophale) SiO2 
 PCOD8239706
Probable space group: P M M N
;
_chemical_formula_sum "Si O2"
_cell_formula_units_Z 56
_cell_length_a 9.443776
_cell_length_b 19.619184
_cell_length_c 17.605924
_cell_angle_alpha 90.000000
_cell_angle_beta 90.000000
_cell_angle_gamma 90.000000
_cell_volume 3262.011144
_symmetry_space_group_name_H-M "P M M N"
_symmetry_group_IT_number 59
_space_group.IT_coordinate_system_code '2'
_symmetry_cell_setting 'orthorhombic'
loop_
_space_group_symop_operation_xyz
x,y,z
1/2-x,1/2-y,z
1/2+x,-y,-z
-x,1/2+y,-z
-x,-y,-z
1/2+x,1/2+y,-z
1/2-x,y,z
x,1/2-y,z
loop_
_atom_site_type_symbol
_atom_site_label
_atom_site_fract_x
_atom_site_fract_y
_atom_site_fract_z
Si Si1 0.413787 0.437830 0.809432
Si Si2 0.415085 0.071332 0.231764
Si Si3 0.916740 0.675295 0.305368
Si Si4 0.586777 0.932720 0.017494
Si Si5 0.413314 0.453374 0.398853
Si Si6 0.917394 0.825850 0.894620
Si Si7 0.913903 0.583564 0.438296
O O1 0.250000 0.452977 0.789842
O O2 0.500152 0.506525 0.797796
O O3 0.477453 0.378689 0.755384
O O4 0.431383 0.411278 0.895168
O O5 0.250000 0.055818 0.218138
O O6 0.446970 0.086612 0.320757
O O7 0.463390 0.137319 0.183865
O O8 0.750000 0.680688 0.293197
O O9 0.985934 0.750000 0.293251
O O10 0.952666 0.651506 0.391511
O O11 0.750000 0.948076 0.997379
O O12 0.528481 0.870491 0.966076
O O13 0.500000 0.000000 0.000000
O O14 0.250000 0.475149 0.401881
O O15 0.451882 0.406699 0.472350
O O16 0.502431 0.521975 0.400299
O O17 0.750000 0.818823 0.898619
O O18 0.985752 0.750000 0.897264
O O19 0.750000 0.565245 0.427842
#
# Coordination Sequence:
#
# PCOD8239706 Si02
#       7
#     8   8   8   8   8   8   8
#     4  10  19  30  48  73  95 120 159 198 232 276
#     4  10  18  30  49  71  96 124 155 195 236 276
#     4   9  17  29  45  67  97 128 156 192 238 281
#     4  10  19  31  50  74  96 122 157 196 233 276
#     4   9  17  27  44  70  93 116 153 195 231 271
#     4   9  18  32  49  70  97 128 157 188 234 285
#     4   9  16  28  45  66  92 121 154 190 232 276
#
# _framework density 17.167324000000001
#
# number of rings (size 3 to 8) (size 9 to 14) (size 15 to 20)
#    0.000    2.571    2.857    0.000    0.000    0.571 
#    0.000    3.571    0.000    7.714    0.000    2.000 
#    0.000    3.429    0.000    0.000    0.000    0.000 
#
# Total GULP energy -694107.376446 kJ/mol
# GULP energy per Si atom -12394.774579 kJ/mol
# Density = 1.712825 g / cm^3
# Si number density = 17.167324 Si / 1000 Ang^3
#
#
#
# Elastic Constant Matrix: (Units=GPa)
#
#
# Indices 1 2 3 4 5 6 
#
# 1 27.4361 27.5807 24.7468 0.0000 0.0000 0.0000
# 2 27.5807 145.1329 74.3033 0.0000 0.0000 0.0000
# 3 24.7468 74.3033 140.8483 0.0000 0.0000 0.0000
# 4 0.0000 0.0000 0.0000 25.2030 0.0000 0.0000
# 5 0.0000 0.0000 0.0000 0.0000 18.2054 0.0000
# 6 0.0000 0.0000 0.0000 0.0000 0.0000 17.5940
#
#
#
# Elastic Compliance Matrix: (Units=1/GPa)
#
#
# Indices 1 2 3 4 5 6 
#
# 1 0.047402 -0.006500 -0.004900 0.000000 0.000000 0.000000
# 2 -0.006500 0.010331 -0.004308 0.000000 0.000000 0.000000
# 3 -0.004900 -0.004308 0.010233 0.000000 0.000000 0.000000
# 4 0.000000 0.000000 0.000000 0.039678 0.000000 0.000000
# 5 0.000000 0.000000 0.000000 0.000000 0.054929 0.000000
# 6 0.000000 0.000000 0.000000 0.000000 0.000000 0.056838
#
#
# Mechanical properties :
#
#
# Convention : Reuss Voigt Hill
#
# Bulk Modulus (GPa) = 27.35873 62.96431 45.16152
# Shear Modulus (GPa) = 19.01080 24.65291 21.83186
#
# Velocity S-wave (km/s) = 3.33135 3.79362 3.56997
# Velocity P-wave (km/s) = 5.54692 7.47965 6.58458
#
# Compressibility (1/GPa) = 0.03655140
#
# Stress axis : x y z
#
# Youngs Moduli (GPa) = 21.09636 96.79611 97.71982
#
# Poissons Ratio (x) = 0.62914 0.47878
# Poissons Ratio (y) = 0.13712 0.42098
# Poissons Ratio (z) = 0.10336 0.41700
#
# Static dielectric constant tensor:
#      x y z
#    x 2.968300 0.000000 0.000000 
#    y 0.000000 3.280670 0.000000 
#    z 0.000000 0.000000 3.662150 
# 
# 
# High freq. dielectric constant tensor:
#      x y z
#    x 1.628700 0.000000 0.000000 
#    y 0.000000 1.641310 0.000000 
#    z 0.000000 0.000000 1.685440 
# 
# From -- ./inp_files/26116.got.cif
#   From: 2010.03.12/outbox.cif.g09.slc.cpg/sg59_14_cif.got.tgz:26116.got - 2010.04.16 16:29:54.
