data_PCOD8239195
_publ_section_title
;
Structure prediction by ZEFSAII (Michael W. Deem and Ramdas Pophale) SiO2 
 PCOD8239195
Probable space group: P M M N
;
_chemical_formula_sum "Si O2"
_cell_formula_units_Z 56
_cell_length_a 13.761433
_cell_length_b 17.752979
_cell_length_c 12.156096
_cell_angle_alpha 90.000000
_cell_angle_beta 90.000000
_cell_angle_gamma 90.000000
_cell_volume 2969.812429
_symmetry_space_group_name_H-M "P M M N"
_symmetry_group_IT_number 59
_space_group.IT_coordinate_system_code '2'
_symmetry_cell_setting 'orthorhombic'
loop_
_space_group_symop_operation_xyz
x,y,z
1/2-x,1/2-y,z
1/2+x,-y,-z
-x,1/2+y,-z
-x,-y,-z
1/2+x,1/2+y,-z
1/2-x,y,z
x,1/2-y,z
loop_
_atom_site_type_symbol
_atom_site_label
_atom_site_fract_x
_atom_site_fract_y
_atom_site_fract_z
Si Si1 0.638214 0.589327 0.453566
Si Si2 0.861477 0.474193 0.025977
Si Si3 0.963687 0.958916 0.826970
Si Si4 0.360538 0.912484 0.531717
Si Si5 0.468891 0.339639 0.345882
Si Si6 0.640822 0.332934 0.884134
Si Si7 0.960047 0.397741 0.688108
O O1 0.750000 0.606402 0.424778
O O2 0.617074 0.501144 0.468300
O O3 0.610379 0.633532 0.564771
O O4 0.570686 0.616313 0.352228
O O5 0.750000 0.488153 0.058908
O O6 0.926272 0.479624 0.135381
O O7 0.892508 0.534471 0.932423
O O8 0.882593 0.390724 0.980797
O O9 0.948214 0.876430 0.774004
O O10 0.938312 0.018347 0.731843
O O11 0.250000 0.894266 0.560589
O O12 0.424337 0.868792 0.621211
O O13 0.386895 0.881386 0.411745
O O14 0.465789 0.250000 0.334125
O O15 0.750000 0.348191 0.839211
O O16 0.631147 0.250000 0.935482
O O17 0.564382 0.339423 0.784710
#
# Coordination Sequence:
#
# PCOD8239195 Si02
#       7
#     8   8   8   8   8   8   8
#     4  10  20  35  54  75 105 145 185 218 248 299
#     4   9  20  35  55  76 101 134 172 225 269 312
#     4  10  19  35  53  79 103 131 182 217 261 323
#     4  10  19  34  55  78 107 142 178 215 256 310
#     4  11  22  36  53  80 117 146 173 216 268 325
#     4   9  18  32  51  77 104 132 168 212 267 321
#     4  10  17  32  54  78 104 135 177 217 257 304
#
# _framework density 18.856408999999999
#
# number of rings (size 3 to 8) (size 9 to 14) (size 15 to 20)
#    0.000    2.143    2.857    1.286    0.000    5.714 
#    0.000    0.000    0.000    0.000    0.000    0.000 
#    0.000    0.000    0.000    0.000    0.000    0.000 
#
# Total GULP energy -694322.958382 kJ/mol
# GULP energy per Si atom -12398.624257 kJ/mol
# Density = 1.881349 g / cm^3
# Si number density = 18.856409 Si / 1000 Ang^3
#
#
#
# Elastic Constant Matrix: (Units=GPa)
#
#
# Indices 1 2 3 4 5 6 
#
# 1 72.6946 7.1256 -7.9898 0.0000 0.0000 0.0000
# 2 7.1256 103.5787 16.3271 0.0000 0.0000 0.0000
# 3 -7.9898 16.3271 40.3378 0.0000 0.0000 0.0000
# 4 0.0000 0.0000 0.0000 18.8218 0.0000 0.0000
# 5 0.0000 0.0000 0.0000 0.0000 15.8634 0.0000
# 6 0.0000 0.0000 0.0000 0.0000 0.0000 17.3544
#
#
#
# Elastic Compliance Matrix: (Units=1/GPa)
#
#
# Indices 1 2 3 4 5 6 
#
# 1 0.014285 -0.001526 0.003447 0.000000 0.000000 0.000000
# 2 -0.001526 0.010475 -0.004542 0.000000 0.000000 0.000000
# 3 0.003447 -0.004542 0.027312 0.000000 0.000000 0.000000
# 4 0.000000 0.000000 0.000000 0.053130 0.000000 0.000000
# 5 0.000000 0.000000 0.000000 0.000000 0.063038 0.000000
# 6 0.000000 0.000000 0.000000 0.000000 0.000000 0.057622
#
#
# Mechanical properties :
#
#
# Convention : Reuss Voigt Hill
#
# Bulk Modulus (GPa) = 21.35408 27.50411 24.42910
# Shear Modulus (GPa) = 20.26631 23.81780 22.04205
#
# Velocity S-wave (km/s) = 3.28193 3.55789 3.42269
# Velocity P-wave (km/s) = 5.07056 5.61211 5.34819
#
# Compressibility (1/GPa) = 0.04682945
#
# Stress axis : x y z
#
# Youngs Moduli (GPa) = 70.00526 95.46095 36.61399
#
# Poissons Ratio (x) = 0.14568 -0.12621
# Poissons Ratio (y) = 0.10683 0.16631
# Poissons Ratio (z) = -0.24131 0.43362
#
# Static dielectric constant tensor:
#      x y z
#    x 3.500080 0.000000 0.000000 
#    y 0.000000 3.314330 0.000000 
#    z 0.000000 0.000000 3.317140 
# 
# 
# High freq. dielectric constant tensor:
#      x y z
#    x 1.732320 0.000000 0.000000 
#    y 0.000000 1.712020 0.000000 
#    z 0.000000 0.000000 1.724140 
# 
# From -- ./inp_files/16978.got.cif
#   From: 2010.03.12/outbox.cif.g09.slc.cpg/sg59_9_cif.got.tgz:16978.got - 2010.04.16 16:29:54.
