data_PCOD8239116
_publ_section_title
;
Structure prediction by ZEFSAII (Michael W. Deem and Ramdas Pophale) SiO2 
 PCOD8239116
Probable space group: P M M N
;
_chemical_formula_sum "Si O2"
_cell_formula_units_Z 48
_cell_length_a 18.699574
_cell_length_b 14.334656
_cell_length_c 9.609138
_cell_angle_alpha 90.000000
_cell_angle_beta 90.000000
_cell_angle_gamma 90.000000
_cell_volume 2575.748281
_symmetry_space_group_name_H-M "P M M N"
_symmetry_group_IT_number 59
_space_group.IT_coordinate_system_code '2'
_symmetry_cell_setting 'orthorhombic'
loop_
_space_group_symop_operation_xyz
x,y,z
1/2-x,1/2-y,z
1/2+x,-y,-z
-x,1/2+y,-z
-x,-y,-z
1/2+x,1/2+y,-z
1/2-x,y,z
x,1/2-y,z
loop_
_atom_site_type_symbol
_atom_site_label
_atom_site_fract_x
_atom_site_fract_y
_atom_site_fract_z
Si Si1 0.093813 0.520992 0.231202
Si Si2 0.626456 0.356482 0.000205
Si Si3 0.915835 0.996776 0.469994
Si Si4 0.953487 0.857756 0.259215
Si Si5 0.040376 0.354562 0.048570
Si Si6 0.329933 0.858014 0.698656
O O1 0.126615 0.492559 0.382107
O O2 0.070855 0.425146 0.160010
O O3 0.029498 0.591443 0.264058
O O4 0.148860 0.576386 0.129440
O O5 0.642269 0.250000 0.957052
O O6 0.543285 0.374120 0.030614
O O7 0.669228 0.385170 0.138098
O O8 0.889565 0.087528 0.387456
O O9 0.900479 0.906651 0.371572
O O10 0.000000 0.000000 0.500000
O O11 0.963958 0.750000 0.300054
O O12 0.921850 0.867324 0.102568
O O13 0.053366 0.250000 0.104952
O O14 0.250000 0.879081 0.642676
O O15 0.350290 0.750000 0.682598
#
# Coordination Sequence:
#
# PCOD8239116 Si02
#       6
#     8   8   8   8   8   8
#     4  10  17  27  45  72 103 131 166 213 265 308
#     4   9  16  28  47  68  92 128 171 211 251 301
#     4  10  20  31  49  77 106 141 178 218 266 319
#     4   9  17  29  45  69 101 136 170 208 257 310
#     4   9  16  26  44  70 101 132 165 211 263 311
#     4  10  21  37  55  75 105 145 183 219 265 326
#
# _framework density 18.635359999999999
#
# number of rings (size 3 to 8) (size 9 to 14) (size 15 to 20)
#    0.000    2.500    0.000    6.500    0.000    4.000 
#    0.000    0.833    0.000    2.500    0.000    0.000 
#    0.000    1.333    0.000    0.000    0.000    0.000 
#
# Total GULP energy -594755.344502 kJ/mol
# GULP energy per Si atom -12390.736344 kJ/mol
# Density = 1.859295 g / cm^3
# Si number density = 18.635360 Si / 1000 Ang^3
#
#
#
# Elastic Constant Matrix: (Units=GPa)
#
#
# Indices 1 2 3 4 5 6 
#
# 1 36.3079 27.7424 28.1056 0.0000 0.0000 0.0000
# 2 27.7424 120.9975 73.6799 0.0000 0.0000 0.0000
# 3 28.1056 73.6799 125.0114 0.0000 0.0000 0.0000
# 4 0.0000 0.0000 0.0000 24.5727 0.0000 0.0000
# 5 0.0000 0.0000 0.0000 0.0000 13.6251 0.0000
# 6 0.0000 0.0000 0.0000 0.0000 0.0000 12.2962
#
#
#
# Elastic Compliance Matrix: (Units=1/GPa)
#
#
# Indices 1 2 3 4 5 6 
#
# 1 0.035238 -0.005077 -0.004930 0.000000 0.000000 0.000000
# 2 -0.005077 0.013623 -0.006888 0.000000 0.000000 0.000000
# 3 -0.004930 -0.006888 0.013167 0.000000 0.000000 0.000000
# 4 0.000000 0.000000 0.000000 0.040695 0.000000 0.000000
# 5 0.000000 0.000000 0.000000 0.000000 0.073394 0.000000
# 6 0.000000 0.000000 0.000000 0.000000 0.000000 0.081326
#
#
# Mechanical properties :
#
#
# Convention : Reuss Voigt Hill
#
# Bulk Modulus (GPa) = 35.41299 60.15252 47.78276
# Shear Modulus (GPa) = 16.63085 20.28473 18.45779
#
# Velocity S-wave (km/s) = 2.99061 3.30283 3.15059
# Velocity P-wave (km/s) = 5.56501 6.84790 6.23951
#
# Compressibility (1/GPa) = 0.02823822
#
# Stress axis : x y z
#
# Youngs Moduli (GPa) = 28.37852 73.40564 75.94719
#
# Poissons Ratio (x) = 0.37272 0.37440
# Poissons Ratio (y) = 0.14409 0.52309
# Poissons Ratio (z) = 0.13990 0.50559
#
# Static dielectric constant tensor:
#      x y z
#    x 2.862030 0.000000 0.000000 
#    y 0.000000 3.709810 0.000000 
#    z 0.000000 0.000000 4.392080 
# 
# 
# High freq. dielectric constant tensor:
#      x y z
#    x 1.645190 0.000000 0.000000 
#    y 0.000000 1.730380 0.000000 
#    z 0.000000 0.000000 1.742060 
# 
# From -- ./inp_files/11287.got.cif
#   From: 2010.03.12/outbox.cif.g09.slc.cpg/sg59_6_cif.got.tgz:11287.got - 2010.04.16 16:29:54.
