data_PCOD8239349
_publ_section_title
;
Structure prediction by ZEFSAII (Michael W. Deem and Ramdas Pophale) SiO2 
 PCOD8239349
Probable space group: P M M N
;
_chemical_formula_sum "Si O2"
_cell_formula_units_Z 56
_cell_length_a 32.275674
_cell_length_b 7.789082
_cell_length_c 13.772687
_cell_angle_alpha 90.000000
_cell_angle_beta 90.000000
_cell_angle_gamma 90.000000
_cell_volume 3462.424195
_symmetry_space_group_name_H-M "P M M N"
_symmetry_group_IT_number 59
_space_group.IT_coordinate_system_code '2'
_symmetry_cell_setting 'orthorhombic'
loop_
_space_group_symop_operation_xyz
x,y,z
1/2-x,1/2-y,z
1/2+x,-y,-z
-x,1/2+y,-z
-x,-y,-z
1/2+x,1/2+y,-z
1/2-x,y,z
x,1/2-y,z
loop_
_atom_site_type_symbol
_atom_site_label
_atom_site_fract_x
_atom_site_fract_y
_atom_site_fract_z
Si Si1 0.478550 0.454776 0.637983
Si Si2 0.295887 0.750000 0.133951
Si Si3 0.935880 0.446783 0.547009
Si Si4 0.646239 0.941169 0.640308
Si Si5 0.479781 0.053688 0.851490
Si Si6 0.645658 0.552855 0.865475
Si Si7 0.558748 0.547959 0.954424
Si Si8 0.296372 0.750000 0.364096
O O1 0.477374 0.250000 0.634270
O O2 0.442979 0.530706 0.568443
O O3 0.523720 0.519371 0.602552
O O4 0.470803 0.530443 0.746258
O O5 0.250000 0.750000 0.088050
O O6 0.318583 0.576173 0.098655
O O7 0.293046 0.750000 0.249115
O O8 0.927461 0.250000 0.573548
O O9 0.895931 0.553027 0.579335
O O10 0.665355 0.750000 0.628654
O O11 0.635399 0.977784 0.752614
O O12 0.679426 0.079301 0.600604
O O13 0.467328 0.250000 0.841525
O O14 0.528410 0.037345 0.875957
O O15 0.451961 0.971973 0.938149
O O16 0.659301 0.750000 0.884949
O O17 0.605458 0.502075 0.927477
O O18 0.550398 0.750000 0.951718
O O19 0.250000 0.750000 0.409293
#
# Coordination Sequence:
#
# PCOD8239349 Si02
#       8
#     8   4   8   8   8   8   8   4
#     4   9  18  29  41  59  84 118 154 189 227 263
#     4   9  18  30  46  66  89 119 149 183 226 266
#     4  10  18  28  42  61  87 118 153 190 225 262
#     4  10  18  29  46  66  90 120 150 182 220 264
#     4   9  17  28  42  59  84 117 151 189 225 259
#     4   9  18  29  44  66  90 118 150 182 216 264
#     4   9  17  28  41  61  86 114 150 186 222 262
#     4   9  18  32  46  66  93 117 149 187 222 268
#
# _framework density 16.173639000000001
#
# number of rings (size 3 to 8) (size 9 to 14) (size 15 to 20)
#    0.000    2.714    0.714    1.286    1.000    1.714 
#    0.000    2.857    0.000    0.000    0.000    0.000 
#    0.000    2.286    0.000    7.286    0.000    0.286 
#
# Total GULP energy -694204.373547 kJ/mol
# GULP energy per Si atom -12396.506670 kJ/mol
# Density = 1.613683 g / cm^3
# Si number density = 16.173639 Si / 1000 Ang^3
#
#
#
# Elastic Constant Matrix: (Units=GPa)
#
#
# Indices 1 2 3 4 5 6 
#
# 1 114.2126 45.8274 37.8162 0.0000 0.0000 0.0000
# 2 45.8274 69.5626 20.3436 0.0000 0.0000 0.0000
# 3 37.8162 20.3436 85.5079 0.0000 0.0000 0.0000
# 4 0.0000 0.0000 0.0000 13.2935 0.0000 0.0000
# 5 0.0000 0.0000 0.0000 0.0000 16.3019 0.0000
# 6 0.0000 0.0000 0.0000 0.0000 0.0000 22.6706
#
#
#
# Elastic Compliance Matrix: (Units=1/GPa)
#
#
# Indices 1 2 3 4 5 6 
#
# 1 0.013067 -0.007436 -0.004010 0.000000 0.000000 0.000000
# 2 -0.007436 0.019682 -0.001394 0.000000 0.000000 0.000000
# 3 -0.004010 -0.001394 0.013800 0.000000 0.000000 0.000000
# 4 0.000000 0.000000 0.000000 0.075225 0.000000 0.000000
# 5 0.000000 0.000000 0.000000 0.000000 0.061343 0.000000
# 6 0.000000 0.000000 0.000000 0.000000 0.000000 0.044110
#
#
# Mechanical properties :
#
#
# Convention : Reuss Voigt Hill
#
# Bulk Modulus (GPa) = 47.91731 53.02862 50.47297
# Shear Modulus (GPa) = 19.24102 21.47293 20.35698
#
# Velocity S-wave (km/s) = 3.45288 3.64765 3.55160
# Velocity P-wave (km/s) = 6.75186 7.11327 6.93492
#
# Compressibility (1/GPa) = 0.02086928
#
# Stress axis : x y z
#
# Youngs Moduli (GPa) = 76.52998 50.80838 72.46456
#
# Poissons Ratio (x) = 0.37779 0.29057
# Poissons Ratio (y) = 0.56905 0.10103
# Poissons Ratio (z) = 0.30687 0.07083
#
# Static dielectric constant tensor:
#      x y z
#    x 2.962820 0.000000 0.000000 
#    y 0.000000 3.088280 0.000000 
#    z 0.000000 0.000000 3.077650 
# 
# 
# High freq. dielectric constant tensor:
#      x y z
#    x 1.594140 0.000000 0.000000 
#    y 0.000000 1.630310 0.000000 
#    z 0.000000 0.000000 1.593620 
# 
# From -- ./inp_files/24991.got.cif
#   From: 2010.03.12/outbox.cif.g09.slc.cpg/sg59_13_cif.got.tgz:24991.got - 2010.04.16 16:29:54.
