data_PCOD8239770
_publ_section_title
;
Structure prediction by ZEFSAII (Michael W. Deem and Ramdas Pophale) SiO2 
 PCOD8239770
Probable space group: P M M N
;
_chemical_formula_sum "Si O2"
_cell_formula_units_Z 56
_cell_length_a 13.884452
_cell_length_b 17.370525
_cell_length_c 14.008628
_cell_angle_alpha 90.000000
_cell_angle_beta 90.000000
_cell_angle_gamma 90.000000
_cell_volume 3378.603991
_symmetry_space_group_name_H-M "P M M N"
_symmetry_group_IT_number 59
_space_group.IT_coordinate_system_code '2'
_symmetry_cell_setting 'orthorhombic'
loop_
_space_group_symop_operation_xyz
x,y,z
1/2-x,1/2-y,z
1/2+x,-y,-z
-x,1/2+y,-z
-x,-y,-z
1/2+x,1/2+y,-z
1/2-x,y,z
x,1/2-y,z
loop_
_atom_site_type_symbol
_atom_site_label
_atom_site_fract_x
_atom_site_fract_y
_atom_site_fract_z
Si Si1 0.638514 0.160514 0.649805
Si Si2 0.638844 0.052656 0.271723
Si Si3 0.461415 0.163558 0.970527
Si Si4 0.490025 0.934976 0.206716
Si Si5 0.360086 0.470003 0.069140
Si Si6 0.142788 0.890505 0.934926
Si Si7 0.635960 0.335016 0.434337
O O1 0.750000 0.140422 0.666960
O O2 0.619608 0.250000 0.671539
O O3 0.576007 0.109151 0.719121
O O4 0.607550 0.140521 0.541506
O O5 0.750000 0.028567 0.287748
O O6 0.628859 0.105891 0.178213
O O7 0.596294 0.102378 0.359587
O O8 0.576999 0.975155 0.263356
O O9 0.421111 0.250000 0.961978
O O10 0.465282 0.126403 0.866133
O O11 0.391261 0.115663 0.039768
O O12 0.568090 0.167471 0.016666
O O13 0.426547 0.000085 0.154647
O O14 0.250000 0.469264 0.103929
O O15 0.375162 0.523701 0.976300
O O16 0.250000 0.861461 0.961418
O O17 0.750000 0.330274 0.424952
O O18 0.593200 0.250000 0.411326
#
# Coordination Sequence:
#
# PCOD8239770 Si02
#       7
#     8   8   8   8   8   8   8
#     4   9  18  33  52  74 100 126 154 196 247 291
#     4  10  18  30  51  73  98 131 162 196 239 288
#     4  11  21  32  46  69  96 126 162 199 240 288
#     4  11  19  33  50  74  97 126 163 202 241 282
#     4  10  19  34  50  66  92 130 166 198 236 282
#     4   9  17  32  50  68  94 124 157 199 242 281
#     4   8  16  31  49  72 100 126 155 194 242 292
#
# _framework density 16.574894
#
# number of rings (size 3 to 8) (size 9 to 14) (size 15 to 20)
#    0.000    2.286    2.857    2.571    0.000    2.286 
#    0.000    1.429    0.000    1.286    0.000    0.000 
#    0.000    2.286    0.000    0.000    0.000    0.000 
#
# Total GULP energy -694376.132275 kJ/mol
# GULP energy per Si atom -12399.573791 kJ/mol
# Density = 1.653717 g / cm^3
# Si number density = 16.574894 Si / 1000 Ang^3
#
#
#
# Elastic Constant Matrix: (Units=GPa)
#
#
# Indices 1 2 3 4 5 6 
#
# 1 61.9776 40.2099 34.7912 0.0000 0.0000 0.0000
# 2 40.2099 107.3093 57.0261 0.0000 0.0000 0.0000
# 3 34.7912 57.0261 98.8916 0.0000 0.0000 0.0000
# 4 0.0000 0.0000 0.0000 23.3610 0.0000 0.0000
# 5 0.0000 0.0000 0.0000 0.0000 21.3514 0.0000
# 6 0.0000 0.0000 0.0000 0.0000 0.0000 20.2722
#
#
#
# Elastic Compliance Matrix: (Units=1/GPa)
#
#
# Indices 1 2 3 4 5 6 
#
# 1 0.022582 -0.006113 -0.004419 0.000000 0.000000 0.000000
# 2 -0.006113 0.015091 -0.006552 0.000000 0.000000 0.000000
# 3 -0.004419 -0.006552 0.015445 0.000000 0.000000 0.000000
# 4 0.000000 0.000000 0.000000 0.042806 0.000000 0.000000
# 5 0.000000 0.000000 0.000000 0.000000 0.046835 0.000000
# 6 0.000000 0.000000 0.000000 0.000000 0.000000 0.049329
#
#
# Mechanical properties :
#
#
# Convention : Reuss Voigt Hill
#
# Bulk Modulus (GPa) = 52.77186 59.13700 55.95443
# Shear Modulus (GPa) = 21.49861 22.07367 21.78614
#
# Velocity S-wave (km/s) = 3.60538 3.65328 3.62941
# Velocity P-wave (km/s) = 7.01707 7.31788 7.16905
#
# Compressibility (1/GPa) = 0.01894949
#
# Stress axis : x y z
#
# Youngs Moduli (GPa) = 44.28351 66.26377 64.74606
#
# Poissons Ratio (x) = 0.40508 0.28614
# Poissons Ratio (y) = 0.27071 0.42420
# Poissons Ratio (z) = 0.19571 0.43414
#
# Static dielectric constant tensor:
#      x y z
#    x 3.051050 0.000000 0.000000 
#    y 0.000000 3.024560 0.000000 
#    z 0.000000 0.000000 3.178390 
# 
# 
# High freq. dielectric constant tensor:
#      x y z
#    x 1.623290 0.000000 0.000000 
#    y 0.000000 1.625510 0.000000 
#    z 0.000000 0.000000 1.635580 
# 
# From -- ./inp_files/23344.got.cif
#   From: 2010.03.12/outbox.cif.g09.slc.cpg/sg59_12_cif.got.tgz:23344.got - 2010.04.16 16:29:54.
