data_PCOD8239515
_publ_section_title
;
Structure prediction by ZEFSAII (Michael W. Deem and Ramdas Pophale) SiO2 
 PCOD8239515
Probable space group: P M M N
;
_chemical_formula_sum "Si O2"
_cell_formula_units_Z 56
_cell_length_a 21.986646
_cell_length_b 8.826117
_cell_length_c 16.851110
_cell_angle_alpha 90.000000
_cell_angle_beta 90.000000
_cell_angle_gamma 90.000000
_cell_volume 3270.070967
_symmetry_space_group_name_H-M "P M M N"
_symmetry_group_IT_number 59
_space_group.IT_coordinate_system_code '2'
_symmetry_cell_setting 'orthorhombic'
loop_
_space_group_symop_operation_xyz
x,y,z
1/2-x,1/2-y,z
1/2+x,-y,-z
-x,1/2+y,-z
-x,-y,-z
1/2+x,1/2+y,-z
1/2-x,y,z
x,1/2-y,z
loop_
_atom_site_type_symbol
_atom_site_label
_atom_site_fract_x
_atom_site_fract_y
_atom_site_fract_z
Si Si1 0.536458 0.425285 0.265734
Si Si2 0.818300 0.572204 0.424185
Si Si3 0.916390 0.924501 0.005398
Si Si4 0.447103 0.574230 0.552078
Si Si5 0.683986 0.083766 0.091433
Si Si6 0.479041 0.573436 0.128491
Si Si7 0.659383 0.925397 0.244496
O O1 0.551778 0.250000 0.249175
O O2 0.528015 0.452605 0.359108
O O3 0.479477 0.480014 0.211919
O O4 0.588643 0.536998 0.235185
O O5 0.750000 0.524231 0.457396
O O6 0.827924 0.750000 0.437975
O O7 0.878181 0.491664 0.462640
O O8 0.816832 0.531274 0.331449
O O9 0.923610 0.750000 0.983308
O O10 0.963359 0.972432 0.074211
O O11 0.850742 0.959431 0.040322
O O12 0.921931 0.020874 0.924313
O O13 0.500000 0.500000 0.500000
O O14 0.442668 0.750000 0.530534
O O15 0.750000 0.098389 0.052399
O O16 0.651850 0.250000 0.090735
O O17 0.694199 0.027329 0.181391
O O18 0.474689 0.750000 0.148075
O O19 0.670584 0.750000 0.225734
#
# Coordination Sequence:
#
# PCOD8239515 Si02
#       7
#     8   8   8   8   8   8   8
#     4  10  19  31  49  72  99 129 163 202 245 294
#     4   9  18  32  50  72 100 135 171 207 248 299
#     4  10  20  32  47  67  92 124 161 202 243 282
#     4  10  21  35  52  76 105 138 171 211 257 303
#     4  11  22  32  43  62  92 129 165 203 244 286
#     4  10  19  31  49  71  94 123 157 199 245 286
#     4  10  18  29  45  67  95 129 167 201 236 284
#
# _framework density 17.12501
#
# number of rings (size 3 to 8) (size 9 to 14) (size 15 to 20)
#    0.000    2.000    1.429    3.000    0.000    5.429 
#    0.000    0.000    0.000    0.000    0.000    1.000 
#    0.000    1.143    0.000    0.000    0.000    0.000 
#
# Total GULP energy -693912.014872 kJ/mol
# GULP energy per Si atom -12391.285980 kJ/mol
# Density = 1.708603 g / cm^3
# Si number density = 17.125010 Si / 1000 Ang^3
#
#
#
# Elastic Constant Matrix: (Units=GPa)
#
#
# Indices 1 2 3 4 5 6 
#
# 1 94.4007 34.7951 40.3777 0.0000 0.0000 0.0000
# 2 34.7951 72.8511 31.3853 0.0000 0.0000 0.0000
# 3 40.3777 31.3853 61.3774 0.0000 0.0000 0.0000
# 4 0.0000 0.0000 0.0000 26.8786 0.0000 0.0000
# 5 0.0000 0.0000 0.0000 0.0000 15.3788 0.0000
# 6 0.0000 0.0000 0.0000 0.0000 0.0000 22.2305
#
#
#
# Elastic Compliance Matrix: (Units=1/GPa)
#
#
# Indices 1 2 3 4 5 6 
#
# 1 0.015549 -0.003873 -0.008249 0.000000 0.000000 0.000000
# 2 -0.003873 0.018570 -0.006948 0.000000 0.000000 0.000000
# 3 -0.008249 -0.006948 0.025272 0.000000 0.000000 0.000000
# 4 0.000000 0.000000 0.000000 0.037204 0.000000 0.000000
# 5 0.000000 0.000000 0.000000 0.000000 0.065024 0.000000
# 6 0.000000 0.000000 0.000000 0.000000 0.000000 0.044983
#
#
# Mechanical properties :
#
#
# Convention : Reuss Voigt Hill
#
# Bulk Modulus (GPa) = 47.05476 49.08285 48.06880
# Shear Modulus (GPa) = 19.85513 21.03567 20.44540
#
# Velocity S-wave (km/s) = 3.40872 3.50860 3.45902
# Velocity P-wave (km/s) = 6.55968 6.71844 6.63953
#
# Compressibility (1/GPa) = 0.02125184
#
# Stress axis : x y z
#
# Youngs Moduli (GPa) = 64.31391 53.85163 39.56987
#
# Poissons Ratio (x) = 0.20856 0.32639
# Poissons Ratio (y) = 0.24907 0.27492
# Poissons Ratio (z) = 0.53050 0.37415
#
# Static dielectric constant tensor:
#      x y z
#    x 3.221990 0.000000 0.000000 
#    y 0.000000 3.250230 0.000000 
#    z 0.000000 0.000000 3.053360 
# 
# 
# High freq. dielectric constant tensor:
#      x y z
#    x 1.640870 0.000000 0.000000 
#    y 0.000000 1.675060 0.000000 
#    z 0.000000 0.000000 1.628140 
# 
# From -- ./inp_files/28033.got.cif
#   From: 2010.03.12/outbox.cif.g09.slc.cpg/sg59_15_cif.got.tgz:28033.got - 2010.04.16 16:29:54.
