data_PCOD8239060
_publ_section_title
;
Structure prediction by ZEFSAII (Michael W. Deem and Ramdas Pophale) SiO2 
 PCOD8239060
Probable space group: P M M N
;
_chemical_formula_sum "Si O2"
_cell_formula_units_Z 64
_cell_length_a 9.320558
_cell_length_b 14.644411
_cell_length_c 28.610859
_cell_angle_alpha 90.000000
_cell_angle_beta 90.000000
_cell_angle_gamma 90.000000
_cell_volume 3905.212937
_symmetry_space_group_name_H-M "P M M N"
_symmetry_group_IT_number 59
_space_group.IT_coordinate_system_code '2'
_symmetry_cell_setting 'orthorhombic'
loop_
_space_group_symop_operation_xyz
x,y,z
1/2-x,1/2-y,z
1/2+x,-y,-z
-x,1/2+y,-z
-x,-y,-z
1/2+x,1/2+y,-z
1/2-x,y,z
x,1/2-y,z
loop_
_atom_site_type_symbol
_atom_site_label
_atom_site_fract_x
_atom_site_fract_y
_atom_site_fract_z
Si Si1 0.420722 0.853022 0.698661
Si Si2 0.082131 0.148031 0.568376
Si Si3 0.919196 0.466645 0.386903
Si Si4 0.420538 0.647501 0.802114
Si Si5 0.413007 0.356053 0.033581
Si Si6 0.079473 0.964416 0.889242
Si Si7 0.915203 0.144570 0.475192
Si Si8 0.920056 0.849328 0.071537
O O1 0.250000 0.856968 0.698342
O O2 0.470882 0.750000 0.686377
O O3 0.486103 0.923692 0.660523
O O4 0.476819 0.880709 0.750439
O O5 0.250000 0.144226 0.557361
O O6 0.036014 0.250000 0.584964
O O7 0.003287 0.118889 0.521178
O O8 0.041820 0.074439 0.608675
O O9 0.750000 0.451374 0.385196
O O10 0.978833 0.413581 0.432215
O O11 0.250000 0.645690 0.802296
O O12 0.473763 0.750000 0.814326
O O13 0.481090 0.576648 0.840554
O O14 0.250000 0.391885 0.039197
O O15 0.420721 0.250000 0.046516
O O16 0.517267 0.409844 0.067462
O O17 0.471324 0.372424 0.981015
O O18 0.250000 0.955140 0.891728
O O19 0.030527 0.070643 0.893075
O O20 0.750000 0.120301 0.485175
O O21 0.934330 0.250000 0.461818
O O22 0.750000 0.842512 0.070046
O O23 0.981894 0.750000 0.087716
#
# Coordination Sequence:
#
# PCOD8239060 Si02
#       8
#     8   8   8   8   8   8   8   8
#     4   8  13  22  36  54  77 101 122 151 194 234
#     4   9  17  27  37  52  77 105 126 146 180 224
#     4   9  15  23  37  54  72  98 130 156 179 216
#     4   8  14  23  35  56  83 101 117 152 200 238
#     4   9  17  28  40  56  81 110 135 159 192 236
#     4  10  17  25  42  63  80 102 133 167 198 230
#     4   9  16  25  38  57  77  95 122 159 187 209
#     4   8  15  27  40  55  79 110 138 162 192 231
#
# _framework density 16.388351
#
# number of rings (size 3 to 8) (size 9 to 14) (size 15 to 20)
#    0.000    3.250    0.000    3.000    0.000    2.250 
#    0.000    0.000    0.000    1.875    0.000    7.000 
#    0.000    4.000    0.000    0.000    0.000    0.125 
#
# Total GULP energy -793054.431734 kJ/mol
# GULP energy per Si atom -12391.475496 kJ/mol
# Density = 1.635105 g / cm^3
# Si number density = 16.388351 Si / 1000 Ang^3
#
#
#
# Elastic Constant Matrix: (Units=GPa)
#
#
# Indices 1 2 3 4 5 6 
#
# 1 12.9749 15.6046 14.0168 0.0000 0.0000 0.0000
# 2 15.6046 126.8928 95.4810 0.0000 0.0000 0.0000
# 3 14.0168 95.4810 122.1839 0.0000 0.0000 0.0000
# 4 0.0000 0.0000 0.0000 31.3521 0.0000 0.0000
# 5 0.0000 0.0000 0.0000 0.0000 12.7613 0.0000
# 6 0.0000 0.0000 0.0000 0.0000 0.0000 11.9672
#
#
#
# Elastic Compliance Matrix: (Units=1/GPa)
#
#
# Indices 1 2 3 4 5 6 
#
# 1 0.091298 -0.008123 -0.004126 0.000000 0.000000 0.000000
# 2 -0.008123 0.019851 -0.014581 0.000000 0.000000 0.000000
# 3 -0.004126 -0.014581 0.020052 0.000000 0.000000 0.000000
# 4 0.000000 0.000000 0.000000 0.031896 0.000000 0.000000
# 5 0.000000 0.000000 0.000000 0.000000 0.078362 0.000000
# 6 0.000000 0.000000 0.000000 0.000000 0.000000 0.083561
#
#
# Mechanical properties :
#
#
# Convention : Reuss Voigt Hill
#
# Bulk Modulus (GPa) = 12.89620 56.91737 34.90679
# Shear Modulus (GPa) = 12.36013 20.34608 16.35311
#
# Velocity S-wave (km/s) = 2.74925 3.52731 3.16230
# Velocity P-wave (km/s) = 4.23840 7.16903 5.88893
#
# Compressibility (1/GPa) = 0.07754220
#
# Stress axis : x y z
#
# Youngs Moduli (GPa) = 10.95309 50.37567 49.87063
#
# Poissons Ratio (x) = 0.40918 0.20578
# Poissons Ratio (y) = 0.08897 0.72715
# Poissons Ratio (z) = 0.04519 0.73451
#
# Static dielectric constant tensor:
#      x y z
#    x 2.629440 0.000000 0.000000 
#    y 0.000000 3.456880 0.000000 
#    z 0.000000 0.000000 3.272010 
# 
# 
# High freq. dielectric constant tensor:
#      x y z
#    x 1.576530 0.000000 0.000000 
#    y 0.000000 1.637520 0.000000 
#    z 0.000000 0.000000 1.616280 
# 
# From -- ./inp_files/33213.got.cif
#   From: 2010.03.12/outbox.cif.g09.slc.cpg/sg59_17_cif.got.tgz:33213.got - 2010.04.16 16:29:54.
