data_PCOD8239319
_publ_section_title
;
Structure prediction by ZEFSAII (Michael W. Deem and Ramdas Pophale) SiO2 
 PCOD8239319
Probable space group: P M M N
;
_chemical_formula_sum "Si O2"
_cell_formula_units_Z 64
_cell_length_a 13.924737
_cell_length_b 9.448064
_cell_length_c 31.180660
_cell_angle_alpha 90.000000
_cell_angle_beta 90.000000
_cell_angle_gamma 90.000000
_cell_volume 4102.183953
_symmetry_space_group_name_H-M "P M M N"
_symmetry_group_IT_number 59
_space_group.IT_coordinate_system_code '2'
_symmetry_cell_setting 'orthorhombic'
loop_
_space_group_symop_operation_xyz
x,y,z
1/2-x,1/2-y,z
1/2+x,-y,-z
-x,1/2+y,-z
-x,-y,-z
1/2+x,1/2+y,-z
1/2-x,y,z
x,1/2-y,z
loop_
_atom_site_type_symbol
_atom_site_label
_atom_site_fract_x
_atom_site_fract_y
_atom_site_fract_z
Si Si1 0.643963 0.418218 0.474324
Si Si2 0.361708 0.586175 0.688684
Si Si3 0.521184 0.083226 0.395108
Si Si4 0.142027 0.413948 0.013949
Si Si5 0.864093 0.589961 0.230197
Si Si6 0.548442 0.085675 0.059890
Si Si7 0.638102 0.087231 0.569948
Si Si8 0.361421 0.586172 0.851097
O O1 0.750000 0.479899 0.465538
O O2 0.648609 0.250000 0.472406
O O3 0.575662 0.476778 0.437088
O O4 0.610006 0.464794 0.521814
O O5 0.250000 0.557305 0.679349
O O6 0.378776 0.750000 0.700291
O O7 0.419994 0.539505 0.646849
O O8 0.401436 0.492232 0.727851
O O9 0.505601 0.250000 0.397183
O O10 0.418281 0.006487 0.395119
O O11 0.250000 0.452069 0.030032
O O12 0.135170 0.250000 0.001401
O O13 0.063951 0.450438 0.050951
O O14 0.118390 0.500752 0.971378
O O15 0.750000 0.588896 0.230462
O O16 0.904461 0.750000 0.230196
O O17 0.900468 0.508541 0.187969
O O18 0.570387 0.250000 0.052018
O O19 0.573694 0.043016 0.108339
O O20 0.750000 0.064020 0.578310
O O21 0.609556 0.250000 0.576329
O O22 0.250000 0.554604 0.861597
O O23 0.375166 0.750000 0.838591
#
# Coordination Sequence:
#
# PCOD8239319 Si02
#       8
#     8   8   8   8   8   8   8   8
#     4   8  14  26  43  62  85 112 140 168 201 245
#     4   9  17  29  44  63  88 114 137 163 202 254
#     4  10  18  27  44  67  85 106 139 176 208 239
#     4   9  17  28  41  59  86 117 146 179 217 251
#     4   9  17  28  42  61  85 111 136 165 205 251
#     4   9  17  28  42  61  84 113 149 182 212 251
#     4   9  18  31  44  58  81 114 145 172 206 246
#     4   9  16  26  41  60  82 109 140 173 208 247
#
# _framework density 15.601445999999999
#
# number of rings (size 3 to 8) (size 9 to 14) (size 15 to 20)
#    0.000    3.000    0.000    2.250    0.000    5.000 
#    0.000    1.250    0.000    1.875    0.000    0.875 
#    0.000    5.000    0.000    0.000    0.000    0.000 
#
# Total GULP energy -793403.801942 kJ/mol
# GULP energy per Si atom -12396.934405 kJ/mol
# Density = 1.556594 g / cm^3
# Si number density = 15.601446 Si / 1000 Ang^3
#
#
#
# Elastic Constant Matrix: (Units=GPa)
#
#
# Indices 1 2 3 4 5 6 
#
# 1 74.8426 37.7023 58.6726 0.0000 0.0000 0.0000
# 2 37.7023 58.6032 57.9492 0.0000 0.0000 0.0000
# 3 58.6726 57.9492 119.5391 0.0000 0.0000 0.0000
# 4 0.0000 0.0000 0.0000 24.1399 0.0000 0.0000
# 5 0.0000 0.0000 0.0000 0.0000 21.1193 0.0000
# 6 0.0000 0.0000 0.0000 0.0000 0.0000 20.4189
#
#
#
# Elastic Compliance Matrix: (Units=1/GPa)
#
#
# Indices 1 2 3 4 5 6 
#
# 1 0.023130 -0.007019 -0.007950 0.000000 0.000000 0.000000
# 2 -0.007019 0.034905 -0.013476 0.000000 0.000000 0.000000
# 3 -0.007950 -0.013476 0.018800 0.000000 0.000000 0.000000
# 4 0.000000 0.000000 0.000000 0.041425 0.000000 0.000000
# 5 0.000000 0.000000 0.000000 0.000000 0.047350 0.000000
# 6 0.000000 0.000000 0.000000 0.000000 0.000000 0.048974
#
#
# Mechanical properties :
#
#
# Convention : Reuss Voigt Hill
#
# Bulk Modulus (GPa) = 50.13777 62.40368 56.27073
# Shear Modulus (GPa) = 17.97768 19.71300 18.84534
#
# Velocity S-wave (km/s) = 3.39825 3.55848 3.47929
# Velocity P-wave (km/s) = 6.89955 7.54780 7.23094
#
# Compressibility (1/GPa) = 0.01994504
#
# Stress axis : x y z
#
# Youngs Moduli (GPa) = 43.23469 28.64901 53.19130
#
# Poissons Ratio (x) = 0.20110 0.42286
# Poissons Ratio (y) = 0.30348 0.71680
# Poissons Ratio (z) = 0.34370 0.38607
#
# Static dielectric constant tensor:
#      x y z
#    x 2.892110 0.000000 0.000000 
#    y 0.000000 2.906640 0.000000 
#    z 0.000000 0.000000 2.968430 
# 
# 
# High freq. dielectric constant tensor:
#      x y z
#    x 1.576160 0.000000 0.000000 
#    y 0.000000 1.591240 0.000000 
#    z 0.000000 0.000000 1.588250 
# 
# From -- ./inp_files/33208.got.cif
#   From: 2010.03.12/outbox.cif.g09.slc.cpg/sg59_17_cif.got.tgz:33208.got - 2010.04.16 16:29:54.
