data_PCOD8239631
_publ_section_title
;
Structure prediction by ZEFSAII (Michael W. Deem and Ramdas Pophale) SiO2 
 PCOD8239631
Probable space group: P M M N
;
_chemical_formula_sum "Si O2"
_cell_formula_units_Z 56
_cell_length_a 18.214481
_cell_length_b 9.093971
_cell_length_c 18.768644
_cell_angle_alpha 90.000000
_cell_angle_beta 90.000000
_cell_angle_gamma 90.000000
_cell_volume 3108.875016
_symmetry_space_group_name_H-M "P M M N"
_symmetry_group_IT_number 59
_space_group.IT_coordinate_system_code '2'
_symmetry_cell_setting 'orthorhombic'
loop_
_space_group_symop_operation_xyz
x,y,z
1/2-x,1/2-y,z
1/2+x,-y,-z
-x,1/2+y,-z
-x,-y,-z
1/2+x,1/2+y,-z
1/2-x,y,z
x,1/2-y,z
loop_
_atom_site_type_symbol
_atom_site_label
_atom_site_fract_x
_atom_site_fract_y
_atom_site_fract_z
Si Si1 0.418341 0.420905 0.074879
Si Si2 0.532093 0.417966 0.716422
Si Si3 0.166528 0.579144 0.634897
Si Si4 0.033074 0.420852 0.567628
Si Si5 0.428172 0.079772 0.914748
Si Si6 0.599898 0.421167 0.217652
Si Si7 0.332631 0.581372 0.191349
O O1 0.433433 0.250000 0.089747
O O2 0.491565 0.509827 0.091545
O O3 0.353419 0.479270 0.124672
O O4 0.393934 0.446350 0.992814
O O5 0.508287 0.250000 0.732664
O O6 0.523135 0.450366 0.632590
O O7 0.481649 0.527050 0.761536
O O8 0.615812 0.448165 0.739985
O O9 0.250000 0.542192 0.613937
O O10 0.147966 0.750000 0.622370
O O11 0.113553 0.483852 0.585295
O O12 0.155321 0.539422 0.718259
O O13 0.041958 0.250000 0.550580
O O14 0.000000 0.500000 0.500000
O O15 0.436229 0.250000 0.896758
O O16 0.376042 0.004639 0.854948
O O17 0.598886 0.250000 0.201019
O O18 0.250000 0.542799 0.215111
O O19 0.339509 0.750000 0.166295
#
# Coordination Sequence:
#
# PCOD8239631 Si02
#       7
#     8   8   8   8   8   8   8
#     4  10  20  32  48  71  98 132 175 221 268 313
#     4   9  18  33  52  74 102 135 173 214 255 307
#     4   9  19  36  56  80 111 144 176 216 268 320
#     4  10  20  35  57  84 112 143 179 216 259 312
#     4  10  19  31  48  71 100 132 170 218 267 317
#     4  10  18  29  51  79 103 132 173 216 260 311
#     4  10  20  34  52  73 100 136 175 218 268 316
#
# _framework density 18.012947
#
# number of rings (size 3 to 8) (size 9 to 14) (size 15 to 20)
#    0.000    2.286    1.429    1.714    0.000    3.429 
#    0.000    1.429    0.000    5.143    0.000    0.000 
#    0.000    0.000    0.000    0.000    0.000    0.000 
#
# Total GULP energy -694385.583405 kJ/mol
# GULP energy per Si atom -12399.742561 kJ/mol
# Density = 1.797195 g / cm^3
# Si number density = 18.012947 Si / 1000 Ang^3
#
#
#
# Elastic Constant Matrix: (Units=GPa)
#
#
# Indices 1 2 3 4 5 6 
#
# 1 98.4351 43.7601 51.1528 0.0000 0.0000 0.0000
# 2 43.7601 101.3479 63.9741 0.0000 0.0000 0.0000
# 3 51.1528 63.9741 124.9025 0.0000 0.0000 0.0000
# 4 0.0000 0.0000 0.0000 34.1639 0.0000 0.0000
# 5 0.0000 0.0000 0.0000 0.0000 21.9316 0.0000
# 6 0.0000 0.0000 0.0000 0.0000 0.0000 23.4451
#
#
#
# Elastic Compliance Matrix: (Units=1/GPa)
#
#
# Indices 1 2 3 4 5 6 
#
# 1 0.013701 -0.003508 -0.003814 0.000000 0.000000 0.000000
# 2 -0.003508 0.015480 -0.006492 0.000000 0.000000 0.000000
# 3 -0.003814 -0.006492 0.012893 0.000000 0.000000 0.000000
# 4 0.000000 0.000000 0.000000 0.029271 0.000000 0.000000
# 5 0.000000 0.000000 0.000000 0.000000 0.045596 0.000000
# 6 0.000000 0.000000 0.000000 0.000000 0.000000 0.042653
#
#
# Mechanical properties :
#
#
# Convention : Reuss Voigt Hill
#
# Bulk Modulus (GPa) = 69.22592 71.38438 70.30515
# Shear Modulus (GPa) = 26.03671 26.96135 26.49903
#
# Velocity S-wave (km/s) = 3.80602 3.87302 3.83967
# Velocity P-wave (km/s) = 7.60454 7.72760 7.66632
#
# Compressibility (1/GPa) = 0.01444546
#
# Stress axis : x y z
#
# Youngs Moduli (GPa) = 72.98965 64.60136 77.55927
#
# Poissons Ratio (x) = 0.22662 0.29582
# Poissons Ratio (y) = 0.25605 0.50350
# Poissons Ratio (z) = 0.27839 0.41938
#
# Static dielectric constant tensor:
#      x y z
#    x 3.129030 0.000000 0.000000 
#    y 0.000000 3.431090 0.000000 
#    z 0.000000 0.000000 3.471390 
# 
# 
# High freq. dielectric constant tensor:
#      x y z
#    x 1.667920 0.000000 0.000000 
#    y 0.000000 1.706940 0.000000 
#    z 0.000000 0.000000 1.698770 
# 
# From -- ./inp_files/29302.got.cif
#   From: 2010.03.12/outbox.cif.g09.slc.cpg/sg59_15_cif.got.tgz:29302.got - 2010.04.16 16:29:54.
