data_PCOD8239767
_publ_section_title
;
Structure prediction by ZEFSAII (Michael W. Deem and Ramdas Pophale) SiO2 
 PCOD8239767
Probable space group: P M M N
;
_chemical_formula_sum "Si O2"
_cell_formula_units_Z 64
_cell_length_a 29.262460
_cell_length_b 8.998802
_cell_length_c 12.751162
_cell_angle_alpha 90.000000
_cell_angle_beta 90.000000
_cell_angle_gamma 90.000000
_cell_volume 3357.726302
_symmetry_space_group_name_H-M "P M M N"
_symmetry_group_IT_number 59
_space_group.IT_coordinate_system_code '2'
_symmetry_cell_setting 'orthorhombic'
loop_
_space_group_symop_operation_xyz
x,y,z
1/2-x,1/2-y,z
1/2+x,-y,-z
-x,1/2+y,-z
-x,-y,-z
1/2+x,1/2+y,-z
1/2-x,y,z
x,1/2-y,z
loop_
_atom_site_type_symbol
_atom_site_label
_atom_site_fract_x
_atom_site_fract_y
_atom_site_fract_z
Si Si1 0.610942 0.927173 0.621693
Si Si2 0.080117 0.084107 0.598052
Si Si3 0.199265 0.578476 0.443526
Si Si4 0.699953 0.419805 0.135482
Si Si5 0.682408 0.917323 0.345651
Si Si6 0.537846 0.575148 0.197734
Si Si7 0.106166 0.576214 0.962825
Si Si8 0.066323 0.576838 0.182673
O O1 0.614400 0.750000 0.615464
O O2 0.585424 0.992693 0.516625
O O3 0.662568 0.989563 0.626494
O O4 0.583045 0.977545 0.721738
O O5 0.063029 0.250000 0.575112
O O6 0.127987 0.080655 0.658357
O O7 0.045275 0.010488 0.682746
O O8 0.250000 0.559144 0.393950
O O9 0.184641 0.750000 0.445431
O O10 0.201165 0.518915 0.561608
O O11 0.750000 0.436227 0.080004
O O12 0.691655 0.250000 0.170931
O O13 0.701089 0.522113 0.236947
O O14 0.659106 0.468139 0.057299
O O15 0.700535 0.750000 0.362498
O O16 0.548108 0.750000 0.199110
O O17 0.572713 0.502903 0.117543
O O18 0.486621 0.540034 0.161530
O O19 0.097395 0.750000 0.949808
O O20 0.094495 0.526495 0.080798
O O21 0.073633 0.750000 0.209531
#
# Coordination Sequence:
#
# PCOD8239767 Si02
#       8
#     8   8   8   8   8   8   8   8
#     4  10  21  37  56  79 111 147 186 231 274 328
#     4   8  16  31  51  78 110 139 170 213 269 326
#     4  10  20  34  54  80 110 145 185 226 272 329
#     4  10  20  33  50  74 106 143 180 220 271 328
#     4  10  18  30  50  78 113 145 175 218 269 325
#     4  10  19  35  59  83 109 142 180 227 286 343
#     4  10  21  37  55  79 110 141 184 235 278 330
#     4  10  22  38  56  79 109 146 188 235 282 333
#
# _framework density 19.060517999999998
#
# number of rings (size 3 to 8) (size 9 to 14) (size 15 to 20)
#    0.000    2.250    1.250    2.625    0.000    4.250 
#    0.000    1.250    0.000    2.250    0.000    0.000 
#    0.000    0.000    0.000    0.000    0.000    0.000 
#
# Total GULP energy -793270.553780 kJ/mol
# GULP energy per Si atom -12394.852403 kJ/mol
# Density = 1.901714 g / cm^3
# Si number density = 19.060518 Si / 1000 Ang^3
#
#
#
# Elastic Constant Matrix: (Units=GPa)
#
#
# Indices 1 2 3 4 5 6 
#
# 1 114.9423 35.8438 63.4753 0.0000 0.0000 0.0000
# 2 35.8438 63.0351 35.4938 0.0000 0.0000 0.0000
# 3 63.4753 35.4938 111.4014 0.0000 0.0000 0.0000
# 4 0.0000 0.0000 0.0000 26.6496 0.0000 0.0000
# 5 0.0000 0.0000 0.0000 0.0000 14.2323 0.0000
# 6 0.0000 0.0000 0.0000 0.0000 0.0000 23.2247
#
#
#
# Elastic Compliance Matrix: (Units=1/GPa)
#
#
# Indices 1 2 3 4 5 6 
#
# 1 0.013503 -0.004077 -0.006395 0.000000 0.000000 0.000000
# 2 -0.004077 0.020564 -0.004229 0.000000 0.000000 0.000000
# 3 -0.006395 -0.004229 0.013967 0.000000 0.000000 0.000000
# 4 0.000000 0.000000 0.000000 0.037524 0.000000 0.000000
# 5 0.000000 0.000000 0.000000 0.000000 0.070263 0.000000
# 6 0.000000 0.000000 0.000000 0.000000 0.000000 0.043058
#
#
# Mechanical properties :
#
#
# Convention : Reuss Voigt Hill
#
# Bulk Modulus (GPa) = 53.66911 62.11163 57.89037
# Shear Modulus (GPa) = 21.32278 23.12571 22.22425
#
# Velocity S-wave (km/s) = 3.34831 3.48699 3.41835
# Velocity P-wave (km/s) = 6.57013 6.99067 6.78366
#
# Compressibility (1/GPa) = 0.01863269
#
# Stress axis : x y z
#
# Youngs Moduli (GPa) = 74.05810 48.62919 71.59515
#
# Poissons Ratio (x) = 0.19828 0.45783
# Poissons Ratio (y) = 0.30197 0.30274
# Poissons Ratio (z) = 0.47358 0.20563
#
# Static dielectric constant tensor:
#      x y z
#    x 3.707060 0.000000 0.000000 
#    y 0.000000 3.400930 0.000000 
#    z 0.000000 0.000000 3.392950 
# 
# 
# High freq. dielectric constant tensor:
#      x y z
#    x 1.750000 0.000000 0.000000 
#    y 0.000000 1.728040 0.000000 
#    z 0.000000 0.000000 1.724330 
# 
# From -- ./inp_files/14973.got.cif
#   From: 2010.03.12/outbox.cif.g09.slc.cpg/sg59_8_cif.got.tgz:14973.got - 2010.04.16 16:29:54.
