data_PCOD8239071
_publ_section_title
;
Structure prediction by ZEFSAII (Michael W. Deem and Ramdas Pophale) SiO2 
 PCOD8239071
Probable space group: P M M N
;
_chemical_formula_sum "Si O2"
_cell_formula_units_Z 56
_cell_length_a 34.222199
_cell_length_b 13.263979
_cell_length_c 7.940483
_cell_angle_alpha 90.000000
_cell_angle_beta 90.000000
_cell_angle_gamma 90.000000
_cell_volume 3604.364124
_symmetry_space_group_name_H-M "P M M N"
_symmetry_group_IT_number 59
_space_group.IT_coordinate_system_code '2'
_symmetry_cell_setting 'orthorhombic'
loop_
_space_group_symop_operation_xyz
x,y,z
1/2-x,1/2-y,z
1/2+x,-y,-z
-x,1/2+y,-z
-x,-y,-z
1/2+x,1/2+y,-z
1/2-x,y,z
x,1/2-y,z
loop_
_atom_site_type_symbol
_atom_site_label
_atom_site_fract_x
_atom_site_fract_y
_atom_site_fract_z
Si Si1 0.498931 0.865484 0.853352
Si Si2 0.874334 0.133157 0.949764
Si Si3 0.952336 0.446383 0.837596
Si Si4 0.372314 0.633646 0.667093
Si Si5 0.208132 0.633607 0.553316
Si Si6 0.451045 0.630704 0.521494
Si Si7 0.792037 0.133923 0.841610
O O1 0.512976 0.750000 0.842591
O O2 0.477083 0.899365 0.682482
O O3 0.536880 0.936930 0.871469
O O4 0.471739 0.877038 0.018116
O O5 0.875476 0.250000 0.889627
O O6 0.886363 0.122211 0.142579
O O7 0.905574 0.069446 0.842378
O O8 0.830724 0.085966 0.926212
O O9 0.967740 0.415467 0.651645
O O10 0.366997 0.750000 0.617297
O O11 0.329920 0.580554 0.637558
O O12 0.406986 0.587924 0.552855
O O13 0.250000 0.584556 0.610508
O O14 0.209711 0.750000 0.606625
O O15 0.203241 0.621545 0.355784
O O16 0.450021 0.750000 0.504196
O O17 0.750000 0.085305 0.899556
O O18 0.790766 0.250000 0.895431
#
# Coordination Sequence:
#
# PCOD8239071 Si02
#       7
#     8   8   8   8   8   8   8
#     4  10  21  35  47  66  90 110 144 187 221 264
#     4  10  17  26  40  60  86 113 146 180 211 250
#     4  11  20  31  50  67  85 117 148 177 224 263
#     4   9  16  24  36  55  80 109 142 180 209 243
#     4   8  13  21  31  46  71 105 143 175 204 241
#     4  10  18  30  47  65  87 112 144 182 220 259
#     4   8  14  23  35  53  79 111 145 176 207 248
#
# _framework density 15.536721
#
# number of rings (size 3 to 8) (size 9 to 14) (size 15 to 20)
#    0.000    2.571    1.429    3.429    0.000    2.857 
#    0.000    2.857    0.000    0.000    0.000    0.000 
#    0.000    0.571    0.000    0.000    0.000    4.571 
#
# Total GULP energy -693746.276505 kJ/mol
# GULP energy per Si atom -12388.326366 kJ/mol
# Density = 1.550136 g / cm^3
# Si number density = 15.536721 Si / 1000 Ang^3
#
#
#
# Elastic Constant Matrix: (Units=GPa)
#
#
# Indices 1 2 3 4 5 6 
#
# 1 104.9010 35.5913 30.2242 0.0000 0.0000 0.0000
# 2 35.5913 35.0266 15.2613 0.0000 0.0000 0.0000
# 3 30.2242 15.2613 74.3259 0.0000 0.0000 0.0000
# 4 0.0000 0.0000 0.0000 10.8185 0.0000 0.0000
# 5 0.0000 0.0000 0.0000 0.0000 22.0474 0.0000
# 6 0.0000 0.0000 0.0000 0.0000 0.0000 12.7956
#
#
#
# Elastic Compliance Matrix: (Units=1/GPa)
#
#
# Indices 1 2 3 4 5 6 
#
# 1 0.015259 -0.014059 -0.003318 0.000000 0.000000 0.000000
# 2 -0.014059 0.044309 -0.003381 0.000000 0.000000 0.000000
# 3 -0.003318 -0.003381 0.015498 0.000000 0.000000 0.000000
# 4 0.000000 0.000000 0.000000 0.092434 0.000000 0.000000
# 5 0.000000 0.000000 0.000000 0.000000 0.045357 0.000000
# 6 0.000000 0.000000 0.000000 0.000000 0.000000 0.078152
#
#
# Mechanical properties :
#
#
# Convention : Reuss Voigt Hill
#
# Bulk Modulus (GPa) = 29.80719 41.82302 35.81510
# Shear Modulus (GPa) = 14.54726 18.01075 16.27901
#
# Velocity S-wave (km/s) = 3.06325 3.40845 3.24045
# Velocity P-wave (km/s) = 5.63364 6.51669 6.09119
#
# Compressibility (1/GPa) = 0.03354896
#
# Stress axis : x y z
#
# Youngs Moduli (GPa) = 65.53567 22.56903 64.52541
#
# Poissons Ratio (x) = 0.31730 0.21411
# Poissons Ratio (y) = 0.92137 0.21815
# Poissons Ratio (z) = 0.21746 0.07630
#
# Static dielectric constant tensor:
#      x y z
#    x 3.312910 0.000000 0.000000 
#    y 0.000000 2.347790 0.000000 
#    z 0.000000 0.000000 3.049730 
# 
# 
# High freq. dielectric constant tensor:
#      x y z
#    x 1.611730 0.000000 0.000000 
#    y 0.000000 1.502130 0.000000 
#    z 0.000000 0.000000 1.610750 
# 
# From -- ./inp_files/13238.got.cif
#   From: 2010.03.12/outbox.cif.g09.slc.cpg/sg59_7_cif.got.tgz:13238.got - 2010.04.16 16:29:54.
