data_PCOD8239728
_publ_section_title
;
Structure prediction by ZEFSAII (Michael W. Deem and Ramdas Pophale) SiO2 
 PCOD8239728
Probable space group: P M M N
;
_chemical_formula_sum "Si O2"
_cell_formula_units_Z 40
_cell_length_a 8.962349
_cell_length_b 20.027343
_cell_length_c 12.756411
_cell_angle_alpha 90.000000
_cell_angle_beta 90.000000
_cell_angle_gamma 90.000000
_cell_volume 2289.674202
_symmetry_space_group_name_H-M "P M M N"
_symmetry_group_IT_number 59
_space_group.IT_coordinate_system_code '2'
_symmetry_cell_setting 'orthorhombic'
loop_
_space_group_symop_operation_xyz
x,y,z
1/2-x,1/2-y,z
1/2+x,-y,-z
-x,1/2+y,-z
-x,-y,-z
1/2+x,1/2+y,-z
1/2-x,y,z
x,1/2-y,z
loop_
_atom_site_type_symbol
_atom_site_label
_atom_site_fract_x
_atom_site_fract_y
_atom_site_fract_z
Si Si1 0.574314 0.066283 0.044575
Si Si2 0.422254 0.673988 0.126981
Si Si3 0.075251 0.094581 0.701591
Si Si4 0.421147 0.067980 0.478307
Si Si5 0.925963 0.953003 0.745580
O O1 0.750000 0.054925 0.052112
O O2 0.508714 0.083222 0.158881
O O3 0.531953 0.128311 0.971053
O O4 0.500000 0.000000 0.000000
O O5 0.250000 0.663461 0.156582
O O6 0.456578 0.750000 0.095437
O O7 0.520074 0.655841 0.228419
O O8 0.250000 0.081273 0.720870
O O9 0.044788 0.115667 0.578540
O O10 0.985049 0.028509 0.734034
O O11 0.250000 0.049137 0.475905
O O12 0.464017 0.091307 0.359811
O O13 0.500000 0.000000 0.500000
O O14 0.750000 0.956229 0.768906
#
# Coordination Sequence:
#
# PCOD8239728 Si02
#       5
#     8   8   8   8   8
#     4  11  21  33  52  76 103 134 172 218 262 309
#     4  10  22  38  53  71 100 138 174 211 262 316
#     4  10  18  30  50  75 102 131 168 210 253 304
#     4   8  16  28  44  70 101 130 159 197 245 294
#     4  10  18  30  49  74 105 136 166 206 255 305
#
# _framework density 17.469733999999999
#
# number of rings (size 3 to 8) (size 9 to 14) (size 15 to 20)
#    0.000    2.200    2.000    1.800    0.000    2.800 
#    0.000    0.000    0.000    1.200    0.000    5.600 
#    0.000    0.000    0.000    0.000    0.000    0.000 
#
# Total GULP energy -495598.591834 kJ/mol
# GULP energy per Si atom -12389.964796 kJ/mol
# Density = 1.742997 g / cm^3
# Si number density = 17.469734 Si / 1000 Ang^3
#
#
#
# Elastic Constant Matrix: (Units=GPa)
#
#
# Indices 1 2 3 4 5 6 
#
# 1 71.5595 32.6784 65.0080 0.0000 0.0000 0.0000
# 2 32.6784 77.8121 60.2936 0.0000 0.0000 0.0000
# 3 65.0080 60.2936 184.5731 0.0000 0.0000 0.0000
# 4 0.0000 0.0000 0.0000 18.9455 0.0000 0.0000
# 5 0.0000 0.0000 0.0000 0.0000 31.0294 0.0000
# 6 0.0000 0.0000 0.0000 0.0000 0.0000 18.0980
#
#
#
# Elastic Compliance Matrix: (Units=1/GPa)
#
#
# Indices 1 2 3 4 5 6 
#
# 1 0.021547 -0.004242 -0.006203 0.000000 0.000000 0.000000
# 2 -0.004242 0.018042 -0.004400 0.000000 0.000000 0.000000
# 3 -0.006203 -0.004400 0.009040 0.000000 0.000000 0.000000
# 4 0.000000 0.000000 0.000000 0.052783 0.000000 0.000000
# 5 0.000000 0.000000 0.000000 0.000000 0.032228 0.000000
# 6 0.000000 0.000000 0.000000 0.000000 0.000000 0.055255
#
#
# Mechanical properties :
#
#
# Convention : Reuss Voigt Hill
#
# Bulk Modulus (GPa) = 52.80159 72.21161 62.50660
# Shear Modulus (GPa) = 22.23237 25.34556 23.78896
#
# Velocity S-wave (km/s) = 3.57125 3.81310 3.69416
# Velocity P-wave (km/s) = 6.87716 7.79816 7.35210
#
# Compressibility (1/GPa) = 0.01893883
#
# Stress axis : x y z
#
# Youngs Moduli (GPa) = 46.41027 55.42577 110.62092
#
# Poissons Ratio (x) = 0.23514 0.68620
# Poissons Ratio (y) = 0.19689 0.48668
# Poissons Ratio (z) = 0.28789 0.24385
#
# Static dielectric constant tensor:
#      x y z
#    x 3.299710 0.000000 0.000000 
#    y 0.000000 2.839730 0.000000 
#    z 0.000000 0.000000 4.211420 
# 
# 
# High freq. dielectric constant tensor:
#      x y z
#    x 1.687890 0.000000 0.000000 
#    y 0.000000 1.613410 0.000000 
#    z 0.000000 0.000000 1.702960 
# 
# From -- ./inp_files/14028.got.cif
#   From: 2010.03.12/outbox.cif.g09.slc.cpg/sg59_8_cif.got.tgz:14028.got - 2010.04.16 16:29:54.
