data_PCOD8239959
_publ_section_title
;
Structure prediction by ZEFSAII (Michael W. Deem and Ramdas Pophale) SiO2 
 PCOD8239959
Probable space group: P M M N
;
_chemical_formula_sum "Si O2"
_cell_formula_units_Z 64
_cell_length_a 28.338969
_cell_length_b 9.077532
_cell_length_c 15.560541
_cell_angle_alpha 90.000000
_cell_angle_beta 90.000000
_cell_angle_gamma 90.000000
_cell_volume 4002.916463
_symmetry_space_group_name_H-M "P M M N"
_symmetry_group_IT_number 59
_space_group.IT_coordinate_system_code '2'
_symmetry_cell_setting 'orthorhombic'
loop_
_space_group_symop_operation_xyz
x,y,z
1/2-x,1/2-y,z
1/2+x,-y,-z
-x,1/2+y,-z
-x,-y,-z
1/2+x,1/2+y,-z
1/2-x,y,z
x,1/2-y,z
loop_
_atom_site_type_symbol
_atom_site_label
_atom_site_fract_x
_atom_site_fract_y
_atom_site_fract_z
Si Si1 0.049699 0.577974 0.496091
Si Si2 0.549872 0.422246 0.995080
Si Si3 0.441169 0.424625 0.170037
Si Si4 0.390695 0.924587 0.660716
Si Si5 0.394457 0.919874 0.324905
Si Si6 0.048006 0.920869 0.816427
Si Si7 0.196455 0.077816 0.596507
Si Si8 0.802859 0.082575 0.578993
O O1 0.040405 0.750000 0.503404
O O2 0.082020 0.525092 0.575037
O O3 0.075332 0.535279 0.408006
O O4 0.000000 0.500000 0.500000
O O5 0.543984 0.250000 0.974856
O O6 0.578753 0.500722 0.918128
O O7 0.500000 0.500000 0.000000
O O8 0.572614 0.446009 0.090049
O O9 0.439216 0.250000 0.159042
O O10 0.407993 0.474136 0.247325
O O11 0.494513 0.484201 0.186913
O O12 0.384541 0.750000 0.666303
O O13 0.419285 0.990813 0.742429
O O14 0.338865 0.996676 0.661768
O O15 0.403400 0.750000 0.299635
O O16 0.339335 0.949921 0.344385
O O17 0.042996 0.750000 0.795586
O O18 0.250000 0.039672 0.624285
O O19 0.186586 0.250000 0.599829
O O20 0.186862 0.024341 0.499905
O O21 0.750000 0.059715 0.615389
O O22 0.810498 0.250000 0.545402
#
# Coordination Sequence:
#
# PCOD8239959 Si02
#       8
#     8   8   8   8   8   8   8   8
#     4  10  20  31  43  63  93 128 160 188 223 270
#     4   9  16  29  47  69  95 123 154 194 236 274
#     4  10  19  31  47  68  93 127 161 191 231 276
#     4  10  18  32  49  66  90 123 160 192 224 273
#     4  10  19  31  45  67  93 120 156 194 231 274
#     4   8  16  29  47  68  92 121 155 190 226 266
#     4  10  20  32  46  67  93 118 150 195 241 278
#     4   9  17  32  52  68  86 117 155 194 237 282
#
# _framework density 15.988343
#
# number of rings (size 3 to 8) (size 9 to 14) (size 15 to 20)
#    0.000    2.500    1.250    2.625    0.000    3.250 
#    0.000    3.750    0.000    0.000    0.000    0.875 
#    0.000    3.000    0.000    0.000    0.000    0.000 
#
# Total GULP energy -793362.480926 kJ/mol
# GULP energy per Si atom -12396.288764 kJ/mol
# Density = 1.595195 g / cm^3
# Si number density = 15.988343 Si / 1000 Ang^3
#
#
#
# Elastic Constant Matrix: (Units=GPa)
#
#
# Indices 1 2 3 4 5 6 
#
# 1 91.6858 32.8295 43.2967 0.0000 0.0000 0.0000
# 2 32.8295 55.3243 37.5102 0.0000 0.0000 0.0000
# 3 43.2967 37.5102 104.3531 0.0000 0.0000 0.0000
# 4 0.0000 0.0000 0.0000 23.0418 0.0000 0.0000
# 5 0.0000 0.0000 0.0000 0.0000 12.5149 0.0000
# 6 0.0000 0.0000 0.0000 0.0000 0.0000 23.5749
#
#
#
# Elastic Compliance Matrix: (Units=1/GPa)
#
#
# Indices 1 2 3 4 5 6 
#
# 1 0.015016 -0.006196 -0.004003 0.000000 0.000000 0.000000
# 2 -0.006196 0.026457 -0.006939 0.000000 0.000000 0.000000
# 3 -0.004003 -0.006939 0.013738 0.000000 0.000000 0.000000
# 4 0.000000 0.000000 0.000000 0.043399 0.000000 0.000000
# 5 0.000000 0.000000 0.000000 0.000000 0.079905 0.000000
# 6 0.000000 0.000000 0.000000 0.000000 0.000000 0.042418
#
#
# Mechanical properties :
#
#
# Convention : Reuss Voigt Hill
#
# Bulk Modulus (GPa) = 47.76932 53.18176 50.47554
# Shear Modulus (GPa) = 19.07028 21.00809 20.03919
#
# Velocity S-wave (km/s) = 3.45739 3.62879 3.54413
# Velocity P-wave (km/s) = 6.77351 7.13390 6.95604
#
# Compressibility (1/GPa) = 0.02093394
#
# Stress axis : x y z
#
# Youngs Moduli (GPa) = 66.59658 37.79717 72.79109
#
# Poissons Ratio (x) = 0.23421 0.29137
# Poissons Ratio (y) = 0.41266 0.50511
# Poissons Ratio (z) = 0.26657 0.26228
#
# Static dielectric constant tensor:
#      x y z
#    x 2.971560 0.000000 0.000000 
#    y 0.000000 3.000900 0.000000 
#    z 0.000000 0.000000 3.039260 
# 
# 
# High freq. dielectric constant tensor:
#      x y z
#    x 1.594000 0.000000 0.000000 
#    y 0.000000 1.610410 0.000000 
#    z 0.000000 0.000000 1.605890 
# 
# From -- ./inp_files/25105.got.cif
#   From: 2010.03.12/outbox.cif.g09.slc.cpg/sg59_13_cif.got.tgz:25105.got - 2010.04.16 16:29:54.
