data_PCOD8239531
_publ_section_title
;
Structure prediction by ZEFSAII (Michael W. Deem and Ramdas Pophale) SiO2 
 PCOD8239531
Probable space group: P M M N
;
_chemical_formula_sum "Si O2"
_cell_formula_units_Z 64
_cell_length_a 14.564338
_cell_length_b 17.767749
_cell_length_c 15.196960
_cell_angle_alpha 90.000000
_cell_angle_beta 90.000000
_cell_angle_gamma 90.000000
_cell_volume 3932.600952
_symmetry_space_group_name_H-M "P M M N"
_symmetry_group_IT_number 59
_space_group.IT_coordinate_system_code '2'
_symmetry_cell_setting 'orthorhombic'
loop_
_space_group_symop_operation_xyz
x,y,z
1/2-x,1/2-y,z
1/2+x,-y,-z
-x,1/2+y,-z
-x,-y,-z
1/2+x,1/2+y,-z
1/2-x,y,z
x,1/2-y,z
loop_
_atom_site_type_symbol
_atom_site_label
_atom_site_fract_x
_atom_site_fract_y
_atom_site_fract_z
Si Si1 0.854558 0.926250 0.320482
Si Si2 0.857636 0.093006 0.260239
Si Si3 0.147316 0.660536 0.109145
Si Si4 0.358614 0.833456 0.916904
Si Si5 0.546296 0.162801 0.418110
Si Si6 0.351068 0.595366 0.421555
Si Si7 0.025180 0.839283 0.270338
Si Si8 0.088091 0.449138 0.484087
O O1 0.750000 0.906272 0.295302
O O2 0.864635 0.923176 0.425655
O O3 0.919554 0.865802 0.271877
O O4 0.882685 0.007928 0.284443
O O5 0.750000 0.109462 0.273857
O O6 0.889088 0.109416 0.159944
O O7 0.915754 0.149393 0.320578
O O8 0.250000 0.628481 0.129219
O O9 0.152321 0.750000 0.109976
O O10 0.075358 0.631807 0.182015
O O11 0.110647 0.634533 0.012729
O O12 0.250000 0.825979 0.919675
O O13 0.400506 0.750000 0.899581
O O14 0.531794 0.250000 0.436394
O O15 0.622224 0.129363 0.484146
O O16 0.445946 0.124153 0.430620
O O17 0.250000 0.624902 0.394951
O O18 0.425569 0.622119 0.352235
O O19 0.345453 0.503782 0.427768
O O20 0.029922 0.750000 0.280085
O O21 0.000000 0.500000 0.500000
#
# Coordination Sequence:
#
# PCOD8239531 Si02
#       8
#     8   8   8   8   8   8   8   8
#     4  11  21  35  50  64  90 132 171 198 235 283
#     4  10  18  29  46  69  96 126 158 195 240 288
#     4   8  15  29  48  69  96 126 150 181 234 295
#     4   8  14  26  45  69  96 124 151 181 228 291
#     4  11  20  29  45  70  99 124 156 199 238 275
#     4  11  20  31  49  70  94 125 157 193 238 286
#     4  11  21  33  48  70  96 123 160 205 242 279
#     4  10  18  34  48  62  91 132 162 188 229 286
#
# _framework density 16.274215999999999
#
# number of rings (size 3 to 8) (size 9 to 14) (size 15 to 20)
#    0.000    2.000    5.000    2.625    0.000    3.000 
#    0.000    0.625    0.000    1.125    0.000    0.000 
#    0.000    1.000    0.000    7.750    0.000    0.000 
#
# Total GULP energy -793308.486246 kJ/mol
# GULP energy per Si atom -12395.445098 kJ/mol
# Density = 1.623718 g / cm^3
# Si number density = 16.274216 Si / 1000 Ang^3
#
#
#
# Elastic Constant Matrix: (Units=GPa)
#
#
# Indices 1 2 3 4 5 6 
#
# 1 68.0710 31.9894 37.9185 0.0000 0.0000 0.0000
# 2 31.9894 74.7803 28.0909 0.0000 0.0000 0.0000
# 3 37.9185 28.0909 97.5471 0.0000 0.0000 0.0000
# 4 0.0000 0.0000 0.0000 19.4151 0.0000 0.0000
# 5 0.0000 0.0000 0.0000 0.0000 19.2796 0.0000
# 6 0.0000 0.0000 0.0000 0.0000 0.0000 16.6914
#
#
#
# Elastic Compliance Matrix: (Units=1/GPa)
#
#
# Indices 1 2 3 4 5 6 
#
# 1 0.021425 -0.006769 -0.006379 0.000000 0.000000 0.000000
# 2 -0.006769 0.017133 -0.002303 0.000000 0.000000 0.000000
# 3 -0.006379 -0.002303 0.013394 0.000000 0.000000 0.000000
# 4 0.000000 0.000000 0.000000 0.051506 0.000000 0.000000
# 5 0.000000 0.000000 0.000000 0.000000 0.051868 0.000000
# 6 0.000000 0.000000 0.000000 0.000000 0.000000 0.059911
#
#
# Mechanical properties :
#
#
# Convention : Reuss Voigt Hill
#
# Bulk Modulus (GPa) = 47.50353 48.48846 47.99600
# Shear Modulus (GPa) = 19.75066 20.57052 20.16059
#
# Velocity S-wave (km/s) = 3.48748 3.55913 3.52349
# Velocity P-wave (km/s) = 6.74311 6.83734 6.79039
#
# Compressibility (1/GPa) = 0.02105106
#
# Stress axis : x y z
#
# Youngs Moduli (GPa) = 46.67460 58.36668 74.65904
#
# Poissons Ratio (x) = 0.39508 0.47625
# Poissons Ratio (y) = 0.31593 0.17191
# Poissons Ratio (z) = 0.29774 0.13440
#
# Static dielectric constant tensor:
#      x y z
#    x 3.111140 0.000000 0.000000 
#    y 0.000000 3.134430 0.000000 
#    z 0.000000 0.000000 3.351000 
# 
# 
# High freq. dielectric constant tensor:
#      x y z
#    x 1.604340 0.000000 0.000000 
#    y 0.000000 1.608480 0.000000 
#    z 0.000000 0.000000 1.622040 
# 
# From -- ./inp_files/23442.got.cif
#   From: 2010.03.12/outbox.cif.g09.slc.cpg/sg59_12_cif.got.tgz:23442.got - 2010.04.16 16:29:54.
