data_PCOD8239608
_publ_section_title
;
Structure prediction by ZEFSAII (Michael W. Deem and Ramdas Pophale) SiO2 
 PCOD8239608
Probable space group: P M M N
;
_chemical_formula_sum "Si O2"
_cell_formula_units_Z 64
_cell_length_a 19.525886
_cell_length_b 8.924005
_cell_length_c 19.938156
_cell_angle_alpha 90.000000
_cell_angle_beta 90.000000
_cell_angle_gamma 90.000000
_cell_volume 3474.205824
_symmetry_space_group_name_H-M "P M M N"
_symmetry_group_IT_number 59
_space_group.IT_coordinate_system_code '2'
_symmetry_cell_setting 'orthorhombic'
loop_
_space_group_symop_operation_xyz
x,y,z
1/2-x,1/2-y,z
1/2+x,-y,-z
-x,1/2+y,-z
-x,-y,-z
1/2+x,1/2+y,-z
1/2-x,y,z
x,1/2-y,z
loop_
_atom_site_type_symbol
_atom_site_label
_atom_site_fract_x
_atom_site_fract_y
_atom_site_fract_z
Si Si1 0.025869 0.424526 0.342839
Si Si2 0.942155 0.573872 0.807068
Si Si3 0.080378 0.073114 0.844163
Si Si4 0.671508 0.575528 0.030502
Si Si5 0.069124 0.077584 0.481142
Si Si6 0.327053 0.921696 0.736243
Si Si7 0.614840 0.925809 0.382157
Si Si8 0.829320 0.424678 0.892396
O O1 0.003399 0.250000 0.343162
O O2 0.057872 0.468716 0.271556
O O3 0.083558 0.454419 0.401863
O O4 0.960269 0.527012 0.356212
O O5 0.945216 0.750000 0.818817
O O6 0.871853 0.510053 0.835951
O O7 0.005977 0.501479 0.846246
O O8 0.071761 0.250000 0.840988
O O9 0.122585 0.022301 0.909496
O O10 0.121249 0.020441 0.779074
O O11 0.750000 0.540794 0.050931
O O12 0.661699 0.750000 0.014305
O O13 0.649145 0.482387 0.965662
O O14 0.054626 0.250000 0.492772
O O15 0.125196 0.031568 0.538064
O O16 0.000000 0.000000 0.500000
O O17 0.250000 0.939095 0.763517
O O18 0.351282 0.750000 0.739353
O O19 0.329317 0.981310 0.659825
O O20 0.625648 0.750000 0.369191
O O21 0.750000 0.460320 0.878598
O O22 0.845662 0.250000 0.888580
#
# Coordination Sequence:
#
# PCOD8239608 Si02
#       8
#     8   8   8   8   8   8   8   8
#     4   9  17  31  50  74 107 139 171 214 265 320
#     4  11  22  35  56  83 113 147 178 217 270 326
#     4  11  22  36  56  82 112 142 178 226 272 319
#     4   9  19  37  59  81 107 141 180 221 267 320
#     4   8  15  27  45  71  99 130 168 212 261 311
#     4  11  23  36  50  71 105 149 190 226 269 324
#     4  10  18  29  49  74 101 134 176 224 269 314
#     4  10  22  40  61  83 106 136 177 224 272 323
#
# _framework density 18.421475999999998
#
# number of rings (size 3 to 8) (size 9 to 14) (size 15 to 20)
#    0.000    2.125    1.250    2.250    0.000    4.750 
#    0.000    1.250    0.000    0.750    0.000    5.250 
#    0.000    0.000    0.000    0.000    0.000    0.000 
#
# Total GULP energy -793237.051863 kJ/mol
# GULP energy per Si atom -12394.328935 kJ/mol
# Density = 1.837955 g / cm^3
# Si number density = 18.421476 Si / 1000 Ang^3
#
#
#
# Elastic Constant Matrix: (Units=GPa)
#
#
# Indices 1 2 3 4 5 6 
#
# 1 66.5746 30.5863 51.3448 0.0000 0.0000 0.0000
# 2 30.5863 65.7636 43.5208 0.0000 0.0000 0.0000
# 3 51.3448 43.5208 125.0915 0.0000 0.0000 0.0000
# 4 0.0000 0.0000 0.0000 26.1568 0.0000 0.0000
# 5 0.0000 0.0000 0.0000 0.0000 25.1007 0.0000
# 6 0.0000 0.0000 0.0000 0.0000 0.0000 26.7530
#
#
#
# Elastic Compliance Matrix: (Units=1/GPa)
#
#
# Indices 1 2 3 4 5 6 
#
# 1 0.023640 -0.005941 -0.007636 0.000000 0.000000 0.000000
# 2 -0.005941 0.021247 -0.004954 0.000000 0.000000 0.000000
# 3 -0.007636 -0.004954 0.012852 0.000000 0.000000 0.000000
# 4 0.000000 0.000000 0.000000 0.038231 0.000000 0.000000
# 5 0.000000 0.000000 0.000000 0.000000 0.039839 0.000000
# 6 0.000000 0.000000 0.000000 0.000000 0.000000 0.037379
#
#
# Mechanical properties :
#
#
# Convention : Reuss Voigt Hill
#
# Bulk Modulus (GPa) = 48.36284 56.48150 52.42217
# Shear Modulus (GPa) = 23.02637 24.40060 23.71349
#
# Velocity S-wave (km/s) = 3.53933 3.64342 3.59175
# Velocity P-wave (km/s) = 6.55843 6.95892 6.76164
#
# Compressibility (1/GPa) = 0.02067703
#
# Stress axis : x y z
#
# Youngs Moduli (GPa) = 42.30206 47.06457 77.81005
#
# Poissons Ratio (x) = 0.27962 0.59416
# Poissons Ratio (y) = 0.25133 0.38544
# Poissons Ratio (z) = 0.32302 0.23314
#
# Static dielectric constant tensor:
#      x y z
#    x 3.175290 0.000000 0.000000 
#    y 0.000000 3.394400 0.000000 
#    z 0.000000 0.000000 3.888130 
# 
# 
# High freq. dielectric constant tensor:
#      x y z
#    x 1.679920 0.000000 0.000000 
#    y 0.000000 1.723160 0.000000 
#    z 0.000000 0.000000 1.728480 
# 
# From -- ./inp_files/30759.got.cif
#   From: 2010.03.12/outbox.cif.g09.slc.cpg/sg59_16_cif.got.tgz:30759.got - 2010.04.16 16:29:54.
