data_PCOD8239705
_publ_section_title
;
Structure prediction by ZEFSAII (Michael W. Deem and Ramdas Pophale) SiO2 
 PCOD8239705
Probable space group: P M M N
;
_chemical_formula_sum "Si O2"
_cell_formula_units_Z 48
_cell_length_a 20.923874
_cell_length_b 8.724064
_cell_length_c 14.257755
_cell_angle_alpha 90.000000
_cell_angle_beta 90.000000
_cell_angle_gamma 90.000000
_cell_volume 2602.627934
_symmetry_space_group_name_H-M "P M M N"
_symmetry_group_IT_number 59
_space_group.IT_coordinate_system_code '2'
_symmetry_cell_setting 'orthorhombic'
loop_
_space_group_symop_operation_xyz
x,y,z
1/2-x,1/2-y,z
1/2+x,-y,-z
-x,1/2+y,-z
-x,-y,-z
1/2+x,1/2+y,-z
1/2-x,y,z
x,1/2-y,z
loop_
_atom_site_type_symbol
_atom_site_label
_atom_site_fract_x
_atom_site_fract_y
_atom_site_fract_z
Si Si1 0.397490 0.572167 0.635727
Si Si2 0.475665 0.569314 0.282294
Si Si3 0.176817 0.068925 0.990893
Si Si4 0.447737 0.930851 0.070700
Si Si5 0.934201 0.568180 0.539927
Si Si6 0.324173 0.083203 0.782910
O O1 0.412807 0.750000 0.623374
O O2 0.454860 0.488088 0.688766
O O3 0.381882 0.497675 0.533525
O O4 0.337671 0.543461 0.703658
O O5 0.470231 0.750000 0.293626
O O6 0.463661 0.515998 0.176308
O O7 0.423915 0.492261 0.353842
O O8 0.250000 0.012094 0.011244
O O9 0.173135 0.250000 0.007602
O O10 0.125195 0.984999 0.055715
O O11 0.153611 0.027286 0.885483
O O12 0.451454 0.750000 0.059799
O O13 0.500000 0.000000 0.000000
O O14 0.934276 0.750000 0.538910
O O15 0.000000 0.500000 0.500000
O O16 0.250000 0.108970 0.790216
O O17 0.355863 0.250000 0.759006
#
# Coordination Sequence:
#
# PCOD8239705 Si02
#       6
#     8   8   8   8   8   8
#     4  11  20  30  48  74 102 130 161 200 248 299
#     4  10  20  34  49  70 101 133 166 205 251 297
#     4   9  19  36  56  76 102 138 176 214 258 310
#     4  11  23  35  52  78 108 140 173 217 264 305
#     4  10  18  30  49  71  95 126 161 197 242 297
#     4   9  18  33  51  71  97 130 166 203 246 296
#
# _framework density 18.442899000000001
#
# number of rings (size 3 to 8) (size 9 to 14) (size 15 to 20)
#    0.000    2.000    0.000    8.000    0.000    8.000 
#    0.000    1.667    0.000    1.000    0.000    4.667 
#    0.000    0.000    0.000    0.000    0.000    0.000 
#
# Total GULP energy -594851.009584 kJ/mol
# GULP energy per Si atom -12392.729366 kJ/mol
# Density = 1.840092 g / cm^3
# Si number density = 18.442899 Si / 1000 Ang^3
#
#
#
# Elastic Constant Matrix: (Units=GPa)
#
#
# Indices 1 2 3 4 5 6 
#
# 1 43.3850 21.0999 35.6114 0.0000 0.0000 0.0000
# 2 21.0999 83.6920 60.0141 0.0000 0.0000 0.0000
# 3 35.6114 60.0141 156.4059 0.0000 0.0000 0.0000
# 4 0.0000 0.0000 0.0000 31.9798 0.0000 0.0000
# 5 0.0000 0.0000 0.0000 0.0000 24.8761 0.0000
# 6 0.0000 0.0000 0.0000 0.0000 0.0000 25.4475
#
#
#
# Elastic Compliance Matrix: (Units=1/GPa)
#
#
# Indices 1 2 3 4 5 6 
#
# 1 0.029099 -0.003567 -0.005257 0.000000 0.000000 0.000000
# 2 -0.003567 0.016921 -0.005681 0.000000 0.000000 0.000000
# 3 -0.005257 -0.005681 0.009770 0.000000 0.000000 0.000000
# 4 0.000000 0.000000 0.000000 0.031270 0.000000 0.000000
# 5 0.000000 0.000000 0.000000 0.000000 0.040199 0.000000
# 6 0.000000 0.000000 0.000000 0.000000 0.000000 0.039297
#
#
# Mechanical properties :
#
#
# Convention : Reuss Voigt Hill
#
# Bulk Modulus (GPa) = 37.33846 57.43708 47.38777
# Shear Modulus (GPa) = 24.45082 27.57784 26.01433
#
# Velocity S-wave (km/s) = 3.64505 3.87112 3.75978
# Velocity P-wave (km/s) = 6.16478 7.15483 6.67818
#
# Compressibility (1/GPa) = 0.02678204
#
# Stress axis : x y z
#
# Youngs Moduli (GPa) = 34.36547 59.09687 102.35105
#
# Poissons Ratio (x) = 0.21078 0.53805
# Poissons Ratio (y) = 0.12257 0.58143
# Poissons Ratio (z) = 0.18065 0.33572
#
# Static dielectric constant tensor:
#      x y z
#    x 3.232840 0.000000 0.000000 
#    y 0.000000 3.496440 0.000000 
#    z 0.000000 0.000000 3.413740 
# 
# 
# High freq. dielectric constant tensor:
#      x y z
#    x 1.679480 0.000000 0.000000 
#    y 0.000000 1.722620 0.000000 
#    z 0.000000 0.000000 1.725780 
# 
# From -- ./inp_files/24104.got.cif
#   From: 2010.03.12/outbox.cif.g09.slc.cpg/sg59_13_cif.got.tgz:24104.got - 2010.04.16 16:29:54.
