data_PCOD8239144
_publ_section_title
;
Structure prediction by ZEFSAII (Michael W. Deem and Ramdas Pophale) SiO2 
 PCOD8239144
Probable space group: P M M N
;
_chemical_formula_sum "Si O2"
_cell_formula_units_Z 64
_cell_length_a 29.684997
_cell_length_b 9.109775
_cell_length_c 14.621033
_cell_angle_alpha 90.000000
_cell_angle_beta 90.000000
_cell_angle_gamma 90.000000
_cell_volume 3953.873016
_symmetry_space_group_name_H-M "P M M N"
_symmetry_group_IT_number 59
_space_group.IT_coordinate_system_code '2'
_symmetry_cell_setting 'orthorhombic'
loop_
_space_group_symop_operation_xyz
x,y,z
1/2-x,1/2-y,z
1/2+x,-y,-z
-x,1/2+y,-z
-x,-y,-z
1/2+x,1/2+y,-z
1/2-x,y,z
x,1/2-y,z
loop_
_atom_site_type_symbol
_atom_site_label
_atom_site_fract_x
_atom_site_fract_y
_atom_site_fract_z
Si Si1 0.435706 0.420899 0.956863
Si Si2 0.614811 0.079140 0.193324
Si Si3 0.963045 0.579928 0.683521
Si Si4 0.560796 0.418682 0.373905
Si Si5 0.467736 0.578739 0.126805
Si Si6 0.298832 0.924061 0.705524
Si Si7 0.111387 0.078474 0.464613
Si Si8 0.300660 0.577022 0.498206
O O1 0.427837 0.250000 0.972274
O O2 0.395568 0.487289 0.897041
O O3 0.481351 0.455496 0.902315
O O4 0.434862 0.498190 0.055462
O O5 0.617162 0.250000 0.167093
O O6 0.577851 0.051503 0.271400
O O7 0.662570 0.015460 0.228381
O O8 0.965112 0.750000 0.713238
O O9 0.958615 0.481241 0.772726
O O10 0.920212 0.543754 0.621412
O O11 0.007926 0.540103 0.625618
O O12 0.569123 0.250000 0.401912
O O13 0.588262 0.516992 0.444241
O O14 0.456861 0.750000 0.124774
O O15 0.250000 0.976122 0.742432
O O16 0.301671 0.750000 0.702089
O O17 0.305862 0.979421 0.602255
O O18 0.118237 0.250000 0.478892
O O19 0.160072 0.006046 0.442572
O O20 0.250000 0.537867 0.462510
O O21 0.308784 0.750000 0.489835
#
# Coordination Sequence:
#
# PCOD8239144 Si02
#       8
#     8   8   8   8   8   8   8   8
#     4  10  20  32  48  70  97 124 152 193 242 287
#     4  10  17  28  49  71  93 127 165 198 234 281
#     4  10  21  35  48  66  97 135 168 204 246 285
#     4  10  19  32  48  66  95 135 174 203 232 277
#     4  10  20  33  50  71  92 121 161 201 237 281
#     4   8  14  26  45  68  92 120 157 198 237 277
#     4  11  22  32  46  70 100 132 165 202 248 294
#     4   9  17  32  52  70  91 124 165 204 244 290
#
# _framework density 16.18666
#
# number of rings (size 3 to 8) (size 9 to 14) (size 15 to 20)
#    0.000    2.250    2.500    2.250    0.000    3.250 
#    0.000    0.000    0.000    0.375    0.000    0.875 
#    0.000    5.000    0.000    0.000    0.000    0.000 
#
# Total GULP energy -793542.102452 kJ/mol
# GULP energy per Si atom -12399.095351 kJ/mol
# Density = 1.614982 g / cm^3
# Si number density = 16.186660 Si / 1000 Ang^3
#
#
#
# Elastic Constant Matrix: (Units=GPa)
#
#
# Indices 1 2 3 4 5 6 
#
# 1 123.4506 45.8812 38.9336 0.0000 0.0000 0.0000
# 2 45.8812 65.5153 39.2222 0.0000 0.0000 0.0000
# 3 38.9336 39.2222 60.6689 0.0000 0.0000 0.0000
# 4 0.0000 0.0000 0.0000 28.8293 0.0000 0.0000
# 5 0.0000 0.0000 0.0000 0.0000 23.2429 0.0000
# 6 0.0000 0.0000 0.0000 0.0000 0.0000 23.7645
#
#
#
# Elastic Compliance Matrix: (Units=1/GPa)
#
#
# Indices 1 2 3 4 5 6 
#
# 1 0.011392 -0.005875 -0.003512 0.000000 0.000000 0.000000
# 2 -0.005875 0.027931 -0.014287 0.000000 0.000000 0.000000
# 3 -0.003512 -0.014287 0.027974 0.000000 0.000000 0.000000
# 4 0.000000 0.000000 0.000000 0.034687 0.000000 0.000000
# 5 0.000000 0.000000 0.000000 0.000000 0.043024 0.000000
# 6 0.000000 0.000000 0.000000 0.000000 0.000000 0.042080
#
#
# Mechanical properties :
#
#
# Convention : Reuss Voigt Hill
#
# Bulk Modulus (GPa) = 50.13188 55.30096 52.71642
# Shear Modulus (GPa) = 20.73957 23.54053 22.14005
#
# Velocity S-wave (km/s) = 3.58337 3.81769 3.70238
# Velocity P-wave (km/s) = 6.93968 7.32610 7.13550
#
# Compressibility (1/GPa) = 0.01994739
#
# Stress axis : x y z
#
# Youngs Moduli (GPa) = 87.78427 35.80211 35.74803
#
# Poissons Ratio (x) = 0.21034 0.12556
# Poissons Ratio (y) = 0.51573 0.51074
# Poissons Ratio (z) = 0.30832 0.51152
#
# Static dielectric constant tensor:
#      x y z
#    x 3.270450 0.000000 0.000000 
#    y 0.000000 2.950420 0.000000 
#    z 0.000000 0.000000 2.857570 
# 
# 
# High freq. dielectric constant tensor:
#      x y z
#    x 1.617030 0.000000 0.000000 
#    y 0.000000 1.616040 0.000000 
#    z 0.000000 0.000000 1.598590 
# 
# From -- ./inp_files/25104.got.cif
#   From: 2010.03.12/outbox.cif.g09.slc.cpg/sg59_13_cif.got.tgz:25104.got - 2010.04.16 16:29:54.
