data_PCOD8239949
_publ_section_title
;
Structure prediction by ZEFSAII (Michael W. Deem and Ramdas Pophale) SiO2 
 PCOD8239949
Probable space group: P M M N
;
_chemical_formula_sum "Si O2"
_cell_formula_units_Z 48
_cell_length_a 8.721977
_cell_length_b 14.506850
_cell_length_c 20.043815
_cell_angle_alpha 90.000000
_cell_angle_beta 90.000000
_cell_angle_gamma 90.000000
_cell_volume 2536.112083
_symmetry_space_group_name_H-M "P M M N"
_symmetry_group_IT_number 59
_space_group.IT_coordinate_system_code '2'
_symmetry_cell_setting 'orthorhombic'
loop_
_space_group_symop_operation_xyz
x,y,z
1/2-x,1/2-y,z
1/2+x,-y,-z
-x,1/2+y,-z
-x,-y,-z
1/2+x,1/2+y,-z
1/2-x,y,z
x,1/2-y,z
loop_
_atom_site_type_symbol
_atom_site_label
_atom_site_fract_x
_atom_site_fract_y
_atom_site_fract_z
Si Si1 0.580346 0.750000 0.578855
Si Si2 0.431908 0.250000 0.021341
Si Si3 0.579405 0.946745 0.558120
Si Si4 0.067441 0.058699 0.289980
Si Si5 0.571119 0.933374 0.182310
Si Si6 0.428579 0.561305 0.942476
Si Si7 0.927599 0.250000 0.287037
Si Si8 0.931307 0.250000 0.874143
O O1 0.750000 0.750000 0.615492
O O2 0.568959 0.840544 0.533626
O O3 0.446582 0.750000 0.633301
O O4 0.250000 0.250000 0.020332
O O5 0.491305 0.160598 0.060560
O O6 0.489128 0.250000 0.945745
O O7 0.750000 0.985169 0.561256
O O8 0.511208 0.953919 0.633070
O O9 0.500000 0.000000 0.500000
O O10 0.250000 0.057305 0.283737
O O11 0.006063 0.156022 0.259693
O O12 0.993699 0.973311 0.251165
O O13 0.750000 0.910045 0.188932
O O14 0.481052 0.840096 0.166356
O O15 0.540618 0.010362 0.126661
O O16 0.250000 0.574957 0.957424
O O17 0.500000 0.500000 0.000000
O O18 0.750000 0.250000 0.266263
O O19 0.750000 0.250000 0.884172
#
# Coordination Sequence:
#
# PCOD8239949 Si02
#       8
#     4   4   8   8   8   8   4   4
#     4   8  16  32  50  74 108 146 184 223 277 344
#     4  12  24  39  61  89 121 154 198 245 289 345
#     4   9  18  33  55  81 111 148 190 236 284 342
#     4  10  21  38  58  83 117 156 195 236 291 353
#     4  11  24  41  62  88 118 151 195 245 292 343
#     4  11  23  39  61  87 117 150 191 240 294 345
#     4  10  18  31  55  83 111 145 185 232 288 343
#     4  12  24  40  64  86 114 157 199 236 290 352
#
# _framework density 18.926608000000002
#
# number of rings (size 3 to 8) (size 9 to 14) (size 15 to 20)
#    0.000    1.667    1.667    4.750    0.000    6.000 
#    0.000    1.667    0.000    4.000    0.000    0.000 
#    0.000    0.000    0.000    0.000    0.000    0.000 
#
# Total GULP energy -595051.657948 kJ/mol
# GULP energy per Si atom -12396.909541 kJ/mol
# Density = 1.888353 g / cm^3
# Si number density = 18.926608 Si / 1000 Ang^3
#
#
#
# Elastic Constant Matrix: (Units=GPa)
#
#
# Indices 1 2 3 4 5 6 
#
# 1 115.4171 59.0871 41.2152 0.0000 0.0000 0.0000
# 2 59.0871 143.3416 52.5981 0.0000 0.0000 0.0000
# 3 41.2152 52.5981 84.3559 0.0000 0.0000 0.0000
# 4 0.0000 0.0000 0.0000 27.6438 0.0000 0.0000
# 5 0.0000 0.0000 0.0000 0.0000 30.5686 0.0000
# 6 0.0000 0.0000 0.0000 0.0000 0.0000 37.6749
#
#
#
# Elastic Compliance Matrix: (Units=1/GPa)
#
#
# Indices 1 2 3 4 5 6 
#
# 1 0.011738 -0.003545 -0.003524 0.000000 0.000000 0.000000
# 2 -0.003545 0.010117 -0.004576 0.000000 0.000000 0.000000
# 3 -0.003524 -0.004576 0.016430 0.000000 0.000000 0.000000
# 4 0.000000 0.000000 0.000000 0.036174 0.000000 0.000000
# 5 0.000000 0.000000 0.000000 0.000000 0.032713 0.000000
# 6 0.000000 0.000000 0.000000 0.000000 0.000000 0.026543
#
#
# Mechanical properties :
#
#
# Convention : Reuss Voigt Hill
#
# Bulk Modulus (GPa) = 66.69690 72.10173 69.39932
# Shear Modulus (GPa) = 30.86349 31.85841 31.36095
#
# Velocity S-wave (km/s) = 4.04256 4.10721 4.07501
# Velocity P-wave (km/s) = 7.55685 7.78912 7.67386
#
# Compressibility (1/GPa) = 0.01499320
#
# Stress axis : x y z
#
# Youngs Moduli (GPa) = 85.19554 98.84531 60.86524
#
# Poissons Ratio (x) = 0.35042 0.21451
# Poissons Ratio (y) = 0.30203 0.27852
# Poissons Ratio (z) = 0.30026 0.45231
#
# Static dielectric constant tensor:
#      x y z
#    x 3.589490 0.000000 0.000000 
#    y 0.000000 3.753780 0.000000 
#    z 0.000000 0.000000 3.299430 
# 
# 
# High freq. dielectric constant tensor:
#      x y z
#    x 1.745590 0.000000 0.000000 
#    y 0.000000 1.748540 0.000000 
#    z 0.000000 0.000000 1.712790 
# 
# From -- ./inp_files/25645.got.cif
#   From: 2010.03.12/outbox.cif.g09.slc.cpg/sg59_13_cif.got.tgz:25645.got - 2010.04.16 16:29:54.
