data_PCOD8239527
_publ_section_title
;
Structure prediction by ZEFSAII (Michael W. Deem and Ramdas Pophale) SiO2 
 PCOD8239527
Probable space group: P M M N
;
_chemical_formula_sum "Si O2"
_cell_formula_units_Z 64
_cell_length_a 22.745256
_cell_length_b 9.357267
_cell_length_c 17.597704
_cell_angle_alpha 90.000000
_cell_angle_beta 90.000000
_cell_angle_gamma 90.000000
_cell_volume 3745.379762
_symmetry_space_group_name_H-M "P M M N"
_symmetry_group_IT_number 59
_space_group.IT_coordinate_system_code '2'
_symmetry_cell_setting 'orthorhombic'
loop_
_space_group_symop_operation_xyz
x,y,z
1/2-x,1/2-y,z
1/2+x,-y,-z
-x,1/2+y,-z
-x,-y,-z
1/2+x,1/2+y,-z
1/2-x,y,z
x,1/2-y,z
loop_
_atom_site_type_symbol
_atom_site_label
_atom_site_fract_x
_atom_site_fract_y
_atom_site_fract_z
Si Si1 0.058952 0.916525 0.482280
Si Si2 0.418088 0.585318 0.647569
Si Si3 0.510811 0.086062 0.074973
Si Si4 0.551437 0.582007 0.658823
Si Si5 0.596127 0.584270 0.822683
Si Si6 0.143407 0.915920 0.910746
Si Si7 0.814876 0.420687 0.248223
Si Si8 0.181481 0.915656 0.073471
O O1 0.046942 0.750000 0.465224
O O2 0.098793 0.933675 0.558159
O O3 0.085543 0.993973 0.407653
O O4 0.000000 0.000000 0.500000
O O5 0.420150 0.750000 0.670564
O O6 0.483670 0.525149 0.666319
O O7 0.365877 0.512849 0.697364
O O8 0.503062 0.250000 0.052805
O O9 0.465037 0.038443 0.138853
O O10 0.575313 0.055069 0.106900
O O11 0.500000 0.000000 0.000000
O O12 0.550947 0.750000 0.638470
O O13 0.588841 0.549903 0.733956
O O14 0.609902 0.750000 0.836196
O O15 0.649211 0.494936 0.857790
O O16 0.158782 0.750000 0.917524
O O17 0.177600 0.979935 0.838086
O O18 0.162935 0.984046 0.991632
O O19 0.750000 0.468036 0.277140
O O20 0.819942 0.250000 0.247856
O O21 0.250000 0.938490 0.086148
O O22 0.163297 0.750000 0.076984
#
# Coordination Sequence:
#
# PCOD8239527 Si02
#       8
#     8   8   8   8   8   8   8   8
#     4   9  16  27  45  69  96 124 152 184 228 282
#     4   8  14  25  41  63  93 123 148 180 226 275
#     4  10  18  29  46  68  94 123 154 190 237 285
#     4   9  17  30  47  69  96 122 152 193 240 286
#     4  10  20  32  48  70  94 123 159 197 240 286
#     4   9  16  27  43  64  92 122 152 190 230 271
#     4   9  15  23  39  64  92 122 155 187 222 269
#     4  10  20  33  48  66  90 122 159 198 239 279
#
# _framework density 17.087720000000001
#
# number of rings (size 3 to 8) (size 9 to 14) (size 15 to 20)
#    0.000    2.750    1.250    2.250    0.000    5.250 
#    0.000    0.000    0.000    0.750    0.000    2.625 
#    0.000   19.250    0.000    0.000    0.000    0.000 
#
# Total GULP energy -793086.594792 kJ/mol
# GULP energy per Si atom -12391.978044 kJ/mol
# Density = 1.704883 g / cm^3
# Si number density = 17.087720 Si / 1000 Ang^3
#
#
#
# Elastic Constant Matrix: (Units=GPa)
#
#
# Indices 1 2 3 4 5 6 
#
# 1 73.3810 25.0167 51.8092 0.0000 0.0000 0.0000
# 2 25.0167 40.2355 41.2024 0.0000 0.0000 0.0000
# 3 51.8092 41.2024 130.1740 0.0000 0.0000 0.0000
# 4 0.0000 0.0000 0.0000 25.3575 0.0000 0.0000
# 5 0.0000 0.0000 0.0000 0.0000 20.8407 0.0000
# 6 0.0000 0.0000 0.0000 0.0000 0.0000 17.2398
#
#
#
# Elastic Compliance Matrix: (Units=1/GPa)
#
#
# Indices 1 2 3 4 5 6 
#
# 1 0.019988 -0.006334 -0.005950 0.000000 0.000000 0.000000
# 2 -0.006334 0.038780 -0.009753 0.000000 0.000000 0.000000
# 3 -0.005950 -0.009753 0.013137 0.000000 0.000000 0.000000
# 4 0.000000 0.000000 0.000000 0.039436 0.000000 0.000000
# 5 0.000000 0.000000 0.000000 0.000000 0.047983 0.000000
# 6 0.000000 0.000000 0.000000 0.000000 0.000000 0.058005
#
#
# Mechanical properties :
#
#
# Convention : Reuss Voigt Hill
#
# Bulk Modulus (GPa) = 35.93365 53.31633 44.62499
# Shear Modulus (GPa) = 18.47184 21.07176 19.77180
#
# Velocity S-wave (km/s) = 3.29142 3.51544 3.40527
# Velocity P-wave (km/s) = 5.95980 6.90992 6.45237
#
# Compressibility (1/GPa) = 0.02782907
#
# Stress axis : x y z
#
# Youngs Moduli (GPa) = 50.02974 25.78656 76.11873
#
# Poissons Ratio (x) = 0.16334 0.45293
# Poissons Ratio (y) = 0.31691 0.74242
# Poissons Ratio (z) = 0.29769 0.25151
#
# Static dielectric constant tensor:
#      x y z
#    x 3.113090 0.000000 0.000000 
#    y 0.000000 2.863580 0.000000 
#    z 0.000000 0.000000 3.457190 
# 
# 
# High freq. dielectric constant tensor:
#      x y z
#    x 1.639740 0.000000 0.000000 
#    y 0.000000 1.616050 0.000000 
#    z 0.000000 0.000000 1.669990 
# 
# From -- ./inp_files/28415.got.cif
#   From: 2010.03.12/outbox.cif.g09.slc.cpg/sg59_15_cif.got.tgz:28415.got - 2010.04.16 16:29:54.
