data_PCOD8239447
_publ_section_title
;
Structure prediction by ZEFSAII (Michael W. Deem and Ramdas Pophale) SiO2 
 PCOD8239447
Probable space group: P M M N
;
_chemical_formula_sum "Si O2"
_cell_formula_units_Z 56
_cell_length_a 9.095344
_cell_length_b 20.998908
_cell_length_c 15.737824
_cell_angle_alpha 90.000000
_cell_angle_beta 90.000000
_cell_angle_gamma 90.000000
_cell_volume 3005.803075
_symmetry_space_group_name_H-M "P M M N"
_symmetry_group_IT_number 59
_space_group.IT_coordinate_system_code '2'
_symmetry_cell_setting 'orthorhombic'
loop_
_space_group_symop_operation_xyz
x,y,z
1/2-x,1/2-y,z
1/2+x,-y,-z
-x,1/2+y,-z
-x,-y,-z
1/2+x,1/2+y,-z
1/2-x,y,z
x,1/2-y,z
loop_
_atom_site_type_symbol
_atom_site_label
_atom_site_fract_x
_atom_site_fract_y
_atom_site_fract_z
Si Si1 0.920590 0.008970 0.588144
Si Si2 0.414235 0.250000 0.721098
Si Si3 0.577937 0.125689 0.978816
Si Si4 0.076452 0.068052 0.247556
Si Si5 0.914247 0.611895 0.317863
Si Si6 0.578741 0.323768 0.163484
Si Si7 0.079965 0.458401 0.852387
Si Si8 0.922389 0.250000 0.888484
O O1 0.750000 0.009480 0.569329
O O2 0.962720 0.954429 0.656606
O O3 0.000000 0.000000 0.500000
O O4 0.966113 0.077226 0.625041
O O5 0.250000 0.250000 0.762527
O O6 0.433645 0.313007 0.664226
O O7 0.541076 0.250000 0.790138
O O8 0.750000 0.115734 0.960423
O O9 0.491596 0.064814 0.941159
O O10 0.511777 0.187480 0.932084
O O11 0.546845 0.136736 0.077792
O O12 0.250000 0.066552 0.231925
O O13 0.013805 0.139736 0.236365
O O14 0.999711 0.022101 0.179184
O O15 0.750000 0.589174 0.343788
O O16 0.940071 0.596925 0.218185
O O17 0.750000 0.325982 0.186831
O O18 0.527363 0.250000 0.155983
O O19 0.250000 0.475096 0.869160
O O20 0.750000 0.250000 0.904163
#
# Coordination Sequence:
#
# PCOD8239447 Si02
#       8
#     8   4   8   8   8   8   8   4
#     4  10  21  38  62  86 108 133 170 216 266 326
#     4  10  18  30  48  76 113 148 179 218 263 314
#     4  10  19  32  50  75 108 147 190 233 273 313
#     4  10  22  39  58  83 111 139 175 222 276 329
#     4   9  18  31  50  78 112 145 177 212 260 315
#     4  10  21  38  58  79 106 145 191 233 273 319
#     4  10  19  32  52  78 109 146 186 227 270 318
#     4  10  18  28  46  72 105 146 187 226 267 308
#
# _framework density 18.630628000000002
#
# number of rings (size 3 to 8) (size 9 to 14) (size 15 to 20)
#    0.000    2.143    2.143    1.286    0.000    4.286 
#    0.000    0.000    1.571    0.000    0.000    0.000 
#    0.000    0.000    0.000    0.000    0.000    0.000 
#
# Total GULP energy -694321.681380 kJ/mol
# GULP energy per Si atom -12398.601453 kJ/mol
# Density = 1.858822 g / cm^3
# Si number density = 18.630628 Si / 1000 Ang^3
#
#
#
# Elastic Constant Matrix: (Units=GPa)
#
#
# Indices 1 2 3 4 5 6 
#
# 1 80.2949 52.3965 52.4067 0.0000 0.0000 0.0000
# 2 52.3965 102.7563 54.4134 0.0000 0.0000 0.0000
# 3 52.4067 54.4134 89.4457 0.0000 0.0000 0.0000
# 4 0.0000 0.0000 0.0000 16.8392 0.0000 0.0000
# 5 0.0000 0.0000 0.0000 0.0000 29.8781 0.0000
# 6 0.0000 0.0000 0.0000 0.0000 0.0000 30.7637
#
#
#
# Elastic Compliance Matrix: (Units=1/GPa)
#
#
# Indices 1 2 3 4 5 6 
#
# 1 0.022964 -0.006763 -0.009340 0.000000 0.000000 0.000000
# 2 -0.006763 0.016349 -0.005983 0.000000 0.000000 0.000000
# 3 -0.009340 -0.005983 0.020292 0.000000 0.000000 0.000000
# 4 0.000000 0.000000 0.000000 0.059385 0.000000 0.000000
# 5 0.000000 0.000000 0.000000 0.000000 0.033469 0.000000
# 6 0.000000 0.000000 0.000000 0.000000 0.000000 0.032506
#
#
# Mechanical properties :
#
#
# Convention : Reuss Voigt Hill
#
# Bulk Modulus (GPa) = 64.80204 65.65891 65.23047
# Shear Modulus (GPa) = 21.34191 23.04824 22.19508
#
# Velocity S-wave (km/s) = 3.38824 3.52108 3.45530
# Velocity P-wave (km/s) = 7.08272 7.20067 7.14194
#
# Compressibility (1/GPa) = 0.01543161
#
# Stress axis : x y z
#
# Youngs Moduli (GPa) = 43.54715 61.16715 49.28078
#
# Poissons Ratio (x) = 0.41370 0.46028
# Poissons Ratio (y) = 0.29453 0.29484
# Poissons Ratio (z) = 0.40673 0.36595
#
# Static dielectric constant tensor:
#      x y z
#    x 3.385130 0.000000 0.000000 
#    y 0.000000 3.543390 0.000000 
#    z 0.000000 0.000000 3.205290 
# 
# 
# High freq. dielectric constant tensor:
#      x y z
#    x 1.723140 0.000000 0.000000 
#    y 0.000000 1.727930 0.000000 
#    z 0.000000 0.000000 1.693920 
# 
# From -- ./inp_files/21211.got.cif
#   From: 2010.03.12/outbox.cif.g09.slc.cpg/sg59_11_cif.got.tgz:21211.got - 2010.04.16 16:29:54.
