data_PCOD8239876
_publ_section_title
;
Structure prediction by ZEFSAII (Michael W. Deem and Ramdas Pophale) SiO2 
 PCOD8239876
Probable space group: P M M N
;
_chemical_formula_sum "Si O2"
_cell_formula_units_Z 64
_cell_length_a 14.635784
_cell_length_b 9.213059
_cell_length_c 26.052816
_cell_angle_alpha 90.000000
_cell_angle_beta 90.000000
_cell_angle_gamma 90.000000
_cell_volume 3512.970607
_symmetry_space_group_name_H-M "P M M N"
_symmetry_group_IT_number 59
_space_group.IT_coordinate_system_code '2'
_symmetry_cell_setting 'orthorhombic'
loop_
_space_group_symop_operation_xyz
x,y,z
1/2-x,1/2-y,z
1/2+x,-y,-z
-x,1/2+y,-z
-x,-y,-z
1/2+x,1/2+y,-z
1/2-x,y,z
x,1/2-y,z
loop_
_atom_site_type_symbol
_atom_site_label
_atom_site_fract_x
_atom_site_fract_y
_atom_site_fract_z
Si Si1 0.643509 0.419010 0.873841
Si Si2 0.847883 0.921707 0.392003
Si Si3 0.991620 0.077684 0.677746
Si Si4 0.855588 0.080864 0.135005
Si Si5 0.490083 0.419323 0.793352
Si Si6 0.352890 0.088901 0.386762
Si Si7 0.094024 0.420404 0.498373
Si Si8 0.509137 0.920757 0.946439
O O1 0.750000 0.462647 0.865680
O O2 0.635683 0.250000 0.889161
O O3 0.585846 0.451531 0.822218
O O4 0.598769 0.514993 0.918625
O O5 0.750000 0.971614 0.369900
O O6 0.858003 0.750000 0.389966
O O7 0.925365 0.989477 0.355689
O O8 0.851916 0.973596 0.451180
O O9 0.989619 0.250000 0.677191
O O10 0.998905 0.020349 0.735793
O O11 0.900120 0.022075 0.651553
O O12 0.750000 0.029793 0.127040
O O13 0.858777 0.250000 0.148144
O O14 0.915260 0.047064 0.084286
O O15 0.902440 0.997472 0.182082
O O16 0.467179 0.250000 0.794080
O O17 0.250000 0.093524 0.367869
O O18 0.396990 0.250000 0.382536
O O19 0.354839 0.035506 0.445995
O O20 0.077400 0.250000 0.501053
O O21 0.000000 0.500000 0.500000
O O22 0.524282 0.750000 0.954336
O O23 0.500000 0.000000 0.000000
#
# Coordination Sequence:
#
# PCOD8239876 Si02
#       8
#     8   8   8   8   8   8   8   8
#     4   9  18  34  54  74 101 140 181 219 263 311
#     4   9  17  30  49  72  98 129 164 201 248 307
#     4  10  20  34  53  78 104 131 167 212 260 306
#     4   9  19  36  56  77 104 142 182 215 255 308
#     4   9  19  34  53  78 105 133 171 220 266 308
#     4  10  21  35  51  73 101 134 170 207 252 308
#     4  10  18  31  52  72  95 129 167 206 251 305
#     4  10  20  34  53  80 113 144 177 217 259 305
#
# _framework density 18.2182
#
# number of rings (size 3 to 8) (size 9 to 14) (size 15 to 20)
#    0.000    2.500    1.250    0.750    0.000    4.750 
#    0.000    3.750    0.000    2.250    0.000    0.000 
#    0.000    0.000    0.000    0.000    0.000    0.000 
#
# Total GULP energy -793325.579032 kJ/mol
# GULP energy per Si atom -12395.712172 kJ/mol
# Density = 1.817673 g / cm^3
# Si number density = 18.218200 Si / 1000 Ang^3
#
#
#
# Elastic Constant Matrix: (Units=GPa)
#
#
# Indices 1 2 3 4 5 6 
#
# 1 139.8250 37.5989 63.1012 0.0000 0.0000 0.0000
# 2 37.5989 39.2726 47.9671 0.0000 0.0000 0.0000
# 3 63.1012 47.9671 153.0512 0.0000 0.0000 0.0000
# 4 0.0000 0.0000 0.0000 23.6501 0.0000 0.0000
# 5 0.0000 0.0000 0.0000 0.0000 -3.7032 0.0000
# 6 0.0000 0.0000 0.0000 0.0000 0.0000 28.3186
#
#
#
# Elastic Compliance Matrix: (Units=1/GPa)
#
#
# Indices 1 2 3 4 5 6 
#
# 1 0.009930 -0.007301 -0.001806 0.000000 0.000000 0.000000
# 2 -0.007301 0.046624 -0.011602 0.000000 0.000000 0.000000
# 3 -0.001806 -0.011602 0.010914 0.000000 0.000000 0.000000
# 4 0.000000 0.000000 0.000000 0.042283 0.000000 0.000000
# 5 0.000000 0.000000 0.000000 0.000000 -0.270039 0.000000
# 6 0.000000 0.000000 0.000000 0.000000 0.000000 0.035312
#
#
# Mechanical properties :
#
#
# Convention : Reuss Voigt Hill
#
# Bulk Modulus (GPa) = 38.38758 69.94257 54.16508
# Shear Modulus (GPa) = -66.77875 21.88522 -22.44676
#
# Velocity S-wave (km/s) = -6.06090 3.46971 -3.51395
# Velocity P-wave (km/s) = 5.27851 7.38423 3.65131
#
# Compressibility (1/GPa) = 0.02605009
#
# Stress axis : x y z
#
# Youngs Moduli (GPa) = 100.70452 21.44841 91.62271
#
# Poissons Ratio (x) = 0.15660 0.16545
# Poissons Ratio (y) = 0.73528 1.06299
# Poissons Ratio (z) = 0.18185 0.24884
#
# Static dielectric constant tensor:
#      x y z
#    x 3.456390 0.000000 0.000000 
#    y 0.000000 3.187740 0.000000 
#    z 0.000000 0.000000 3.271830 
# 
# 
# High freq. dielectric constant tensor:
#      x y z
#    x 1.711220 0.000000 0.000000 
#    y 0.000000 1.686420 0.000000 
#    z 0.000000 0.000000 1.707080 
# 
# From -- ./inp_files/32261.got.cif
#   From: 2010.03.12/outbox.cif.g09.slc.cpg/sg59_17_cif.got.tgz:32261.got - 2010.04.16 16:29:54.
