data_PCOD8239592
_publ_section_title
;
Structure prediction by ZEFSAII (Michael W. Deem and Ramdas Pophale) SiO2 
 PCOD8239592
Probable space group: P M M N
;
_chemical_formula_sum "Si O2"
_cell_formula_units_Z 64
_cell_length_a 8.985205
_cell_length_b 24.469899
_cell_length_c 15.011521
_cell_angle_alpha 90.000000
_cell_angle_beta 90.000000
_cell_angle_gamma 90.000000
_cell_volume 3300.538971
_symmetry_space_group_name_H-M "P M M N"
_symmetry_group_IT_number 59
_space_group.IT_coordinate_system_code '2'
_symmetry_cell_setting 'orthorhombic'
loop_
_space_group_symop_operation_xyz
x,y,z
1/2-x,1/2-y,z
1/2+x,-y,-z
-x,1/2+y,-z
-x,-y,-z
1/2+x,1/2+y,-z
1/2-x,y,z
x,1/2-y,z
loop_
_atom_site_type_symbol
_atom_site_label
_atom_site_fract_x
_atom_site_fract_y
_atom_site_fract_z
Si Si1 0.923369 0.813379 0.429761
Si Si2 0.913179 0.507070 0.244408
Si Si3 0.921226 0.312764 0.388758
Si Si4 0.073862 0.886023 0.281698
Si Si5 0.413506 0.453593 0.952714
Si Si6 0.575326 0.149975 0.913212
Si Si7 0.578317 0.689597 0.926997
Si Si8 0.573897 0.116062 0.219774
O O1 0.750000 0.826549 0.420679
O O2 0.958317 0.750000 0.410422
O O3 0.976571 0.829456 0.528242
O O4 0.013594 0.849270 0.360529
O O5 0.750000 0.503581 0.291542
O O6 0.889581 0.531382 0.148240
O O7 0.983975 0.446139 0.237082
O O8 0.016319 0.551485 0.294777
O O9 0.750000 0.323471 0.414833
O O10 0.946932 0.250000 0.361601
O O11 0.971518 0.349448 0.306208
O O12 0.250000 0.889099 0.285294
O O13 0.022971 0.855908 0.189725
O O14 0.250000 0.442386 0.995460
O O15 0.524848 0.403727 0.966014
O O16 0.500000 0.500000 0.000000
O O17 0.750000 0.159734 0.918722
O O18 0.492084 0.195352 0.972761
O O19 0.750000 0.673607 0.936750
O O20 0.559424 0.750000 0.883653
O O21 0.501006 0.643661 0.865947
O O22 0.750000 0.115854 0.202700
#
# Coordination Sequence:
#
# PCOD8239592 Si02
#       8
#     8   8   8   8   8   8   8   8
#     4  10  21  37  59  85 111 141 177 221 275 332
#     4   9  19  34  52  77 109 143 181 224 270 325
#     4   9  18  34  57  84 112 142 180 227 275 325
#     4  10  21  37  58  83 111 144 183 228 276 327
#     4  10  18  29  48  73 102 137 177 222 267 313
#     4  10  21  36  53  74 102 139 181 223 269 321
#     4  11  24  38  53  78 112 148 186 231 281 334
#     4  10  20  36  59  84 111 147 188 229 276 328
#
# _framework density 19.390772999999999
#
# number of rings (size 3 to 8) (size 9 to 14) (size 15 to 20)
#    0.000    2.125    0.000    3.000    0.000    6.750 
#    0.000    4.375    0.000    0.000    0.000    0.000 
#    0.000    0.000    0.000    0.000    0.000    0.000 
#
# Total GULP energy -793159.411135 kJ/mol
# GULP energy per Si atom -12393.115799 kJ/mol
# Density = 1.934664 g / cm^3
# Si number density = 19.390773 Si / 1000 Ang^3
#
#
#
# Elastic Constant Matrix: (Units=GPa)
#
#
# Indices 1 2 3 4 5 6 
#
# 1 63.8399 36.3538 39.9754 0.0000 0.0000 0.0000
# 2 36.3538 105.1030 49.4525 0.0000 0.0000 0.0000
# 3 39.9754 49.4525 82.3378 0.0000 0.0000 0.0000
# 4 0.0000 0.0000 0.0000 33.7387 0.0000 0.0000
# 5 0.0000 0.0000 0.0000 0.0000 26.1011 0.0000
# 6 0.0000 0.0000 0.0000 0.0000 0.0000 28.0609
#
#
#
# Elastic Compliance Matrix: (Units=1/GPa)
#
#
# Indices 1 2 3 4 5 6 
#
# 1 0.023579 -0.003860 -0.009129 0.000000 0.000000 0.000000
# 2 -0.003860 0.013894 -0.006471 0.000000 0.000000 0.000000
# 3 -0.009129 -0.006471 0.020464 0.000000 0.000000 0.000000
# 4 0.000000 0.000000 0.000000 0.029640 0.000000 0.000000
# 5 0.000000 0.000000 0.000000 0.000000 0.038313 0.000000
# 6 0.000000 0.000000 0.000000 0.000000 0.000000 0.035637
#
#
# Mechanical properties :
#
#
# Convention : Reuss Voigt Hill
#
# Bulk Modulus (GPa) = 52.58599 55.87159 54.22879
# Shear Modulus (GPa) = 24.17967 25.94674 25.06321
#
# Velocity S-wave (km/s) = 3.53507 3.66197 3.59908
# Velocity P-wave (km/s) = 6.62120 6.83784 6.73039
#
# Compressibility (1/GPa) = 0.01901647
#
# Stress axis : x y z
#
# Youngs Moduli (GPa) = 42.41073 71.97188 48.86685
#
# Poissons Ratio (x) = 0.27783 0.44612
# Poissons Ratio (y) = 0.16372 0.31621
# Poissons Ratio (z) = 0.38718 0.46572
#
# Static dielectric constant tensor:
#      x y z
#    x 3.671040 0.000000 0.000000 
#    y 0.000000 3.640700 0.000000 
#    z 0.000000 0.000000 3.348400 
# 
# 
# High freq. dielectric constant tensor:
#      x y z
#    x 1.758230 0.000000 0.000000 
#    y 0.000000 1.760420 0.000000 
#    z 0.000000 0.000000 1.739880 
# 
# From -- ./inp_files/21418.got.cif
#   From: 2010.03.12/outbox.cif.g09.slc.cpg/sg59_11_cif.got.tgz:21418.got - 2010.04.16 16:29:54.
