data_PCOD8239266
_publ_section_title
;
Structure prediction by ZEFSAII (Michael W. Deem and Ramdas Pophale) SiO2 
 PCOD8239266
Probable space group: P M M N
;
_chemical_formula_sum "Si O2"
_cell_formula_units_Z 56
_cell_length_a 24.502531
_cell_length_b 9.223078
_cell_length_c 16.352953
_cell_angle_alpha 90.000000
_cell_angle_beta 90.000000
_cell_angle_gamma 90.000000
_cell_volume 3695.583483
_symmetry_space_group_name_H-M "P M M N"
_symmetry_group_IT_number 59
_space_group.IT_coordinate_system_code '2'
_symmetry_cell_setting 'orthorhombic'
loop_
_space_group_symop_operation_xyz
x,y,z
1/2-x,1/2-y,z
1/2+x,-y,-z
-x,1/2+y,-z
-x,-y,-z
1/2+x,1/2+y,-z
1/2-x,y,z
x,1/2-y,z
loop_
_atom_site_type_symbol
_atom_site_label
_atom_site_fract_x
_atom_site_fract_y
_atom_site_fract_z
Si Si1 0.497444 0.081056 0.194339
Si Si2 0.397401 0.420452 0.874325
Si Si3 0.579866 0.918266 0.474280
Si Si4 0.491355 0.419431 0.377440
Si Si5 0.550350 0.915116 0.966900
Si Si6 0.811103 0.582310 0.394163
Si Si7 0.813362 0.415982 0.229467
O O1 0.514946 0.250000 0.192584
O O2 0.476951 0.036055 0.284530
O O3 0.446245 0.052832 0.131072
O O4 0.549392 0.985078 0.170099
O O5 0.394246 0.250000 0.854600
O O6 0.343814 0.499379 0.842277
O O7 0.398396 0.450798 0.973543
O O8 0.568009 0.750000 0.459901
O O9 0.559461 0.966350 0.564550
O O10 0.644568 0.952031 0.465070
O O11 0.546669 0.002107 0.404610
O O12 0.502717 0.250000 0.385037
O O13 0.534748 0.750000 0.980784
O O14 0.500000 0.000000 0.000000
O O15 0.750000 0.543823 0.426257
O O16 0.814073 0.750000 0.367609
O O17 0.827004 0.486969 0.316330
O O18 0.750000 0.428494 0.208810
O O19 0.833029 0.250000 0.232545
#
# Coordination Sequence:
#
# PCOD8239266 Si02
#       7
#     8   8   8   8   8   8   8
#     4   9  16  27  42  59  81 108 136 163 193 232
#     4  10  18  27  41  60  82 107 133 163 199 235
#     4   9  17  28  40  57  81 106 133 164 198 237
#     4   9  17  27  40  58  80 108 136 162 195 235
#     4   8  15  26  39  57  79 103 130 159 191 228
#     4   9  17  29  44  60  79 104 133 165 200 237
#     4  10  20  31  42  58  80 105 134 165 196 234
#
# _framework density 15.153223000000001
#
# number of rings (size 3 to 8) (size 9 to 14) (size 15 to 20)
#    0.000    2.857    0.000    1.714    0.000    4.857 
#    0.000    0.000    0.000    0.000    0.000    1.000 
#    0.000    5.714    0.000    3.857    0.000    3.857 
#
# Total GULP energy -693774.540846 kJ/mol
# GULP energy per Si atom -12388.831087 kJ/mol
# Density = 1.511873 g / cm^3
# Si number density = 15.153223 Si / 1000 Ang^3
#
#
#
# Elastic Constant Matrix: (Units=GPa)
#
#
# Indices 1 2 3 4 5 6 
#
# 1 80.3831 30.5541 56.9728 0.0000 0.0000 0.0000
# 2 30.5541 52.5735 36.5401 0.0000 0.0000 0.0000
# 3 56.9728 36.5401 124.8502 0.0000 0.0000 0.0000
# 4 0.0000 0.0000 0.0000 17.0795 0.0000 0.0000
# 5 0.0000 0.0000 0.0000 0.0000 24.8939 0.0000
# 6 0.0000 0.0000 0.0000 0.0000 0.0000 19.7570
#
#
#
# Elastic Compliance Matrix: (Units=1/GPa)
#
#
# Indices 1 2 3 4 5 6 
#
# 1 0.020087 -0.006657 -0.007218 0.000000 0.000000 0.000000
# 2 -0.006657 0.026084 -0.004596 0.000000 0.000000 0.000000
# 3 -0.007218 -0.004596 0.012648 0.000000 0.000000 0.000000
# 4 0.000000 0.000000 0.000000 0.058550 0.000000 0.000000
# 5 0.000000 0.000000 0.000000 0.000000 0.040170 0.000000
# 6 0.000000 0.000000 0.000000 0.000000 0.000000 0.050615
#
#
# Mechanical properties :
#
#
# Convention : Reuss Voigt Hill
#
# Bulk Modulus (GPa) = 45.70990 56.21565 50.96278
# Shear Modulus (GPa) = 19.81066 21.26207 20.53637
#
# Velocity S-wave (km/s) = 3.61966 3.74991 3.68536
# Velocity P-wave (km/s) = 6.90651 7.47849 7.19818
#
# Compressibility (1/GPa) = 0.02187710
#
# Stress axis : x y z
#
# Youngs Moduli (GPa) = 49.78464 38.33699 79.06083
#
# Poissons Ratio (x) = 0.25521 0.57064
# Poissons Ratio (y) = 0.33142 0.36339
# Poissons Ratio (z) = 0.35933 0.17621
#
# Static dielectric constant tensor:
#      x y z
#    x 2.848090 0.000000 0.000000 
#    y 0.000000 2.986180 0.000000 
#    z 0.000000 0.000000 3.341320 
# 
# 
# High freq. dielectric constant tensor:
#      x y z
#    x 1.550520 0.000000 0.000000 
#    y 0.000000 1.589700 0.000000 
#    z 0.000000 0.000000 1.576670 
# 
# From -- ./inp_files/26383.got.cif
#   From: 2010.03.12/outbox.cif.g09.slc.cpg/sg59_14_cif.got.tgz:26383.got - 2010.04.16 16:29:54.
