data_PCOD8239546
_publ_section_title
;
Structure prediction by ZEFSAII (Michael W. Deem and Ramdas Pophale) SiO2 
 PCOD8239546
Probable space group: P M M N
;
_chemical_formula_sum "Si O2"
_cell_formula_units_Z 64
_cell_length_a 9.071572
_cell_length_b 27.317793
_cell_length_c 14.832782
_cell_angle_alpha 90.000000
_cell_angle_beta 90.000000
_cell_angle_gamma 90.000000
_cell_volume 3675.790708
_symmetry_space_group_name_H-M "P M M N"
_symmetry_group_IT_number 59
_space_group.IT_coordinate_system_code '2'
_symmetry_cell_setting 'orthorhombic'
loop_
_space_group_symop_operation_xyz
x,y,z
1/2-x,1/2-y,z
1/2+x,-y,-z
-x,1/2+y,-z
-x,-y,-z
1/2+x,1/2+y,-z
1/2-x,y,z
x,1/2-y,z
loop_
_atom_site_type_symbol
_atom_site_label
_atom_site_fract_x
_atom_site_fract_y
_atom_site_fract_z
Si Si1 0.420715 0.464644 0.660358
Si Si2 0.076076 0.928097 0.852774
Si Si3 0.078514 0.527972 0.156565
Si Si4 0.922445 0.693750 0.156394
Si Si5 0.418212 0.879923 0.033799
Si Si6 0.575293 0.109570 0.531511
Si Si7 0.081321 0.921757 0.656371
Si Si8 0.421949 0.694591 0.337849
O O1 0.250000 0.450493 0.670212
O O2 0.501483 0.452041 0.753490
O O3 0.494170 0.434079 0.581509
O O4 0.441805 0.521209 0.635270
O O5 0.250000 0.940625 0.846460
O O6 0.013938 0.909162 0.755323
O O7 0.044963 0.886863 0.927773
O O8 0.994290 0.978115 0.878995
O O9 0.250000 0.519023 0.176312
O O10 0.052534 0.568253 0.080337
O O11 0.750000 0.686549 0.166656
O O12 0.965824 0.750000 0.138402
O O13 0.978190 0.662361 0.072130
O O14 0.995712 0.674998 0.249032
O O15 0.250000 0.863202 0.047902
O O16 0.750000 0.099510 0.535310
O O17 0.515495 0.109314 0.427707
O O18 0.534197 0.161403 0.576743
O O19 0.250000 0.907196 0.662395
O O20 0.250000 0.690864 0.316392
O O21 0.469856 0.750000 0.361202
#
# Coordination Sequence:
#
# PCOD8239546 Si02
#       8
#     8   8   8   8   8   8   8   8
#     4  10  19  30  44  65  94 125 155 189 230 274
#     4   9  18  33  49  67  94 127 160 192 230 273
#     4  10  19  30  45  69  98 126 158 193 230 274
#     4  10  21  35  51  72  96 121 151 189 232 278
#     4  10  20  32  49  71  95 125 158 192 232 279
#     4  10  18  29  47  68  90 119 154 189 227 272
#     4   8  16  30  46  64  90 123 154 188 227 265
#     4   9  18  32  49  69  93 119 146 180 226 277
#
# _framework density 17.41122
#
# number of rings (size 3 to 8) (size 9 to 14) (size 15 to 20)
#    0.000    2.500    0.000    3.375    0.000    5.750 
#    0.000    2.500    0.000    0.750    0.000    3.500 
#    0.000    2.000    0.000    0.000    0.000    0.000 
#
# Total GULP energy -793446.537656 kJ/mol
# GULP energy per Si atom -12397.602151 kJ/mol
# Density = 1.737159 g / cm^3
# Si number density = 17.411220 Si / 1000 Ang^3
#
#
#
# Elastic Constant Matrix: (Units=GPa)
#
#
# Indices 1 2 3 4 5 6 
#
# 1 55.9524 32.9120 42.2008 0.0000 0.0000 0.0000
# 2 32.9120 63.5234 61.3961 0.0000 0.0000 0.0000
# 3 42.2008 61.3961 139.2231 0.0000 0.0000 0.0000
# 4 0.0000 0.0000 0.0000 25.3822 0.0000 0.0000
# 5 0.0000 0.0000 0.0000 0.0000 17.3049 0.0000
# 6 0.0000 0.0000 0.0000 0.0000 0.0000 23.6451
#
#
#
# Elastic Compliance Matrix: (Units=1/GPa)
#
#
# Indices 1 2 3 4 5 6 
#
# 1 0.026632 -0.010450 -0.003464 0.000000 0.000000 0.000000
# 2 -0.010450 0.031537 -0.010740 0.000000 0.000000 0.000000
# 3 -0.003464 -0.010740 0.012969 0.000000 0.000000 0.000000
# 4 0.000000 0.000000 0.000000 0.039398 0.000000 0.000000
# 5 0.000000 0.000000 0.000000 0.000000 0.057787 0.000000
# 6 0.000000 0.000000 0.000000 0.000000 0.000000 0.042292
#
#
# Mechanical properties :
#
#
# Convention : Reuss Voigt Hill
#
# Bulk Modulus (GPa) = 45.80973 59.07963 52.44468
# Shear Modulus (GPa) = 18.71264 21.41244 20.06254
#
# Velocity S-wave (km/s) = 3.28189 3.51066 3.39820
# Velocity P-wave (km/s) = 6.38190 7.10202 6.75156
#
# Compressibility (1/GPa) = 0.02182942
#
# Stress axis : x y z
#
# Youngs Moduli (GPa) = 37.54879 31.70919 77.10751
#
# Poissons Ratio (x) = 0.33136 0.26712
# Poissons Ratio (y) = 0.39239 0.82812
# Poissons Ratio (z) = 0.13008 0.34055
#
# Static dielectric constant tensor:
#      x y z
#    x 3.182730 0.000000 0.000000 
#    y 0.000000 3.103390 0.000000 
#    z 0.000000 0.000000 3.559860 
# 
# 
# High freq. dielectric constant tensor:
#      x y z
#    x 1.663720 0.000000 0.000000 
#    y 0.000000 1.647970 0.000000 
#    z 0.000000 0.000000 1.679490 
# 
# From -- ./inp_files/21895.got.cif
#   From: 2010.03.12/outbox.cif.g09.slc.cpg/sg59_11_cif.got.tgz:21895.got - 2010.04.16 16:29:54.
