data_PCOD8239269
_publ_section_title
;
Structure prediction by ZEFSAII (Michael W. Deem and Ramdas Pophale) SiO2 
 PCOD8239269
Probable space group: P M M N
;
_chemical_formula_sum "Si O2"
_cell_formula_units_Z 64
_cell_length_a 9.027367
_cell_length_b 24.756571
_cell_length_c 18.277155
_cell_angle_alpha 90.000000
_cell_angle_beta 90.000000
_cell_angle_gamma 90.000000
_cell_volume 4084.700180
_symmetry_space_group_name_H-M "P M M N"
_symmetry_group_IT_number 59
_space_group.IT_coordinate_system_code '2'
_symmetry_cell_setting 'orthorhombic'
loop_
_space_group_symop_operation_xyz
x,y,z
1/2-x,1/2-y,z
1/2+x,-y,-z
-x,1/2+y,-z
-x,-y,-z
1/2+x,1/2+y,-z
1/2-x,y,z
x,1/2-y,z
loop_
_atom_site_type_symbol
_atom_site_label
_atom_site_fract_x
_atom_site_fract_y
_atom_site_fract_z
Si Si1 0.416348 0.577540 0.534419
Si Si2 0.076018 0.915471 0.005610
Si Si3 0.575716 0.504395 0.112210
Si Si4 0.417301 0.458151 0.600271
Si Si5 0.916804 0.004987 0.734028
Si Si6 0.924510 0.688155 0.952489
Si Si7 0.574459 0.809653 0.788230
Si Si8 0.915953 0.887507 0.666815
O O1 0.250000 0.596904 0.519401
O O2 0.419075 0.517988 0.567820
O O3 0.504067 0.581034 0.458071
O O4 0.490647 0.618081 0.592554
O O5 0.250000 0.912829 0.020525
O O6 0.998733 0.944273 0.073909
O O7 0.012298 0.854741 0.001796
O O8 0.039479 0.949412 0.932100
O O9 0.750000 0.514574 0.117014
O O10 0.509674 0.498954 0.192508
O O11 0.250000 0.438144 0.612826
O O12 0.503016 0.454192 0.677690
O O13 0.750000 0.025472 0.750826
O O14 0.910677 0.947986 0.694710
O O15 0.750000 0.676798 0.958761
O O16 0.958988 0.750000 0.977091
O O17 0.983702 0.678860 0.869900
O O18 0.750000 0.815536 0.790878
O O19 0.526523 0.750000 0.763276
O O20 0.506556 0.851244 0.729694
O O21 0.750000 0.866838 0.649932
#
# Coordination Sequence:
#
# PCOD8239269 Si02
#       8
#     8   8   8   8   8   8   8   8
#     4   9  16  25  37  54  77 105 136 168 201 237
#     4  10  20  32  46  64  87 115 147 184 223 262
#     4  10  20  32  45  62  86 117 150 182 219 264
#     4   9  16  26  39  55  78 106 135 167 201 239
#     4  10  18  27  41  61  84 110 141 175 212 254
#     4   9  17  30  48  67  87 114 147 182 221 264
#     4   8  14  25  41  60  81 107 141 177 209 244
#     4   9  16  25  39  58  80 109 142 174 208 247
#
# _framework density 15.668225
#
# number of rings (size 3 to 8) (size 9 to 14) (size 15 to 20)
#    0.000    2.750    0.000    3.375    0.000    6.250 
#    0.000    0.625    0.000    1.125    0.000    0.000 
#    0.000    1.000    0.000    6.000    0.000    4.625 
#
# Total GULP energy -793380.700645 kJ/mol
# GULP energy per Si atom -12396.573448 kJ/mol
# Density = 1.563256 g / cm^3
# Si number density = 15.668225 Si / 1000 Ang^3
#
#
#
# Elastic Constant Matrix: (Units=GPa)
#
#
# Indices 1 2 3 4 5 6 
#
# 1 89.4134 25.1037 30.1121 0.0000 0.0000 0.0000
# 2 25.1037 47.1145 7.7229 0.0000 0.0000 0.0000
# 3 30.1121 7.7229 51.0544 0.0000 0.0000 0.0000
# 4 0.0000 0.0000 0.0000 24.2581 0.0000 0.0000
# 5 0.0000 0.0000 0.0000 0.0000 28.5661 0.0000
# 6 0.0000 0.0000 0.0000 0.0000 0.0000 13.1207
#
#
#
# Elastic Compliance Matrix: (Units=1/GPa)
#
#
# Indices 1 2 3 4 5 6 
#
# 1 0.016009 -0.007160 -0.008359 0.000000 0.000000 0.000000
# 2 -0.007160 0.024967 0.000446 0.000000 0.000000 0.000000
# 3 -0.008359 0.000446 0.024450 0.000000 0.000000 0.000000
# 4 0.000000 0.000000 0.000000 0.041223 0.000000 0.000000
# 5 0.000000 0.000000 0.000000 0.000000 0.035007 0.000000
# 6 0.000000 0.000000 0.000000 0.000000 0.000000 0.076215
#
#
# Mechanical properties :
#
#
# Convention : Reuss Voigt Hill
#
# Bulk Modulus (GPa) = 28.34472 34.82885 31.58678
# Shear Modulus (GPa) = 19.24726 21.49855 20.37290
#
# Velocity S-wave (km/s) = 3.50869 3.70822 3.60984
# Velocity P-wave (km/s) = 5.87745 6.37274 6.13010
#
# Compressibility (1/GPa) = 0.03527994
#
# Stress axis : x y z
#
# Youngs Moduli (GPa) = 62.46311 40.05335 40.90006
#
# Poissons Ratio (x) = 0.28678 0.34190
# Poissons Ratio (y) = 0.44723 -0.01825
# Poissons Ratio (z) = 0.52215 -0.01788
#
# Static dielectric constant tensor:
#      x y z
#    x 3.056430 0.000000 0.000000 
#    y 0.000000 2.738380 0.000000 
#    z 0.000000 0.000000 3.012490 
# 
# 
# High freq. dielectric constant tensor:
#      x y z
#    x 1.604730 0.000000 0.000000 
#    y 0.000000 1.555960 0.000000 
#    z 0.000000 0.000000 1.594330 
# 
# From -- ./inp_files/26579.got.cif
#   From: 2010.03.12/outbox.cif.g09.slc.cpg/sg59_14_cif.got.tgz:26579.got - 2010.04.16 16:29:54.
