data_PCOD8239808
_publ_section_title
;
Structure prediction by ZEFSAII (Michael W. Deem and Ramdas Pophale) SiO2 
 PCOD8239808
Probable space group: P M M N
;
_chemical_formula_sum "Si O2"
_cell_formula_units_Z 48
_cell_length_a 18.063028
_cell_length_b 13.139581
_cell_length_c 10.516393
_cell_angle_alpha 90.000000
_cell_angle_beta 90.000000
_cell_angle_gamma 90.000000
_cell_volume 2495.967230
_symmetry_space_group_name_H-M "P M M N"
_symmetry_group_IT_number 59
_space_group.IT_coordinate_system_code '2'
_symmetry_cell_setting 'orthorhombic'
loop_
_space_group_symop_operation_xyz
x,y,z
1/2-x,1/2-y,z
1/2+x,-y,-z
-x,1/2+y,-z
-x,-y,-z
1/2+x,1/2+y,-z
1/2-x,y,z
x,1/2-y,z
loop_
_atom_site_type_symbol
_atom_site_label
_atom_site_fract_x
_atom_site_fract_y
_atom_site_fract_z
Si Si1 0.663545 0.750000 0.790063
Si Si2 0.166466 0.750000 0.511195
Si Si3 0.902403 0.558811 0.932286
Si Si4 0.529060 0.250000 0.659096
Si Si5 0.165933 0.861193 0.961429
Si Si6 0.532294 0.750000 0.608355
Si Si7 0.026781 0.063799 0.808800
Si Si8 0.091849 0.890767 0.697675
O O1 0.750000 0.750000 0.754518
O O2 0.645621 0.852359 0.868592
O O3 0.616304 0.750000 0.659397
O O4 0.250000 0.750000 0.461328
O O5 0.151918 0.851644 0.595349
O O6 0.113029 0.750000 0.390285
O O7 0.974180 0.530458 0.849885
O O8 0.856501 0.453417 0.945839
O O9 0.927468 0.603046 0.069382
O O10 0.468709 0.250000 0.545576
O O11 0.519624 0.347132 0.747495
O O12 0.250000 0.879112 0.917224
O O13 0.157635 0.750000 0.030255
O O14 0.114632 0.855306 0.837813
O O15 0.488315 0.652424 0.659447
O O16 0.082904 0.013809 0.703772
#
# Coordination Sequence:
#
# PCOD8239808 Si02
#       8
#     4   4   8   4   8   4   8   8
#     4  12  23  41  59  79 123 160 198 241 284 363
#     4  10  20  35  56  88 118 155 193 240 301 347
#     4  10  22  35  60  89 116 152 196 238 301 350
#     4  10  23  38  62  83 120 150 195 249 292 346
#     4  10  18  30  52  86 122 149 183 237 303 357
#     4  10  20  36  57  84 105 147 202 236 283 342
#     4  10  20  37  60  90 113 149 195 252 289 341
#     4   9  17  32  59  81 111 147 197 244 276 337
#
# _framework density 19.231021999999999
#
# number of rings (size 3 to 8) (size 9 to 14) (size 15 to 20)
#    0.000    2.167    3.333    1.500    1.167    2.667 
#    0.000    1.667    0.000    6.000    0.000    0.000 
#    0.000    0.000    0.000    0.000    0.000    0.000 
#
# Total GULP energy -594771.006885 kJ/mol
# GULP energy per Si atom -12391.062643 kJ/mol
# Density = 1.918725 g / cm^3
# Si number density = 19.231022 Si / 1000 Ang^3
#
#
#
# Elastic Constant Matrix: (Units=GPa)
#
#
# Indices 1 2 3 4 5 6 
#
# 1 114.4462 35.7796 34.0004 0.0000 0.0000 0.0000
# 2 35.7796 102.2945 37.6811 0.0000 0.0000 0.0000
# 3 34.0004 37.6811 68.8771 0.0000 0.0000 0.0000
# 4 0.0000 0.0000 0.0000 15.3498 0.0000 0.0000
# 5 0.0000 0.0000 0.0000 0.0000 19.4193 0.0000
# 6 0.0000 0.0000 0.0000 0.0000 0.0000 23.0779
#
#
#
# Elastic Compliance Matrix: (Units=1/GPa)
#
#
# Indices 1 2 3 4 5 6 
#
# 1 0.010633 -0.002236 -0.004025 0.000000 0.000000 0.000000
# 2 -0.002236 0.012713 -0.005851 0.000000 0.000000 0.000000
# 3 -0.004025 -0.005851 0.019707 0.000000 0.000000 0.000000
# 4 0.000000 0.000000 0.000000 0.065148 0.000000 0.000000
# 5 0.000000 0.000000 0.000000 0.000000 0.051495 0.000000
# 6 0.000000 0.000000 0.000000 0.000000 0.000000 0.043332
#
#
# Mechanical properties :
#
#
# Convention : Reuss Voigt Hill
#
# Bulk Modulus (GPa) = 53.11491 55.61556 54.36523
# Shear Modulus (GPa) = 21.41067 23.44648 22.42857
#
# Velocity S-wave (km/s) = 3.34029 3.49549 3.41878
# Velocity P-wave (km/s) = 6.52350 6.72858 6.62684
#
# Compressibility (1/GPa) = 0.01882710
#
# Stress axis : x y z
#
# Youngs Moduli (GPa) = 94.04924 78.65824 50.74399
#
# Poissons Ratio (x) = 0.17590 0.20426
# Poissons Ratio (y) = 0.21032 0.29691
# Poissons Ratio (z) = 0.37858 0.46025
#
# Static dielectric constant tensor:
#      x y z
#    x 3.433990 0.000000 0.000000 
#    y 0.000000 3.635270 0.000000 
#    z 0.000000 0.000000 3.334850 
# 
# 
# High freq. dielectric constant tensor:
#      x y z
#    x 1.735850 0.000000 0.000000 
#    y 0.000000 1.749170 0.000000 
#    z 0.000000 0.000000 1.730390 
# 
# From -- ./inp_files/10318.got.cif
#   From: 2010.03.12/outbox.cif.g09.slc.cpg/sg59_6_cif.got.tgz:10318.got - 2010.04.16 16:29:54.
