data_PCOD8239157
_publ_section_title
;
Structure prediction by ZEFSAII (Michael W. Deem and Ramdas Pophale) SiO2 
 PCOD8239157
Probable space group: P M M N
;
_chemical_formula_sum "Si O2"
_cell_formula_units_Z 56
_cell_length_a 13.990263
_cell_length_b 18.844078
_cell_length_c 13.101824
_cell_angle_alpha 90.000000
_cell_angle_beta 90.000000
_cell_angle_gamma 90.000000
_cell_volume 3454.081122
_symmetry_space_group_name_H-M "P M M N"
_symmetry_group_IT_number 59
_space_group.IT_coordinate_system_code '2'
_symmetry_cell_setting 'orthorhombic'
loop_
_space_group_symop_operation_xyz
x,y,z
1/2-x,1/2-y,z
1/2+x,-y,-z
-x,1/2+y,-z
-x,-y,-z
1/2+x,1/2+y,-z
1/2-x,y,z
x,1/2-y,z
loop_
_atom_site_type_symbol
_atom_site_label
_atom_site_fract_x
_atom_site_fract_y
_atom_site_fract_z
Si Si1 0.860315 0.119859 0.269112
Si Si2 0.950312 0.408977 0.653035
Si Si3 0.641150 0.952187 0.571664
Si Si4 0.490559 0.832317 0.551109
Si Si5 0.363193 0.671367 0.162794
Si Si6 0.643611 0.333999 0.056304
Si Si7 0.145897 0.036204 0.661801
O O1 0.750000 0.145177 0.276106
O O2 0.916402 0.161518 0.356647
O O3 0.908567 0.138354 0.158929
O O4 0.869384 0.035865 0.277694
O O5 0.914802 0.489536 0.637760
O O6 0.939366 0.361609 0.551476
O O7 0.888970 0.378997 0.744734
O O8 0.061498 0.409087 0.688772
O O9 0.750000 0.941698 0.611093
O O10 0.586314 0.876984 0.576769
O O11 0.640441 0.982743 0.457588
O O12 0.518868 0.750000 0.535616
O O13 0.250000 0.674947 0.151832
O O14 0.403973 0.750000 0.185798
O O15 0.404076 0.642961 0.052700
O O16 0.750000 0.366294 0.061285
O O17 0.646333 0.250000 0.057996
O O18 0.250000 0.070095 0.687964
#
# Coordination Sequence:
#
# PCOD8239157 Si02
#       7
#     8   8   8   8   8   8   8
#     4  10  17  29  48  71  96 120 150 191 237 279
#     4  11  18  32  49  72  94 125 157 194 235 281
#     4  10  19  33  49  65  94 134 164 187 226 282
#     4  11  21  31  46  73 100 121 155 196 237 280
#     4   9  18  31  47  69  96 125 155 190 234 280
#     4   8  15  28  44  64  93 126 154 182 227 285
#     4   9  17  30  48  67  93 125 155 187 230 281
#
# _framework density 16.212705
#
# number of rings (size 3 to 8) (size 9 to 14) (size 15 to 20)
#    0.000    2.286    2.857    3.000    0.000    1.714 
#    0.000    0.714    0.000    1.286    0.000    0.000 
#    0.000    1.143    0.000    0.000    0.000    0.000 
#
# Total GULP energy -693972.208502 kJ/mol
# GULP energy per Si atom -12392.360866 kJ/mol
# Density = 1.617580 g / cm^3
# Si number density = 16.212705 Si / 1000 Ang^3
#
#
#
# Elastic Constant Matrix: (Units=GPa)
#
#
# Indices 1 2 3 4 5 6 
#
# 1 63.0545 25.2508 31.8101 0.0000 0.0000 0.0000
# 2 25.2508 80.1158 43.6655 0.0000 0.0000 0.0000
# 3 31.8101 43.6655 109.8971 0.0000 0.0000 0.0000
# 4 0.0000 0.0000 0.0000 19.6330 0.0000 0.0000
# 5 0.0000 0.0000 0.0000 0.0000 10.3591 0.0000
# 6 0.0000 0.0000 0.0000 0.0000 0.0000 19.3151
#
#
#
# Elastic Compliance Matrix: (Units=1/GPa)
#
#
# Indices 1 2 3 4 5 6 
#
# 1 0.019488 -0.003916 -0.004085 0.000000 0.000000 0.000000
# 2 -0.003916 0.016719 -0.005510 0.000000 0.000000 0.000000
# 3 -0.004085 -0.005510 0.012471 0.000000 0.000000 0.000000
# 4 0.000000 0.000000 0.000000 0.050935 0.000000 0.000000
# 5 0.000000 0.000000 0.000000 0.000000 0.096534 0.000000
# 6 0.000000 0.000000 0.000000 0.000000 0.000000 0.051773
#
#
# Mechanical properties :
#
#
# Convention : Reuss Voigt Hill
#
# Bulk Modulus (GPa) = 46.17358 50.50225 48.33792
# Shear Modulus (GPa) = 17.72048 20.01751 18.86899
#
# Velocity S-wave (km/s) = 3.30964 3.51761 3.41521
# Velocity P-wave (km/s) = 6.56861 6.90765 6.74026
#
# Compressibility (1/GPa) = 0.02165740
#
# Stress axis : x y z
#
# Youngs Moduli (GPa) = 51.31282 59.81228 80.18627
#
# Poissons Ratio (x) = 0.23421 0.32757
# Poissons Ratio (y) = 0.20093 0.44179
# Poissons Ratio (z) = 0.20962 0.32954
#
# Static dielectric constant tensor:
#      x y z
#    x 3.112850 0.000000 0.000000 
#    y 0.000000 2.870060 0.000000 
#    z 0.000000 0.000000 3.196550 
# 
# 
# High freq. dielectric constant tensor:
#      x y z
#    x 1.603560 0.000000 0.000000 
#    y 0.000000 1.607240 0.000000 
#    z 0.000000 0.000000 1.620520 
# 
# From -- ./inp_files/23413.got.cif
#   From: 2010.03.12/outbox.cif.g09.slc.cpg/sg59_12_cif.got.tgz:23413.got - 2010.04.16 16:29:54.
