data_PCOD8239053
_publ_section_title
;
Structure prediction by ZEFSAII (Michael W. Deem and Ramdas Pophale) SiO2 
 PCOD8239053
Probable space group: P M M N
;
_chemical_formula_sum "Si O2"
_cell_formula_units_Z 48
_cell_length_a 9.148063
_cell_length_b 21.778125
_cell_length_c 15.249415
_cell_angle_alpha 90.000000
_cell_angle_beta 90.000000
_cell_angle_gamma 90.000000
_cell_volume 3038.105260
_symmetry_space_group_name_H-M "P M M N"
_symmetry_group_IT_number 59
_space_group.IT_coordinate_system_code '2'
_symmetry_cell_setting 'orthorhombic'
loop_
_space_group_symop_operation_xyz
x,y,z
1/2-x,1/2-y,z
1/2+x,-y,-z
-x,1/2+y,-z
-x,-y,-z
1/2+x,1/2+y,-z
1/2-x,y,z
x,1/2-y,z
loop_
_atom_site_type_symbol
_atom_site_label
_atom_site_fract_x
_atom_site_fract_y
_atom_site_fract_z
Si Si1 0.080549 0.452439 0.881173
Si Si2 0.576703 0.181772 0.191151
Si Si3 0.916582 0.439585 0.522629
Si Si4 0.080364 0.586690 0.952864
Si Si5 0.578183 0.034783 0.708328
Si Si6 0.921049 0.091321 0.338394
O O1 0.250000 0.436392 0.872947
O O2 0.052901 0.524138 0.899593
O O3 0.000756 0.434282 0.791023
O O4 0.013161 0.411410 0.958592
O O5 0.750000 0.185853 0.189292
O O6 0.507561 0.250000 0.186863
O O7 0.523622 0.142354 0.107672
O O8 0.525854 0.149377 0.281473
O O9 0.750000 0.459675 0.520955
O O10 0.954016 0.420462 0.623317
O O11 0.946822 0.391737 0.442433
O O12 0.000000 0.500000 0.500000
O O13 0.250000 0.593270 0.977839
O O14 0.750000 0.029004 0.728207
O O15 0.513870 0.967484 0.690098
O O16 0.750000 0.076881 0.319367
#
# Coordination Sequence:
#
# PCOD8239053 Si02
#       6
#     8   8   8   8   8   8
#     4  10  18  28  43  62  84 114 143 175 218 261
#     4   9  16  27  45  66  86 111 143 175 212 256
#     4   8  15  24  37  57  83 111 138 167 204 245
#     4   9  17  29  42  61  85 111 141 176 214 256
#     4  10  17  25  39  62  87 114 142 172 213 257
#     4   9  15  27  42  59  85 114 142 173 206 249
#
# _framework density 15.799322
#
# number of rings (size 3 to 8) (size 9 to 14) (size 15 to 20)
#    0.000    2.833    1.667    1.000    0.000    1.333 
#    0.000    0.000    0.000    2.000    0.000    1.167 
#    0.000    6.667    0.000    0.000    0.000    0.000 
#
# Total GULP energy -594645.247595 kJ/mol
# GULP energy per Si atom -12388.442658 kJ/mol
# Density = 1.576336 g / cm^3
# Si number density = 15.799322 Si / 1000 Ang^3
#
#
#
# Elastic Constant Matrix: (Units=GPa)
#
#
# Indices 1 2 3 4 5 6 
#
# 1 57.2098 17.3553 56.9989 0.0000 0.0000 0.0000
# 2 17.3553 66.9607 57.0312 0.0000 0.0000 0.0000
# 3 56.9989 57.0312 176.8473 0.0000 0.0000 0.0000
# 4 0.0000 0.0000 0.0000 17.5826 0.0000 0.0000
# 5 0.0000 0.0000 0.0000 0.0000 24.0849 0.0000
# 6 0.0000 0.0000 0.0000 0.0000 0.0000 10.0601
#
#
#
# Elastic Compliance Matrix: (Units=1/GPa)
#
#
# Indices 1 2 3 4 5 6 
#
# 1 0.025762 0.000544 -0.008479 0.000000 0.000000 0.000000
# 2 0.000544 0.020601 -0.006819 0.000000 0.000000 0.000000
# 3 -0.008479 -0.006819 0.010586 0.000000 0.000000 0.000000
# 4 0.000000 0.000000 0.000000 0.056874 0.000000 0.000000
# 5 0.000000 0.000000 0.000000 0.000000 0.041520 0.000000
# 6 0.000000 0.000000 0.000000 0.000000 0.000000 0.099403
#
#
# Mechanical properties :
#
#
# Convention : Reuss Voigt Hill
#
# Bulk Modulus (GPa) = 36.44008 62.64316 49.54162
# Shear Modulus (GPa) = 17.04156 21.65435 19.34795
#
# Velocity S-wave (km/s) = 3.28781 3.70616 3.50323
# Velocity P-wave (km/s) = 6.12595 7.61902 6.91292
#
# Compressibility (1/GPa) = 0.02744231
#
# Stress axis : x y z
#
# Youngs Moduli (GPa) = 38.81707 48.54170 94.46106
#
# Poissons Ratio (x) = -0.02642 0.80091
# Poissons Ratio (y) = -0.02113 0.64413
# Poissons Ratio (z) = 0.32912 0.33100
#
# Static dielectric constant tensor:
#      x y z
#    x 2.800940 0.000000 0.000000 
#    y 0.000000 2.716250 0.000000 
#    z 0.000000 0.000000 3.625410 
# 
# 
# High freq. dielectric constant tensor:
#      x y z
#    x 1.599720 0.000000 0.000000 
#    y 0.000000 1.540070 0.000000 
#    z 0.000000 0.000000 1.631650 
# 
# From -- ./inp_files/20686.got.cif
#   From: 2010.03.12/outbox.cif.g09.slc.cpg/sg59_11_cif.got.tgz:20686.got - 2010.04.16 16:29:54.
