data_PCOD8239687
_publ_section_title
;
Structure prediction by ZEFSAII (Michael W. Deem and Ramdas Pophale) SiO2 
 PCOD8239687
Probable space group: P M M N
;
_chemical_formula_sum "Si O2"
_cell_formula_units_Z 64
_cell_length_a 8.737742
_cell_length_b 21.584526
_cell_length_c 19.127553
_cell_angle_alpha 90.000000
_cell_angle_beta 90.000000
_cell_angle_gamma 90.000000
_cell_volume 3607.456866
_symmetry_space_group_name_H-M "P M M N"
_symmetry_group_IT_number 59
_space_group.IT_coordinate_system_code '2'
_symmetry_cell_setting 'orthorhombic'
loop_
_space_group_symop_operation_xyz
x,y,z
1/2-x,1/2-y,z
1/2+x,-y,-z
-x,1/2+y,-z
-x,-y,-z
1/2+x,1/2+y,-z
1/2-x,y,z
x,1/2-y,z
loop_
_atom_site_type_symbol
_atom_site_label
_atom_site_fract_x
_atom_site_fract_y
_atom_site_fract_z
Si Si1 0.070992 0.610050 0.412235
Si Si2 0.568245 0.559866 0.538330
Si Si3 0.423920 0.489325 0.187495
Si Si4 0.576440 0.370612 0.828888
Si Si5 0.069723 0.057555 0.041993
Si Si6 0.429305 0.319776 0.963664
Si Si7 0.922830 0.819698 0.302060
Si Si8 0.930518 0.492564 0.335236
O O1 0.250000 0.601692 0.424080
O O2 0.987626 0.615391 0.487908
O O3 0.029852 0.672239 0.370284
O O4 0.009885 0.555095 0.362252
O O5 0.500000 0.500000 0.500000
O O6 0.750000 0.557203 0.543454
O O7 0.495683 0.563613 0.616113
O O8 0.250000 0.476327 0.211573
O O9 0.436839 0.557188 0.152610
O O10 0.475806 0.444338 0.124234
O O11 0.530908 0.478926 0.254548
O O12 0.750000 0.350741 0.812520
O O13 0.514887 0.327885 0.890589
O O14 0.475180 0.363368 0.760251
O O15 0.250000 0.050833 0.033253
O O16 0.013558 0.125436 0.015430
O O17 0.000000 0.000000 0.000000
O O18 0.250000 0.326716 0.949491
O O19 0.466215 0.250000 0.992619
O O20 0.750000 0.837674 0.322501
O O21 0.936722 0.750000 0.275369
O O22 0.750000 0.498033 0.344570
#
# Coordination Sequence:
#
# PCOD8239687 Si02
#       8
#     8   8   8   8   8   8   8   8
#     4  11  20  32  49  70  98 131 168 208 250 299
#     4  10  18  30  48  70  98 129 161 199 243 292
#     4  10  20  33  49  73 102 135 170 211 260 313
#     4  11  21  33  51  73 101 136 174 213 255 307
#     4  10  20  35  54  74 102 134 171 215 262 315
#     4  10  21  36  54  76 102 135 174 216 262 313
#     4  11  23  36  49  68  97 135 178 217 253 300
#     4  11  20  31  49  73 100 130 164 204 251 304
#
# _framework density 17.741029000000001
#
# number of rings (size 3 to 8) (size 9 to 14) (size 15 to 20)
#    0.000    1.500    2.500    6.000    0.000    3.750 
#    0.000    0.000    0.000    0.000    0.000    0.875 
#    0.000    5.000    0.000    0.000    0.000    0.000 
#
# Total GULP energy -793352.173681 kJ/mol
# GULP energy per Si atom -12396.127714 kJ/mol
# Density = 1.770065 g / cm^3
# Si number density = 17.741029 Si / 1000 Ang^3
#
#
#
# Elastic Constant Matrix: (Units=GPa)
#
#
# Indices 1 2 3 4 5 6 
#
# 1 101.1790 25.5952 40.2137 0.0000 0.0000 0.0000
# 2 25.5952 71.4614 44.0454 0.0000 0.0000 0.0000
# 3 40.2137 44.0454 105.0064 0.0000 0.0000 0.0000
# 4 0.0000 0.0000 0.0000 22.7251 0.0000 0.0000
# 5 0.0000 0.0000 0.0000 0.0000 30.5861 0.0000
# 6 0.0000 0.0000 0.0000 0.0000 0.0000 18.9260
#
#
#
# Elastic Compliance Matrix: (Units=1/GPa)
#
#
# Indices 1 2 3 4 5 6 
#
# 1 0.011857 -0.001953 -0.003721 0.000000 0.000000 0.000000
# 2 -0.001953 0.019194 -0.007303 0.000000 0.000000 0.000000
# 3 -0.003721 -0.007303 0.014012 0.000000 0.000000 0.000000
# 4 0.000000 0.000000 0.000000 0.044004 0.000000 0.000000
# 5 0.000000 0.000000 0.000000 0.000000 0.032695 0.000000
# 6 0.000000 0.000000 0.000000 0.000000 0.000000 0.052837
#
#
# Mechanical properties :
#
#
# Convention : Reuss Voigt Hill
#
# Bulk Modulus (GPa) = 52.33557 55.26171 53.79864
# Shear Modulus (GPa) = 24.16353 25.63363 24.89858
#
# Velocity S-wave (km/s) = 3.69455 3.80528 3.75032
# Velocity P-wave (km/s) = 6.91111 7.10799 7.01024
#
# Compressibility (1/GPa) = 0.01910747
#
# Stress axis : x y z
#
# Youngs Moduli (GPa) = 84.34116 52.09841 71.36825
#
# Poissons Ratio (x) = 0.10174 0.26560
# Poissons Ratio (y) = 0.16471 0.52122
# Poissons Ratio (z) = 0.31388 0.38049
#
# Static dielectric constant tensor:
#      x y z
#    x 3.362900 0.000000 0.000000 
#    y 0.000000 3.279680 0.000000 
#    z 0.000000 0.000000 3.806830 
# 
# 
# High freq. dielectric constant tensor:
#      x y z
#    x 1.696790 0.000000 0.000000 
#    y 0.000000 1.646660 0.000000 
#    z 0.000000 0.000000 1.687250 
# 
# From -- ./inp_files/26556.got.cif
#   From: 2010.03.12/outbox.cif.g09.slc.cpg/sg59_14_cif.got.tgz:26556.got - 2010.04.16 16:29:54.
