data_PCOD8239503
_publ_section_title
;
Structure prediction by ZEFSAII (Michael W. Deem and Ramdas Pophale) SiO2 
 PCOD8239503
Probable space group: P M M N
;
_chemical_formula_sum "Si O2"
_cell_formula_units_Z 64
_cell_length_a 9.220640
_cell_length_b 19.628397
_cell_length_c 21.891507
_cell_angle_alpha 90.000000
_cell_angle_beta 90.000000
_cell_angle_gamma 90.000000
_cell_volume 3962.064660
_symmetry_space_group_name_H-M "P M M N"
_symmetry_group_IT_number 59
_space_group.IT_coordinate_system_code '2'
_symmetry_cell_setting 'orthorhombic'
loop_
_space_group_symop_operation_xyz
x,y,z
1/2-x,1/2-y,z
1/2+x,-y,-z
-x,1/2+y,-z
-x,-y,-z
1/2+x,1/2+y,-z
1/2-x,y,z
x,1/2-y,z
loop_
_atom_site_type_symbol
_atom_site_label
_atom_site_fract_x
_atom_site_fract_y
_atom_site_fract_z
Si Si1 0.086823 0.395920 0.010589
Si Si2 0.582426 0.327102 0.113730
Si Si3 0.083133 0.325054 0.513011
Si Si4 0.080113 0.467253 0.557809
Si Si5 0.578608 0.040764 0.188052
Si Si6 0.086707 0.966364 0.086673
Si Si7 0.079126 0.544422 0.676039
Si Si8 0.581024 0.175079 0.390474
O O1 0.250000 0.371735 0.995092
O O2 0.996281 0.405126 0.948015
O O3 0.090549 0.467496 0.044733
O O4 0.010842 0.339429 0.052789
O O5 0.750000 0.336518 0.095532
O O6 0.552476 0.250000 0.137685
O O7 0.540466 0.382116 0.165969
O O8 0.250000 0.323857 0.493810
O O9 0.037093 0.250000 0.538905
O O10 0.053634 0.385479 0.561315
O O11 0.995765 0.344432 0.452955
O O12 0.250000 0.485034 0.550965
O O13 0.017376 0.496086 0.622016
O O14 0.000000 0.500000 0.500000
O O15 0.750000 0.028469 0.183308
O O16 0.517321 0.029114 0.256660
O O17 0.498958 0.983628 0.148402
O O18 0.250000 0.942495 0.102258
O O19 0.250000 0.535379 0.678828
O O20 0.035074 0.622223 0.661561
O O21 0.750000 0.170195 0.404825
O O22 0.535924 0.250000 0.367291
#
# Coordination Sequence:
#
# PCOD8239503 Si02
#       8
#     8   8   8   8   8   8   8   8
#     4   9  16  26  43  65  86 111 142 177 217 254
#     4   9  17  28  42  62  89 120 151 180 211 251
#     4   9  17  28  42  61  84 110 139 174 222 278
#     4  10  18  29  45  64  87 113 144 188 238 283
#     4   9  17  29  43  59  84 118 152 184 218 264
#     4   9  16  27  43  63  86 109 139 181 221 257
#     4   9  17  28  42  62  86 113 150 190 229 271
#     4   9  16  26  41  60  83 111 143 180 220 266
#
# _framework density 16.153195
#
# number of rings (size 3 to 8) (size 9 to 14) (size 15 to 20)
#    0.000    2.875    1.250    0.750    0.000    3.750 
#    0.000    3.750    0.000    0.000    0.000    2.625 
#    0.000    3.000    0.000    0.000    0.000    0.000 
#
# Total GULP energy -793139.961114 kJ/mol
# GULP energy per Si atom -12392.811892 kJ/mol
# Density = 1.611643 g / cm^3
# Si number density = 16.153195 Si / 1000 Ang^3
#
#
#
# Elastic Constant Matrix: (Units=GPa)
#
#
# Indices 1 2 3 4 5 6 
#
# 1 54.4190 21.8814 39.2008 0.0000 0.0000 0.0000
# 2 21.8814 55.5564 53.6531 0.0000 0.0000 0.0000
# 3 39.2008 53.6531 126.8236 0.0000 0.0000 0.0000
# 4 0.0000 0.0000 0.0000 19.6700 0.0000 0.0000
# 5 0.0000 0.0000 0.0000 0.0000 19.4638 0.0000
# 6 0.0000 0.0000 0.0000 0.0000 0.0000 16.8385
#
#
#
# Elastic Compliance Matrix: (Units=1/GPa)
#
#
# Indices 1 2 3 4 5 6 
#
# 1 0.024127 -0.003890 -0.005812 0.000000 0.000000 0.000000
# 2 -0.003890 0.031061 -0.011938 0.000000 0.000000 0.000000
# 3 -0.005812 -0.011938 0.014732 0.000000 0.000000 0.000000
# 4 0.000000 0.000000 0.000000 0.050839 0.000000 0.000000
# 5 0.000000 0.000000 0.000000 0.000000 0.051378 0.000000
# 6 0.000000 0.000000 0.000000 0.000000 0.000000 0.059388
#
#
# Mechanical properties :
#
#
# Convention : Reuss Voigt Hill
#
# Bulk Modulus (GPa) = 37.53766 51.80772 44.67269
# Shear Modulus (GPa) = 17.62534 19.33204 18.47869
#
# Velocity S-wave (km/s) = 3.30682 3.46322 3.38592
# Velocity P-wave (km/s) = 6.15378 6.93789 6.55756
#
# Compressibility (1/GPa) = 0.02663991
#
# Stress axis : x y z
#
# Youngs Moduli (GPa) = 41.44810 32.19493 67.88007
#
# Poissons Ratio (x) = 0.12523 0.39451
# Poissons Ratio (y) = 0.16122 0.81036
# Poissons Ratio (z) = 0.24089 0.38435
#
# Static dielectric constant tensor:
#      x y z
#    x 2.109320 0.000000 0.000000 
#    y 0.000000 3.135870 0.000000 
#    z 0.000000 0.000000 3.091510 
# 
# 
# High freq. dielectric constant tensor:
#      x y z
#    x 1.613020 0.000000 0.000000 
#    y 0.000000 1.605770 0.000000 
#    z 0.000000 0.000000 1.597180 
# 
# From -- ./inp_files/29704.got.cif
#   From: 2010.03.12/outbox.cif.g09.slc.cpg/sg59_15_cif.got.tgz:29704.got - 2010.04.16 16:29:54.
