data_PCOD8239601
_publ_section_title
;
Structure prediction by ZEFSAII (Michael W. Deem and Ramdas Pophale) SiO2 
 PCOD8239601
Probable space group: P M M N
;
_chemical_formula_sum "Si O2"
_cell_formula_units_Z 64
_cell_length_a 20.299951
_cell_length_b 9.084449
_cell_length_c 19.864375
_cell_angle_alpha 90.000000
_cell_angle_beta 90.000000
_cell_angle_gamma 90.000000
_cell_volume 3663.266260
_symmetry_space_group_name_H-M "P M M N"
_symmetry_group_IT_number 59
_space_group.IT_coordinate_system_code '2'
_symmetry_cell_setting 'orthorhombic'
loop_
_space_group_symop_operation_xyz
x,y,z
1/2-x,1/2-y,z
1/2+x,-y,-z
-x,1/2+y,-z
-x,-y,-z
1/2+x,1/2+y,-z
1/2-x,y,z
x,1/2-y,z
loop_
_atom_site_type_symbol
_atom_site_label
_atom_site_fract_x
_atom_site_fract_y
_atom_site_fract_z
Si Si1 0.576576 0.075442 0.343072
Si Si2 0.675393 0.080209 0.583991
Si Si3 0.434695 0.922068 0.025097
Si Si4 0.821783 0.075685 0.070573
Si Si5 0.174305 0.422336 0.554291
Si Si6 0.595614 0.078521 0.193166
Si Si7 0.058168 0.922139 0.319341
Si Si8 0.034369 0.919283 0.170642
O O1 0.573379 0.250000 0.353112
O O2 0.605860 0.028682 0.270250
O O3 0.625719 0.007794 0.396824
O O4 0.503018 0.011016 0.351154
O O5 0.750000 0.054372 0.610153
O O6 0.665243 0.250000 0.562682
O O7 0.625311 0.033911 0.642945
O O8 0.659974 0.977858 0.520674
O O9 0.443255 0.750000 0.009849
O O10 0.420893 0.950593 0.104820
O O11 0.372610 0.988141 0.984400
O O12 0.500000 0.000000 0.000000
O O13 0.750000 0.005537 0.057419
O O14 0.818416 0.250000 0.062900
O O15 0.842428 0.033676 0.147043
O O16 0.250000 0.456323 0.574473
O O17 0.158980 0.250000 0.557814
O O18 0.581920 0.250000 0.190693
O O19 0.532462 0.006434 0.159469
O O20 0.042494 0.750000 0.327776
O O21 0.069434 0.965760 0.240764
O O22 0.014405 0.750000 0.174697
#
# Coordination Sequence:
#
# PCOD8239601 Si02
#       8
#     8   8   8   8   8   8   8   8
#     4  10  20  32  50  76 102 130 167 207 247 293
#     4   9  18  34  55  75  96 128 169 208 248 297
#     4  10  18  29  49  72  94 127 166 202 242 288
#     4   9  17  29  45  68  98 128 161 202 244 286
#     4  10  21  36  53  73  99 132 167 204 249 300
#     4   9  17  30  48  69  93 126 165 200 239 286
#     4   9  18  33  51  73 103 132 160 204 255 300
#     4   9  17  29  47  72  98 124 159 200 245 292
#
# _framework density 17.470746999999999
#
# number of rings (size 3 to 8) (size 9 to 14) (size 15 to 20)
#    0.000    2.625    1.250    0.750    0.000    2.750 
#    0.000    1.875    0.000    5.250    0.000    0.000 
#    0.000    3.000    0.000    0.000    0.000    0.000 
#
# Total GULP energy -793334.237244 kJ/mol
# GULP energy per Si atom -12395.847457 kJ/mol
# Density = 1.743098 g / cm^3
# Si number density = 17.470747 Si / 1000 Ang^3
#
#
#
# Elastic Constant Matrix: (Units=GPa)
#
#
# Indices 1 2 3 4 5 6 
#
# 1 142.0020 38.9833 87.9103 0.0000 0.0000 0.0000
# 2 38.9833 42.6248 35.1245 0.0000 0.0000 0.0000
# 3 87.9103 35.1245 114.8032 0.0000 0.0000 0.0000
# 4 0.0000 0.0000 0.0000 20.0568 0.0000 0.0000
# 5 0.0000 0.0000 0.0000 0.0000 28.3470 0.0000
# 6 0.0000 0.0000 0.0000 0.0000 0.0000 21.4425
#
#
#
# Elastic Compliance Matrix: (Units=1/GPa)
#
#
# Indices 1 2 3 4 5 6 
#
# 1 0.014265 -0.005409 -0.009269 0.000000 0.000000 0.000000
# 2 -0.005409 0.033420 -0.006083 0.000000 0.000000 0.000000
# 3 -0.009269 -0.006083 0.017669 0.000000 0.000000 0.000000
# 4 0.000000 0.000000 0.000000 0.049858 0.000000 0.000000
# 5 0.000000 0.000000 0.000000 0.000000 0.035277 0.000000
# 6 0.000000 0.000000 0.000000 0.000000 0.000000 0.046636
#
#
# Mechanical properties :
#
#
# Convention : Reuss Voigt Hill
#
# Bulk Modulus (GPa) = 41.95853 69.27401 55.61627
# Shear Modulus (GPa) = 20.27648 23.13005 21.70327
#
# Velocity S-wave (km/s) = 3.41045 3.64253 3.52840
# Velocity P-wave (km/s) = 6.29101 7.57814 6.96437
#
# Compressibility (1/GPa) = 0.02383306
#
# Stress axis : x y z
#
# Youngs Moduli (GPa) = 70.10217 29.92220 56.59578
#
# Poissons Ratio (x) = 0.16184 0.52456
# Poissons Ratio (y) = 0.37915 0.34429
# Poissons Ratio (z) = 0.64974 0.18203
#
# Static dielectric constant tensor:
#      x y z
#    x 3.397090 0.000000 0.000000 
#    y 0.000000 3.166510 0.000000 
#    z 0.000000 0.000000 3.524470 
# 
# 
# High freq. dielectric constant tensor:
#      x y z
#    x 1.662170 0.000000 0.000000 
#    y 0.000000 1.662910 0.000000 
#    z 0.000000 0.000000 1.684330 
# 
# From -- ./inp_files/28183.got.cif
#   From: 2010.03.12/outbox.cif.g09.slc.cpg/sg59_15_cif.got.tgz:28183.got - 2010.04.16 16:29:54.
