data_PCOD8239280
_publ_section_title
;
Structure prediction by ZEFSAII (Michael W. Deem and Ramdas Pophale) SiO2 
 PCOD8239280
Probable space group: P M M N
;
_chemical_formula_sum "Si O2"
_cell_formula_units_Z 64
_cell_length_a 25.558545
_cell_length_b 9.359975
_cell_length_c 17.117550
_cell_angle_alpha 90.000000
_cell_angle_beta 90.000000
_cell_angle_gamma 90.000000
_cell_volume 4094.985992
_symmetry_space_group_name_H-M "P M M N"
_symmetry_group_IT_number 59
_space_group.IT_coordinate_system_code '2'
_symmetry_cell_setting 'orthorhombic'
loop_
_space_group_symop_operation_xyz
x,y,z
1/2-x,1/2-y,z
1/2+x,-y,-z
-x,1/2+y,-z
-x,-y,-z
1/2+x,1/2+y,-z
1/2-x,y,z
x,1/2-y,z
loop_
_atom_site_type_symbol
_atom_site_label
_atom_site_fract_x
_atom_site_fract_y
_atom_site_fract_z
Si Si1 0.403781 0.081418 0.186323
Si Si2 0.443243 0.581988 0.328591
Si Si3 0.502536 0.417052 0.080408
Si Si4 0.689669 0.585800 0.091212
Si Si5 0.692283 0.580215 0.916432
Si Si6 0.551479 0.084685 0.333823
Si Si7 0.551646 0.411590 0.502664
Si Si8 0.604183 0.415961 0.177150
O O1 0.401727 0.250000 0.203061
O O2 0.453435 0.040161 0.133835
O O3 0.351583 0.025034 0.143131
O O4 0.405660 0.997170 0.267738
O O5 0.446162 0.750000 0.308780
O O6 0.501175 0.515759 0.324486
O O7 0.418058 0.554127 0.415932
O O8 0.501577 0.250000 0.061650
O O9 0.554715 0.463861 0.125452
O O10 0.500000 0.500000 0.000000
O O11 0.750000 0.566950 0.114528
O O12 0.672504 0.750000 0.095677
O O13 0.655685 0.499407 0.152809
O O14 0.679704 0.524776 0.003850
O O15 0.750000 0.525800 0.889931
O O16 0.692314 0.750000 0.919846
O O17 0.533149 0.250000 0.322724
O O18 0.580365 0.062437 0.418836
O O19 0.593239 0.045245 0.267504
O O20 0.500000 0.500000 0.500000
O O21 0.532536 0.250000 0.507718
O O22 0.615451 0.250000 0.165798
#
# Coordination Sequence:
#
# PCOD8239280 Si02
#       8
#     8   8   8   8   8   8   8   8
#     4  10  18  30  46  63  89 121 149 180 221 266
#     4  10  18  27  41  66  93 116 148 184 217 260
#     4  10  20  31  42  61  88 121 153 179 217 267
#     4   9  18  33  51  68  86 112 148 189 231 267
#     4   8  15  29  49  68  83 108 152 195 223 256
#     4   9  16  30  46  61  88 122 150 178 217 263
#     4   8  15  26  42  61  84 116 148 179 215 256
#     4  10  19  30  45  66  91 117 149 183 219 264
#
# _framework density 15.628869
#
# number of rings (size 3 to 8) (size 9 to 14) (size 15 to 20)
#    0.000    2.750    1.250    1.875    0.000    3.250 
#    0.000    0.625    0.000    1.125    0.000    0.875 
#    0.000    5.000    0.000    0.000    0.000    0.000 
#
# Total GULP energy -793047.887718 kJ/mol
# GULP energy per Si atom -12391.373246 kJ/mol
# Density = 1.559330 g / cm^3
# Si number density = 15.628869 Si / 1000 Ang^3
#
#
#
# Elastic Constant Matrix: (Units=GPa)
#
#
# Indices 1 2 3 4 5 6 
#
# 1 77.5992 30.2447 59.0472 0.0000 0.0000 0.0000
# 2 30.2447 44.0657 48.7315 0.0000 0.0000 0.0000
# 3 59.0472 48.7315 151.8366 0.0000 0.0000 0.0000
# 4 0.0000 0.0000 0.0000 25.6931 0.0000 0.0000
# 5 0.0000 0.0000 0.0000 0.0000 18.7513 0.0000
# 6 0.0000 0.0000 0.0000 0.0000 0.0000 18.7284
#
#
#
# Elastic Compliance Matrix: (Units=1/GPa)
#
#
# Indices 1 2 3 4 5 6 
#
# 1 0.019940 -0.007923 -0.005212 0.000000 0.000000 0.000000
# 2 -0.007923 0.038327 -0.009220 0.000000 0.000000 0.000000
# 3 -0.005212 -0.009220 0.011572 0.000000 0.000000 0.000000
# 4 0.000000 0.000000 0.000000 0.038921 0.000000 0.000000
# 5 0.000000 0.000000 0.000000 0.000000 0.053330 0.000000
# 6 0.000000 0.000000 0.000000 0.000000 0.000000 0.053395
#
#
# Mechanical properties :
#
#
# Convention : Reuss Voigt Hill
#
# Bulk Modulus (GPa) = 39.79169 61.06092 50.42631
# Shear Modulus (GPa) = 18.61707 21.66645 20.14176
#
# Velocity S-wave (km/s) = 3.45512 3.72736 3.59382
# Velocity P-wave (km/s) = 6.43683 7.59463 7.03957
#
# Compressibility (1/GPa) = 0.02513088
#
# Stress axis : x y z
#
# Youngs Moduli (GPa) = 50.14945 26.09103 86.41552
#
# Poissons Ratio (x) = 0.20671 0.45038
# Poissons Ratio (y) = 0.39731 0.79676
# Poissons Ratio (z) = 0.26137 0.24056
#
# Static dielectric constant tensor:
#      x y z
#    x 2.779000 0.000000 0.000000 
#    y 0.000000 2.868420 0.000000 
#    z 0.000000 0.000000 3.488910 
# 
# 
# High freq. dielectric constant tensor:
#      x y z
#    x 1.561560 0.000000 0.000000 
#    y 0.000000 1.591740 0.000000 
#    z 0.000000 0.000000 1.613300 
# 
# From -- ./inp_files/28447.got.cif
#   From: 2010.03.12/outbox.cif.g09.slc.cpg/sg59_15_cif.got.tgz:28447.got - 2010.04.16 16:29:54.
