data_PCOD8239965
_publ_section_title
;
Structure prediction by ZEFSAII (Michael W. Deem and Ramdas Pophale) SiO2 
 PCOD8239965
Probable space group: P M M N
;
_chemical_formula_sum "Si O2"
_cell_formula_units_Z 48
_cell_length_a 8.942123
_cell_length_b 10.019670
_cell_length_c 29.435126
_cell_angle_alpha 90.000000
_cell_angle_beta 90.000000
_cell_angle_gamma 90.000000
_cell_volume 2637.302562
_symmetry_space_group_name_H-M "P M M N"
_symmetry_group_IT_number 59
_space_group.IT_coordinate_system_code '2'
_symmetry_cell_setting 'orthorhombic'
loop_
_space_group_symop_operation_xyz
x,y,z
1/2-x,1/2-y,z
1/2+x,-y,-z
-x,1/2+y,-z
-x,-y,-z
1/2+x,1/2+y,-z
1/2-x,y,z
x,1/2-y,z
loop_
_atom_site_type_symbol
_atom_site_label
_atom_site_fract_x
_atom_site_fract_y
_atom_site_fract_z
Si Si1 0.082499 0.408010 0.128728
Si Si2 0.572826 0.250000 0.439215
Si Si3 0.072914 0.250000 0.536921
Si Si4 0.573527 0.404816 0.036835
Si Si5 0.072560 0.478399 0.603575
Si Si6 0.427825 0.100147 0.701820
Si Si7 0.073703 0.903833 0.780050
O O1 0.250000 0.467393 0.125353
O O2 0.087378 0.250000 0.130261
O O3 0.987093 0.454487 0.085433
O O4 0.003930 0.459608 0.174488
O O5 0.750000 0.250000 0.445150
O O6 0.503048 0.250000 0.488553
O O7 0.516010 0.375928 0.410471
O O8 0.250000 0.250000 0.530285
O O9 0.016082 0.377873 0.564892
O O10 0.750000 0.424230 0.036036
O O11 0.530019 0.250000 0.027541
O O12 0.500000 0.500000 0.000000
O O13 0.250000 0.471144 0.606686
O O14 0.005166 0.440193 0.652700
O O15 0.250000 0.093783 0.700013
O O16 0.481188 0.250000 0.714252
O O17 0.487292 0.995042 0.738980
O O18 0.250000 0.918824 0.786824
O O19 0.030892 0.750000 0.769739
#
# Coordination Sequence:
#
# PCOD8239965 Si02
#       7
#     8   4   4   8   8   8   8
#     4   9  17  31  51  73 100 136 173 208 251 303
#     4  10  20  30  46  72  96 116 150 198 237 270
#     4  10  18  32  50  66  90 126 158 184 227 288
#     4  10  20  34  54  80 110 143 181 223 265 311
#     4   9  17  29  46  69  94 120 152 192 235 281
#     4   9  16  28  46  69  95 121 152 191 239 291
#     4   9  17  28  47  74  96 116 152 204 249 286
#
# _framework density 18.200413999999999
#
# number of rings (size 3 to 8) (size 9 to 14) (size 15 to 20)
#    0.000    2.667    0.833    1.500    1.167    3.000 
#    0.000    0.833    0.000    5.500    0.000    0.000 
#    0.000    0.000    0.000    0.000    0.000    0.000 
#
# Total GULP energy -595110.079763 kJ/mol
# GULP energy per Si atom -12398.126662 kJ/mol
# Density = 1.815899 g / cm^3
# Si number density = 18.200414 Si / 1000 Ang^3
#
#
#
# Elastic Constant Matrix: (Units=GPa)
#
#
# Indices 1 2 3 4 5 6 
#
# 1 48.4451 29.8757 41.8552 0.0000 0.0000 0.0000
# 2 29.8757 123.6222 79.6308 0.0000 0.0000 0.0000
# 3 41.8552 79.6308 170.0856 0.0000 0.0000 0.0000
# 4 0.0000 0.0000 0.0000 27.1298 0.0000 0.0000
# 5 0.0000 0.0000 0.0000 0.0000 28.1567 0.0000
# 6 0.0000 0.0000 0.0000 0.0000 0.0000 12.8541
#
#
#
# Elastic Compliance Matrix: (Units=1/GPa)
#
#
# Indices 1 2 3 4 5 6 
#
# 1 0.027085 -0.003225 -0.005155 0.000000 0.000000 0.000000
# 2 -0.003225 0.011966 -0.004809 0.000000 0.000000 0.000000
# 3 -0.005155 -0.004809 0.009399 0.000000 0.000000 0.000000
# 4 0.000000 0.000000 0.000000 0.036860 0.000000 0.000000
# 5 0.000000 0.000000 0.000000 0.000000 0.035516 0.000000
# 6 0.000000 0.000000 0.000000 0.000000 0.000000 0.077796
#
#
# Mechanical properties :
#
#
# Convention : Reuss Voigt Hill
#
# Bulk Modulus (GPa) = 45.30524 71.65293 58.47909
# Shear Modulus (GPa) = 21.51865 26.34753 23.93309
#
# Velocity S-wave (km/s) = 3.44221 3.80891 3.63019
# Velocity P-wave (km/s) = 6.38317 7.66798 7.05489
#
# Compressibility (1/GPa) = 0.02207250
#
# Stress axis : x y z
#
# Youngs Moduli (GPa) = 36.92123 83.57021 106.39018
#
# Poissons Ratio (x) = 0.26949 0.54848
# Poissons Ratio (y) = 0.11906 0.51160
# Poissons Ratio (z) = 0.19034 0.40186
#
# Static dielectric constant tensor:
#      x y z
#    x 3.091230 0.000000 0.000000 
#    y 0.000000 3.465380 0.000000 
#    z 0.000000 0.000000 3.583310 
# 
# 
# High freq. dielectric constant tensor:
#      x y z
#    x 1.669880 0.000000 0.000000 
#    y 0.000000 1.695330 0.000000 
#    z 0.000000 0.000000 1.718780 
# 
# From -- ./inp_files/32983.got.cif
#   From: 2010.03.12/outbox.cif.g09.slc.cpg/sg59_17_cif.got.tgz:32983.got - 2010.04.16 16:29:54.
