data_PCOD8239309
_publ_section_title
;
Structure prediction by ZEFSAII (Michael W. Deem and Ramdas Pophale) SiO2 
 PCOD8239309
Probable space group: P M M N
;
_chemical_formula_sum "Si O2"
_cell_formula_units_Z 56
_cell_length_a 8.988335
_cell_length_b 21.673134
_cell_length_c 17.666852
_cell_angle_alpha 90.000000
_cell_angle_beta 90.000000
_cell_angle_gamma 90.000000
_cell_volume 3441.597974
_symmetry_space_group_name_H-M "P M M N"
_symmetry_group_IT_number 59
_space_group.IT_coordinate_system_code '2'
_symmetry_cell_setting 'orthorhombic'
loop_
_space_group_symop_operation_xyz
x,y,z
1/2-x,1/2-y,z
1/2+x,-y,-z
-x,1/2+y,-z
-x,-y,-z
1/2+x,1/2+y,-z
1/2-x,y,z
x,1/2-y,z
loop_
_atom_site_type_symbol
_atom_site_label
_atom_site_fract_x
_atom_site_fract_y
_atom_site_fract_z
Si Si1 0.926025 0.402588 0.290906
Si Si2 0.421662 0.458907 0.891342
Si Si3 0.415025 0.563635 0.416390
Si Si4 0.915659 0.581942 0.558933
Si Si5 0.079643 0.078414 0.053555
Si Si6 0.421313 0.320635 0.172265
Si Si7 0.926061 0.468827 0.744430
O O1 0.750000 0.410289 0.291709
O O2 0.981464 0.388693 0.376160
O O3 0.973812 0.345551 0.238792
O O4 0.999533 0.464014 0.257329
O O5 0.250000 0.459849 0.867998
O O6 0.470220 0.528313 0.910942
O O7 0.515759 0.433909 0.819493
O O8 0.451489 0.414707 0.963544
O O9 0.250000 0.591234 0.426273
O O10 0.412523 0.491148 0.432402
O O11 0.521134 0.598805 0.475575
O O12 0.470774 0.571715 0.329508
O O13 0.750000 0.609599 0.565607
O O14 0.250000 0.056214 0.066280
O O15 0.048832 0.143566 0.093568
O O16 0.250000 0.328403 0.197609
O O17 0.463038 0.250000 0.156885
O O18 0.750000 0.478861 0.746761
#
# Coordination Sequence:
#
# PCOD8239309 Si02
#       7
#     8   8   8   8   8   8   8
#     4  11  20  29  43  62  85 114 149 185 221 262
#     4  10  18  27  43  66  88 115 147 182 224 271
#     4   8  15  25  37  56  82 112 144 175 210 250
#     4   9  16  26  40  57  81 113 145 176 211 253
#     4   9  18  31  45  62  87 115 146 183 225 273
#     4  10  20  34  50  65  85 116 152 189 228 268
#     4  10  18  28  42  61  88 119 148 181 220 265
#
# _framework density 16.271509999999999
#
# number of rings (size 3 to 8) (size 9 to 14) (size 15 to 20)
#    0.000    2.429    1.429    3.429    0.000    4.857 
#    0.000    0.000    0.000    0.000    0.000    0.000 
#    0.000    1.143    0.000   10.571    0.000    3.286 
#
# Total GULP energy -694214.377682 kJ/mol
# GULP energy per Si atom -12396.685316 kJ/mol
# Density = 1.623448 g / cm^3
# Si number density = 16.271510 Si / 1000 Ang^3
#
#
#
# Elastic Constant Matrix: (Units=GPa)
#
#
# Indices 1 2 3 4 5 6 
#
# 1 98.7515 23.3045 63.2793 0.0000 0.0000 0.0000
# 2 23.3045 42.8096 33.2405 0.0000 0.0000 0.0000
# 3 63.2793 33.2405 156.0492 0.0000 0.0000 0.0000
# 4 0.0000 0.0000 0.0000 13.5791 0.0000 0.0000
# 5 0.0000 0.0000 0.0000 0.0000 32.4309 0.0000
# 6 0.0000 0.0000 0.0000 0.0000 0.0000 11.6152
#
#
#
# Elastic Compliance Matrix: (Units=1/GPa)
#
#
# Indices 1 2 3 4 5 6 
#
# 1 0.014207 -0.003907 -0.004929 0.000000 0.000000 0.000000
# 2 -0.003907 0.029063 -0.004607 0.000000 0.000000 0.000000
# 3 -0.004929 -0.004607 0.009388 0.000000 0.000000 0.000000
# 4 0.000000 0.000000 0.000000 0.073642 0.000000 0.000000
# 5 0.000000 0.000000 0.000000 0.000000 0.030835 0.000000
# 6 0.000000 0.000000 0.000000 0.000000 0.000000 0.086094
#
#
# Mechanical properties :
#
#
# Convention : Reuss Voigt Hill
#
# Bulk Modulus (GPa) = 38.79939 59.69544 49.24741
# Shear Modulus (GPa) = 17.94019 23.37746 20.65883
#
# Velocity S-wave (km/s) = 3.32407 3.79451 3.56705
# Velocity P-wave (km/s) = 6.21525 7.48094 6.87728
#
# Compressibility (1/GPa) = 0.02577360
#
# Stress axis : x y z
#
# Youngs Moduli (GPa) = 70.38937 34.40820 106.51743
#
# Poissons Ratio (x) = 0.13442 0.52500
# Poissons Ratio (y) = 0.27499 0.49068
# Poissons Ratio (z) = 0.34693 0.15850
#
# Static dielectric constant tensor:
#      x y z
#    x 3.200460 0.000000 0.000000 
#    y 0.000000 2.475710 0.000000 
#    z 0.000000 0.000000 3.542600 
# 
# 
# High freq. dielectric constant tensor:
#      x y z
#    x 1.636440 0.000000 0.000000 
#    y 0.000000 1.542320 0.000000 
#    z 0.000000 0.000000 1.647260 
# 
# From -- ./inp_files/26053.got.cif
#   From: 2010.03.12/outbox.cif.g09.slc.cpg/sg59_14_cif.got.tgz:26053.got - 2010.04.16 16:29:54.
