data_PCOD8239124
_publ_section_title
;
Structure prediction by ZEFSAII (Michael W. Deem and Ramdas Pophale) SiO2 
 PCOD8239124
Probable space group: P M M N
;
_chemical_formula_sum "Si O2"
_cell_formula_units_Z 64
_cell_length_a 9.299469
_cell_length_b 26.973247
_cell_length_c 17.001391
_cell_angle_alpha 90.000000
_cell_angle_beta 90.000000
_cell_angle_gamma 90.000000
_cell_volume 4264.575777
_symmetry_space_group_name_H-M "P M M N"
_symmetry_group_IT_number 59
_space_group.IT_coordinate_system_code '2'
_symmetry_cell_setting 'orthorhombic'
loop_
_space_group_symop_operation_xyz
x,y,z
1/2-x,1/2-y,z
1/2+x,-y,-z
-x,1/2+y,-z
-x,-y,-z
1/2+x,1/2+y,-z
1/2-x,y,z
x,1/2-y,z
loop_
_atom_site_type_symbol
_atom_site_label
_atom_site_fract_x
_atom_site_fract_y
_atom_site_fract_z
Si Si1 0.583206 0.529668 0.320250
Si Si2 0.584435 0.115736 0.211636
Si Si3 0.581180 0.948617 0.487842
Si Si4 0.918778 0.305717 0.085427
Si Si5 0.415702 0.041726 0.111405
Si Si6 0.419551 0.447890 0.850362
Si Si7 0.583930 0.077844 0.373193
Si Si8 0.412919 0.377424 0.981134
O O1 0.750000 0.523515 0.304585
O O2 0.555111 0.565784 0.395745
O O3 0.519530 0.553080 0.239676
O O4 0.525060 0.474293 0.337708
O O5 0.750000 0.102262 0.192497
O O6 0.540300 0.166425 0.167035
O O7 0.485750 0.070781 0.184108
O O8 0.563360 0.120328 0.306324
O O9 0.750000 0.954231 0.505618
O O10 0.510197 0.909128 0.548713
O O11 0.500000 0.000000 0.500000
O O12 0.750000 0.305375 0.071680
O O13 0.979720 0.250000 0.091617
O O14 0.986445 0.332839 0.009845
O O15 0.250000 0.031600 0.130932
O O16 0.497712 0.990037 0.100763
O O17 0.435729 0.073625 0.033111
O O18 0.250000 0.459191 0.855676
O O19 0.451200 0.394672 0.892013
O O20 0.750000 0.073494 0.399100
O O21 0.250000 0.358004 0.987499
#
# Coordination Sequence:
#
# PCOD8239124 Si02
#       8
#     8   8   8   8   8   8   8   8
#     4   8  14  24  37  52  73 105 141 166 192 230
#     4   9  16  28  44  59  79 109 140 168 204 250
#     4   9  16  25  36  52  75 105 138 170 199 230
#     4   9  18  32  49  65  81 104 134 169 210 254
#     4  10  18  26  36  58  85 106 136 173 206 237
#     4  10  17  28  42  55  78 113 145 168 199 241
#     4   9  15  25  39  55  75 104 139 169 199 236
#     4   9  19  30  42  60  81 107 137 169 206 248
#
# _framework density 15.007355
#
# number of rings (size 3 to 8) (size 9 to 14) (size 15 to 20)
#    0.000    2.875    1.250    1.875    0.000    1.750 
#    0.000    0.625    0.000    0.000    0.000    0.000 
#    0.000    1.000    0.000    7.000    0.000    1.250 
#
# Total GULP energy -792933.865673 kJ/mol
# GULP energy per Si atom -12389.591651 kJ/mol
# Density = 1.497320 g / cm^3
# Si number density = 15.007355 Si / 1000 Ang^3
#
#
#
# Elastic Constant Matrix: (Units=GPa)
#
#
# Indices 1 2 3 4 5 6 
#
# 1 51.6227 26.7731 30.0948 0.0000 0.0000 0.0000
# 2 26.7731 65.5096 37.9722 0.0000 0.0000 0.0000
# 3 30.0948 37.9722 94.6307 0.0000 0.0000 0.0000
# 4 0.0000 0.0000 0.0000 12.6157 0.0000 0.0000
# 5 0.0000 0.0000 0.0000 0.0000 21.5051 0.0000
# 6 0.0000 0.0000 0.0000 0.0000 0.0000 15.1795
#
#
#
# Elastic Compliance Matrix: (Units=1/GPa)
#
#
# Indices 1 2 3 4 5 6 
#
# 1 0.026486 -0.007743 -0.005316 0.000000 0.000000 0.000000
# 2 -0.007743 0.022155 -0.006428 0.000000 0.000000 0.000000
# 3 -0.005316 -0.006428 0.014837 0.000000 0.000000 0.000000
# 4 0.000000 0.000000 0.000000 0.079267 0.000000 0.000000
# 5 0.000000 0.000000 0.000000 0.000000 0.046501 0.000000
# 6 0.000000 0.000000 0.000000 0.000000 0.000000 0.065878
#
#
# Mechanical properties :
#
#
# Convention : Reuss Voigt Hill
#
# Bulk Modulus (GPa) = 40.80835 44.60481 42.70658
# Shear Modulus (GPa) = 16.54166 17.65489 17.09827
#
# Velocity S-wave (km/s) = 3.32360 3.43361 3.37905
# Velocity P-wave (km/s) = 6.47917 6.74582 6.61384
#
# Compressibility (1/GPa) = 0.02450479
#
# Stress axis : x y z
#
# Youngs Moduli (GPa) = 37.75513 45.13594 67.39774
#
# Poissons Ratio (x) = 0.34950 0.35830
# Poissons Ratio (y) = 0.29235 0.43321
# Poissons Ratio (z) = 0.20071 0.29012
#
# Static dielectric constant tensor:
#      x y z
#    x 2.907360 0.000000 0.000000 
#    y 0.000000 2.574690 0.000000 
#    z 0.000000 0.000000 3.394690 
# 
# 
# High freq. dielectric constant tensor:
#      x y z
#    x 1.570460 0.000000 0.000000 
#    y 0.000000 1.512580 0.000000 
#    z 0.000000 0.000000 1.582090 
# 
# From -- ./inp_files/26646.got.cif
#   From: 2010.03.12/outbox.cif.g09.slc.cpg/sg59_14_cif.got.tgz:26646.got - 2010.04.16 16:29:54.
