data_PCOD8239397
_publ_section_title
;
Structure prediction by ZEFSAII (Michael W. Deem and Ramdas Pophale) SiO2 
 PCOD8239397
Probable space group: P M M N
;
_chemical_formula_sum "Si O2"
_cell_formula_units_Z 64
_cell_length_a 13.513617
_cell_length_b 18.315271
_cell_length_c 14.332166
_cell_angle_alpha 90.000000
_cell_angle_beta 90.000000
_cell_angle_gamma 90.000000
_cell_volume 3547.290737
_symmetry_space_group_name_H-M "P M M N"
_symmetry_group_IT_number 59
_space_group.IT_coordinate_system_code '2'
_symmetry_cell_setting 'orthorhombic'
loop_
_space_group_symop_operation_xyz
x,y,z
1/2-x,1/2-y,z
1/2+x,-y,-z
-x,1/2+y,-z
-x,-y,-z
1/2+x,1/2+y,-z
1/2-x,y,z
x,1/2-y,z
loop_
_atom_site_type_symbol
_atom_site_label
_atom_site_fract_x
_atom_site_fract_y
_atom_site_fract_z
Si Si1 0.137591 0.335456 0.355079
Si Si2 0.637113 0.464440 0.970153
Si Si3 0.133035 0.164335 0.742528
Si Si4 0.448030 0.335172 0.548141
Si Si5 0.451112 0.463191 0.854675
Si Si6 0.545913 0.101846 0.263904
Si Si7 0.861241 0.164909 0.443754
Si Si8 0.861779 0.330837 0.092411
O O1 0.250000 0.350359 0.325851
O O2 0.109326 0.250000 0.344493
O O3 0.120579 0.360599 0.462060
O O4 0.068749 0.384848 0.289446
O O5 0.750000 0.474512 0.937210
O O6 0.566630 0.473810 0.880865
O O7 0.614640 0.521057 0.053594
O O8 0.613322 0.383536 0.007102
O O9 0.250000 0.150399 0.745882
O O10 0.108735 0.250000 0.757647
O O11 0.090498 0.131445 0.645046
O O12 0.077895 0.118207 0.822758
O O13 0.435647 0.250000 0.561169
O O14 0.562640 0.356601 0.526657
O O15 0.430895 0.519806 0.770498
O O16 0.615918 0.117891 0.352023
O O17 0.567761 0.157302 0.180246
O O18 0.750000 0.148389 0.478384
O O19 0.875389 0.250000 0.417649
O O20 0.750000 0.344666 0.127418
O O21 0.877575 0.250000 0.053080
#
# Coordination Sequence:
#
# PCOD8239397 Si02
#       8
#     8   8   8   8   8   8   8   8
#     4   9  16  27  45  69  99 135 172 205 237 280
#     4   9  19  36  54  71  95 127 157 190 244 307
#     4  10  20  35  56  77  96 124 167 215 252 283
#     4   8  15  29  48  70  96 128 167 206 242 281
#     4  10  21  35  52  74  97 126 163 205 250 299
#     4  10  18  28  44  69 101 131 160 196 240 287
#     4   9  16  27  46  72 103 136 164 193 234 284
#     4   9  16  27  47  73  95 116 148 190 234 285
#
# _framework density 18.041937999999998
#
# number of rings (size 3 to 8) (size 9 to 14) (size 15 to 20)
#    0.000    2.750    0.000    3.000    0.000    5.000 
#    0.000    3.125    0.000    2.250    0.000   12.250 
#    0.000    0.000    0.000    0.000    0.000    0.000 
#
# Total GULP energy -793358.324271 kJ/mol
# GULP energy per Si atom -12396.223817 kJ/mol
# Density = 1.800087 g / cm^3
# Si number density = 18.041938 Si / 1000 Ang^3
#
#
#
# Elastic Constant Matrix: (Units=GPa)
#
#
# Indices 1 2 3 4 5 6 
#
# 1 103.6324 20.7142 31.9285 0.0000 0.0000 0.0000
# 2 20.7142 64.3952 34.9851 0.0000 0.0000 0.0000
# 3 31.9285 34.9851 69.0697 0.0000 0.0000 0.0000
# 4 0.0000 0.0000 0.0000 18.7874 0.0000 0.0000
# 5 0.0000 0.0000 0.0000 0.0000 22.3740 0.0000
# 6 0.0000 0.0000 0.0000 0.0000 0.0000 20.7141
#
#
#
# Elastic Compliance Matrix: (Units=1/GPa)
#
#
# Indices 1 2 3 4 5 6 
#
# 1 0.011308 -0.001100 -0.004670 0.000000 0.000000 0.000000
# 2 -0.001100 0.021532 -0.010398 0.000000 0.000000 0.000000
# 3 -0.004670 -0.010398 0.021904 0.000000 0.000000 0.000000
# 4 0.000000 0.000000 0.000000 0.053227 0.000000 0.000000
# 5 0.000000 0.000000 0.000000 0.000000 0.044695 0.000000
# 6 0.000000 0.000000 0.000000 0.000000 0.000000 0.048276
#
#
# Mechanical properties :
#
#
# Convention : Reuss Voigt Hill
#
# Bulk Modulus (GPa) = 44.62779 45.81699 45.22239
# Shear Modulus (GPa) = 20.76865 22.33973 21.55419
#
# Velocity S-wave (km/s) = 3.39651 3.52264 3.46015
# Velocity P-wave (km/s) = 6.33806 6.48037 6.40961
#
# Compressibility (1/GPa) = 0.02240756
#
# Stress axis : x y z
#
# Youngs Moduli (GPa) = 88.43100 46.44247 45.65469
#
# Poissons Ratio (x) = 0.05110 0.21321
# Poissons Ratio (y) = 0.09731 0.47470
# Poissons Ratio (z) = 0.41298 0.48290
#
# Static dielectric constant tensor:
#      x y z
#    x 3.431880 0.000000 0.000000 
#    y 0.000000 3.135950 0.000000 
#    z 0.000000 0.000000 3.181850 
# 
# 
# High freq. dielectric constant tensor:
#      x y z
#    x 1.704330 0.000000 0.000000 
#    y 0.000000 1.677330 0.000000 
#    z 0.000000 0.000000 1.679770 
# 
# From -- ./inp_files/17219.got.cif
#   From: 2010.03.12/outbox.cif.g09.slc.cpg/sg59_9_cif.got.tgz:17219.got - 2010.04.16 16:29:54.
