data_PCOD8239629
_publ_section_title
;
Structure prediction by ZEFSAII (Michael W. Deem and Ramdas Pophale) SiO2 
 PCOD8239629
Probable space group: P M M N
;
_chemical_formula_sum "Si O2"
_cell_formula_units_Z 48
_cell_length_a 10.344448
_cell_length_b 9.205752
_cell_length_c 28.173308
_cell_angle_alpha 90.000000
_cell_angle_beta 90.000000
_cell_angle_gamma 90.000000
_cell_volume 2682.899688
_symmetry_space_group_name_H-M "P M M N"
_symmetry_group_IT_number 59
_space_group.IT_coordinate_system_code '2'
_symmetry_cell_setting 'orthorhombic'
loop_
_space_group_symop_operation_xyz
x,y,z
1/2-x,1/2-y,z
1/2+x,-y,-z
-x,1/2+y,-z
-x,-y,-z
1/2+x,1/2+y,-z
1/2-x,y,z
x,1/2-y,z
loop_
_atom_site_type_symbol
_atom_site_label
_atom_site_fract_x
_atom_site_fract_y
_atom_site_fract_z
Si Si1 0.750000 0.080879 0.892005
Si Si2 0.106460 0.077497 0.360363
Si Si3 0.750000 0.920861 0.109814
Si Si4 0.002112 0.080619 0.950578
Si Si5 0.001893 0.077391 0.263676
Si Si6 0.899701 0.921267 0.533938
Si Si7 0.250000 0.923461 0.790004
Si Si8 0.250000 0.077427 0.206670
O O1 0.750000 0.250000 0.878381
O O2 0.625172 0.037073 0.922003
O O3 0.750000 0.986602 0.845285
O O4 0.250000 0.017077 0.349740
O O5 0.112345 0.250000 0.359752
O O6 0.011508 0.021235 0.318437
O O7 0.061818 0.027437 0.412700
O O8 0.750000 0.750000 0.121214
O O9 0.625125 0.968595 0.080022
O O10 0.750000 0.008621 0.158310
O O11 0.007638 0.250000 0.961746
O O12 0.000000 0.000000 0.000000
O O13 0.000292 0.250000 0.263295
O O14 0.124333 0.019612 0.234274
O O15 0.872940 0.017326 0.239208
O O16 0.750000 0.964093 0.523045
O O17 0.917397 0.750000 0.527853
O O18 0.000000 0.000000 0.500000
O O19 0.250000 0.750000 0.794992
O O20 0.250000 0.250000 0.202993
#
# Coordination Sequence:
#
# PCOD8239629 Si02
#       8
#     4   8   4   8   8   8   4   4
#     4  10  21  35  49  72 102 125 151 194 240 276
#     4   8  13  26  48  71  96 128 164 204 252 299
#     4  10  21  37  53  70  98 135 163 184 230 298
#     4  10  21  36  54  74  96 125 159 195 235 278
#     4   9  16  28  46  72 100 122 155 205 248 282
#     4   9  18  32  51  75 103 137 175 216 265 316
#     4  10  20  31  47  74 102 125 155 200 245 280
#     4  10  18  29  51  74  92 123 161 194 233 282
#
# _framework density 17.891089000000001
#
# number of rings (size 3 to 8) (size 9 to 14) (size 15 to 20)
#    0.000    2.667    0.833    2.500    0.000    1.667 
#    1.500    0.000    0.000    2.000    0.000    0.000 
#    0.000    0.000    0.000    0.000    0.000    0.000 
#
# Total GULP energy -595016.732881 kJ/mol
# GULP energy per Si atom -12396.181935 kJ/mol
# Density = 1.785037 g / cm^3
# Si number density = 17.891089 Si / 1000 Ang^3
#
#
#
# Elastic Constant Matrix: (Units=GPa)
#
#
# Indices 1 2 3 4 5 6 
#
# 1 169.0248 32.6387 105.3920 0.0000 0.0000 0.0000
# 2 32.6387 24.9021 43.0452 0.0000 0.0000 0.0000
# 3 105.3920 43.0452 189.0341 0.0000 0.0000 0.0000
# 4 0.0000 0.0000 0.0000 26.8289 0.0000 0.0000
# 5 0.0000 0.0000 0.0000 0.0000 33.3759 0.0000
# 6 0.0000 0.0000 0.0000 0.0000 0.0000 -6.9389
#
#
#
# Elastic Compliance Matrix: (Units=1/GPa)
#
#
# Indices 1 2 3 4 5 6 
#
# 1 0.009495 -0.005432 -0.004057 0.000000 0.000000 0.000000
# 2 -0.005432 0.069332 -0.012759 0.000000 0.000000 0.000000
# 3 -0.004057 -0.012759 0.010457 0.000000 0.000000 0.000000
# 4 0.000000 0.000000 0.000000 0.037273 0.000000 0.000000
# 5 0.000000 0.000000 0.000000 0.000000 0.029962 0.000000
# 6 0.000000 0.000000 0.000000 0.000000 0.000000 -0.144116
#
#
# Mechanical properties :
#
#
# Convention : Reuss Voigt Hill
#
# Bulk Modulus (GPa) = 22.32732 82.79029 52.55880
# Shear Modulus (GPa) = 69.61014 24.11220 46.86117
#
# Velocity S-wave (km/s) = 6.24437 3.67512 5.12341
# Velocity P-wave (km/s) = 8.03095 8.02394 8.02745
#
# Compressibility (1/GPa) = 0.04478819
#
# Stress axis : x y z
#
# Youngs Moduli (GPa) = 105.32243 14.42325 95.62931
#
# Poissons Ratio (x) = 0.07835 0.38792
# Poissons Ratio (y) = 0.57216 1.22014
# Poissons Ratio (z) = 0.42724 0.18403
#
# Static dielectric constant tensor:
#      x y z
#    x 3.470250 0.000000 0.000000 
#    y 0.000000 2.882280 0.000000 
#    z 0.000000 0.000000 3.529450 
# 
# 
# High freq. dielectric constant tensor:
#      x y z
#    x 1.699500 0.000000 0.000000 
#    y 0.000000 1.648020 0.000000 
#    z 0.000000 0.000000 1.708920 
# 
# From -- ./inp_files/30042.got.cif
#   From: 2010.03.12/outbox.cif.g09.slc.cpg/sg59_16_cif.got.tgz:30042.got - 2010.04.16 16:29:54.
