data_PCOD8239698
_publ_section_title
;
Structure prediction by ZEFSAII (Michael W. Deem and Ramdas Pophale) SiO2 
 PCOD8239698
Probable space group: P M M N
;
_chemical_formula_sum "Si O2"
_cell_formula_units_Z 64
_cell_length_a 8.874383
_cell_length_b 19.567768
_cell_length_c 20.015128
_cell_angle_alpha 90.000000
_cell_angle_beta 90.000000
_cell_angle_gamma 90.000000
_cell_volume 3475.664359
_symmetry_space_group_name_H-M "P M M N"
_symmetry_group_IT_number 59
_space_group.IT_coordinate_system_code '2'
_symmetry_cell_setting 'orthorhombic'
loop_
_space_group_symop_operation_xyz
x,y,z
1/2-x,1/2-y,z
1/2+x,-y,-z
-x,1/2+y,-z
-x,-y,-z
1/2+x,1/2+y,-z
1/2-x,y,z
x,1/2-y,z
loop_
_atom_site_type_symbol
_atom_site_label
_atom_site_fract_x
_atom_site_fract_y
_atom_site_fract_z
Si Si1 0.575275 0.829302 0.609177
Si Si2 0.925285 0.171743 0.529657
Si Si3 0.572000 0.441421 0.303351
Si Si4 0.927256 0.963538 0.837044
Si Si5 0.071843 0.921389 0.347216
Si Si6 0.925205 0.602803 0.116904
Si Si7 0.076815 0.431971 0.022964
Si Si8 0.922696 0.173743 0.772737
O O1 0.750000 0.848444 0.615819
O O2 0.545372 0.750000 0.624714
O O3 0.522083 0.847664 0.534797
O O4 0.479901 0.871729 0.662283
O O5 0.750000 0.161202 0.512724
O O6 0.955182 0.250000 0.552293
O O7 0.979194 0.120508 0.587599
O O8 0.750000 0.446712 0.304118
O O9 0.516150 0.438408 0.227315
O O10 0.506480 0.505147 0.345082
O O11 0.750000 0.962405 0.820174
O O12 0.970916 0.913235 0.900521
O O13 0.974805 0.039848 0.857004
O O14 0.250000 0.931784 0.346753
O O15 0.018421 0.878735 0.282871
O O16 0.750000 0.585724 0.128496
O O17 0.954611 0.621478 0.037756
O O18 0.976439 0.667367 0.160536
O O19 0.250000 0.450538 0.027350
O O20 0.000000 0.500000 0.000000
O O21 0.750000 0.158785 0.791191
O O22 0.941685 0.250000 0.744114
#
# Coordination Sequence:
#
# PCOD8239698 Si02
#       8
#     8   8   8   8   8   8   8   8
#     4  10  22  41  63  84 106 137 177 219 269 333
#     4   9  18  35  59  84 110 143 183 226 269 314
#     4  12  24  36  55  83 114 144 176 224 276 324
#     4  10  18  32  52  75 105 140 176 219 269 322
#     4  10  20  35  55  79 111 147 184 225 269 321
#     4  10  18  30  48  74 105 136 176 225 271 316
#     4   8  16  28  46  71  99 132 171 214 263 315
#     4  10  20  33  50  73 105 150 194 227 267 321
#
# _framework density 18.413747000000001
#
# number of rings (size 3 to 8) (size 9 to 14) (size 15 to 20)
#    0.000    2.125    1.250    2.625    0.000    4.500 
#    0.000    0.000    0.000    3.000    0.000    1.750 
#    0.000    0.000    0.000    0.000    0.000    0.000 
#
# Total GULP energy -793197.053476 kJ/mol
# GULP energy per Si atom -12393.703961 kJ/mol
# Density = 1.837184 g / cm^3
# Si number density = 18.413747 Si / 1000 Ang^3
#
#
#
# Elastic Constant Matrix: (Units=GPa)
#
#
# Indices 1 2 3 4 5 6 
#
# 1 64.7637 31.4471 48.5372 0.0000 0.0000 0.0000
# 2 31.4471 68.2586 55.4762 0.0000 0.0000 0.0000
# 3 48.5372 55.4762 136.7133 0.0000 0.0000 0.0000
# 4 0.0000 0.0000 0.0000 23.4119 0.0000 0.0000
# 5 0.0000 0.0000 0.0000 0.0000 30.2068 0.0000
# 6 0.0000 0.0000 0.0000 0.0000 0.0000 22.5432
#
#
#
# Elastic Compliance Matrix: (Units=1/GPa)
#
#
# Indices 1 2 3 4 5 6 
#
# 1 0.022465 -0.005771 -0.005634 0.000000 0.000000 0.000000
# 2 -0.005771 0.023342 -0.007423 0.000000 0.000000 0.000000
# 3 -0.005634 -0.007423 0.012327 0.000000 0.000000 0.000000
# 4 0.000000 0.000000 0.000000 0.042713 0.000000 0.000000
# 5 0.000000 0.000000 0.000000 0.000000 0.033105 0.000000
# 6 0.000000 0.000000 0.000000 0.000000 0.000000 0.044359
#
#
# Mechanical properties :
#
#
# Convention : Reuss Voigt Hill
#
# Bulk Modulus (GPa) = 48.83227 60.07297 54.45262
# Shear Modulus (GPa) = 22.44229 24.18405 23.31317
#
# Velocity S-wave (km/s) = 3.49489 3.62798 3.56205
# Velocity P-wave (km/s) = 6.54696 7.08833 6.82302
#
# Compressibility (1/GPa) = 0.02047826
#
# Stress axis : x y z
#
# Youngs Moduli (GPa) = 44.51290 42.84177 81.12306
#
# Poissons Ratio (x) = 0.24723 0.45706
# Poissons Ratio (y) = 0.25688 0.60217
# Poissons Ratio (z) = 0.25079 0.31801
#
# Static dielectric constant tensor:
#      x y z
#    x 3.323380 0.000000 0.000000 
#    y 0.000000 3.176220 0.000000 
#    z 0.000000 0.000000 3.877150 
# 
# 
# High freq. dielectric constant tensor:
#      x y z
#    x 1.716650 0.000000 0.000000 
#    y 0.000000 1.680050 0.000000 
#    z 0.000000 0.000000 1.730210 
# 
# From -- ./inp_files/29441.got.cif
#   From: 2010.03.12/outbox.cif.g09.slc.cpg/sg59_15_cif.got.tgz:29441.got - 2010.04.16 16:29:54.
