data_PCOD8239570
_publ_section_title
;
Structure prediction by ZEFSAII (Michael W. Deem and Ramdas Pophale) SiO2 
 PCOD8239570
Probable space group: P M M N
;
_chemical_formula_sum "Si O2"
_cell_formula_units_Z 56
_cell_length_a 23.118084
_cell_length_b 8.325476
_cell_length_c 14.570576
_cell_angle_alpha 90.000000
_cell_angle_beta 90.000000
_cell_angle_gamma 90.000000
_cell_volume 2804.384972
_symmetry_space_group_name_H-M "P M M N"
_symmetry_group_IT_number 59
_space_group.IT_coordinate_system_code '2'
_symmetry_cell_setting 'orthorhombic'
loop_
_space_group_symop_operation_xyz
x,y,z
1/2-x,1/2-y,z
1/2+x,-y,-z
-x,1/2+y,-z
-x,-y,-z
1/2+x,1/2+y,-z
1/2-x,y,z
x,1/2-y,z
loop_
_atom_site_type_symbol
_atom_site_label
_atom_site_fract_x
_atom_site_fract_y
_atom_site_fract_z
Si Si1 0.093325 0.559253 0.147202
Si Si2 0.139293 0.939015 0.535872
Si Si3 0.090264 0.559587 0.350014
Si Si4 0.463145 0.064483 0.855140
Si Si5 0.250000 0.557593 0.851722
Si Si6 0.858414 0.063714 0.036689
Si Si7 0.465531 0.562437 0.659643
Si Si8 0.750000 0.057656 0.357755
O O1 0.092710 0.750000 0.144127
O O2 0.112849 0.502131 0.249282
O O3 0.028060 0.499668 0.126232
O O4 0.136235 0.492225 0.067631
O O5 0.146118 0.750000 0.542280
O O6 0.136622 0.991095 0.428225
O O7 0.079475 0.993561 0.582129
O O8 0.194294 0.014083 0.588595
O O9 0.079367 0.750000 0.350269
O O10 0.029852 0.475631 0.374793
O O11 0.455477 0.250000 0.881555
O O12 0.419579 0.959321 0.914478
O O13 0.448996 0.040414 0.748555
O O14 0.250000 0.750000 0.850156
O O15 0.194023 0.485744 0.905322
O O16 0.250000 0.493377 0.747121
O O17 0.844535 0.250000 0.029219
O O18 0.459050 0.750000 0.682665
O O19 0.750000 0.250000 0.357235
#
# Coordination Sequence:
#
# PCOD8239570 Si02
#       8
#     8   8   8   8   4   8   8   4
#     4   8  16  29  46  67  95 123 152 190 236 281
#     4   9  17  28  46  68  94 125 159 194 234 280
#     4   9  17  31  47  69  98 125 152 194 242 284
#     4  10  19  31  47  71  99 127 154 194 245 288
#     4   9  18  30  48  70  94 121 157 201 238 271
#     4  10  18  31  49  69  92 125 162 196 232 280
#     4  10  18  29  47  73  98 126 160 195 233 286
#     4   9  16  28  43  66  94 121 153 193 236 279
#
# _framework density 19.968727000000001
#
# number of rings (size 3 to 8) (size 9 to 14) (size 15 to 20)
#    0.000    2.714    0.000    3.429    0.000    2.286 
#    0.000    4.643    0.000    4.286    0.000    4.000 
#    0.000    0.000    0.000    0.000    0.000    0.000 
#
# Total GULP energy -694002.520192 kJ/mol
# GULP energy per Si atom -12392.902146 kJ/mol
# Density = 1.992328 g / cm^3
# Si number density = 19.968727 Si / 1000 Ang^3
#
#
#
# Elastic Constant Matrix: (Units=GPa)
#
#
# Indices 1 2 3 4 5 6 
#
# 1 103.6742 8.2761 105.5613 0.0000 0.0000 0.0000
# 2 8.2761 11.2183 -0.6579 0.0000 0.0000 0.0000
# 3 105.5613 -0.6579 187.2431 0.0000 0.0000 0.0000
# 4 0.0000 0.0000 0.0000 15.1712 0.0000 0.0000
# 5 0.0000 0.0000 0.0000 0.0000 36.2586 0.0000
# 6 0.0000 0.0000 0.0000 0.0000 0.0000 16.0163
#
#
#
# Elastic Compliance Matrix: (Units=1/GPa)
#
#
# Indices 1 2 3 4 5 6 
#
# 1 0.026670 -0.020561 -0.015108 0.000000 0.000000 0.000000
# 2 -0.020561 0.105010 0.011961 0.000000 0.000000 0.000000
# 3 -0.015108 0.011961 0.013900 0.000000 0.000000 0.000000
# 4 0.000000 0.000000 0.000000 0.065914 0.000000 0.000000
# 5 0.000000 0.000000 0.000000 0.000000 0.027580 0.000000
# 6 0.000000 0.000000 0.000000 0.000000 0.000000 0.062436
#
#
# Mechanical properties :
#
#
# Convention : Reuss Voigt Hill
#
# Bulk Modulus (GPa) = 10.18710 58.72162 34.45436
# Shear Modulus (GPa) = 13.10111 26.08631 19.59371
#
# Velocity S-wave (km/s) = 2.56419 3.61828 3.13584
# Velocity P-wave (km/s) = 3.72550 6.85030 5.51389
#
# Compressibility (1/GPa) = 0.09816336
#
# Stress axis : x y z
#
# Youngs Moduli (GPa) = 37.49598 9.52290 71.94332
#
# Poissons Ratio (x) = 0.19580 1.08689
# Poissons Ratio (y) = 0.77095 -0.86048
# Poissons Ratio (z) = 0.56647 -0.11390
#
# Static dielectric constant tensor:
#      x y z
#    x 3.654680 0.000000 0.000000 
#    y 0.000000 3.141250 0.000000 
#    z 0.000000 0.000000 4.120130 
# 
# 
# High freq. dielectric constant tensor:
#      x y z
#    x 1.757190 0.000000 0.000000 
#    y 0.000000 1.728860 0.000000 
#    z 0.000000 0.000000 1.798310 
# 
# From -- ./inp_files/24410.got.cif
#   From: 2010.03.12/outbox.cif.g09.slc.cpg/sg59_13_cif.got.tgz:24410.got - 2010.04.16 16:29:54.
