data_PCOD8239787
_publ_section_title
;
Structure prediction by ZEFSAII (Michael W. Deem and Ramdas Pophale) SiO2 
 PCOD8239787
Probable space group: P M M N
;
_chemical_formula_sum "Si O2"
_cell_formula_units_Z 64
_cell_length_a 29.364798
_cell_length_b 8.806666
_cell_length_c 12.630874
_cell_angle_alpha 90.000000
_cell_angle_beta 90.000000
_cell_angle_gamma 90.000000
_cell_volume 3266.419399
_symmetry_space_group_name_H-M "P M M N"
_symmetry_group_IT_number 59
_space_group.IT_coordinate_system_code '2'
_symmetry_cell_setting 'orthorhombic'
loop_
_space_group_symop_operation_xyz
x,y,z
1/2-x,1/2-y,z
1/2+x,-y,-z
-x,1/2+y,-z
-x,-y,-z
1/2+x,1/2+y,-z
1/2-x,y,z
x,1/2-y,z
loop_
_atom_site_type_symbol
_atom_site_label
_atom_site_fract_x
_atom_site_fract_y
_atom_site_fract_z
Si Si1 0.201639 0.924063 0.935584
Si Si2 0.896141 0.069151 0.119899
Si Si3 0.042111 0.425913 0.304162
Si Si4 0.583202 0.576447 0.909818
Si Si5 0.172257 0.575861 0.166937
Si Si6 0.440945 0.930475 0.666348
Si Si7 0.388545 0.929685 0.460063
Si Si8 0.699271 0.925691 0.622899
O O1 0.250000 0.997960 0.895724
O O2 0.201336 0.750000 0.899868
O O3 0.155612 0.999153 0.888059
O O4 0.202632 0.936541 0.062368
O O5 0.894859 0.250000 0.117780
O O6 0.918483 0.003856 0.226401
O O7 0.925265 0.018263 0.017227
O O8 0.049780 0.250000 0.334569
O O9 0.042790 0.445543 0.176107
O O10 0.081489 0.523966 0.358991
O O11 0.993038 0.486478 0.343339
O O12 0.588478 0.750000 0.944204
O O13 0.627459 0.523459 0.847003
O O14 0.158408 0.750000 0.189951
O O15 0.200165 0.510299 0.264879
O O16 0.440099 0.750000 0.671614
O O17 0.412809 0.991854 0.566217
O O18 0.383561 0.750000 0.463078
O O19 0.338222 0.001314 0.454848
O O20 0.750000 0.944610 0.573127
O O21 0.687163 0.750000 0.640291
#
# Coordination Sequence:
#
# PCOD8239787 Si02
#       8
#     8   8   8   8   8   8   8   8
#     4   8  14  25  45  74 102 132 172 215 262 316
#     4   9  18  34  54  75 107 146 185 230 279 330
#     4  10  20  36  58  81 112 147 180 228 291 345
#     4  10  19  31  51  80 114 147 179 221 276 336
#     4  10  18  30  51  78 110 145 179 223 272 323
#     4   9  20  38  57  80 108 145 189 237 287 331
#     4  11  22  37  59  83 110 142 189 240 278 327
#     4  11  23  37  54  79 113 150 183 219 275 339
#
# _framework density 19.593319999999999
#
# number of rings (size 3 to 8) (size 9 to 14) (size 15 to 20)
#    0.000    2.250    1.250    3.000    0.000    2.500 
#    0.000    3.125    0.000    5.625    0.000    0.000 
#    0.000    0.000    0.000    0.000    0.000    0.000 
#
# Total GULP energy -793279.711248 kJ/mol
# GULP energy per Si atom -12394.995488 kJ/mol
# Density = 1.954872 g / cm^3
# Si number density = 19.593320 Si / 1000 Ang^3
#
#
#
# Elastic Constant Matrix: (Units=GPa)
#
#
# Indices 1 2 3 4 5 6 
#
# 1 100.4696 16.3742 39.0126 0.0000 0.0000 0.0000
# 2 16.3742 36.5938 16.9957 0.0000 0.0000 0.0000
# 3 39.0126 16.9957 95.7537 0.0000 0.0000 0.0000
# 4 0.0000 0.0000 0.0000 18.4556 0.0000 0.0000
# 5 0.0000 0.0000 0.0000 0.0000 16.0925 0.0000
# 6 0.0000 0.0000 0.0000 0.0000 0.0000 20.0470
#
#
#
# Elastic Compliance Matrix: (Units=1/GPa)
#
#
# Indices 1 2 3 4 5 6 
#
# 1 0.012208 -0.003436 -0.004364 0.000000 0.000000 0.000000
# 2 -0.003436 0.030749 -0.004058 0.000000 0.000000 0.000000
# 3 -0.004364 -0.004058 0.012942 0.000000 0.000000 0.000000
# 4 0.000000 0.000000 0.000000 0.054184 0.000000 0.000000
# 5 0.000000 0.000000 0.000000 0.000000 0.062141 0.000000
# 6 0.000000 0.000000 0.000000 0.000000 0.000000 0.049883
#
#
# Mechanical properties :
#
#
# Convention : Reuss Voigt Hill
#
# Bulk Modulus (GPa) = 31.07199 41.95356 36.51277
# Shear Modulus (GPa) = 19.48945 21.61466 20.55205
#
# Velocity S-wave (km/s) = 3.15731 3.32500 3.24223
# Velocity P-wave (km/s) = 5.40225 6.01660 5.71768
#
# Compressibility (1/GPa) = 0.03218333
#
# Stress axis : x y z
#
# Youngs Moduli (GPa) = 81.91535 32.52130 77.26943
#
# Poissons Ratio (x) = 0.11173 0.33720
# Poissons Ratio (y) = 0.28143 0.31356
# Poissons Ratio (z) = 0.35747 0.13197
#
# Static dielectric constant tensor:
#      x y z
#    x 3.764600 0.000000 0.000000 
#    y 0.000000 3.326880 0.000000 
#    z 0.000000 0.000000 3.578270 
# 
# 
# High freq. dielectric constant tensor:
#      x y z
#    x 1.770210 0.000000 0.000000 
#    y 0.000000 1.738250 0.000000 
#    z 0.000000 0.000000 1.747330 
# 
# From -- ./inp_files/19301.got.cif
#   From: 2010.03.12/outbox.cif.g09.slc.cpg/sg59_10_cif.got.tgz:19301.got - 2010.04.16 16:29:54.
