data_PCOD8239211
_publ_section_title
;
Structure prediction by ZEFSAII (Michael W. Deem and Ramdas Pophale) SiO2 
 PCOD8239211
Probable space group: P M M N
;
_chemical_formula_sum "Si O2"
_cell_formula_units_Z 64
_cell_length_a 26.373801
_cell_length_b 9.107684
_cell_length_c 18.345798
_cell_angle_alpha 90.000000
_cell_angle_beta 90.000000
_cell_angle_gamma 90.000000
_cell_volume 4406.738565
_symmetry_space_group_name_H-M "P M M N"
_symmetry_group_IT_number 59
_space_group.IT_coordinate_system_code '2'
_symmetry_cell_setting 'orthorhombic'
loop_
_space_group_symop_operation_xyz
x,y,z
1/2-x,1/2-y,z
1/2+x,-y,-z
-x,1/2+y,-z
-x,-y,-z
1/2+x,1/2+y,-z
1/2-x,y,z
x,1/2-y,z
loop_
_atom_site_type_symbol
_atom_site_label
_atom_site_fract_x
_atom_site_fract_y
_atom_site_fract_z
Si Si1 0.490723 0.916812 0.173298
Si Si2 0.956034 0.080820 0.459427
Si Si3 0.990583 0.922235 0.677933
Si Si4 0.893010 0.423383 0.922490
Si Si5 0.099332 0.579626 0.405385
Si Si6 0.192898 0.919456 0.313556
Si Si7 0.452510 0.080249 0.966260
Si Si8 0.191078 0.079325 0.165624
O O1 0.484574 0.750000 0.199815
O O2 0.438998 0.964489 0.132195
O O3 0.540227 0.932855 0.121082
O O4 0.501250 0.016870 0.242431
O O5 0.969078 0.250000 0.466090
O O6 0.959783 0.038891 0.373400
O O7 0.905145 0.044667 0.506765
O O8 0.000000 0.000000 0.500000
O O9 0.982207 0.750000 0.685112
O O10 0.939831 0.988496 0.643201
O O11 0.887901 0.250000 0.933100
O O12 0.840724 0.489367 0.893387
O O13 0.902954 0.497979 0.001897
O O14 0.087536 0.750000 0.390328
O O15 0.156304 0.540187 0.380899
O O16 0.250000 0.952881 0.339728
O O17 0.186808 0.750000 0.289511
O O18 0.177566 0.019486 0.245486
O O19 0.451660 0.250000 0.990352
O O20 0.500000 0.000000 0.000000
O O21 0.250000 0.053216 0.147722
O O22 0.176467 0.250000 0.162452
#
# Coordination Sequence:
#
# PCOD8239211 Si02
#       8
#     8   8   8   8   8   8   8   8
#     4   9  18  29  40  57  81 107 132 158 193 236
#     4   8  15  26  37  52  73  98 127 158 192 228
#     4  10  18  25  37  57  78 100 130 164 192 226
#     4  10  19  30  44  60  79 106 137 166 199 237
#     4   9  16  27  41  53  73 104 131 158 195 235
#     4   9  17  28  41  57  76 100 132 166 196 228
#     4   9  17  29  43  59  80 105 133 165 198 236
#     4  10  20  31  42  58  81 108 136 167 201 233
#
# _framework density 14.523211999999999
#
# number of rings (size 3 to 8) (size 9 to 14) (size 15 to 20)
#    0.000    2.750    0.000    3.000    0.000    7.750 
#    0.000    0.000    0.000    0.000    0.000    0.000 
#    0.000    1.000    0.000    4.250    0.000    1.875 
#
# Total GULP energy -792899.684819 kJ/mol
# GULP energy per Si atom -12389.057575 kJ/mol
# Density = 1.449016 g / cm^3
# Si number density = 14.523212 Si / 1000 Ang^3
#
#
#
# Elastic Constant Matrix: (Units=GPa)
#
#
# Indices 1 2 3 4 5 6 
#
# 1 68.3363 34.4554 48.3320 0.0000 0.0000 0.0000
# 2 34.4554 72.4473 45.5172 0.0000 0.0000 0.0000
# 3 48.3320 45.5172 89.0158 0.0000 0.0000 0.0000
# 4 0.0000 0.0000 0.0000 22.3504 0.0000 0.0000
# 5 0.0000 0.0000 0.0000 0.0000 27.6875 0.0000
# 6 0.0000 0.0000 0.0000 0.0000 0.0000 18.9408
#
#
#
# Elastic Compliance Matrix: (Units=1/GPa)
#
#
# Indices 1 2 3 4 5 6 
#
# 1 0.024898 -0.004932 -0.010996 0.000000 0.000000 0.000000
# 2 -0.004932 0.021314 -0.008220 0.000000 0.000000 0.000000
# 3 -0.010996 -0.008220 0.021408 0.000000 0.000000 0.000000
# 4 0.000000 0.000000 0.000000 0.044742 0.000000 0.000000
# 5 0.000000 0.000000 0.000000 0.000000 0.036117 0.000000
# 6 0.000000 0.000000 0.000000 0.000000 0.000000 0.052796
#
#
# Mechanical properties :
#
#
# Convention : Reuss Voigt Hill
#
# Bulk Modulus (GPa) = 51.75697 54.04539 52.90118
# Shear Modulus (GPa) = 19.53022 20.56207 20.04615
#
# Velocity S-wave (km/s) = 3.67107 3.76680 3.71925
# Velocity P-wave (km/s) = 7.32692 7.49749 7.41270
#
# Compressibility (1/GPa) = 0.01932107
#
# Stress axis : x y z
#
# Youngs Moduli (GPa) = 40.16414 46.91831 46.71164
#
# Poissons Ratio (x) = 0.23142 0.51366
# Poissons Ratio (y) = 0.19811 0.38399
# Poissons Ratio (z) = 0.44166 0.38569
#
# Static dielectric constant tensor:
#      x y z
#    x 2.749970 0.000000 0.000000 
#    y 0.000000 2.959880 0.000000 
#    z 0.000000 0.000000 3.074420 
# 
# 
# High freq. dielectric constant tensor:
#      x y z
#    x 1.521080 0.000000 0.000000 
#    y 0.000000 1.569690 0.000000 
#    z 0.000000 0.000000 1.545170 
# 
# From -- ./inp_files/28505.got.cif
#   From: 2010.03.12/outbox.cif.g09.slc.cpg/sg59_15_cif.got.tgz:28505.got - 2010.04.16 16:29:54.
