data_PCOD8239538
_publ_section_title
;
Structure prediction by ZEFSAII (Michael W. Deem and Ramdas Pophale) SiO2 
 PCOD8239538
Probable space group: P M M N
;
_chemical_formula_sum "Si O2"
_cell_formula_units_Z 64
_cell_length_a 8.925609
_cell_length_b 19.025494
_cell_length_c 21.221319
_cell_angle_alpha 90.000000
_cell_angle_beta 90.000000
_cell_angle_gamma 90.000000
_cell_volume 3603.679621
_symmetry_space_group_name_H-M "P M M N"
_symmetry_group_IT_number 59
_space_group.IT_coordinate_system_code '2'
_symmetry_cell_setting 'orthorhombic'
loop_
_space_group_symop_operation_xyz
x,y,z
1/2-x,1/2-y,z
1/2+x,-y,-z
-x,1/2+y,-z
-x,-y,-z
1/2+x,1/2+y,-z
1/2-x,y,z
x,1/2-y,z
loop_
_atom_site_type_symbol
_atom_site_label
_atom_site_fract_x
_atom_site_fract_y
_atom_site_fract_z
Si Si1 0.074623 0.828019 0.395589
Si Si2 0.078030 0.417513 0.852668
Si Si3 0.914734 0.129782 0.738089
Si Si4 0.072627 0.926668 0.018005
Si Si5 0.928196 0.328614 0.094353
Si Si6 0.072129 0.467021 0.561338
Si Si7 0.583889 0.523085 0.681192
Si Si8 0.576657 0.428886 0.203027
O O1 0.250000 0.848814 0.400126
O O2 0.044947 0.750000 0.423834
O O3 0.026103 0.826029 0.321863
O O4 0.979980 0.885807 0.433292
O O5 0.250000 0.402711 0.868529
O O6 0.051252 0.497539 0.832284
O O7 0.027254 0.364294 0.797015
O O8 0.979327 0.400840 0.913650
O O9 0.750000 0.156533 0.759024
O O10 0.903893 0.049899 0.716697
O O11 0.250000 0.935857 0.016529
O O12 0.016702 0.868695 0.968063
O O13 0.000000 0.000000 0.000000
O O14 0.750000 0.327423 0.095394
O O15 0.994984 0.250000 0.093979
O O16 0.986141 0.368528 0.156845
O O17 0.250000 0.469243 0.556900
O O18 0.000000 0.500000 0.500000
O O19 0.019410 0.514575 0.619878
O O20 0.750000 0.549461 0.661452
O O21 0.510704 0.577415 0.730669
O O22 0.750000 0.418204 0.219005
#
# Coordination Sequence:
#
# PCOD8239538 Si02
#       8
#     8   8   8   8   8   8   8   8
#     4   9  18  34  55  79 109 143 180 221 265 318
#     4  10  18  29  46  71  97 125 163 211 257 300
#     4   8  15  28  46  71  99 130 163 201 248 298
#     4  11  20  32  50  72  95 126 169 216 262 314
#     4   9  18  33  51  71  96 127 166 212 262 318
#     4  11  21  34  54  81 113 147 183 224 265 308
#     4   9  17  30  49  75 103 130 163 205 253 302
#     4   9  16  29  49  73  96 122 161 207 255 305
#
# _framework density 17.759625
#
# number of rings (size 3 to 8) (size 9 to 14) (size 15 to 20)
#    0.000    2.500    1.250    3.000    0.000    3.750 
#    0.000    0.625    0.000    7.875    0.000    1.750 
#    0.000    0.000    0.000    0.000    0.000    0.000 
#
# Total GULP energy -793384.529466 kJ/mol
# GULP energy per Si atom -12396.633273 kJ/mol
# Density = 1.771920 g / cm^3
# Si number density = 17.759625 Si / 1000 Ang^3
#
#
#
# Elastic Constant Matrix: (Units=GPa)
#
#
# Indices 1 2 3 4 5 6 
#
# 1 100.5859 41.2321 60.5601 0.0000 0.0000 0.0000
# 2 41.2321 83.9620 53.5801 0.0000 0.0000 0.0000
# 3 60.5601 53.5801 124.7427 0.0000 0.0000 0.0000
# 4 0.0000 0.0000 0.0000 19.2197 0.0000 0.0000
# 5 0.0000 0.0000 0.0000 0.0000 32.5361 0.0000
# 6 0.0000 0.0000 0.0000 0.0000 0.0000 16.8125
#
#
#
# Elastic Compliance Matrix: (Units=1/GPa)
#
#
# Indices 1 2 3 4 5 6 
#
# 1 0.014840 -0.003706 -0.005613 0.000000 0.000000 0.000000
# 2 -0.003706 0.017333 -0.005646 0.000000 0.000000 0.000000
# 3 -0.005613 -0.005646 0.013166 0.000000 0.000000 0.000000
# 4 0.000000 0.000000 0.000000 0.052030 0.000000 0.000000
# 5 0.000000 0.000000 0.000000 0.000000 0.030735 0.000000
# 6 0.000000 0.000000 0.000000 0.000000 0.000000 0.059479
#
#
# Mechanical properties :
#
#
# Convention : Reuss Voigt Hill
#
# Bulk Modulus (GPa) = 64.89093 68.89282 66.89187
# Shear Modulus (GPa) = 22.45679 23.97488 23.21583
#
# Velocity S-wave (km/s) = 3.55982 3.67817 3.61948
# Velocity P-wave (km/s) = 7.31534 7.54418 7.43064
#
# Compressibility (1/GPa) = 0.01541047
#
# Stress axis : x y z
#
# Youngs Moduli (GPa) = 67.38437 57.69378 75.95077
#
# Poissons Ratio (x) = 0.21381 0.42630
# Poissons Ratio (y) = 0.24972 0.42880
# Poissons Ratio (z) = 0.37822 0.32572
#
# Static dielectric constant tensor:
#      x y z
#    x 3.327810 0.000000 0.000000 
#    y 0.000000 3.282910 0.000000 
#    z 0.000000 0.000000 3.444370 
# 
# 
# High freq. dielectric constant tensor:
#      x y z
#    x 1.680900 0.000000 0.000000 
#    y 0.000000 1.655100 0.000000 
#    z 0.000000 0.000000 1.685910 
# 
# From -- ./inp_files/29594.got.cif
#   From: 2010.03.12/outbox.cif.g09.slc.cpg/sg59_15_cif.got.tgz:29594.got - 2010.04.16 16:29:54.
