data_PCOD8239896
_publ_section_title
;
Structure prediction by ZEFSAII (Michael W. Deem and Ramdas Pophale) SiO2 
 PCOD8239896
Probable space group: P M M N
;
_chemical_formula_sum "Si O2"
_cell_formula_units_Z 64
_cell_length_a 9.010226
_cell_length_b 20.010683
_cell_length_c 20.040313
_cell_angle_alpha 90.000000
_cell_angle_beta 90.000000
_cell_angle_gamma 90.000000
_cell_volume 3613.283990
_symmetry_space_group_name_H-M "P M M N"
_symmetry_group_IT_number 59
_space_group.IT_coordinate_system_code '2'
_symmetry_cell_setting 'orthorhombic'
loop_
_space_group_symop_operation_xyz
x,y,z
1/2-x,1/2-y,z
1/2+x,-y,-z
-x,1/2+y,-z
-x,-y,-z
1/2+x,1/2+y,-z
1/2-x,y,z
x,1/2-y,z
loop_
_atom_site_type_symbol
_atom_site_label
_atom_site_fract_x
_atom_site_fract_y
_atom_site_fract_z
Si Si1 0.923462 0.672547 0.836677
Si Si2 0.421261 0.562959 0.232110
Si Si3 0.423447 0.925167 0.734889
Si Si4 0.422056 0.951660 0.588435
Si Si5 0.575957 0.414753 0.554325
Si Si6 0.574055 0.323585 0.669596
Si Si7 0.422590 0.908760 0.944097
Si Si8 0.418836 0.542588 0.084742
O O1 0.750000 0.657283 0.837157
O O2 0.958719 0.750000 0.825398
O O3 0.995583 0.632075 0.776160
O O4 0.989537 0.650732 0.908122
O O5 0.250000 0.548142 0.250947
O O6 0.516793 0.497854 0.246904
O O7 0.485031 0.625544 0.273883
O O8 0.436520 0.582313 0.153992
O O9 0.250000 0.922679 0.751839
O O10 0.454073 0.910867 0.656269
O O11 0.250000 0.969902 0.582699
O O12 0.473159 0.908568 0.523426
O O13 0.507751 0.021170 0.590449
O O14 0.750000 0.424323 0.560227
O O15 0.525772 0.349616 0.595977
O O16 0.750000 0.318757 0.675019
O O17 0.503567 0.250000 0.680181
O O18 0.250000 0.898867 0.929075
O O19 0.472507 0.979406 0.913433
O O20 0.458247 0.907854 0.023416
O O21 0.250000 0.516124 0.075706
#
# Coordination Sequence:
#
# PCOD8239896 Si02
#       8
#     8   8   8   8   8   8   8   8
#     4  11  24  40  56  75 103 141 181 222 271 326
#     4  10  18  31  52  77 105 139 176 214 259 309
#     4  11  21  33  52  79 107 135 173 222 273 319
#     4   9  18  30  47  75 106 129 165 219 266 308
#     4   9  16  29  49  73 100 135 174 211 256 309
#     4   9  17  29  48  75 104 136 177 217 253 302
#     4  10  19  32  52  79 106 135 170 214 262 309
#     4   9  18  31  50  78 109 136 168 211 258 308
#
# _framework density 17.712419000000001
#
# number of rings (size 3 to 8) (size 9 to 14) (size 15 to 20)
#    0.000    2.250    2.500    1.125    0.000    2.000 
#    0.000    1.250    0.000    6.000    0.000    0.000 
#    0.000    0.000    0.000    0.000    0.000    0.000 
#
# Total GULP energy -793376.291612 kJ/mol
# GULP energy per Si atom -12396.504556 kJ/mol
# Density = 1.767210 g / cm^3
# Si number density = 17.712419 Si / 1000 Ang^3
#
#
#
# Elastic Constant Matrix: (Units=GPa)
#
#
# Indices 1 2 3 4 5 6 
#
# 1 65.2164 48.9787 42.5490 0.0000 0.0000 0.0000
# 2 48.9787 122.7115 74.9496 0.0000 0.0000 0.0000
# 3 42.5490 74.9496 138.0770 0.0000 0.0000 0.0000
# 4 0.0000 0.0000 0.0000 24.8053 0.0000 0.0000
# 5 0.0000 0.0000 0.0000 0.0000 21.6729 0.0000
# 6 0.0000 0.0000 0.0000 0.0000 0.0000 17.6353
#
#
#
# Elastic Compliance Matrix: (Units=1/GPa)
#
#
# Indices 1 2 3 4 5 6 
#
# 1 0.022759 -0.007181 -0.003115 0.000000 0.000000 0.000000
# 2 -0.007181 0.014457 -0.005634 0.000000 0.000000 0.000000
# 3 -0.003115 -0.005634 0.011261 0.000000 0.000000 0.000000
# 4 0.000000 0.000000 0.000000 0.040314 0.000000 0.000000
# 5 0.000000 0.000000 0.000000 0.000000 0.046141 0.000000
# 6 0.000000 0.000000 0.000000 0.000000 0.000000 0.056704
#
#
# Mechanical properties :
#
#
# Convention : Reuss Voigt Hill
#
# Bulk Modulus (GPa) = 60.18673 73.21773 66.70223
# Shear Modulus (GPa) = 21.83058 23.45787 22.64422
#
# Velocity S-wave (km/s) = 3.51451 3.64314 3.57940
# Velocity P-wave (km/s) = 7.10794 7.68917 7.40426
#
# Compressibility (1/GPa) = 0.01661496
#
# Stress axis : x y z
#
# Youngs Moduli (GPa) = 43.93782 69.17099 88.80416
#
# Poissons Ratio (x) = 0.49674 0.27665
# Poissons Ratio (y) = 0.31553 0.50036
# Poissons Ratio (z) = 0.13688 0.38974
#
# Static dielectric constant tensor:
#      x y z
#    x 3.238650 0.000000 0.000000 
#    y 0.000000 3.173070 0.000000 
#    z 0.000000 0.000000 3.783850 
# 
# 
# High freq. dielectric constant tensor:
#      x y z
#    x 1.676520 0.000000 0.000000 
#    y 0.000000 1.650190 0.000000 
#    z 0.000000 0.000000 1.706700 
# 
# From -- ./inp_files/29573.got.cif
#   From: 2010.03.12/outbox.cif.g09.slc.cpg/sg59_15_cif.got.tgz:29573.got - 2010.04.16 16:29:54.
