data_PCOD8239297
_publ_section_title
;
Structure prediction by ZEFSAII (Michael W. Deem and Ramdas Pophale) SiO2 
 PCOD8239297
Probable space group: P M M N
;
_chemical_formula_sum "Si O2"
_cell_formula_units_Z 64
_cell_length_a 9.590774
_cell_length_b 22.927284
_cell_length_c 16.896604
_cell_angle_alpha 90.000000
_cell_angle_beta 90.000000
_cell_angle_gamma 90.000000
_cell_volume 3715.401000
_symmetry_space_group_name_H-M "P M M N"
_symmetry_group_IT_number 59
_space_group.IT_coordinate_system_code '2'
_symmetry_cell_setting 'orthorhombic'
loop_
_space_group_symop_operation_xyz
x,y,z
1/2-x,1/2-y,z
1/2+x,-y,-z
-x,1/2+y,-z
-x,-y,-z
1/2+x,1/2+y,-z
1/2-x,y,z
x,1/2-y,z
loop_
_atom_site_type_symbol
_atom_site_label
_atom_site_fract_x
_atom_site_fract_y
_atom_site_fract_z
Si Si1 0.411788 0.893870 0.925864
Si Si2 0.097445 0.394323 0.311512
Si Si3 0.405321 0.021574 0.162651
Si Si4 0.910330 0.683471 0.039454
Si Si5 0.413334 0.496972 0.420790
Si Si6 0.591927 0.314672 0.226441
Si Si7 0.085571 0.578790 0.277108
Si Si8 0.590405 0.816039 0.225140
O O1 0.250000 0.905999 0.946755
O O2 0.486891 0.955463 0.904355
O O3 0.427941 0.850604 0.852961
O O4 0.487476 0.863129 0.999205
O O5 0.250000 0.367960 0.328318
O O6 0.103378 0.432654 0.233016
O O7 0.049184 0.434139 0.384210
O O8 0.991931 0.341185 0.300153
O O9 0.250000 0.014488 0.125284
O O10 0.457370 0.960500 0.200644
O O11 0.750000 0.670562 0.015383
O O12 0.948840 0.750000 0.014890
O O13 0.932397 0.675490 0.132234
O O14 0.500000 0.500000 0.500000
O O15 0.250000 0.502003 0.439642
O O16 0.457977 0.547214 0.358834
O O17 0.750000 0.314325 0.254707
O O18 0.536174 0.250000 0.208968
O O19 0.250000 0.589783 0.275540
O O20 0.006881 0.640181 0.273851
O O21 0.750000 0.829155 0.247581
O O22 0.550689 0.750000 0.249486
#
# Coordination Sequence:
#
# PCOD8239297 Si02
#       8
#     8   8   8   8   8   8   8   8
#     4  10  18  27  42  66  94 122 158 204 246 282
#     4   8  15  28  44  63  89 119 151 185 217 258
#     4   8  15  29  46  64  91 125 156 189 233 281
#     4   9  18  32  47  63  88 124 163 203 248 293
#     4   9  18  32  51  77 103 122 145 181 225 272
#     4   9  17  27  39  60  91 123 154 190 230 269
#     4   9  18  33  53  76 100 125 156 195 235 281
#     4   9  19  35  53  73  96 123 159 202 244 287
#
# _framework density 17.225597
#
# number of rings (size 3 to 8) (size 9 to 14) (size 15 to 20)
#    0.000    3.125    0.000    3.000    0.000    3.750 
#    0.000    4.375    0.000    0.750    0.000    0.000 
#    0.000    0.000    0.000    0.000    0.000    0.000 
#
# Total GULP energy -793283.343135 kJ/mol
# GULP energy per Si atom -12395.052236 kJ/mol
# Density = 1.718639 g / cm^3
# Si number density = 17.225597 Si / 1000 Ang^3
#
#
#
# Elastic Constant Matrix: (Units=GPa)
#
#
# Indices 1 2 3 4 5 6 
#
# 1 79.1954 51.4101 39.4903 0.0000 0.0000 0.0000
# 2 51.4101 91.3558 32.4368 0.0000 0.0000 0.0000
# 3 39.4903 32.4368 54.4811 0.0000 0.0000 0.0000
# 4 0.0000 0.0000 0.0000 19.6715 0.0000 0.0000
# 5 0.0000 0.0000 0.0000 0.0000 27.9085 0.0000
# 6 0.0000 0.0000 0.0000 0.0000 0.0000 31.4196
#
#
#
# Elastic Compliance Matrix: (Units=1/GPa)
#
#
# Indices 1 2 3 4 5 6 
#
# 1 0.025146 -0.009738 -0.012429 0.000000 0.000000 0.000000
# 2 -0.009738 0.017651 -0.003451 0.000000 0.000000 0.000000
# 3 -0.012429 -0.003451 0.029419 0.000000 0.000000 0.000000
# 4 0.000000 0.000000 0.000000 0.050835 0.000000 0.000000
# 5 0.000000 0.000000 0.000000 0.000000 0.035831 0.000000
# 6 0.000000 0.000000 0.000000 0.000000 0.000000 0.031827
#
#
# Mechanical properties :
#
#
# Convention : Reuss Voigt Hill
#
# Bulk Modulus (GPa) = 47.66350 52.41186 50.03768
# Shear Modulus (GPa) = 20.08520 22.57959 21.33239
#
# Velocity S-wave (km/s) = 3.41839 3.62445 3.52293
# Velocity P-wave (km/s) = 6.58109 6.92880 6.75718
#
# Compressibility (1/GPa) = 0.02098042
#
# Stress axis : x y z
#
# Youngs Moduli (GPa) = 39.76759 56.65292 33.99164
#
# Poissons Ratio (x) = 0.55167 0.42250
# Poissons Ratio (y) = 0.38724 0.11730
# Poissons Ratio (z) = 0.49429 0.19550
#
# Static dielectric constant tensor:
#      x y z
#    x 3.339000 0.000000 0.000000 
#    y 0.000000 3.328810 0.000000 
#    z 0.000000 0.000000 2.911830 
# 
# 
# High freq. dielectric constant tensor:
#      x y z
#    x 1.666310 0.000000 0.000000 
#    y 0.000000 1.660440 0.000000 
#    z 0.000000 0.000000 1.633340 
# 
# From -- ./inp_files/26534.got.cif
#   From: 2010.03.12/outbox.cif.g09.slc.cpg/sg59_14_cif.got.tgz:26534.got - 2010.04.16 16:29:54.
