data_PCOD8239128
_publ_section_title
;
Structure prediction by ZEFSAII (Michael W. Deem and Ramdas Pophale) SiO2 
 PCOD8239128
Probable space group: P M M N
;
_chemical_formula_sum "Si O2"
_cell_formula_units_Z 64
_cell_length_a 29.657713
_cell_length_b 9.496693
_cell_length_c 15.069012
_cell_angle_alpha 90.000000
_cell_angle_beta 90.000000
_cell_angle_gamma 90.000000
_cell_volume 4244.190175
_symmetry_space_group_name_H-M "P M M N"
_symmetry_group_IT_number 59
_space_group.IT_coordinate_system_code '2'
_symmetry_cell_setting 'orthorhombic'
loop_
_space_group_symop_operation_xyz
x,y,z
1/2-x,1/2-y,z
1/2+x,-y,-z
-x,1/2+y,-z
-x,-y,-z
1/2+x,1/2+y,-z
1/2-x,y,z
x,1/2-y,z
loop_
_atom_site_type_symbol
_atom_site_label
_atom_site_fract_x
_atom_site_fract_y
_atom_site_fract_z
Si Si1 0.962213 0.085003 0.813901
Si Si2 0.036903 0.910491 0.383910
Si Si3 0.604258 0.086106 0.964466
Si Si4 0.387190 0.414952 0.707637
Si Si5 0.200079 0.411929 0.800304
Si Si6 0.700073 0.412644 0.024814
Si Si7 0.437067 0.089560 0.540845
Si Si8 0.558270 0.917608 0.122151
O O1 0.968648 0.250000 0.800511
O O2 0.958247 0.021694 0.714605
O O3 0.917461 0.046140 0.869522
O O4 0.006464 0.031692 0.866870
O O5 0.054193 0.750000 0.386427
O O6 0.985557 0.921070 0.413850
O O7 0.067557 0.999949 0.451195
O O8 0.595281 0.250000 0.986391
O O9 0.658366 0.055116 0.958202
O O10 0.580134 0.993268 0.038337
O O11 0.396768 0.250000 0.701702
O O12 0.334709 0.452643 0.722664
O O13 0.402594 0.477885 0.613100
O O14 0.415838 0.472497 0.790434
O O15 0.250000 0.440272 0.762668
O O16 0.193268 0.250000 0.828726
O O17 0.190043 0.501811 0.886768
O O18 0.750000 0.453100 0.985110
O O19 0.699955 0.250000 0.051734
O O20 0.425266 0.250000 0.516017
O O21 0.562939 0.750000 0.108427
#
# Coordination Sequence:
#
# PCOD8239128 Si02
#       8
#     8   8   8   8   8   8   8   8
#     4   9  17  29  44  59  81 113 143 169 203 245
#     4   9  16  28  43  59  78 103 135 169 200 234
#     4  10  19  29  41  60  83 110 143 174 201 237
#     4   9  15  25  42  61  82 109 135 159 198 246
#     4   9  16  26  42  62  81 104 138 172 196 233
#     4   9  17  28  40  56  81 109 135 169 211 242
#     4   9  16  27  43  60  79 104 132 163 201 242
#     4  10  17  28  43  59  83 115 142 162 196 245
#
# _framework density 15.079437
#
# number of rings (size 3 to 8) (size 9 to 14) (size 15 to 20)
#    0.000    2.750    2.500    0.375    0.000    0.000 
#    0.000    2.500    0.000    0.000    0.000    0.875 
#    0.000    1.000    0.000    0.000    0.000    0.000 
#
# Total GULP energy -793135.766539 kJ/mol
# GULP energy per Si atom -12392.746352 kJ/mol
# Density = 1.504512 g / cm^3
# Si number density = 15.079437 Si / 1000 Ang^3
#
#
#
# Elastic Constant Matrix: (Units=GPa)
#
#
# Indices 1 2 3 4 5 6 
#
# 1 101.0209 24.6600 53.7177 0.0000 0.0000 0.0000
# 2 24.6600 33.2634 31.0109 0.0000 0.0000 0.0000
# 3 53.7177 31.0109 102.1776 0.0000 0.0000 0.0000
# 4 0.0000 0.0000 0.0000 20.1956 0.0000 0.0000
# 5 0.0000 0.0000 0.0000 0.0000 21.7319 0.0000
# 6 0.0000 0.0000 0.0000 0.0000 0.0000 13.9544
#
#
#
# Elastic Compliance Matrix: (Units=1/GPa)
#
#
# Indices 1 2 3 4 5 6 
#
# 1 0.014316 -0.005016 -0.006004 0.000000 0.000000 0.000000
# 2 -0.005016 0.043683 -0.010621 0.000000 0.000000 0.000000
# 3 -0.006004 -0.010621 0.016167 0.000000 0.000000 0.000000
# 4 0.000000 0.000000 0.000000 0.049516 0.000000 0.000000
# 5 0.000000 0.000000 0.000000 0.000000 0.046015 0.000000
# 6 0.000000 0.000000 0.000000 0.000000 0.000000 0.071662
#
#
# Mechanical properties :
#
#
# Convention : Reuss Voigt Hill
#
# Bulk Modulus (GPa) = 32.37860 50.58211 41.48035
# Shear Modulus (GPa) = 16.95287 19.64793 18.30040
#
# Velocity S-wave (km/s) = 3.35660 3.61357 3.48746
# Velocity P-wave (km/s) = 6.04492 7.14333 6.61695
#
# Compressibility (1/GPa) = 0.03088460
#
# Stress axis : x y z
#
# Youngs Moduli (GPa) = 69.85216 22.89206 61.85500
#
# Poissons Ratio (x) = 0.11482 0.37138
# Poissons Ratio (y) = 0.35036 0.65696
# Poissons Ratio (z) = 0.41939 0.24314
#
# Static dielectric constant tensor:
#      x y z
#    x 3.096160 0.000000 0.000000 
#    y 0.000000 2.655410 0.000000 
#    z 0.000000 0.000000 2.910160 
# 
# 
# High freq. dielectric constant tensor:
#      x y z
#    x 1.572390 0.000000 0.000000 
#    y 0.000000 1.556400 0.000000 
#    z 0.000000 0.000000 1.558750 
# 
# From -- ./inp_files/25097.got.cif
#   From: 2010.03.12/outbox.cif.g09.slc.cpg/sg59_13_cif.got.tgz:25097.got - 2010.04.16 16:29:54.
