data_PCOD8239732
_publ_section_title
;
Structure prediction by ZEFSAII (Michael W. Deem and Ramdas Pophale) SiO2 
 PCOD8239732
Probable space group: P M M N
;
_chemical_formula_sum "Si O2"
_cell_formula_units_Z 64
_cell_length_a 15.031674
_cell_length_b 31.138113
_cell_length_c 7.018980
_cell_angle_alpha 90.000000
_cell_angle_beta 90.000000
_cell_angle_gamma 90.000000
_cell_volume 3285.289485
_symmetry_space_group_name_H-M "P M M N"
_symmetry_group_IT_number 59
_space_group.IT_coordinate_system_code '2'
_symmetry_cell_setting 'orthorhombic'
loop_
_space_group_symop_operation_xyz
x,y,z
1/2-x,1/2-y,z
1/2+x,-y,-z
-x,1/2+y,-z
-x,-y,-z
1/2+x,1/2+y,-z
1/2-x,y,z
x,1/2-y,z
loop_
_atom_site_type_symbol
_atom_site_label
_atom_site_fract_x
_atom_site_fract_y
_atom_site_fract_z
Si Si1 0.848309 0.341890 0.504853
Si Si2 0.900772 0.867362 0.752065
Si Si3 0.354726 0.146718 0.814671
Si Si4 0.850562 0.416255 0.803443
Si Si5 0.652979 0.573109 0.448266
Si Si6 0.464979 0.300031 0.534340
Si Si7 0.356223 0.979247 0.512460
Si Si8 0.087318 0.907685 0.782381
O O1 0.750000 0.319411 0.505233
O O2 0.856582 0.372864 0.684399
O O3 0.852865 0.370057 0.311070
O O4 0.928334 0.307878 0.526131
O O5 0.832877 0.897749 0.637395
O O6 0.916824 0.822438 0.644451
O O7 0.986757 0.896943 0.736372
O O8 0.865986 0.856294 0.960024
O O9 0.250000 0.154777 0.766408
O O10 0.391107 0.102511 0.717187
O O11 0.417804 0.184170 0.730403
O O12 0.750000 0.426774 0.864367
O O13 0.891421 0.455225 0.677908
O O14 0.906776 0.409038 0.991577
O O15 0.750000 0.559698 0.373913
O O16 0.602762 0.527637 0.482427
O O17 0.447490 0.250000 0.516018
O O18 0.250000 0.978304 0.504488
O O19 0.388294 0.954209 0.699738
#
# Coordination Sequence:
#
# PCOD8239732 Si02
#       8
#     8   8   8   8   8   8   8   8
#     4   9  18  33  54  80 110 145 180 211 253 316
#     4  10  21  36  55  77 103 138 175 217 271 327
#     4  10  21  39  61  80 103 140 182 223 274 331
#     4   9  16  28  48  73 103 141 182 218 252 296
#     4   9  19  36  54  73 101 136 177 224 268 314
#     4  10  22  39  58  83 111 134 167 220 274 326
#     4   9  18  31  48  73 104 140 183 225 262 304
#     4  10  18  30  49  74 108 145 181 219 259 306
#
# _framework density 19.480781
#
# number of rings (size 3 to 8) (size 9 to 14) (size 15 to 20)
#    0.000    2.500    0.000    3.000    0.000    4.000 
#    0.000    5.000    0.000    0.000    0.000    3.500 
#    0.000    0.000    0.000    0.000    0.000    0.000 
#
# Total GULP energy -793171.542518 kJ/mol
# GULP energy per Si atom -12393.305352 kJ/mol
# Density = 1.943644 g / cm^3
# Si number density = 19.480781 Si / 1000 Ang^3
#
#
#
# Elastic Constant Matrix: (Units=GPa)
#
#
# Indices 1 2 3 4 5 6 
#
# 1 48.0674 15.4773 9.2584 0.0000 0.0000 0.0000
# 2 15.4773 106.7217 28.1093 0.0000 0.0000 0.0000
# 3 9.2584 28.1093 119.3826 0.0000 0.0000 0.0000
# 4 0.0000 0.0000 0.0000 13.7000 0.0000 0.0000
# 5 0.0000 0.0000 0.0000 0.0000 24.5600 0.0000
# 6 0.0000 0.0000 0.0000 0.0000 0.0000 18.0228
#
#
#
# Elastic Compliance Matrix: (Units=1/GPa)
#
#
# Indices 1 2 3 4 5 6 
#
# 1 0.021938 -0.002914 -0.001015 0.000000 0.000000 0.000000
# 2 -0.002914 0.010377 -0.002217 0.000000 0.000000 0.000000
# 3 -0.001015 -0.002217 0.008977 0.000000 0.000000 0.000000
# 4 0.000000 0.000000 0.000000 0.072993 0.000000 0.000000
# 5 0.000000 0.000000 0.000000 0.000000 0.040717 0.000000
# 6 0.000000 0.000000 0.000000 0.000000 0.000000 0.055485
#
#
# Mechanical properties :
#
#
# Convention : Reuss Voigt Hill
#
# Bulk Modulus (GPa) = 34.48422 42.20686 38.34554
# Shear Modulus (GPa) = 21.51037 26.01168 23.76103
#
# Velocity S-wave (km/s) = 3.32653 3.65807 3.49623
# Velocity P-wave (km/s) = 5.70040 6.28927 6.00206
#
# Compressibility (1/GPa) = 0.02899877
#
# Stress axis : x y z
#
# Youngs Moduli (GPa) = 45.58299 96.36878 111.39288
#
# Poissons Ratio (x) = 0.28084 0.11308
# Poissons Ratio (y) = 0.13284 0.24699
# Poissons Ratio (z) = 0.04628 0.21368
#
# Static dielectric constant tensor:
#      x y z
#    x 3.621870 0.000000 0.000000 
#    y 0.000000 3.413120 0.000000 
#    z 0.000000 0.000000 3.491370 
# 
# 
# High freq. dielectric constant tensor:
#      x y z
#    x 1.764200 0.000000 0.000000 
#    y 0.000000 1.737080 0.000000 
#    z 0.000000 0.000000 1.755400 
# 
# From -- ./inp_files/3035.got.cif
#   From: 2010.03.12/outbox.cif.g09.slc.cpg/sg59_2_cif.got.tgz:3035.got - 2010.04.16 16:29:54.
