data_PCOD8239085
_publ_section_title
;
Structure prediction by ZEFSAII (Michael W. Deem and Ramdas Pophale) SiO2 
 PCOD8239085
Probable space group: P M M N
;
_chemical_formula_sum "Si O2"
_cell_formula_units_Z 56
_cell_length_a 24.798086
_cell_length_b 8.684368
_cell_length_c 16.197893
_cell_angle_alpha 90.000000
_cell_angle_beta 90.000000
_cell_angle_gamma 90.000000
_cell_volume 3488.308659
_symmetry_space_group_name_H-M "P M M N"
_symmetry_group_IT_number 59
_space_group.IT_coordinate_system_code '2'
_symmetry_cell_setting 'orthorhombic'
loop_
_space_group_symop_operation_xyz
x,y,z
1/2-x,1/2-y,z
1/2+x,-y,-z
-x,1/2+y,-z
-x,-y,-z
1/2+x,1/2+y,-z
1/2-x,y,z
x,1/2-y,z
loop_
_atom_site_type_symbol
_atom_site_label
_atom_site_fract_x
_atom_site_fract_y
_atom_site_fract_z
Si Si1 0.507159 0.568589 0.810703
Si Si2 0.401647 0.067510 0.889933
Si Si3 0.585456 0.069447 0.486816
Si Si4 0.190525 0.432854 0.771671
Si Si5 0.810693 0.932100 0.413091
Si Si6 0.053600 0.567127 0.041180
Si Si7 0.985560 0.930406 0.620882
O O1 0.498419 0.750000 0.822893
O O2 0.454442 0.478048 0.839211
O O3 0.557293 0.508062 0.867175
O O4 0.518693 0.524920 0.716482
O O5 0.399826 0.250000 0.901330
O O6 0.351418 0.001326 0.837981
O O7 0.398346 0.988171 0.980665
O O8 0.591838 0.250000 0.486464
O O9 0.543368 0.014645 0.415708
O O10 0.644698 0.999987 0.474058
O O11 0.563308 0.015873 0.575363
O O12 0.250000 0.488978 0.798093
O O13 0.187813 0.250000 0.770200
O O14 0.177190 0.493481 0.679602
O O15 0.750000 0.983389 0.439756
O O16 0.814844 0.750000 0.415923
O O17 0.051858 0.750000 0.047642
O O18 0.000000 0.500000 0.000000
O O19 0.978389 0.750000 0.606078
#
# Coordination Sequence:
#
# PCOD8239085 Si02
#       7
#     8   8   8   8   8   8   8
#     4  10  18  29  44  62  86 113 144 178 212 252
#     4  10  17  26  43  64  87 115 144 175 213 252
#     4  10  19  30  45  66  91 117 147 182 220 263
#     4   8  15  27  43  64  87 113 147 180 207 244
#     4   9  17  30  47  65  88 119 151 182 217 257
#     4  10  18  28  41  59  85 112 141 173 207 250
#     4   9  19  32  45  63  89 120 148 179 221 267
#
# _framework density 16.053625
#
# number of rings (size 3 to 8) (size 9 to 14) (size 15 to 20)
#    0.000    2.571    0.000    6.000    0.000    2.000 
#    0.000    0.714    0.000    3.429    0.000    1.000 
#    0.000    3.429    0.000    0.000    0.000    0.000 
#
# Total GULP energy -694122.306433 kJ/mol
# GULP energy per Si atom -12395.041186 kJ/mol
# Density = 1.601709 g / cm^3
# Si number density = 16.053625 Si / 1000 Ang^3
#
#
#
# Elastic Constant Matrix: (Units=GPa)
#
#
# Indices 1 2 3 4 5 6 
#
# 1 97.8618 21.6888 54.7388 0.0000 0.0000 0.0000
# 2 21.6888 49.7258 28.8976 0.0000 0.0000 0.0000
# 3 54.7388 28.8976 110.6432 0.0000 0.0000 0.0000
# 4 0.0000 0.0000 0.0000 23.5245 0.0000 0.0000
# 5 0.0000 0.0000 0.0000 0.0000 28.2817 0.0000
# 6 0.0000 0.0000 0.0000 0.0000 0.0000 18.6809
#
#
#
# Elastic Compliance Matrix: (Units=1/GPa)
#
#
# Indices 1 2 3 4 5 6 
#
# 1 0.014392 -0.002522 -0.006461 0.000000 0.000000 0.000000
# 2 -0.002522 0.024151 -0.005060 0.000000 0.000000 0.000000
# 3 -0.006461 -0.005060 0.013556 0.000000 0.000000 0.000000
# 4 0.000000 0.000000 0.000000 0.042509 0.000000 0.000000
# 5 0.000000 0.000000 0.000000 0.000000 0.035359 0.000000
# 6 0.000000 0.000000 0.000000 0.000000 0.000000 0.053531
#
#
# Mechanical properties :
#
#
# Convention : Reuss Voigt Hill
#
# Bulk Modulus (GPa) = 41.64592 52.09792 46.87192
# Shear Modulus (GPa) = 22.77000 24.29114 23.53057
#
# Velocity S-wave (km/s) = 3.77021 3.89411 3.83266
# Velocity P-wave (km/s) = 6.70453 7.26235 6.98901
#
# Compressibility (1/GPa) = 0.02401195
#
# Stress axis : x y z
#
# Youngs Moduli (GPa) = 69.48519 41.40633 73.76729
#
# Poissons Ratio (x) = 0.10444 0.47663
# Poissons Ratio (y) = 0.17526 0.37325
# Poissons Ratio (z) = 0.44896 0.20951
#
# Static dielectric constant tensor:
#      x y z
#    x 3.078520 0.000000 0.000000 
#    y 0.000000 2.941460 0.000000 
#    z 0.000000 0.000000 3.423310 
# 
# 
# High freq. dielectric constant tensor:
#      x y z
#    x 1.588910 0.000000 0.000000 
#    y 0.000000 1.616300 0.000000 
#    z 0.000000 0.000000 1.613330 
# 
# From -- ./inp_files/28085.got.cif
#   From: 2010.03.12/outbox.cif.g09.slc.cpg/sg59_15_cif.got.tgz:28085.got - 2010.04.16 16:29:54.
