data_PCOD8239313
_publ_section_title
;
Structure prediction by ZEFSAII (Michael W. Deem and Ramdas Pophale) SiO2 
 PCOD8239313
Probable space group: P M M N
;
_chemical_formula_sum "Si O2"
_cell_formula_units_Z 48
_cell_length_a 19.961551
_cell_length_b 9.076228
_cell_length_c 15.456622
_cell_angle_alpha 90.000000
_cell_angle_beta 90.000000
_cell_angle_gamma 90.000000
_cell_volume 2800.362581
_symmetry_space_group_name_H-M "P M M N"
_symmetry_group_IT_number 59
_space_group.IT_coordinate_system_code '2'
_symmetry_cell_setting 'orthorhombic'
loop_
_space_group_symop_operation_xyz
x,y,z
1/2-x,1/2-y,z
1/2+x,-y,-z
-x,1/2+y,-z
-x,-y,-z
1/2+x,1/2+y,-z
1/2-x,y,z
x,1/2-y,z
loop_
_atom_site_type_symbol
_atom_site_label
_atom_site_fract_x
_atom_site_fract_y
_atom_site_fract_z
Si Si1 0.570640 0.425294 0.732031
Si Si2 0.675319 0.075013 0.591565
Si Si3 0.324561 0.575125 0.601282
Si Si4 0.570307 0.074364 0.257701
Si Si5 0.418958 0.587374 0.077695
Si Si6 0.078073 0.086177 0.915213
O O1 0.557773 0.250000 0.726395
O O2 0.622095 0.486674 0.660501
O O3 0.501030 0.507654 0.716732
O O4 0.601792 0.466128 0.826122
O O5 0.750000 0.017433 0.614604
O O6 0.674834 0.250000 0.595710
O O7 0.655153 0.021039 0.495204
O O8 0.250000 0.516538 0.624445
O O9 0.324047 0.750000 0.602932
O O10 0.377775 0.515556 0.670338
O O11 0.565144 0.250000 0.253907
O O12 0.597282 0.016292 0.165668
O O13 0.389831 0.750000 0.059358
O O14 0.498846 0.592610 0.074864
O O15 0.390314 0.479666 0.003673
O O16 0.107368 0.250000 0.901237
#
# Coordination Sequence:
#
# PCOD8239313 Si02
#       6
#     8   8   8   8   8   8
#     4   9  17  28  44  68  94 116 142 180 221 258
#     4   8  14  27  47  67  87 115 150 183 215 255
#     4   8  15  28  45  65  88 115 149 185 218 255
#     4  10  18  27  43  67  92 117 145 180 222 261
#     4   8  14  24  38  59  87 116 143 173 213 259
#     4   9  16  26  41  61  86 116 147 179 215 256
#
# _framework density 17.140637999999999
#
# number of rings (size 3 to 8) (size 9 to 14) (size 15 to 20)
#    0.000    3.333    0.000    3.000    0.000    4.667 
#    0.000    0.000    0.000    4.500    0.000    9.333 
#    0.000    0.000    0.000    0.000    0.000    0.000 
#
# Total GULP energy -594843.128941 kJ/mol
# GULP energy per Si atom -12392.565186 kJ/mol
# Density = 1.710163 g / cm^3
# Si number density = 17.140638 Si / 1000 Ang^3
#
#
#
# Elastic Constant Matrix: (Units=GPa)
#
#
# Indices 1 2 3 4 5 6 
#
# 1 71.3981 31.3687 79.7706 0.0000 0.0000 0.0000
# 2 31.3687 56.1160 47.3099 0.0000 0.0000 0.0000
# 3 79.7706 47.3099 168.5280 0.0000 0.0000 0.0000
# 4 0.0000 0.0000 0.0000 18.4332 0.0000 0.0000
# 5 0.0000 0.0000 0.0000 0.0000 7.2666 0.0000
# 6 0.0000 0.0000 0.0000 0.0000 0.0000 13.0781
#
#
#
# Elastic Compliance Matrix: (Units=1/GPa)
#
#
# Indices 1 2 3 4 5 6 
#
# 1 0.031487 -0.006597 -0.013052 0.000000 0.000000 0.000000
# 2 -0.006597 0.024728 -0.003819 0.000000 0.000000 0.000000
# 3 -0.013052 -0.003819 0.013184 0.000000 0.000000 0.000000
# 4 0.000000 0.000000 0.000000 0.054250 0.000000 0.000000
# 5 0.000000 0.000000 0.000000 0.000000 0.137615 0.000000
# 6 0.000000 0.000000 0.000000 0.000000 0.000000 0.076464
#
#
# Mechanical properties :
#
#
# Convention : Reuss Voigt Hill
#
# Bulk Modulus (GPa) = 44.51951 68.10449 56.31200
# Shear Modulus (GPa) = 12.75019 16.92845 14.83932
#
# Velocity S-wave (km/s) = 2.73033 3.14605 2.94554
# Velocity P-wave (km/s) = 5.99742 7.28120 6.67027
#
# Compressibility (1/GPa) = 0.02246206
#
# Stress axis : x y z
#
# Youngs Moduli (GPa) = 31.75922 40.44044 75.85112
#
# Poissons Ratio (x) = 0.26680 0.99000
# Poissons Ratio (y) = 0.20953 0.28967
# Poissons Ratio (z) = 0.41452 0.15444
#
# Static dielectric constant tensor:
#      x y z
#    x 3.002930 0.000000 0.000000 
#    y 0.000000 3.014130 0.000000 
#    z 0.000000 0.000000 3.632200 
# 
# 
# High freq. dielectric constant tensor:
#      x y z
#    x 1.618590 0.000000 0.000000 
#    y 0.000000 1.633780 0.000000 
#    z 0.000000 0.000000 1.678160 
# 
# From -- ./inp_files/24507.got.cif
#   From: 2010.03.12/outbox.cif.g09.slc.cpg/sg59_13_cif.got.tgz:24507.got - 2010.04.16 16:29:54.
