data_PCOD8239182
_publ_section_title
;
Structure prediction by ZEFSAII (Michael W. Deem and Ramdas Pophale) SiO2 
 PCOD8239182
Probable space group: P M M N
;
_chemical_formula_sum "Si O2"
_cell_formula_units_Z 64
_cell_length_a 9.082668
_cell_length_b 19.774365
_cell_length_c 20.178002
_cell_angle_alpha 90.000000
_cell_angle_beta 90.000000
_cell_angle_gamma 90.000000
_cell_volume 3624.049714
_symmetry_space_group_name_H-M "P M M N"
_symmetry_group_IT_number 59
_space_group.IT_coordinate_system_code '2'
_symmetry_cell_setting 'orthorhombic'
loop_
_space_group_symop_operation_xyz
x,y,z
1/2-x,1/2-y,z
1/2+x,-y,-z
-x,1/2+y,-z
-x,-y,-z
1/2+x,1/2+y,-z
1/2-x,y,z
x,1/2-y,z
loop_
_atom_site_type_symbol
_atom_site_label
_atom_site_fract_x
_atom_site_fract_y
_atom_site_fract_z
Si Si1 0.922183 0.091887 0.951828
Si Si2 0.421189 0.591609 0.545351
Si Si3 0.579018 0.671578 0.159364
Si Si4 0.575804 0.570199 0.271705
Si Si5 0.921268 0.938275 0.418230
Si Si6 0.577622 0.938982 0.916812
Si Si7 0.925232 0.427018 0.217583
Si Si8 0.074829 0.825761 0.669092
O O1 0.750000 0.103362 0.963588
O O2 0.983795 0.149158 0.903352
O O3 0.955684 0.018840 0.920395
O O4 0.005312 0.099522 0.021379
O O5 0.250000 0.602808 0.533417
O O6 0.499406 0.605153 0.475156
O O7 0.455383 0.517226 0.572688
O O8 0.484179 0.643750 0.599817
O O9 0.750000 0.655843 0.144614
O O10 0.551245 0.750000 0.173419
O O11 0.525055 0.631349 0.224549
O O12 0.750000 0.564403 0.276533
O O13 0.515374 0.583042 0.346087
O O14 0.515990 0.499540 0.242847
O O15 0.750000 0.922456 0.424081
O O16 0.750000 0.923370 0.916465
O O17 0.502674 0.909223 0.851397
O O18 0.750000 0.426776 0.207701
O O19 0.979586 0.370677 0.269458
O O20 0.250000 0.827046 0.667551
O O21 0.013072 0.750000 0.677511
#
# Coordination Sequence:
#
# PCOD8239182 Si02
#       8
#     8   8   8   8   8   8   8   8
#     4  10  20  34  53  77 103 134 169 209 253 300
#     4   9  16  28  46  70  97 127 163 204 249 294
#     4  10  20  34  53  76 103 136 170 208 258 309
#     4   9  16  29  50  73  98 130 169 209 250 302
#     4   9  16  28  47  71  97 126 163 207 249 291
#     4  10  20  33  52  79 106 130 165 213 259 299
#     4  10  17  30  53  76  99 132 171 211 254 302
#     4   9  17  30  50  75 101 131 169 209 252 306
#
# _framework density 17.659801999999999
#
# number of rings (size 3 to 8) (size 9 to 14) (size 15 to 20)
#    0.000    2.500    2.500    0.750    0.000    1.250 
#    0.000    3.125    0.000    4.500    0.000    0.000 
#    0.000    0.000    0.000    0.000    0.000    0.000 
#
# Total GULP energy -793612.190475 kJ/mol
# GULP energy per Si atom -12400.190476 kJ/mol
# Density = 1.761961 g / cm^3
# Si number density = 17.659802 Si / 1000 Ang^3
#
#
#
# Elastic Constant Matrix: (Units=GPa)
#
#
# Indices 1 2 3 4 5 6 
#
# 1 46.8207 33.0102 50.9973 0.0000 0.0000 0.0000
# 2 33.0102 98.3823 71.5951 0.0000 0.0000 0.0000
# 3 50.9973 71.5951 185.1313 0.0000 0.0000 0.0000
# 4 0.0000 0.0000 0.0000 27.9258 0.0000 0.0000
# 5 0.0000 0.0000 0.0000 0.0000 31.7479 0.0000
# 6 0.0000 0.0000 0.0000 0.0000 0.0000 14.9090
#
#
#
# Elastic Compliance Matrix: (Units=1/GPa)
#
#
# Indices 1 2 3 4 5 6 
#
# 1 0.033031 -0.006209 -0.006698 0.000000 0.000000 0.000000
# 2 -0.006209 0.015312 -0.004211 0.000000 0.000000 0.000000
# 3 -0.006698 -0.004211 0.008875 0.000000 0.000000 0.000000
# 4 0.000000 0.000000 0.000000 0.035809 0.000000 0.000000
# 5 0.000000 0.000000 0.000000 0.000000 0.031498 0.000000
# 6 0.000000 0.000000 0.000000 0.000000 0.000000 0.067073
#
#
# Mechanical properties :
#
#
# Convention : Reuss Voigt Hill
#
# Bulk Modulus (GPa) = 43.51125 71.28219 57.39672
# Shear Modulus (GPa) = 21.41369 26.56532 23.98951
#
# Velocity S-wave (km/s) = 3.48597 3.88272 3.68968
# Velocity P-wave (km/s) = 6.39490 7.78154 7.12205
#
# Compressibility (1/GPa) = 0.02298256
#
# Stress axis : x y z
#
# Youngs Moduli (GPa) = 30.27495 65.30667 112.67304
#
# Poissons Ratio (x) = 0.40547 0.75466
# Poissons Ratio (y) = 0.18797 0.47451
# Poissons Ratio (z) = 0.20277 0.27503
#
# Static dielectric constant tensor:
#      x y z
#    x 2.994420 0.000000 0.000000 
#    y 0.000000 3.136820 0.000000 
#    z 0.000000 0.000000 3.504260 
# 
# 
# High freq. dielectric constant tensor:
#      x y z
#    x 1.654590 0.000000 0.000000 
#    y 0.000000 1.656950 0.000000 
#    z 0.000000 0.000000 1.699640 
# 
# From -- ./inp_files/29691.got.cif
#   From: 2010.03.12/outbox.cif.g09.slc.cpg/sg59_15_cif.got.tgz:29691.got - 2010.04.16 16:29:54.
