data_PCOD8239338
_publ_section_title
;
Structure prediction by ZEFSAII (Michael W. Deem and Ramdas Pophale) SiO2 
 PCOD8239338
Probable space group: P M M N
;
_chemical_formula_sum "Si O2"
_cell_formula_units_Z 64
_cell_length_a 9.180114
_cell_length_b 24.529366
_cell_length_c 18.840295
_cell_angle_alpha 90.000000
_cell_angle_beta 90.000000
_cell_angle_gamma 90.000000
_cell_volume 4242.502397
_symmetry_space_group_name_H-M "P M M N"
_symmetry_group_IT_number 59
_space_group.IT_coordinate_system_code '2'
_symmetry_cell_setting 'orthorhombic'
loop_
_space_group_symop_operation_xyz
x,y,z
1/2-x,1/2-y,z
1/2+x,-y,-z
-x,1/2+y,-z
-x,-y,-z
1/2+x,1/2+y,-z
1/2-x,y,z
x,1/2-y,z
loop_
_atom_site_type_symbol
_atom_site_label
_atom_site_fract_x
_atom_site_fract_y
_atom_site_fract_z
Si Si1 0.917021 0.577631 0.546496
Si Si2 0.411924 0.185961 0.220274
Si Si3 0.917870 0.493041 0.262110
Si Si4 0.917354 0.972753 0.408600
Si Si5 0.578133 0.379576 0.330426
Si Si6 0.078950 0.012598 0.892549
Si Si7 0.080836 0.812092 0.919276
Si Si8 0.418374 0.581991 0.999660
O O1 0.750000 0.587530 0.568248
O O2 0.935817 0.580404 0.459795
O O3 0.964655 0.516951 0.567818
O O4 0.016787 0.621013 0.588542
O O5 0.250000 0.159996 0.222735
O O6 0.400664 0.250000 0.221700
O O7 0.506159 0.169609 0.288245
O O8 0.491020 0.167410 0.148436
O O9 0.750000 0.485366 0.243924
O O10 0.943674 0.538815 0.324154
O O11 0.974375 0.435210 0.292070
O O12 0.990834 0.509202 0.187027
O O13 0.750000 0.995543 0.416659
O O14 0.750000 0.371850 0.332884
O O15 0.250000 0.023440 0.891141
O O16 0.039756 0.956463 0.932943
O O17 0.008409 0.064552 0.931310
O O18 0.250000 0.815828 0.898165
O O19 0.040146 0.750000 0.942625
O O20 0.044770 0.854803 0.982039
O O21 0.250000 0.574746 0.018349
#
# Coordination Sequence:
#
# PCOD8239338 Si02
#       8
#     8   8   8   8   8   8   8   8
#     4   9  15  23  36  55  78 102 130 162 195 229
#     4  10  20  31  42  59  82 103 127 165 205 235
#     4   8  14  25  40  57  76 102 137 168 194 231
#     4   8  14  24  37  53  76 105 132 160 194 231
#     4  10  18  28  42  57  77 107 139 166 194 235
#     4   9  16  26  40  56  77 107 137 164 198 238
#     4   9  17  30  47  62  77 103 136 166 199 240
#     4   9  17  28  40  57  81 105 133 167 199 237
#
# _framework density 15.085436
#
# number of rings (size 3 to 8) (size 9 to 14) (size 15 to 20)
#    0.000    3.000    0.000    2.625    0.000    3.750 
#    0.000    5.625    0.000    0.000    0.000    0.000 
#    0.000    1.000    0.000    9.250    0.000    2.125 
#
# Total GULP energy -792906.615621 kJ/mol
# GULP energy per Si atom -12389.165869 kJ/mol
# Density = 1.505110 g / cm^3
# Si number density = 15.085436 Si / 1000 Ang^3
#
#
#
# Elastic Constant Matrix: (Units=GPa)
#
#
# Indices 1 2 3 4 5 6 
#
# 1 55.3500 15.4722 26.0254 0.0000 0.0000 0.0000
# 2 15.4722 34.8954 20.8697 0.0000 0.0000 0.0000
# 3 26.0254 20.8697 99.7487 0.0000 0.0000 0.0000
# 4 0.0000 0.0000 0.0000 24.3596 0.0000 0.0000
# 5 0.0000 0.0000 0.0000 0.0000 22.5810 0.0000
# 6 0.0000 0.0000 0.0000 0.0000 0.0000 17.6460
#
#
#
# Elastic Compliance Matrix: (Units=1/GPa)
#
#
# Indices 1 2 3 4 5 6 
#
# 1 0.022091 -0.007256 -0.004246 0.000000 0.000000 0.000000
# 2 -0.007256 0.035139 -0.005459 0.000000 0.000000 0.000000
# 3 -0.004246 -0.005459 0.012275 0.000000 0.000000 0.000000
# 4 0.000000 0.000000 0.000000 0.041052 0.000000 0.000000
# 5 0.000000 0.000000 0.000000 0.000000 0.044285 0.000000
# 6 0.000000 0.000000 0.000000 0.000000 0.000000 0.056670
#
#
# Mechanical properties :
#
#
# Convention : Reuss Voigt Hill
#
# Bulk Modulus (GPa) = 28.10197 34.96985 31.53591
# Shear Modulus (GPa) = 19.43300 21.42577 20.42938
#
# Velocity S-wave (km/s) = 3.59304 3.77277 3.68400
# Velocity P-wave (km/s) = 5.99018 6.49691 6.24868
#
# Compressibility (1/GPa) = 0.03558469
#
# Stress axis : x y z
#
# Youngs Moduli (GPa) = 45.26632 28.45847 81.46605
#
# Poissons Ratio (x) = 0.20649 0.34589
# Poissons Ratio (y) = 0.32845 0.44470
# Poissons Ratio (z) = 0.19219 0.15535
#
# Static dielectric constant tensor:
#      x y z
#    x 2.978730 0.000000 0.000000 
#    y 0.000000 2.647040 0.000000 
#    z 0.000000 0.000000 3.219630 
# 
# 
# High freq. dielectric constant tensor:
#      x y z
#    x 1.578660 0.000000 0.000000 
#    y 0.000000 1.528650 0.000000 
#    z 0.000000 0.000000 1.577160 
# 
# From -- ./inp_files/26682.got.cif
#   From: 2010.03.12/outbox.cif.g09.slc.cpg/sg59_14_cif.got.tgz:26682.got - 2010.04.16 16:29:54.
