data_PCOD8239933
_publ_section_title
;
Structure prediction by ZEFSAII (Michael W. Deem and Ramdas Pophale) SiO2 
 PCOD8239933
Probable space group: P M M N
;
_chemical_formula_sum "Si O2"
_cell_formula_units_Z 48
_cell_length_a 8.880721
_cell_length_b 15.515671
_cell_length_c 17.293813
_cell_angle_alpha 90.000000
_cell_angle_beta 90.000000
_cell_angle_gamma 90.000000
_cell_volume 2382.920464
_symmetry_space_group_name_H-M "P M M N"
_symmetry_group_IT_number 59
_space_group.IT_coordinate_system_code '2'
_symmetry_cell_setting 'orthorhombic'
loop_
_space_group_symop_operation_xyz
x,y,z
1/2-x,1/2-y,z
1/2+x,-y,-z
-x,1/2+y,-z
-x,-y,-z
1/2+x,1/2+y,-z
1/2-x,y,z
x,1/2-y,z
loop_
_atom_site_type_symbol
_atom_site_label
_atom_site_fract_x
_atom_site_fract_y
_atom_site_fract_z
Si Si1 0.572104 0.998175 0.416576
Si Si2 0.573945 0.152862 0.677008
Si Si3 0.926590 0.091153 0.839196
Si Si4 0.422937 0.654476 0.689677
Si Si5 0.572224 0.093358 0.005940
Si Si6 0.427994 0.103245 0.157674
O O1 0.750000 0.999505 0.425563
O O2 0.514965 0.082286 0.369395
O O3 0.500000 0.000000 0.500000
O O4 0.522293 0.911048 0.374799
O O5 0.750000 0.128918 0.669758
O O6 0.544510 0.250000 0.648274
O O7 0.516357 0.146261 0.766090
O O8 0.750000 0.080734 0.832741
O O9 0.991832 0.994127 0.833851
O O10 0.965229 0.136903 0.921830
O O11 0.250000 0.634344 0.710002
O O12 0.439778 0.750000 0.652069
O O13 0.517334 0.656014 0.768512
O O14 0.750000 0.086944 0.019162
O O15 0.497718 0.143650 0.078273
O O16 0.500000 0.000000 0.000000
O O17 0.250000 0.109602 0.151447
#
# Coordination Sequence:
#
# PCOD8239933 Si02
#       6
#     8   8   8   8   8   8
#     4  11  24  42  65  91 119 151 188 236 294 357
#     4  10  20  37  62  89 119 156 196 239 289 346
#     4   8  15  29  50  78 112 152 196 238 281 335
#     4  10  22  40  61  86 115 150 193 240 292 350
#     4   9  16  27  46  76 113 154 201 247 290 336
#     4  10  18  31  53  80 114 154 196 243 295 348
#
# _framework density 20.143349000000001
#
# number of rings (size 3 to 8) (size 9 to 14) (size 15 to 20)
#    0.000    2.333    1.667    2.500    0.000    2.000 
#    0.000    3.333    0.000    3.000    0.000    0.000 
#    0.000    0.000    0.000    0.000    0.000    0.000 
#
# Total GULP energy -594857.827869 kJ/mol
# GULP energy per Si atom -12392.871414 kJ/mol
# Density = 2.009750 g / cm^3
# Si number density = 20.143349 Si / 1000 Ang^3
#
#
#
# Elastic Constant Matrix: (Units=GPa)
#
#
# Indices 1 2 3 4 5 6 
#
# 1 72.7346 26.7946 50.9551 0.0000 0.0000 0.0000
# 2 26.7946 93.2724 53.9585 0.0000 0.0000 0.0000
# 3 50.9551 53.9585 168.5588 0.0000 0.0000 0.0000
# 4 0.0000 0.0000 0.0000 5.4661 0.0000 0.0000
# 5 0.0000 0.0000 0.0000 0.0000 34.8010 0.0000
# 6 0.0000 0.0000 0.0000 0.0000 0.0000 21.8399
#
#
#
# Elastic Compliance Matrix: (Units=1/GPa)
#
#
# Indices 1 2 3 4 5 6 
#
# 1 0.017894 -0.002468 -0.004619 0.000000 0.000000 0.000000
# 2 -0.002468 0.013498 -0.003575 0.000000 0.000000 0.000000
# 3 -0.004619 -0.003575 0.008473 0.000000 0.000000 0.000000
# 4 0.000000 0.000000 0.000000 0.182945 0.000000 0.000000
# 5 0.000000 0.000000 0.000000 0.000000 0.028735 0.000000
# 6 0.000000 0.000000 0.000000 0.000000 0.000000 0.045788
#
#
# Mechanical properties :
#
#
# Convention : Reuss Voigt Hill
#
# Bulk Modulus (GPa) = 53.93425 66.44248 60.18836
# Shear Modulus (GPa) = 15.39229 25.94525 20.66877
#
# Velocity S-wave (km/s) = 2.76730 3.59281 3.20673
# Velocity P-wave (km/s) = 6.08637 7.08995 6.60725
#
# Compressibility (1/GPa) = 0.01854110
#
# Stress axis : x y z
#
# Youngs Moduli (GPa) = 55.88495 74.08260 118.01605
#
# Poissons Ratio (x) = 0.18285 0.54514
# Poissons Ratio (y) = 0.13794 0.42190
# Poissons Ratio (z) = 0.25814 0.26484
#
# Static dielectric constant tensor:
#      x y z
#    x 3.510900 0.000000 0.000000 
#    y 0.000000 3.555040 0.000000 
#    z 0.000000 0.000000 4.134180 
# 
# 
# High freq. dielectric constant tensor:
#      x y z
#    x 1.769380 0.000000 0.000000 
#    y 0.000000 1.766490 0.000000 
#    z 0.000000 0.000000 1.797150 
# 
# From -- ./inp_files/25504.got.cif
#   From: 2010.03.12/outbox.cif.g09.slc.cpg/sg59_13_cif.got.tgz:25504.got - 2010.04.16 16:29:54.
