data_PCOD8239423
_publ_section_title
;
Structure prediction by ZEFSAII (Michael W. Deem and Ramdas Pophale) SiO2 
 PCOD8239423
Probable space group: P M M N
;
_chemical_formula_sum "Si O2"
_cell_formula_units_Z 64
_cell_length_a 9.160783
_cell_length_b 29.724636
_cell_length_c 14.941685
_cell_angle_alpha 90.000000
_cell_angle_beta 90.000000
_cell_angle_gamma 90.000000
_cell_volume 4068.634873
_symmetry_space_group_name_H-M "P M M N"
_symmetry_group_IT_number 59
_space_group.IT_coordinate_system_code '2'
_symmetry_cell_setting 'orthorhombic'
loop_
_space_group_symop_operation_xyz
x,y,z
1/2-x,1/2-y,z
1/2+x,-y,-z
-x,1/2+y,-z
-x,-y,-z
1/2+x,1/2+y,-z
1/2-x,y,z
x,1/2-y,z
loop_
_atom_site_type_symbol
_atom_site_label
_atom_site_fract_x
_atom_site_fract_y
_atom_site_fract_z
Si Si1 0.583981 0.198755 0.780409
Si Si2 0.081730 0.974619 0.623339
Si Si3 0.076103 0.605482 0.968711
Si Si4 0.578000 0.461640 0.179277
Si Si5 0.920557 0.561274 0.135531
Si Si6 0.580601 0.878599 0.307304
Si Si7 0.581882 0.437708 0.563257
Si Si8 0.423060 0.701331 0.017336
O O1 0.750000 0.180900 0.775381
O O2 0.575153 0.250000 0.747579
O O3 0.482743 0.170027 0.715533
O O4 0.522244 0.194227 0.881208
O O5 0.250000 0.991613 0.628803
O O6 0.033017 0.952521 0.717631
O O7 0.062766 0.938051 0.544569
O O8 0.980108 0.016853 0.605387
O O9 0.250000 0.602419 0.975586
O O10 0.013640 0.578085 0.883306
O O11 0.025835 0.658045 0.959243
O O12 0.012126 0.584672 0.058483
O O13 0.750000 0.461233 0.170070
O O14 0.521648 0.510189 0.145784
O O15 0.750000 0.563354 0.110962
O O16 0.952540 0.586164 0.228495
O O17 0.750000 0.873487 0.326794
O O18 0.504385 0.895222 0.398288
O O19 0.750000 0.433960 0.590820
O O20 0.250000 0.704197 0.019283
O O21 0.483113 0.750000 0.980591
#
# Coordination Sequence:
#
# PCOD8239423 Si02
#       8
#     8   8   8   8   8   8   8   8
#     4   9  17  30  47  66  91 119 148 188 229 266
#     4   9  17  32  47  63  90 117 145 188 234 271
#     4  10  18  28  46  65  83 116 155 183 211 266
#     4   9  17  30  45  62  87 119 151 182 225 266
#     4  10  19  30  41  58  91 125 147 179 222 258
#     4  11  20  30  46  65  92 125 151 185 227 271
#     4  10  19  29  47  68  86 115 154 189 224 273
#     4   8  14  25  41  63  88 110 138 181 222 251
#
# _framework density 15.730091
#
# number of rings (size 3 to 8) (size 9 to 14) (size 15 to 20)
#    0.000    2.500    2.500    1.875    0.000    1.250 
#    0.000    0.625    0.000    0.375    0.000    0.875 
#    0.000    5.000    0.000    0.000    0.000    0.125 
#
# Total GULP energy -793298.006261 kJ/mol
# GULP energy per Si atom -12395.281348 kJ/mol
# Density = 1.569429 g / cm^3
# Si number density = 15.730091 Si / 1000 Ang^3
#
#
#
# Elastic Constant Matrix: (Units=GPa)
#
#
# Indices 1 2 3 4 5 6 
#
# 1 52.0734 31.6998 29.3881 0.0000 0.0000 0.0000
# 2 31.6998 116.4561 51.7067 0.0000 0.0000 0.0000
# 3 29.3881 51.7067 73.3665 0.0000 0.0000 0.0000
# 4 0.0000 0.0000 0.0000 21.4952 0.0000 0.0000
# 5 0.0000 0.0000 0.0000 0.0000 16.3915 0.0000
# 6 0.0000 0.0000 0.0000 0.0000 0.0000 20.2536
#
#
#
# Elastic Compliance Matrix: (Units=1/GPa)
#
#
# Indices 1 2 3 4 5 6 
#
# 1 0.025778 -0.003540 -0.007831 0.000000 0.000000 0.000000
# 2 -0.003540 0.012984 -0.007733 0.000000 0.000000 0.000000
# 3 -0.007831 -0.007733 0.022217 0.000000 0.000000 0.000000
# 4 0.000000 0.000000 0.000000 0.046522 0.000000 0.000000
# 5 0.000000 0.000000 0.000000 0.000000 0.061007 0.000000
# 6 0.000000 0.000000 0.000000 0.000000 0.000000 0.049374
#
#
# Mechanical properties :
#
#
# Convention : Reuss Voigt Hill
#
# Bulk Modulus (GPa) = 43.91442 51.94280 47.92861
# Shear Modulus (GPa) = 18.96242 20.23483 19.59863
#
# Velocity S-wave (km/s) = 3.47578 3.59050 3.53361
# Velocity P-wave (km/s) = 6.63974 7.09097 6.86906
#
# Compressibility (1/GPa) = 0.02277156
#
# Stress axis : x y z
#
# Youngs Moduli (GPa) = 38.79269 77.01881 45.01103
#
# Poissons Ratio (x) = 0.27264 0.35248
# Poissons Ratio (y) = 0.13732 0.34806
# Poissons Ratio (z) = 0.30378 0.59556
#
# Static dielectric constant tensor:
#      x y z
#    x 2.852110 0.000000 0.000000 
#    y 0.000000 3.241490 0.000000 
#    z 0.000000 0.000000 3.089310 
# 
# 
# High freq. dielectric constant tensor:
#      x y z
#    x 1.587040 0.000000 0.000000 
#    y 0.000000 1.596230 0.000000 
#    z 0.000000 0.000000 1.585140 
# 
# From -- ./inp_files/21914.got.cif
#   From: 2010.03.12/outbox.cif.g09.slc.cpg/sg59_11_cif.got.tgz:21914.got - 2010.04.16 16:29:54.
