data_PCOD8239987
_publ_section_title
;
Structure prediction by ZEFSAII (Michael W. Deem and Ramdas Pophale) SiO2 
 PCOD8239987
Probable space group: P M M N
;
_chemical_formula_sum "Si O2"
_cell_formula_units_Z 48
_cell_length_a 8.821473
_cell_length_b 10.139233
_cell_length_c 29.139171
_cell_angle_alpha 90.000000
_cell_angle_beta 90.000000
_cell_angle_gamma 90.000000
_cell_volume 2606.294002
_symmetry_space_group_name_H-M "P M M N"
_symmetry_group_IT_number 59
_space_group.IT_coordinate_system_code '2'
_symmetry_cell_setting 'orthorhombic'
loop_
_space_group_symop_operation_xyz
x,y,z
1/2-x,1/2-y,z
1/2+x,-y,-z
-x,1/2+y,-z
-x,-y,-z
1/2+x,1/2+y,-z
1/2-x,y,z
x,1/2-y,z
loop_
_atom_site_type_symbol
_atom_site_label
_atom_site_fract_x
_atom_site_fract_y
_atom_site_fract_z
Si Si1 0.921793 0.403746 0.702193
Si Si2 0.428464 0.900257 0.964233
Si Si3 0.426863 0.402461 0.796577
Si Si4 0.930013 0.009595 0.604946
Si Si5 0.927165 0.900486 0.867604
Si Si6 0.570121 0.750000 0.554961
Si Si7 0.569704 0.250000 0.544828
O O1 0.750000 0.448941 0.713976
O O2 0.923907 0.250000 0.690462
O O3 0.988108 0.477657 0.657347
O O4 0.029788 0.438696 0.744581
O O5 0.250000 0.918196 0.965102
O O6 0.475453 0.750000 0.976712
O O7 0.486700 0.937942 0.914010
O O8 0.500000 0.000000 0.000000
O O9 0.250000 0.428002 0.803946
O O10 0.469584 0.250000 0.807177
O O11 0.520992 0.498098 0.829045
O O12 0.750000 0.019256 0.606401
O O13 0.993366 0.124029 0.572190
O O14 0.988924 0.874027 0.583786
O O15 0.750000 0.918224 0.876496
O O16 0.965264 0.750000 0.852606
O O17 0.750000 0.750000 0.549479
O O18 0.497775 0.750000 0.505432
O O19 0.750000 0.250000 0.540998
#
# Coordination Sequence:
#
# PCOD8239987 Si02
#       7
#     8   8   8   8   8   4   4
#     4   9  16  31  54  74  94 129 174 214 254 308
#     4  10  21  37  58  84 115 152 191 232 278 326
#     4  10  21  36  55  81 111 142 177 222 274 327
#     4   9  17  31  51  71  95 128 165 205 250 302
#     4  10  21  38  59  83 111 146 188 230 274 326
#     4  10  20  32  46  72 102 124 156 208 257 296
#     4  10  18  32  52  70  92 130 170 198 241 308
#
# _framework density 18.416955000000002
#
# number of rings (size 3 to 8) (size 9 to 14) (size 15 to 20)
#    0.000    2.333    0.833    2.000    0.000    3.667 
#    1.500    1.667    0.000    0.000    0.000    0.000 
#    0.000    0.000    0.000    0.000    0.000    0.000 
#
# Total GULP energy -595226.822967 kJ/mol
# GULP energy per Si atom -12400.558812 kJ/mol
# Density = 1.837504 g / cm^3
# Si number density = 18.416955 Si / 1000 Ang^3
#
#
#
# Elastic Constant Matrix: (Units=GPa)
#
#
# Indices 1 2 3 4 5 6 
#
# 1 43.0742 29.4766 29.2231 0.0000 0.0000 0.0000
# 2 29.4766 123.8703 80.5576 0.0000 0.0000 0.0000
# 3 29.2231 80.5576 134.0100 0.0000 0.0000 0.0000
# 4 0.0000 0.0000 0.0000 77.8138 0.0000 0.0000
# 5 0.0000 0.0000 0.0000 0.0000 35.5397 0.0000
# 6 0.0000 0.0000 0.0000 0.0000 0.0000 21.0463
#
#
#
# Elastic Compliance Matrix: (Units=1/GPa)
#
#
# Indices 1 2 3 4 5 6 
#
# 1 0.028718 -0.004533 -0.003537 0.000000 0.000000 0.000000
# 2 -0.004533 0.013970 -0.007409 0.000000 0.000000 0.000000
# 3 -0.003537 -0.007409 0.012688 0.000000 0.000000 0.000000
# 4 0.000000 0.000000 0.000000 0.012851 0.000000 0.000000
# 5 0.000000 0.000000 0.000000 0.000000 0.028138 0.000000
# 6 0.000000 0.000000 0.000000 0.000000 0.000000 0.047514
#
#
# Mechanical properties :
#
#
# Convention : Reuss Voigt Hill
#
# Bulk Modulus (GPa) = 40.95740 64.38546 52.67143
# Shear Modulus (GPa) = 27.32575 37.65976 32.49276
#
# Velocity S-wave (km/s) = 3.85610 4.52690 4.20490
# Velocity P-wave (km/s) = 6.48947 7.89680 7.22747
#
# Compressibility (1/GPa) = 0.02441561
#
# Stress axis : x y z
#
# Youngs Moduli (GPa) = 34.82153 71.57988 78.81744
#
# Poissons Ratio (x) = 0.32450 0.27880
# Poissons Ratio (y) = 0.15786 0.58400
# Poissons Ratio (z) = 0.12317 0.53037
#
# Static dielectric constant tensor:
#      x y z
#    x 3.178300 0.000000 0.000000 
#    y 0.000000 3.907370 0.000000 
#    z 0.000000 0.000000 3.424980 
# 
# 
# High freq. dielectric constant tensor:
#      x y z
#    x 1.700160 0.000000 0.000000 
#    y 0.000000 1.713320 0.000000 
#    z 0.000000 0.000000 1.723960 
# 
# From -- ./inp_files/32963.got.cif
#   From: 2010.03.12/outbox.cif.g09.slc.cpg/sg59_17_cif.got.tgz:32963.got - 2010.04.16 16:29:54.
