data_PCOD8239180
_publ_section_title
;
Structure prediction by ZEFSAII (Michael W. Deem and Ramdas Pophale) SiO2 
 PCOD8239180
Probable space group: P M M N
;
_chemical_formula_sum "Si O2"
_cell_formula_units_Z 64
_cell_length_a 31.045076
_cell_length_b 13.111722
_cell_length_c 7.821692
_cell_angle_alpha 90.000000
_cell_angle_beta 90.000000
_cell_angle_gamma 90.000000
_cell_volume 3183.854191
_symmetry_space_group_name_H-M "P M M N"
_symmetry_group_IT_number 59
_space_group.IT_coordinate_system_code '2'
_symmetry_cell_setting 'orthorhombic'
loop_
_space_group_symop_operation_xyz
x,y,z
1/2-x,1/2-y,z
1/2+x,-y,-z
-x,1/2+y,-z
-x,-y,-z
1/2+x,1/2+y,-z
1/2-x,y,z
x,1/2-y,z
loop_
_atom_site_type_symbol
_atom_site_label
_atom_site_fract_x
_atom_site_fract_y
_atom_site_fract_z
Si Si1 0.060589 0.370475 0.469311
Si Si2 0.532118 0.371557 0.357353
Si Si3 0.647463 0.543210 0.662488
Si Si4 0.800620 0.631997 0.355639
Si Si5 0.529961 0.128809 0.981466
Si Si6 0.348161 0.130022 0.985111
Si Si7 0.560422 0.871390 0.148426
Si Si8 0.410295 0.869644 0.330894
O O1 0.059877 0.250000 0.482229
O O2 0.101777 0.399995 0.357567
O O3 0.062828 0.417623 0.660362
O O4 0.016710 0.410179 0.382698
O O5 0.533773 0.250000 0.373405
O O6 0.563391 0.414603 0.505835
O O7 0.547201 0.407939 0.167727
O O8 0.679987 0.566061 0.509234
O O9 0.668968 0.577320 0.841533
O O10 0.636696 0.422441 0.668943
O O11 0.750000 0.615381 0.352121
O O12 0.813352 0.750000 0.385914
O O13 0.819697 0.593137 0.175754
O O14 0.524818 0.250000 0.981455
O O15 0.482025 0.083309 0.945001
O O16 0.563955 0.096469 0.838119
O O17 0.343057 0.250000 0.008567
O O18 0.397441 0.096037 0.956235
O O19 0.557787 0.750000 0.161085
O O20 0.402678 0.750000 0.341371
#
# Coordination Sequence:
#
# PCOD8239180 Si02
#       8
#     8   8   8   8   8   8   8   8
#     4  10  17  30  51  77 111 149 187 230 280 332
#     4   9  17  31  52  72 102 150 198 241 284 323
#     4  12  23  35  58  85 112 148 190 229 271 330
#     4  10  22  41  64  91 122 145 162 201 266 343
#     4   9  16  30  49  68  98 147 197 240 283 317
#     4  10  20  35  56  85 116 146 179 216 269 336
#     4   9  15  28  50  72 107 150 182 225 278 323
#     4  10  22  38  52  74 109 151 199 247 283 308
#
# _framework density 20.101424000000002
#
# number of rings (size 3 to 8) (size 9 to 14) (size 15 to 20)
#    0.000    2.125    2.500    1.875    0.000    4.000 
#    0.000    2.500    0.000    0.375    0.000    0.000 
#    0.000    0.000    0.000    0.000    0.000    0.000 
#
# Total GULP energy -793721.299515 kJ/mol
# GULP energy per Si atom -12401.895305 kJ/mol
# Density = 2.005567 g / cm^3
# Si number density = 20.101424 Si / 1000 Ang^3
#
#
#
# Elastic Constant Matrix: (Units=GPa)
#
#
# Indices 1 2 3 4 5 6 
#
# 1 80.3894 30.6631 51.5989 0.0000 0.0000 0.0000
# 2 30.6631 34.2954 40.5532 0.0000 0.0000 0.0000
# 3 51.5989 40.5532 176.1778 0.0000 0.0000 0.0000
# 4 0.0000 0.0000 0.0000 20.6626 0.0000 0.0000
# 5 0.0000 0.0000 0.0000 0.0000 19.0460 0.0000
# 6 0.0000 0.0000 0.0000 0.0000 0.0000 23.0315
#
#
#
# Elastic Compliance Matrix: (Units=1/GPa)
#
#
# Indices 1 2 3 4 5 6 
#
# 1 0.019555 -0.014717 -0.002340 0.000000 0.000000 0.000000
# 2 -0.014717 0.051139 -0.007461 0.000000 0.000000 0.000000
# 3 -0.002340 -0.007461 0.008079 0.000000 0.000000 0.000000
# 4 0.000000 0.000000 0.000000 0.048397 0.000000 0.000000
# 5 0.000000 0.000000 0.000000 0.000000 0.052504 0.000000
# 6 0.000000 0.000000 0.000000 0.000000 0.000000 0.043419
#
#
# Mechanical properties :
#
#
# Convention : Reuss Voigt Hill
#
# Bulk Modulus (GPa) = 33.62789 59.61031 46.61910
# Shear Modulus (GPa) = 17.72793 23.75117 20.73955
#
# Velocity S-wave (km/s) = 2.97294 3.44112 3.21556
# Velocity P-wave (km/s) = 5.34321 6.74593 6.08513
#
# Compressibility (1/GPa) = 0.02973722
#
# Stress axis : x y z
#
# Youngs Moduli (GPa) = 51.13856 19.55438 123.78234
#
# Poissons Ratio (x) = 0.28779 0.28959
# Poissons Ratio (y) = 0.75262 0.92355
# Poissons Ratio (z) = 0.11964 0.14590
#
# Static dielectric constant tensor:
#      x y z
#    x 3.289690 0.000000 0.000000 
#    y 0.000000 3.558520 0.000000 
#    z 0.000000 0.000000 3.962940 
# 
# 
# High freq. dielectric constant tensor:
#      x y z
#    x 1.734030 0.000000 0.000000 
#    y 0.000000 1.784820 0.000000 
#    z 0.000000 0.000000 1.808150 
# 
# From -- ./inp_files/13276.got.cif
#   From: 2010.03.12/outbox.cif.g09.slc.cpg/sg59_7_cif.got.tgz:13276.got - 2010.04.16 16:29:54.
