data_PCOD8239868
_publ_section_title
;
Structure prediction by ZEFSAII (Michael W. Deem and Ramdas Pophale) SiO2 
 PCOD8239868
Probable space group: P M M N
;
_chemical_formula_sum "Si O2"
_cell_formula_units_Z 64
_cell_length_a 12.512385
_cell_length_b 22.710117
_cell_length_c 12.018530
_cell_angle_alpha 90.000000
_cell_angle_beta 90.000000
_cell_angle_gamma 90.000000
_cell_volume 3415.158170
_symmetry_space_group_name_H-M "P M M N"
_symmetry_group_IT_number 59
_space_group.IT_coordinate_system_code '2'
_symmetry_cell_setting 'orthorhombic'
loop_
_space_group_symop_operation_xyz
x,y,z
1/2-x,1/2-y,z
1/2+x,-y,-z
-x,1/2+y,-z
-x,-y,-z
1/2+x,1/2+y,-z
1/2-x,y,z
x,1/2-y,z
loop_
_atom_site_type_symbol
_atom_site_label
_atom_site_fract_x
_atom_site_fract_y
_atom_site_fract_z
Si Si1 0.369481 0.880880 0.780590
Si Si2 0.874689 0.182653 0.811131
Si Si3 0.983739 0.528882 0.668323
Si Si4 0.129478 0.477975 0.094567
Si Si5 0.545800 0.404944 0.989568
Si Si6 0.363763 0.683319 0.577442
Si Si7 0.373704 0.433284 0.553490
Si Si8 0.977482 0.818029 0.400679
O O1 0.250000 0.901759 0.805000
O O2 0.421398 0.926826 0.695623
O O3 0.426410 0.871723 0.896862
O O4 0.378169 0.820107 0.711273
O O5 0.750000 0.161836 0.803349
O O6 0.878246 0.250000 0.852398
O O7 0.933595 0.175836 0.694347
O O8 0.946087 0.143772 0.894403
O O9 0.921147 0.516531 0.783033
O O10 0.903399 0.556066 0.576452
O O11 0.041890 0.469717 0.627339
O O12 0.250000 0.455878 0.105844
O O13 0.071947 0.432150 0.010044
O O14 0.126626 0.541970 0.037312
O O15 0.250000 0.652106 0.546205
O O16 0.356710 0.750000 0.538457
O O17 0.462996 0.657244 0.510905
O O18 0.250000 0.452290 0.569982
O O19 0.381486 0.365477 0.600297
O O20 0.934650 0.750000 0.407247
#
# Coordination Sequence:
#
# PCOD8239868 Si02
#       8
#     8   8   8   8   8   8   8   8
#     4  10  18  31  51  76 109 140 171 220 274 323
#     4  10  20  35  56  82 113 147 183 227 275 324
#     4  10  21  36  53  79 107 140 182 223 272 326
#     4  10  20  37  58  78 106 145 185 225 270 326
#     4  10  21  34  53  83 111 140 183 227 273 323
#     4   9  17  30  50  76 104 137 175 217 269 321
#     4  11  22  36  54  79 111 144 181 226 276 330
#     4  10  20  36  55  78 108 143 185 226 265 320
#
# _framework density 18.739981
#
# number of rings (size 3 to 8) (size 9 to 14) (size 15 to 20)
#    0.000    2.000    1.250    3.000    0.000    2.250 
#    0.000    7.500    0.000    1.125    0.000    0.000 
#    0.000    0.000    0.000    0.000    0.000    0.000 
#
# Total GULP energy -792874.679947 kJ/mol
# GULP energy per Si atom -12388.666874 kJ/mol
# Density = 1.869733 g / cm^3
# Si number density = 18.739981 Si / 1000 Ang^3
#
#
#
# Elastic Constant Matrix: (Units=GPa)
#
#
# Indices 1 2 3 4 5 6 
#
# 1 89.0778 32.4166 21.5799 0.0000 0.0000 0.0000
# 2 32.4166 67.6204 28.6358 0.0000 0.0000 0.0000
# 3 21.5799 28.6358 77.8336 0.0000 0.0000 0.0000
# 4 0.0000 0.0000 0.0000 32.9808 0.0000 0.0000
# 5 0.0000 0.0000 0.0000 0.0000 18.8930 0.0000
# 6 0.0000 0.0000 0.0000 0.0000 0.0000 17.1918
#
#
#
# Elastic Compliance Matrix: (Units=1/GPa)
#
#
# Indices 1 2 3 4 5 6 
#
# 1 0.013774 -0.005906 -0.001646 0.000000 0.000000 0.000000
# 2 -0.005906 0.020050 -0.005739 0.000000 0.000000 0.000000
# 3 -0.001646 -0.005739 0.015416 0.000000 0.000000 0.000000
# 4 0.000000 0.000000 0.000000 0.030321 0.000000 0.000000
# 5 0.000000 0.000000 0.000000 0.000000 0.052930 0.000000
# 6 0.000000 0.000000 0.000000 0.000000 0.000000 0.058167
#
#
# Mechanical properties :
#
#
# Convention : Reuss Voigt Hill
#
# Bulk Modulus (GPa) = 44.13556 44.42183 44.27870
# Shear Modulus (GPa) = 22.24266 23.93974 23.09120
#
# Velocity S-wave (km/s) = 3.44889 3.57805 3.51406
# Velocity P-wave (km/s) = 6.28192 6.38950 6.33594
#
# Compressibility (1/GPa) = 0.02265747
#
# Stress axis : x y z
#
# Youngs Moduli (GPa) = 72.59916 49.87475 64.86846
#
# Poissons Ratio (x) = 0.29457 0.10678
# Poissons Ratio (y) = 0.42878 0.37229
# Poissons Ratio (z) = 0.11950 0.28624
#
# Static dielectric constant tensor:
#      x y z
#    x 3.437510 0.000000 0.000000 
#    y 0.000000 3.435740 0.000000 
#    z 0.000000 0.000000 3.522190 
# 
# 
# High freq. dielectric constant tensor:
#      x y z
#    x 1.717040 0.000000 0.000000 
#    y 0.000000 1.719110 0.000000 
#    z 0.000000 0.000000 1.737040 
# 
# From -- ./inp_files/16233.got.cif
#   From: 2010.03.12/outbox.cif.g09.slc.cpg/sg59_9_cif.got.tgz:16233.got - 2010.04.16 16:29:54.
