data_PCOD8239415
_publ_section_title
;
Structure prediction by ZEFSAII (Michael W. Deem and Ramdas Pophale) SiO2 
 PCOD8239415
Probable space group: P M M N
;
_chemical_formula_sum "Si O2"
_cell_formula_units_Z 64
_cell_length_a 19.034383
_cell_length_b 9.002241
_cell_length_c 21.388738
_cell_angle_alpha 90.000000
_cell_angle_beta 90.000000
_cell_angle_gamma 90.000000
_cell_volume 3665.005238
_symmetry_space_group_name_H-M "P M M N"
_symmetry_group_IT_number 59
_space_group.IT_coordinate_system_code '2'
_symmetry_cell_setting 'orthorhombic'
loop_
_space_group_symop_operation_xyz
x,y,z
1/2-x,1/2-y,z
1/2+x,-y,-z
-x,1/2+y,-z
-x,-y,-z
1/2+x,1/2+y,-z
1/2-x,y,z
x,1/2-y,z
loop_
_atom_site_type_symbol
_atom_site_label
_atom_site_fract_x
_atom_site_fract_y
_atom_site_fract_z
Si Si1 0.505275 0.418580 0.306794
Si Si2 0.669576 0.578714 0.095082
Si Si3 0.325870 0.078309 0.383416
Si Si4 0.370685 0.923874 0.266137
Si Si5 0.830878 0.075469 0.966591
Si Si6 0.594374 0.923097 0.854676
Si Si7 0.469322 0.419356 0.440905
Si Si8 0.933754 0.082152 0.182030
O O1 0.474659 0.250000 0.296864
O O2 0.449141 0.542488 0.288970
O O3 0.521674 0.439847 0.380727
O O4 0.569778 0.438432 0.258215
O O5 0.750000 0.551634 0.114967
O O6 0.655750 0.750000 0.078706
O O7 0.621215 0.531595 0.152975
O O8 0.649289 0.480272 0.035524
O O9 0.250000 0.058688 0.417838
O O10 0.340992 0.250000 0.367723
O O11 0.390843 0.018178 0.425186
O O12 0.318928 0.990438 0.318183
O O13 0.357359 0.750000 0.258760
O O14 0.358279 0.000700 0.199064
O O15 0.750000 0.034885 0.950902
O O16 0.844164 0.250000 0.963290
O O17 0.883870 0.994635 0.920060
O O18 0.611729 0.750000 0.856042
O O19 0.512050 0.953265 0.842613
O O20 0.500000 0.500000 0.500000
O O21 0.463369 0.250000 0.460867
O O22 0.912432 0.250000 0.163911
#
# Coordination Sequence:
#
# PCOD8239415 Si02
#       8
#     8   8   8   8   8   8   8   8
#     4   8  16  32  50  70  98 128 159 193 233 286
#     4  10  21  36  53  73  97 126 160 200 253 311
#     4   9  18  33  50  67  93 132 173 207 240 284
#     4  10  18  28  45  70  98 125 156 196 240 284
#     4  10  21  36  52  70  94 126 166 209 248 291
#     4  10  20  34  51  72 100 133 166 199 243 297
#     4   9  17  30  50  75 101 131 165 200 240 287
#     4   9  18  33  54  76  96 124 163 205 244 285
#
# _framework density 17.462458000000002
#
# number of rings (size 3 to 8) (size 9 to 14) (size 15 to 20)
#    0.000    2.625    0.000    3.750    0.000    7.250 
#    0.000    0.000    0.000    0.750    0.000    3.500 
#    0.000    0.000    0.000    0.000    0.000    0.000 
#
# Total GULP energy -793143.139944 kJ/mol
# GULP energy per Si atom -12392.861562 kJ/mol
# Density = 1.742271 g / cm^3
# Si number density = 17.462458 Si / 1000 Ang^3
#
#
#
# Elastic Constant Matrix: (Units=GPa)
#
#
# Indices 1 2 3 4 5 6 
#
# 1 71.2136 36.6868 57.4139 0.0000 0.0000 0.0000
# 2 36.6868 86.0288 47.1760 0.0000 0.0000 0.0000
# 3 57.4139 47.1760 123.1810 0.0000 0.0000 0.0000
# 4 0.0000 0.0000 0.0000 33.4795 0.0000 0.0000
# 5 0.0000 0.0000 0.0000 0.0000 20.7604 0.0000
# 6 0.0000 0.0000 0.0000 0.0000 0.0000 23.8114
#
#
#
# Elastic Compliance Matrix: (Units=1/GPa)
#
#
# Indices 1 2 3 4 5 6 
#
# 1 0.024228 -0.005240 -0.009286 0.000000 0.000000 0.000000
# 2 -0.005240 0.015848 -0.003627 0.000000 0.000000 0.000000
# 3 -0.009286 -0.003627 0.013835 0.000000 0.000000 0.000000
# 4 0.000000 0.000000 0.000000 0.029869 0.000000 0.000000
# 5 0.000000 0.000000 0.000000 0.000000 0.048169 0.000000
# 6 0.000000 0.000000 0.000000 0.000000 0.000000 0.041997
#
#
# Mechanical properties :
#
#
# Convention : Reuss Voigt Hill
#
# Bulk Modulus (GPa) = 56.80060 62.55298 59.67679
# Shear Modulus (GPa) = 23.13542 24.88673 24.01107
#
# Velocity S-wave (km/s) = 3.64382 3.77922 3.71214
# Velocity P-wave (km/s) = 7.09233 7.41232 7.25409
#
# Compressibility (1/GPa) = 0.01760545
#
# Stress axis : x y z
#
# Youngs Moduli (GPa) = 41.27446 63.10141 72.27917
#
# Poissons Ratio (x) = 0.33065 0.67117
# Poissons Ratio (y) = 0.21627 0.26216
# Poissons Ratio (z) = 0.38326 0.22887
#
# Static dielectric constant tensor:
#      x y z
#    x 3.067480 0.000000 0.000000 
#    y 0.000000 3.208740 0.000000 
#    z 0.000000 0.000000 3.278730 
# 
# 
# High freq. dielectric constant tensor:
#      x y z
#    x 1.646760 0.000000 0.000000 
#    y 0.000000 1.678640 0.000000 
#    z 0.000000 0.000000 1.668380 
# 
# From -- ./inp_files/31002.got.cif
#   From: 2010.03.12/outbox.cif.g09.slc.cpg/sg59_16_cif.got.tgz:31002.got - 2010.04.16 16:29:54.
