data_PCOD8239073
_publ_section_title
;
Structure prediction by ZEFSAII (Michael W. Deem and Ramdas Pophale) SiO2 
 PCOD8239073
Probable space group: P M M N
;
_chemical_formula_sum "Si O2"
_cell_formula_units_Z 56
_cell_length_a 22.004719
_cell_length_b 8.787575
_cell_length_c 17.892268
_cell_angle_alpha 90.000000
_cell_angle_beta 90.000000
_cell_angle_gamma 90.000000
_cell_volume 3459.794200
_symmetry_space_group_name_H-M "P M M N"
_symmetry_group_IT_number 59
_space_group.IT_coordinate_system_code '2'
_symmetry_cell_setting 'orthorhombic'
loop_
_space_group_symop_operation_xyz
x,y,z
1/2-x,1/2-y,z
1/2+x,-y,-z
-x,1/2+y,-z
-x,-y,-z
1/2+x,1/2+y,-z
1/2-x,y,z
x,1/2-y,z
loop_
_atom_site_type_symbol
_atom_site_label
_atom_site_fract_x
_atom_site_fract_y
_atom_site_fract_z
Si Si1 0.567865 0.073659 0.440364
Si Si2 0.100250 0.573348 0.715597
Si Si3 0.042773 0.928462 0.101274
Si Si4 0.318473 0.568797 0.846714
Si Si5 0.963736 0.928448 0.745547
Si Si6 0.411030 0.428568 0.956750
Si Si7 0.444536 0.576249 0.400197
O O1 0.545082 0.250000 0.433428
O O2 0.615873 0.042243 0.372466
O O3 0.595995 0.046840 0.523867
O O4 0.512570 0.959156 0.427106
O O5 0.100032 0.750000 0.733642
O O6 0.149876 0.500212 0.771283
O O7 0.032577 0.511995 0.733168
O O8 0.053392 0.750000 0.093460
O O9 0.972448 0.973197 0.087489
O O10 0.063272 0.985643 0.182763
O O11 0.085126 0.012776 0.041468
O O12 0.250000 0.505285 0.848988
O O13 0.318499 0.750000 0.847482
O O14 0.354143 0.510090 0.918769
O O15 0.958961 0.750000 0.759076
O O16 0.925325 0.973314 0.670868
O O17 0.399927 0.250000 0.956848
O O18 0.439457 0.750000 0.374109
#
# Coordination Sequence:
#
# PCOD8239073 Si02
#       7
#     8   8   8   8   8   8   8
#     4   8  14  24  36  51  75 110 143 174 210 250
#     4   8  14  25  40  57  79 110 147 180 214 254
#     4  10  19  30  46  66  87 112 146 183 221 271
#     4  10  19  31  47  65  87 117 153 189 221 258
#     4  10  17  26  41  59  85 116 143 175 217 264
#     4  10  20  32  46  64  87 114 145 182 227 271
#     4   9  15  22  34  54  80 107 140 176 210 251
#
# _framework density 16.185935000000001
#
# number of rings (size 3 to 8) (size 9 to 14) (size 15 to 20)
#    0.000    2.714    1.429    2.571    0.000    2.000 
#    0.000    0.000    0.000    0.000    0.000    0.000 
#    0.000    1.143    0.000    8.571    0.000    2.286 
#
# Total GULP energy -693846.826333 kJ/mol
# GULP energy per Si atom -12390.121899 kJ/mol
# Density = 1.614910 g / cm^3
# Si number density = 16.185935 Si / 1000 Ang^3
#
#
#
# Elastic Constant Matrix: (Units=GPa)
#
#
# Indices 1 2 3 4 5 6 
#
# 1 49.7197 11.5643 37.1234 0.0000 0.0000 0.0000
# 2 11.5643 29.8205 17.1797 0.0000 0.0000 0.0000
# 3 37.1234 17.1797 144.1508 0.0000 0.0000 0.0000
# 4 0.0000 0.0000 0.0000 27.0412 0.0000 0.0000
# 5 0.0000 0.0000 0.0000 0.0000 13.8443 0.0000
# 6 0.0000 0.0000 0.0000 0.0000 0.0000 11.7226
#
#
#
# Elastic Compliance Matrix: (Units=1/GPa)
#
#
# Indices 1 2 3 4 5 6 
#
# 1 0.026094 -0.006708 -0.005920 0.000000 0.000000 0.000000
# 2 -0.006708 0.037731 -0.002769 0.000000 0.000000 0.000000
# 3 -0.005920 -0.002769 0.008792 0.000000 0.000000 0.000000
# 4 0.000000 0.000000 0.000000 0.036981 0.000000 0.000000
# 5 0.000000 0.000000 0.000000 0.000000 0.072232 0.000000
# 6 0.000000 0.000000 0.000000 0.000000 0.000000 0.085305
#
#
# Mechanical properties :
#
#
# Convention : Reuss Voigt Hill
#
# Bulk Modulus (GPa) = 23.91167 39.49175 31.70171
# Shear Modulus (GPa) = 16.03236 21.04320 18.53778
#
# Velocity S-wave (km/s) = 3.15065 3.60959 3.38790
# Velocity P-wave (km/s) = 5.29534 6.46714 5.91036
#
# Compressibility (1/GPa) = 0.04182059
#
# Stress axis : x y z
#
# Youngs Moduli (GPa) = 38.32370 26.50360 113.74116
#
# Poissons Ratio (x) = 0.17779 0.67340
# Poissons Ratio (y) = 0.25708 0.31496
# Poissons Ratio (z) = 0.22689 0.07339
#
# Static dielectric constant tensor:
#      x y z
#    x 2.615630 0.000000 0.000000 
#    y 0.000000 2.953060 0.000000 
#    z 0.000000 0.000000 3.525260 
# 
# 
# High freq. dielectric constant tensor:
#      x y z
#    x 1.537680 0.000000 0.000000 
#    y 0.000000 1.619880 0.000000 
#    z 0.000000 0.000000 1.649470 
# 
# From -- ./inp_files/26380.got.cif
#   From: 2010.03.12/outbox.cif.g09.slc.cpg/sg59_14_cif.got.tgz:26380.got - 2010.04.16 16:29:54.
