data_PCOD8239110
_publ_section_title
;
Structure prediction by ZEFSAII (Michael W. Deem and Ramdas Pophale) SiO2 
 PCOD8239110
Probable space group: P M M N
;
_chemical_formula_sum "Si O2"
_cell_formula_units_Z 56
_cell_length_a 13.692960
_cell_length_b 18.146916
_cell_length_c 14.579837
_cell_angle_alpha 90.000000
_cell_angle_beta 90.000000
_cell_angle_gamma 90.000000
_cell_volume 3622.870723
_symmetry_space_group_name_H-M "P M M N"
_symmetry_group_IT_number 59
_space_group.IT_coordinate_system_code '2'
_symmetry_cell_setting 'orthorhombic'
loop_
_space_group_symop_operation_xyz
x,y,z
1/2-x,1/2-y,z
1/2+x,-y,-z
-x,1/2+y,-z
-x,-y,-z
1/2+x,1/2+y,-z
1/2-x,y,z
x,1/2-y,z
loop_
_atom_site_type_symbol
_atom_site_label
_atom_site_fract_x
_atom_site_fract_y
_atom_site_fract_z
Si Si1 0.862651 0.042338 0.441687
Si Si2 0.358218 0.250000 0.769713
Si Si3 0.527561 0.892962 0.443624
Si Si4 0.362132 0.664543 0.106676
Si Si5 0.522967 0.891524 0.229567
Si Si6 0.136702 0.539701 0.769948
Si Si7 0.633948 0.168806 0.100239
Si Si8 0.640598 0.750000 0.448142
O O1 0.750000 0.049613 0.471227
O O2 0.877402 0.062335 0.335473
O O3 0.926495 0.098634 0.501466
O O4 0.897975 0.959610 0.461355
O O5 0.250000 0.250000 0.812148
O O6 0.411747 0.323225 0.804885
O O7 0.352297 0.250000 0.660726
O O8 0.500453 0.885692 0.337158
O O9 0.582127 0.821346 0.482428
O O10 0.250000 0.640959 0.116264
O O11 0.375847 0.750000 0.133839
O O12 0.421414 0.611960 0.175251
O O13 0.399858 0.650658 0.003137
O O14 0.577246 0.966831 0.204464
O O15 0.250000 0.523635 0.791204
O O16 0.093983 0.606765 0.830556
O O17 0.750000 0.170756 0.103612
O O18 0.594214 0.250000 0.129222
O O19 0.750000 0.750000 0.490004
#
# Coordination Sequence:
#
# PCOD8239110 Si02
#       8
#     8   4   8   8   8   8   8   4
#     4   9  17  31  46  62  89 122 146 178 225 263
#     4   9  16  26  41  63  90 119 141 167 213 268
#     4   9  18  29  44  65  90 117 150 179 211 266
#     4   9  17  29  44  62  88 121 150 177 213 259
#     4  10  17  27  44  66  92 117 145 177 216 261
#     4   9  17  29  46  67  89 113 145 186 225 256
#     4   8  15  29  46  62  84 114 149 185 219 259
#     4   9  16  28  45  63  84 113 149 183 213 252
#
# _framework density 15.457355
#
# number of rings (size 3 to 8) (size 9 to 14) (size 15 to 20)
#    0.000    3.000    0.714    1.714    0.000    4.571 
#    1.286    0.357    0.000    0.000    0.000    0.000 
#    0.000    0.000    0.000    0.000    0.000    0.000 
#
# Total GULP energy -694307.454492 kJ/mol
# GULP energy per Si atom -12398.347402 kJ/mol
# Density = 1.542217 g / cm^3
# Si number density = 15.457355 Si / 1000 Ang^3
#
#
#
# Elastic Constant Matrix: (Units=GPa)
#
#
# Indices 1 2 3 4 5 6 
#
# 1 99.2959 58.5615 49.2523 0.0000 0.0000 0.0000
# 2 58.5615 113.6483 52.8581 0.0000 0.0000 0.0000
# 3 49.2523 52.8581 59.2495 0.0000 0.0000 0.0000
# 4 0.0000 0.0000 0.0000 23.1586 0.0000 0.0000
# 5 0.0000 0.0000 0.0000 0.0000 19.9698 0.0000
# 6 0.0000 0.0000 0.0000 0.0000 0.0000 23.6849
#
#
#
# Elastic Compliance Matrix: (Units=1/GPa)
#
#
# Indices 1 2 3 4 5 6 
#
# 1 0.018136 -0.003988 -0.011518 0.000000 0.000000 0.000000
# 2 -0.003988 0.015916 -0.010884 0.000000 0.000000 0.000000
# 3 -0.011518 -0.010884 0.036162 0.000000 0.000000 0.000000
# 4 0.000000 0.000000 0.000000 0.043180 0.000000 0.000000
# 5 0.000000 0.000000 0.000000 0.000000 0.050076 0.000000
# 6 0.000000 0.000000 0.000000 0.000000 0.000000 0.042221
#
#
# Mechanical properties :
#
#
# Convention : Reuss Voigt Hill
#
# Bulk Modulus (GPa) = 57.35871 65.94861 61.65366
# Shear Modulus (GPa) = 18.91903 20.79746 19.85824
#
# Velocity S-wave (km/s) = 3.50230 3.67205 3.58818
# Velocity P-wave (km/s) = 7.31731 7.79334 7.55907
#
# Compressibility (1/GPa) = 0.01743414
#
# Stress axis : x y z
#
# Youngs Moduli (GPa) = 55.13844 62.82827 27.65308
#
# Poissons Ratio (x) = 0.25058 0.31851
# Poissons Ratio (y) = 0.21991 0.30098
# Poissons Ratio (z) = 0.63508 0.68383
#
# Static dielectric constant tensor:
#      x y z
#    x 2.875780 0.000000 0.000000 
#    y 0.000000 3.078850 0.000000 
#    z 0.000000 0.000000 2.834520 
# 
# 
# High freq. dielectric constant tensor:
#      x y z
#    x 1.579680 0.000000 0.000000 
#    y 0.000000 1.593080 0.000000 
#    z 0.000000 0.000000 1.572720 
# 
# From -- ./inp_files/23427.got.cif
#   From: 2010.03.12/outbox.cif.g09.slc.cpg/sg59_12_cif.got.tgz:23427.got - 2010.04.16 16:29:54.
