data_PCOD8239667
_publ_section_title
;
Structure prediction by ZEFSAII (Michael W. Deem and Ramdas Pophale) SiO2 
 PCOD8239667
Probable space group: P M M N
;
_chemical_formula_sum "Si O2"
_cell_formula_units_Z 56
_cell_length_a 13.092335
_cell_length_b 26.774256
_cell_length_c 9.108372
_cell_angle_alpha 90.000000
_cell_angle_beta 90.000000
_cell_angle_gamma 90.000000
_cell_volume 3192.826213
_symmetry_space_group_name_H-M "P M M N"
_symmetry_group_IT_number 59
_space_group.IT_coordinate_system_code '2'
_symmetry_cell_setting 'orthorhombic'
loop_
_space_group_symop_operation_xyz
x,y,z
1/2-x,1/2-y,z
1/2+x,-y,-z
-x,1/2+y,-z
-x,-y,-z
1/2+x,1/2+y,-z
1/2-x,y,z
x,1/2-y,z
loop_
_atom_site_type_symbol
_atom_site_label
_atom_site_fract_x
_atom_site_fract_y
_atom_site_fract_z
Si Si1 0.868988 0.030822 0.090906
Si Si2 0.533296 0.606319 0.401895
Si Si3 0.866953 0.057855 0.761356
Si Si4 0.128613 0.192480 0.421920
Si Si5 0.132602 0.080711 0.885510
Si Si6 0.456526 0.452365 0.307008
Si Si7 0.364505 0.135034 0.151626
O O1 0.750000 0.031190 0.141125
O O2 0.937368 0.056272 0.217365
O O3 0.911502 0.973928 0.071958
O O4 0.881219 0.059753 0.936968
O O5 0.426615 0.605118 0.310190
O O6 0.561599 0.661039 0.462151
O O7 0.620759 0.591651 0.285516
O O8 0.526279 0.564227 0.525982
O O9 0.750000 0.061215 0.714352
O O10 0.917347 0.008574 0.693348
O O11 0.250000 0.180415 0.437970
O O12 0.105382 0.250000 0.452342
O O13 0.087516 0.177798 0.257610
O O14 0.250000 0.079461 0.929165
O O15 0.082655 0.123931 0.992228
O O16 0.368378 0.417413 0.239481
O O17 0.250000 0.152783 0.124907
#
# Coordination Sequence:
#
# PCOD8239667 Si02
#       7
#     8   8   8   8   8   8   8
#     4  10  20  32  48  68 100 145 184 216 242 281
#     4  11  22  32  48  76 105 139 165 208 258 307
#     4  11  21  32  46  69 103 141 179 213 244 289
#     4   9  19  37  57  75  97 126 164 211 261 311
#     4  10  18  30  47  72 102 136 175 208 247 296
#     4  11  19  32  46  70 102 141 176 204 243 296
#     4   9  17  30  51  72  94 129 171 209 246 293
#
# _framework density 17.539318999999999
#
# number of rings (size 3 to 8) (size 9 to 14) (size 15 to 20)
#    0.000    1.857    2.857    2.571    0.000    2.286 
#    0.000    0.714    0.000    3.000    0.000    0.000 
#    0.000    4.571    0.000    0.000    0.000    0.000 
#
# Total GULP energy -693797.838402 kJ/mol
# GULP energy per Si atom -12389.247114 kJ/mol
# Density = 1.749940 g / cm^3
# Si number density = 17.539319 Si / 1000 Ang^3
#
#
#
# Elastic Constant Matrix: (Units=GPa)
#
#
# Indices 1 2 3 4 5 6 
#
# 1 65.3867 35.9404 31.7457 0.0000 0.0000 0.0000
# 2 35.9404 80.9164 48.3491 0.0000 0.0000 0.0000
# 3 31.7457 48.3491 128.7528 0.0000 0.0000 0.0000
# 4 0.0000 0.0000 0.0000 19.9324 0.0000 0.0000
# 5 0.0000 0.0000 0.0000 0.0000 26.8762 0.0000
# 6 0.0000 0.0000 0.0000 0.0000 0.0000 18.5686
#
#
#
# Elastic Compliance Matrix: (Units=1/GPa)
#
#
# Indices 1 2 3 4 5 6 
#
# 1 0.020675 -0.007913 -0.002126 0.000000 0.000000 0.000000
# 2 -0.007913 0.018962 -0.005170 0.000000 0.000000 0.000000
# 3 -0.002126 -0.005170 0.010232 0.000000 0.000000 0.000000
# 4 0.000000 0.000000 0.000000 0.050170 0.000000 0.000000
# 5 0.000000 0.000000 0.000000 0.000000 0.037208 0.000000
# 6 0.000000 0.000000 0.000000 0.000000 0.000000 0.053854
#
#
# Mechanical properties :
#
#
# Convention : Reuss Voigt Hill
#
# Bulk Modulus (GPa) = 51.40798 56.34736 53.87767
# Shear Modulus (GPa) = 21.92957 23.67682 22.80319
#
# Velocity S-wave (km/s) = 3.53981 3.67812 3.60963
# Velocity P-wave (km/s) = 6.78828 7.08761 6.93956
#
# Compressibility (1/GPa) = 0.01945223
#
# Stress axis : x y z
#
# Youngs Moduli (GPa) = 48.36691 52.73723 97.72886
#
# Poissons Ratio (x) = 0.41729 0.20781
# Poissons Ratio (y) = 0.38271 0.50522
# Poissons Ratio (z) = 0.10285 0.27263
#
# Static dielectric constant tensor:
#      x y z
#    x 3.305140 0.000000 0.000000 
#    y 0.000000 2.950140 0.000000 
#    z 0.000000 0.000000 3.500070 
# 
# 
# High freq. dielectric constant tensor:
#      x y z
#    x 1.665440 0.000000 0.000000 
#    y 0.000000 1.627370 0.000000 
#    z 0.000000 0.000000 1.695590 
# 
# From -- ./inp_files/9712.got.cif
#   From: 2010.03.12/outbox.cif.g09.slc.cpg/sg59_5_cif.got.tgz:9712.got - 2010.04.16 16:29:54.
