data_PCOD8239937
_publ_section_title
;
Structure prediction by ZEFSAII (Michael W. Deem and Ramdas Pophale) SiO2 
 PCOD8239937
Probable space group: P M M N
;
_chemical_formula_sum "Si O2"
_cell_formula_units_Z 56
_cell_length_a 15.363546
_cell_length_b 9.427968
_cell_length_c 21.360638
_cell_angle_alpha 90.000000
_cell_angle_beta 90.000000
_cell_angle_gamma 90.000000
_cell_volume 3094.024761
_symmetry_space_group_name_H-M "P M M N"
_symmetry_group_IT_number 59
_space_group.IT_coordinate_system_code '2'
_symmetry_cell_setting 'orthorhombic'
loop_
_space_group_symop_operation_xyz
x,y,z
1/2-x,1/2-y,z
1/2+x,-y,-z
-x,1/2+y,-z
-x,-y,-z
1/2+x,1/2+y,-z
1/2-x,y,z
x,1/2-y,z
loop_
_atom_site_type_symbol
_atom_site_label
_atom_site_fract_x
_atom_site_fract_y
_atom_site_fract_z
Si Si1 0.344547 0.917812 0.867112
Si Si2 0.850644 0.586047 0.421855
Si Si3 0.587811 0.414551 0.000342
Si Si4 0.990915 0.582659 0.791517
Si Si5 0.349011 0.912275 0.135079
Si Si6 0.004437 0.917454 0.647273
Si Si7 0.846006 0.581730 0.563678
O O1 0.250000 0.977487 0.845409
O O2 0.344679 0.750000 0.860438
O O3 0.357296 0.962551 0.939266
O O4 0.421278 0.979563 0.823444
O O5 0.750000 0.563072 0.403895
O O6 0.876949 0.750000 0.413935
O O7 0.867752 0.534655 0.492930
O O8 0.908138 0.491254 0.376200
O O9 0.563454 0.250000 0.004995
O O10 0.500000 0.500000 0.000000
O O11 0.642536 0.449130 0.938310
O O12 0.983319 0.750000 0.801763
O O13 0.907643 0.513244 0.823134
O O14 0.991361 0.541375 0.719103
O O15 0.250000 0.938952 0.155370
O O16 0.376800 0.750000 0.147165
O O17 0.015357 0.750000 0.637737
O O18 0.920434 0.977371 0.609764
O O19 0.750000 0.522936 0.583238
O O20 0.842904 0.750000 0.566963
#
# Coordination Sequence:
#
# PCOD8239937 Si02
#       7
#     8   8   8   8   8   8   8
#     4   9  17  31  51  72  97 131 168 204 247 302
#     4   9  18  33  53  75 100 134 172 208 253 308
#     4  10  18  31  54  77  99 128 165 212 261 304
#     4  10  21  35  51  76 105 136 173 210 251 300
#     4  10  21  36  54  76 102 135 174 213 256 304
#     4  10  20  32  51  78 105 134 170 212 256 299
#     4   8  15  30  51  74 101 133 170 211 255 305
#
# _framework density 18.099402000000001
#
# number of rings (size 3 to 8) (size 9 to 14) (size 15 to 20)
#    0.000    2.571    1.429    1.714    0.000    4.000 
#    0.000    2.857    0.000    3.857    0.000    0.000 
#    0.000    0.000    0.000    0.000    0.000    0.000 
#
# Total GULP energy -694293.096997 kJ/mol
# GULP energy per Si atom -12398.091018 kJ/mol
# Density = 1.805821 g / cm^3
# Si number density = 18.099402 Si / 1000 Ang^3
#
#
#
# Elastic Constant Matrix: (Units=GPa)
#
#
# Indices 1 2 3 4 5 6 
#
# 1 128.6792 35.1498 67.7549 0.0000 0.0000 0.0000
# 2 35.1498 28.4246 37.4945 0.0000 0.0000 0.0000
# 3 67.7549 37.4945 123.1225 0.0000 0.0000 0.0000
# 4 0.0000 0.0000 0.0000 10.6300 0.0000 0.0000
# 5 0.0000 0.0000 0.0000 0.0000 10.7129 0.0000
# 6 0.0000 0.0000 0.0000 0.0000 0.0000 29.5386
#
#
#
# Elastic Compliance Matrix: (Units=1/GPa)
#
#
# Indices 1 2 3 4 5 6 
#
# 1 0.012658 -0.010805 -0.003675 0.000000 0.000000 0.000000
# 2 -0.010805 0.068024 -0.014770 0.000000 0.000000 0.000000
# 3 -0.003675 -0.014770 0.014642 0.000000 0.000000 0.000000
# 4 0.000000 0.000000 0.000000 0.094073 0.000000 0.000000
# 5 0.000000 0.000000 0.000000 0.000000 0.093345 0.000000
# 6 0.000000 0.000000 0.000000 0.000000 0.000000 0.033854
#
#
# Mechanical properties :
#
#
# Convention : Reuss Voigt Hill
#
# Bulk Modulus (GPa) = 27.15534 62.33607 44.74570
# Shear Modulus (GPa) = 12.90755 19.49811 16.20283
#
# Velocity S-wave (km/s) = 2.67338 3.28575 2.99526
# Velocity P-wave (km/s) = 4.95634 6.99361 6.06118
#
# Compressibility (1/GPa) = 0.03682517
#
# Stress axis : x y z
#
# Youngs Moduli (GPa) = 79.00237 14.70074 68.29511
#
# Poissons Ratio (x) = 0.15883 0.25101
# Poissons Ratio (y) = 0.85358 1.00869
# Poissons Ratio (z) = 0.29036 0.21712
#
# Static dielectric constant tensor:
#      x y z
#    x 3.389290 0.000000 0.000000 
#    y 0.000000 3.000530 0.000000 
#    z 0.000000 0.000000 3.798970 
# 
# 
# High freq. dielectric constant tensor:
#      x y z
#    x 1.714390 0.000000 0.000000 
#    y 0.000000 1.663230 0.000000 
#    z 0.000000 0.000000 1.702220 
# 
# From -- ./inp_files/29177.got.cif
#   From: 2010.03.12/outbox.cif.g09.slc.cpg/sg59_15_cif.got.tgz:29177.got - 2010.04.16 16:29:54.
