data_PCOD8239802
_publ_section_title
;
Structure prediction by ZEFSAII (Michael W. Deem and Ramdas Pophale) SiO2 
 PCOD8239802
Probable space group: P M M N
;
_chemical_formula_sum "Si O2"
_cell_formula_units_Z 56
_cell_length_a 18.046459
_cell_length_b 9.074484
_cell_length_c 18.864952
_cell_angle_alpha 90.000000
_cell_angle_beta 90.000000
_cell_angle_gamma 90.000000
_cell_volume 3089.367994
_symmetry_space_group_name_H-M "P M M N"
_symmetry_group_IT_number 59
_space_group.IT_coordinate_system_code '2'
_symmetry_cell_setting 'orthorhombic'
loop_
_space_group_symop_operation_xyz
x,y,z
1/2-x,1/2-y,z
1/2+x,-y,-z
-x,1/2+y,-z
-x,-y,-z
1/2+x,1/2+y,-z
1/2-x,y,z
x,1/2-y,z
loop_
_atom_site_type_symbol
_atom_site_label
_atom_site_fract_x
_atom_site_fract_y
_atom_site_fract_z
Si Si1 0.908187 0.421962 0.937224
Si Si2 0.978595 0.922681 0.427889
Si Si3 0.107071 0.919802 0.780433
Si Si4 0.456732 0.081600 0.299180
Si Si5 0.332489 0.419110 0.650513
Si Si6 0.420573 0.422297 0.920425
Si Si7 0.664834 0.581216 0.810206
O O1 0.895638 0.250000 0.949790
O O2 0.854376 0.477115 0.875706
O O3 0.992303 0.457730 0.915581
O O4 0.886465 0.506240 0.009031
O O5 0.988401 0.750000 0.437851
O O6 0.893846 0.966294 0.407579
O O7 0.000000 0.000000 0.500000
O O8 0.034188 0.976479 0.366666
O O9 0.126560 0.750000 0.793024
O O10 0.022709 0.942788 0.756340
O O11 0.161623 0.983083 0.720838
O O12 0.120235 0.006684 0.853225
O O13 0.454875 0.250000 0.326175
O O14 0.381409 0.036139 0.259472
O O15 0.250000 0.441117 0.618140
O O16 0.346515 0.250000 0.672536
O O17 0.403931 0.250000 0.921711
O O18 0.750000 0.559811 0.789834
O O19 0.646363 0.750000 0.831249
#
# Coordination Sequence:
#
# PCOD8239802 Si02
#       7
#     8   8   8   8   8   8   8
#     4  10  20  32  49  73 102 135 176 226 274 317
#     4  10  20  35  58  84 109 139 175 214 257 306
#     4  10  18  30  52  79 106 135 171 218 264 310
#     4   9  18  33  53  77 105 136 173 214 255 306
#     4   9  19  36  56  79 108 141 175 212 259 317
#     4  10  19  31  50  74 101 135 176 221 269 321
#     4  10  20  35  54  75 104 143 182 221 268 320
#
# _framework density 18.126684000000001
#
# number of rings (size 3 to 8) (size 9 to 14) (size 15 to 20)
#    0.000    2.286    1.429    1.714    0.000    3.429 
#    0.000    1.429    0.000    8.571    0.000    0.000 
#    0.000    0.000    0.000    0.000    0.000    0.000 
#
# Total GULP energy -694562.585588 kJ/mol
# GULP energy per Si atom -12402.903314 kJ/mol
# Density = 1.808543 g / cm^3
# Si number density = 18.126684 Si / 1000 Ang^3
#
#
#
# Elastic Constant Matrix: (Units=GPa)
#
#
# Indices 1 2 3 4 5 6 
#
# 1 91.1480 35.5614 52.5911 0.0000 0.0000 0.0000
# 2 35.5614 95.1362 70.1610 0.0000 0.0000 0.0000
# 3 52.5911 70.1610 137.6050 0.0000 0.0000 0.0000
# 4 0.0000 0.0000 0.0000 38.6987 0.0000 0.0000
# 5 0.0000 0.0000 0.0000 0.0000 20.3546 0.0000
# 6 0.0000 0.0000 0.0000 0.0000 0.0000 22.1005
#
#
#
# Elastic Compliance Matrix: (Units=1/GPa)
#
#
# Indices 1 2 3 4 5 6 
#
# 1 0.014335 -0.002112 -0.004402 0.000000 0.000000 0.000000
# 2 -0.002112 0.017157 -0.007940 0.000000 0.000000 0.000000
# 3 -0.004402 -0.007940 0.012998 0.000000 0.000000 0.000000
# 4 0.000000 0.000000 0.000000 0.025841 0.000000 0.000000
# 5 0.000000 0.000000 0.000000 0.000000 0.049129 0.000000
# 6 0.000000 0.000000 0.000000 0.000000 0.000000 0.045248
#
#
# Mechanical properties :
#
#
# Convention : Reuss Voigt Hill
#
# Bulk Modulus (GPa) = 64.18061 71.16848 67.67454
# Shear Modulus (GPa) = 25.14969 27.26915 26.20942
#
# Velocity S-wave (km/s) = 3.72888 3.88282 3.80663
# Velocity P-wave (km/s) = 7.35003 7.71030 7.53232
#
# Compressibility (1/GPa) = 0.01558103
#
# Stress axis : x y z
#
# Youngs Moduli (GPa) = 69.75955 58.28628 76.93419
#
# Poissons Ratio (x) = 0.12311 0.33865
# Poissons Ratio (y) = 0.14734 0.61090
# Poissons Ratio (z) = 0.30706 0.46282
#
# Static dielectric constant tensor:
#      x y z
#    x 3.221760 0.000000 0.000000 
#    y 0.000000 3.405450 0.000000 
#    z 0.000000 0.000000 3.235180 
# 
# 
# High freq. dielectric constant tensor:
#      x y z
#    x 1.683000 0.000000 0.000000 
#    y 0.000000 1.710590 0.000000 
#    z 0.000000 0.000000 1.694580 
# 
# From -- ./inp_files/28039.got.cif
#   From: 2010.03.12/outbox.cif.g09.slc.cpg/sg59_15_cif.got.tgz:28039.got - 2010.04.16 16:29:54.
