data_PCOD8239950
_publ_section_title
;
Structure prediction by ZEFSAII (Michael W. Deem and Ramdas Pophale) SiO2 
 PCOD8239950
Probable space group: P M M N
;
_chemical_formula_sum "Si O2"
_cell_formula_units_Z 64
_cell_length_a 15.249785
_cell_length_b 9.183463
_cell_length_c 23.882163
_cell_angle_alpha 90.000000
_cell_angle_beta 90.000000
_cell_angle_gamma 90.000000
_cell_volume 3344.597490
_symmetry_space_group_name_H-M "P M M N"
_symmetry_group_IT_number 59
_space_group.IT_coordinate_system_code '2'
_symmetry_cell_setting 'orthorhombic'
loop_
_space_group_symop_operation_xyz
x,y,z
1/2-x,1/2-y,z
1/2+x,-y,-z
-x,1/2+y,-z
-x,-y,-z
1/2+x,1/2+y,-z
1/2-x,y,z
x,1/2-y,z
loop_
_atom_site_type_symbol
_atom_site_label
_atom_site_fract_x
_atom_site_fract_y
_atom_site_fract_z
Si Si1 0.853608 0.410100 0.001557
Si Si2 0.002165 0.419381 0.312665
Si Si3 0.993761 0.079694 0.182719
Si Si4 0.844556 0.422256 0.386395
Si Si5 0.147160 0.079884 0.890635
Si Si6 0.090629 0.579254 0.494801
Si Si7 0.648837 0.078439 0.876568
Si Si8 0.650695 0.418473 0.625997
O O1 0.750000 0.397199 0.000053
O O2 0.892625 0.250000 0.016182
O O3 0.883507 0.459746 0.939659
O O4 0.883735 0.526626 0.047809
O O5 0.012934 0.250000 0.325725
O O6 0.091871 0.494547 0.330503
O O7 0.982590 0.448944 0.248205
O O8 0.922348 0.489229 0.348729
O O9 0.993928 0.250000 0.167898
O O10 0.909565 0.004652 0.154927
O O11 0.086179 0.010742 0.164452
O O12 0.750000 0.481368 0.365265
O O13 0.847680 0.250000 0.379469
O O14 0.852207 0.466225 0.451508
O O15 0.250000 0.046037 0.880389
O O16 0.126826 0.250000 0.886466
O O17 0.072904 0.750000 0.494482
O O18 0.138494 0.528581 0.438062
O O19 0.000000 0.500000 0.500000
O O20 0.750000 0.030914 0.866563
O O21 0.638456 0.250000 0.865370
O O22 0.750000 0.448089 0.644106
O O23 0.625888 0.250000 0.630967
#
# Coordination Sequence:
#
# PCOD8239950 Si02
#       8
#     8   8   8   8   8   8   8   8
#     4   8  15  31  56  84 112 141 176 222 276 332
#     4  10  22  39  56  78 106 141 188 233 273 317
#     4  11  24  38  55  80 110 147 191 236 278 326
#     4   9  17  32  56  81 105 137 177 220 266 319
#     4  10  21  37  58  84 113 146 183 224 275 334
#     4  10  18  31  55  83 112 143 174 215 269 325
#     4   9  19  37  60  84 111 145 184 228 280 335
#     4  10  21  36  56  83 112 144 181 221 272 331
#
# _framework density 19.135337
#
# number of rings (size 3 to 8) (size 9 to 14) (size 15 to 20)
#    0.000    2.375    1.250    1.875    0.000    5.750 
#    0.000    5.000    0.000    2.250    0.000    0.000 
#    0.000    0.000    0.000    0.000    0.000    0.000 
#
# Total GULP energy -793474.315223 kJ/mol
# GULP energy per Si atom -12398.036175 kJ/mol
# Density = 1.909178 g / cm^3
# Si number density = 19.135337 Si / 1000 Ang^3
#
#
#
# Elastic Constant Matrix: (Units=GPa)
#
#
# Indices 1 2 3 4 5 6 
#
# 1 100.5659 41.1490 32.2999 0.0000 0.0000 0.0000
# 2 41.1490 64.1280 38.6224 0.0000 0.0000 0.0000
# 3 32.2999 38.6224 57.3814 0.0000 0.0000 0.0000
# 4 0.0000 0.0000 0.0000 27.0483 0.0000 0.0000
# 5 0.0000 0.0000 0.0000 0.0000 23.2945 0.0000
# 6 0.0000 0.0000 0.0000 0.0000 0.0000 29.4509
#
#
#
# Elastic Compliance Matrix: (Units=1/GPa)
#
#
# Indices 1 2 3 4 5 6 
#
# 1 0.013792 -0.007020 -0.003039 0.000000 0.000000 0.000000
# 2 -0.007020 0.029798 -0.016105 0.000000 0.000000 0.000000
# 3 -0.003039 -0.016105 0.029978 0.000000 0.000000 0.000000
# 4 0.000000 0.000000 0.000000 0.036971 0.000000 0.000000
# 5 0.000000 0.000000 0.000000 0.000000 0.042929 0.000000
# 6 0.000000 0.000000 0.000000 0.000000 0.000000 0.033955
#
#
# Mechanical properties :
#
#
# Convention : Reuss Voigt Hill
#
# Bulk Modulus (GPa) = 47.07939 49.57978 48.32959
# Shear Modulus (GPa) = 20.25699 23.29234 21.77466
#
# Velocity S-wave (km/s) = 3.25717 3.49268 3.37698
# Velocity P-wave (km/s) = 6.22915 6.49857 6.36529
#
# Compressibility (1/GPa) = 0.02124072
#
# Stress axis : x y z
#
# Youngs Moduli (GPa) = 72.50579 33.55955 33.35833
#
# Poissons Ratio (x) = 0.23558 0.10136
# Poissons Ratio (y) = 0.50898 0.53723
# Poissons Ratio (z) = 0.22031 0.54047
#
# Static dielectric constant tensor:
#      x y z
#    x 3.486710 0.000000 0.000000 
#    y 0.000000 3.376910 0.000000 
#    z 0.000000 0.000000 3.443520 
# 
# 
# High freq. dielectric constant tensor:
#      x y z
#    x 1.748750 0.000000 0.000000 
#    y 0.000000 1.725400 0.000000 
#    z 0.000000 0.000000 1.745600 
# 
# From -- ./inp_files/31540.got.cif
#   From: 2010.03.12/outbox.cif.g09.slc.cpg/sg59_16_cif.got.tgz:31540.got - 2010.04.16 16:29:54.
