data_PCOD8239304
_publ_section_title
;
Structure prediction by ZEFSAII (Michael W. Deem and Ramdas Pophale) SiO2 
 PCOD8239304
Probable space group: P M M N
;
_chemical_formula_sum "Si O2"
_cell_formula_units_Z 56
_cell_length_a 9.578023
_cell_length_b 21.790967
_cell_length_c 17.369298
_cell_angle_alpha 90.000000
_cell_angle_beta 90.000000
_cell_angle_gamma 90.000000
_cell_volume 3625.222317
_symmetry_space_group_name_H-M "P M M N"
_symmetry_group_IT_number 59
_space_group.IT_coordinate_system_code '2'
_symmetry_cell_setting 'orthorhombic'
loop_
_space_group_symop_operation_xyz
x,y,z
1/2-x,1/2-y,z
1/2+x,-y,-z
-x,1/2+y,-z
-x,-y,-z
1/2+x,1/2+y,-z
1/2-x,y,z
x,1/2-y,z
loop_
_atom_site_type_symbol
_atom_site_label
_atom_site_fract_x
_atom_site_fract_y
_atom_site_fract_z
Si Si1 0.913759 0.390925 0.285658
Si Si2 0.588196 0.452484 0.898000
Si Si3 0.596000 0.560163 0.415234
Si Si4 0.095508 0.582559 0.546440
Si Si5 0.409785 0.086298 0.035072
Si Si6 0.410620 0.320807 0.166263
Si Si7 0.086159 0.470207 0.752807
O O1 0.750000 0.377903 0.277637
O O2 0.960245 0.385833 0.375237
O O3 0.950008 0.457932 0.252859
O O4 0.997746 0.339899 0.239250
O O5 0.750000 0.433204 0.891213
O O6 0.571000 0.523646 0.918189
O O7 0.509212 0.439620 0.818057
O O8 0.513945 0.411158 0.962843
O O9 0.750000 0.588670 0.422195
O O10 0.599724 0.489808 0.440214
O O11 0.498776 0.599296 0.472663
O O12 0.545254 0.563945 0.326779
O O13 0.250000 0.606879 0.527625
O O14 0.250000 0.092973 0.006288
O O15 0.454757 0.141676 0.090524
O O16 0.250000 0.334440 0.186886
O O17 0.437495 0.250000 0.147775
O O18 0.250000 0.461435 0.771582
#
# Coordination Sequence:
#
# PCOD8239304 Si02
#       7
#     8   8   8   8   8   8   8
#     4   9  17  28  42  59  82 112 145 176 211 253
#     4  10  18  27  43  64  83 109 144 177 212 260
#     4   8  14  23  35  54  79 109 140 166 198 238
#     4   8  14  24  36  53  78 108 139 170 200 234
#     4   9  18  31  43  59  83 110 139 175 220 260
#     4  10  20  33  47  63  84 110 144 183 219 256
#     4   9  16  26  40  59  86 115 141 173 211 252
#
# _framework density 15.447329
#
# number of rings (size 3 to 8) (size 9 to 14) (size 15 to 20)
#    0.000    3.000    1.429    2.143    0.000    2.571 
#    0.000    2.857    0.000    0.000    0.000    0.000 
#    0.000    1.143    0.000   10.286    0.000    6.429 
#
# Total GULP energy -694195.774919 kJ/mol
# GULP energy per Si atom -12396.353124 kJ/mol
# Density = 1.541217 g / cm^3
# Si number density = 15.447329 Si / 1000 Ang^3
#
#
#
# Elastic Constant Matrix: (Units=GPa)
#
#
# Indices 1 2 3 4 5 6 
#
# 1 83.2376 25.0973 77.6339 0.0000 0.0000 0.0000
# 2 25.0973 43.2139 35.7395 0.0000 0.0000 0.0000
# 3 77.6339 35.7395 139.7996 0.0000 0.0000 0.0000
# 4 0.0000 0.0000 0.0000 14.5250 0.0000 0.0000
# 5 0.0000 0.0000 0.0000 0.0000 34.0306 0.0000
# 6 0.0000 0.0000 0.0000 0.0000 0.0000 14.0137
#
#
#
# Elastic Compliance Matrix: (Units=1/GPa)
#
#
# Indices 1 2 3 4 5 6 
#
# 1 0.025434 -0.003919 -0.013122 0.000000 0.000000 0.000000
# 2 -0.003919 0.029949 -0.005480 0.000000 0.000000 0.000000
# 3 -0.013122 -0.005480 0.015841 0.000000 0.000000 0.000000
# 4 0.000000 0.000000 0.000000 0.068847 0.000000 0.000000
# 5 0.000000 0.000000 0.000000 0.000000 0.029385 0.000000
# 6 0.000000 0.000000 0.000000 0.000000 0.000000 0.071359
#
#
# Mechanical properties :
#
#
# Convention : Reuss Voigt Hill
#
# Bulk Modulus (GPa) = 38.19455 60.35472 49.27464
# Shear Modulus (GPa) = 16.97302 21.03257 19.00280
#
# Velocity S-wave (km/s) = 3.31836 3.69394 3.51118
# Velocity P-wave (km/s) = 6.28183 7.57296 6.95741
#
# Compressibility (1/GPa) = 0.02618174
#
# Stress axis : x y z
#
# Youngs Moduli (GPa) = 39.31683 33.39020 63.12613
#
# Poissons Ratio (x) = 0.13085 0.82837
# Poissons Ratio (y) = 0.15407 0.34594
# Poissons Ratio (z) = 0.51593 0.18299
#
# Static dielectric constant tensor:
#      x y z
#    x 3.107770 0.000000 0.000000 
#    y 0.000000 2.453110 0.000000 
#    z 0.000000 0.000000 3.082420 
# 
# 
# High freq. dielectric constant tensor:
#      x y z
#    x 1.597440 0.000000 0.000000 
#    y 0.000000 1.525010 0.000000 
#    z 0.000000 0.000000 1.601360 
# 
# From -- ./inp_files/26055.got.cif
#   From: 2010.03.12/outbox.cif.g09.slc.cpg/sg59_14_cif.got.tgz:26055.got - 2010.04.16 16:29:54.
