data_PCOD8239465
_publ_section_title
;
Structure prediction by ZEFSAII (Michael W. Deem and Ramdas Pophale) SiO2 
 PCOD8239465
Probable space group: P M M N
;
_chemical_formula_sum "Si O2"
_cell_formula_units_Z 64
_cell_length_a 9.525826
_cell_length_b 23.578086
_cell_length_c 15.329884
_cell_angle_alpha 90.000000
_cell_angle_beta 90.000000
_cell_angle_gamma 90.000000
_cell_volume 3443.103362
_symmetry_space_group_name_H-M "P M M N"
_symmetry_group_IT_number 59
_space_group.IT_coordinate_system_code '2'
_symmetry_cell_setting 'orthorhombic'
loop_
_space_group_symop_operation_xyz
x,y,z
1/2-x,1/2-y,z
1/2+x,-y,-z
-x,1/2+y,-z
-x,-y,-z
1/2+x,1/2+y,-z
1/2-x,y,z
x,1/2-y,z
loop_
_atom_site_type_symbol
_atom_site_label
_atom_site_fract_x
_atom_site_fract_y
_atom_site_fract_z
Si Si1 0.913474 0.315906 0.057019
Si Si2 0.412585 0.877667 0.112210
Si Si3 0.592726 0.867475 0.429568
Si Si4 0.088944 0.010238 0.644423
Si Si5 0.589526 0.620166 0.807475
Si Si6 0.587925 0.595310 0.611538
Si Si7 0.911480 0.184315 0.717683
Si Si8 0.089129 0.507332 0.187843
O O1 0.750000 0.329321 0.070251
O O2 0.940850 0.250000 0.040057
O O3 0.991666 0.335091 0.144275
O O4 0.979098 0.350528 0.974887
O O5 0.250000 0.860457 0.111480
O O6 0.477211 0.850488 0.200702
O O7 0.435210 0.945969 0.111634
O O8 0.750000 0.846918 0.407274
O O9 0.577368 0.934460 0.414738
O O10 0.560327 0.859733 0.533212
O O11 0.488783 0.830319 0.372137
O O12 0.250000 0.993056 0.661900
O O13 0.014465 0.024573 0.735298
O O14 0.010364 0.959005 0.596389
O O15 0.750000 0.637176 0.824964
O O16 0.553369 0.623832 0.704697
O O17 0.558435 0.556587 0.844366
O O18 0.750000 0.574899 0.610412
O O19 0.750000 0.167690 0.703293
O O20 0.930525 0.250000 0.739361
O O21 0.250000 0.510845 0.222051
#
# Coordination Sequence:
#
# PCOD8239465 Si02
#       8
#     8   8   8   8   8   8   8   8
#     4  10  21  37  57  79 102 133 176 222 267 313
#     4   9  17  33  57  80 104 136 174 212 257 318
#     4  10  20  33  50  75 106 140 176 214 261 312
#     4  10  18  28  47  79 111 136 170 214 258 305
#     4   9  19  35  54  77 105 136 175 217 260 314
#     4   9  19  35  53  73 103 142 179 211 254 314
#     4  10  20  34  54  78 104 139 181 220 259 312
#     4   9  17  32  54  78 107 144 175 204 258 323
#
# _framework density 18.587882
#
# number of rings (size 3 to 8) (size 9 to 14) (size 15 to 20)
#    0.000    2.500    1.250    1.875    0.000    5.500 
#    0.000    1.875    0.000    5.250    0.000    0.000 
#    0.000    0.000    0.000    0.000    0.000    0.000 
#
# Total GULP energy -793422.778681 kJ/mol
# GULP energy per Si atom -12397.230917 kJ/mol
# Density = 1.854558 g / cm^3
# Si number density = 18.587882 Si / 1000 Ang^3
#
#
#
# Elastic Constant Matrix: (Units=GPa)
#
#
# Indices 1 2 3 4 5 6 
#
# 1 63.4216 21.5560 34.4699 0.0000 0.0000 0.0000
# 2 21.5560 41.2674 27.8225 0.0000 0.0000 0.0000
# 3 34.4699 27.8225 92.2794 0.0000 0.0000 0.0000
# 4 0.0000 0.0000 0.0000 27.5534 0.0000 0.0000
# 5 0.0000 0.0000 0.0000 0.0000 25.9677 0.0000
# 6 0.0000 0.0000 0.0000 0.0000 0.0000 27.1878
#
#
#
# Elastic Compliance Matrix: (Units=1/GPa)
#
#
# Indices 1 2 3 4 5 6 
#
# 1 0.021388 -0.007262 -0.005800 0.000000 0.000000 0.000000
# 2 -0.007262 0.032880 -0.007201 0.000000 0.000000 0.000000
# 3 -0.005800 -0.007201 0.015174 0.000000 0.000000 0.000000
# 4 0.000000 0.000000 0.000000 0.036293 0.000000 0.000000
# 5 0.000000 0.000000 0.000000 0.000000 0.038509 0.000000
# 6 0.000000 0.000000 0.000000 0.000000 0.000000 0.036781
#
#
# Mechanical properties :
#
#
# Convention : Reuss Voigt Hill
#
# Bulk Modulus (GPa) = 34.58126 40.51837 37.54981
# Shear Modulus (GPa) = 21.62723 23.68311 22.65517
#
# Velocity S-wave (km/s) = 3.41473 3.57335 3.49494
# Velocity P-wave (km/s) = 5.84737 6.23464 6.04411
#
# Compressibility (1/GPa) = 0.02891739
#
# Stress axis : x y z
#
# Youngs Moduli (GPa) = 46.75553 30.41341 65.90143
#
# Poissons Ratio (x) = 0.22085 0.38221
# Poissons Ratio (y) = 0.33953 0.47455
# Poissons Ratio (z) = 0.27117 0.21901
#
# Static dielectric constant tensor:
#      x y z
#    x 3.296890 0.000000 0.000000 
#    y 0.000000 3.249990 0.000000 
#    z 0.000000 0.000000 3.457030 
# 
# 
# High freq. dielectric constant tensor:
#      x y z
#    x 1.704700 0.000000 0.000000 
#    y 0.000000 1.707900 0.000000 
#    z 0.000000 0.000000 1.719160 
# 
# From -- ./inp_files/21560.got.cif
#   From: 2010.03.12/outbox.cif.g09.slc.cpg/sg59_11_cif.got.tgz:21560.got - 2010.04.16 16:29:54.
