data_PCOD8239292
_publ_section_title
;
Structure prediction by ZEFSAII (Michael W. Deem and Ramdas Pophale) SiO2 
 PCOD8239292
Probable space group: P M M N
;
_chemical_formula_sum "Si O2"
_cell_formula_units_Z 64
_cell_length_a 29.820813
_cell_length_b 9.165751
_cell_length_c 14.084296
_cell_angle_alpha 90.000000
_cell_angle_beta 90.000000
_cell_angle_gamma 90.000000
_cell_volume 3849.662690
_symmetry_space_group_name_H-M "P M M N"
_symmetry_group_IT_number 59
_space_group.IT_coordinate_system_code '2'
_symmetry_cell_setting 'orthorhombic'
loop_
_space_group_symop_operation_xyz
x,y,z
1/2-x,1/2-y,z
1/2+x,-y,-z
-x,1/2+y,-z
-x,-y,-z
1/2+x,1/2+y,-z
1/2-x,y,z
x,1/2-y,z
loop_
_atom_site_type_symbol
_atom_site_label
_atom_site_fract_x
_atom_site_fract_y
_atom_site_fract_z
Si Si1 0.645348 0.913687 0.178642
Si Si2 0.452709 0.578680 0.486791
Si Si3 0.080799 0.584409 0.290932
Si Si4 0.486135 0.416246 0.800337
Si Si5 0.913361 0.080379 0.313993
Si Si6 0.301101 0.579305 0.969887
Si Si7 0.623011 0.077229 0.889561
Si Si8 0.565628 0.911724 0.028291
O O1 0.661121 0.750000 0.203837
O O2 0.603316 0.913844 0.109550
O O3 0.630614 0.995926 0.275557
O O4 0.686272 0.996891 0.127148
O O5 0.500000 0.500000 0.500000
O O6 0.463454 0.750000 0.472225
O O7 0.427697 0.509780 0.393339
O O8 0.418761 0.552570 0.573550
O O9 0.093015 0.750000 0.314483
O O10 0.120071 0.520137 0.220984
O O11 0.037587 0.569574 0.224525
O O12 0.468722 0.250000 0.783790
O O13 0.459008 0.525304 0.733441
O O14 0.479247 0.457641 0.912655
O O15 0.907345 0.250000 0.290345
O O16 0.250000 0.543862 0.996609
O O17 0.309062 0.750000 0.952258
O O18 0.331344 0.524001 0.059199
O O19 0.619556 0.250000 0.889126
O O20 0.579127 0.022384 0.946121
O O21 0.561232 0.750000 0.983692
#
# Coordination Sequence:
#
# PCOD8239292 Si02
#       8
#     8   8   8   8   8   8   8   8
#     4   9  17  29  46  67  91 120 148 178 220 272
#     4  10  19  30  45  63  85 117 158 200 237 268
#     4   9  17  29  43  59  83 117 156 192 225 264
#     4   9  16  27  42  57  80 117 153 186 227 267
#     4  10  18  27  42  65  89 115 152 195 236 269
#     4   9  17  30  49  73  98 118 139 177 224 267
#     4   9  17  29  44  61  84 117 150 178 217 270
#     4   8  15  26  39  57  82 112 144 179 219 258
#
# _framework density 16.624832999999999
#
# number of rings (size 3 to 8) (size 9 to 14) (size 15 to 20)
#    0.000    2.875    1.250    1.500    0.000    4.250 
#    0.000    1.250    0.000    0.000    0.000    0.875 
#    0.000    5.000    0.000    0.125    0.000    0.375 
#
# Total GULP energy -792919.002642 kJ/mol
# GULP energy per Si atom -12389.359416 kJ/mol
# Density = 1.658699 g / cm^3
# Si number density = 16.624833 Si / 1000 Ang^3
#
#
#
# Elastic Constant Matrix: (Units=GPa)
#
#
# Indices 1 2 3 4 5 6 
#
# 1 41.2231 21.6764 43.2750 0.0000 0.0000 0.0000
# 2 21.6764 52.7883 38.6132 0.0000 0.0000 0.0000
# 3 43.2750 38.6132 127.5585 0.0000 0.0000 0.0000
# 4 0.0000 0.0000 0.0000 15.5240 0.0000 0.0000
# 5 0.0000 0.0000 0.0000 0.0000 18.2504 0.0000
# 6 0.0000 0.0000 0.0000 0.0000 0.0000 15.8352
#
#
#
# Elastic Compliance Matrix: (Units=1/GPa)
#
#
# Indices 1 2 3 4 5 6 
#
# 1 0.040401 -0.008431 -0.011154 0.000000 0.000000 0.000000
# 2 -0.008431 0.026090 -0.005038 0.000000 0.000000 0.000000
# 3 -0.011154 -0.005038 0.013149 0.000000 0.000000 0.000000
# 4 0.000000 0.000000 0.000000 0.064416 0.000000 0.000000
# 5 0.000000 0.000000 0.000000 0.000000 0.054793 0.000000
# 6 0.000000 0.000000 0.000000 0.000000 0.000000 0.063151
#
#
# Mechanical properties :
#
#
# Convention : Reuss Voigt Hill
#
# Bulk Modulus (GPa) = 32.90050 47.63322 40.26686
# Shear Modulus (GPa) = 15.55808 17.78893 16.67351
#
# Velocity S-wave (km/s) = 3.06246 3.27467 3.17034
# Velocity P-wave (km/s) = 5.68663 6.55835 6.13799
#
# Compressibility (1/GPa) = 0.03039468
#
# Stress axis : x y z
#
# Youngs Moduli (GPa) = 24.75210 38.32828 76.05388
#
# Poissons Ratio (x) = 0.32314 0.84831
# Poissons Ratio (y) = 0.20868 0.38313
# Poissons Ratio (z) = 0.27609 0.19308
#
# Static dielectric constant tensor:
#      x y z
#    x 2.929590 0.000000 0.000000 
#    y 0.000000 3.125160 0.000000 
#    z 0.000000 0.000000 3.404540 
# 
# 
# High freq. dielectric constant tensor:
#      x y z
#    x 1.600320 0.000000 0.000000 
#    y 0.000000 1.629940 0.000000 
#    z 0.000000 0.000000 1.639480 
# 
# From -- ./inp_files/25065.got.cif
#   From: 2010.03.12/outbox.cif.g09.slc.cpg/sg59_13_cif.got.tgz:25065.got - 2010.04.16 16:29:54.
