data_PCOD8239370
_publ_section_title
;
Structure prediction by ZEFSAII (Michael W. Deem and Ramdas Pophale) SiO2 
 PCOD8239370
Probable space group: P M M N
;
_chemical_formula_sum "Si O2"
_cell_formula_units_Z 64
_cell_length_a 23.288872
_cell_length_b 9.350475
_cell_length_c 19.073374
_cell_angle_alpha 90.000000
_cell_angle_beta 90.000000
_cell_angle_gamma 90.000000
_cell_volume 4153.456363
_symmetry_space_group_name_H-M "P M M N"
_symmetry_group_IT_number 59
_space_group.IT_coordinate_system_code '2'
_symmetry_cell_setting 'orthorhombic'
loop_
_space_group_symop_operation_xyz
x,y,z
1/2-x,1/2-y,z
1/2+x,-y,-z
-x,1/2+y,-z
-x,-y,-z
1/2+x,1/2+y,-z
1/2-x,y,z
x,1/2-y,z
loop_
_atom_site_type_symbol
_atom_site_label
_atom_site_fract_x
_atom_site_fract_y
_atom_site_fract_z
Si Si1 0.083117 0.083337 0.025895
Si Si2 0.013476 0.414995 0.896872
Si Si3 0.589316 0.083016 0.518267
Si Si4 0.028058 0.086169 0.595060
Si Si5 0.989754 0.414351 0.743741
Si Si6 0.872797 0.582479 0.746282
Si Si7 0.183486 0.084019 0.399578
Si Si8 0.686871 0.580765 0.886727
O O1 0.074467 0.250000 0.040739
O O2 0.147854 0.037077 0.046101
O O3 0.069152 0.044905 0.944604
O O4 0.040707 0.005065 0.078783
O O5 0.997536 0.250000 0.908307
O O6 0.025393 0.447975 0.815046
O O7 0.601068 0.250000 0.508282
O O8 0.536995 0.051824 0.571173
O O9 0.573689 0.015822 0.442817
O O10 0.646733 0.010361 0.546947
O O11 0.043521 0.250000 0.577016
O O12 0.031703 0.054585 0.678186
O O13 0.969333 0.250000 0.741798
O O14 0.933871 0.509775 0.737687
O O15 0.884243 0.750000 0.753414
O O16 0.832883 0.546170 0.680132
O O17 0.841050 0.521214 0.815140
O O18 0.250000 0.046304 0.411051
O O19 0.170994 0.250000 0.415233
O O20 0.750000 0.512621 0.897382
O O21 0.692354 0.750000 0.880402
#
# Coordination Sequence:
#
# PCOD8239370 Si02
#       8
#     8   8   8   8   8   8   8   8
#     4   9  16  27  42  62  84 112 148 183 219 257
#     4   9  17  27  42  62  87 114 143 179 221 265
#     4  10  19  31  47  67  88 113 149 189 224 264
#     4   9  18  31  46  63  87 117 147 181 227 275
#     4  10  18  29  44  64  90 119 146 177 224 272
#     4  10  18  28  43  63  88 118 154 184 207 249
#     4  10  20  32  46  65  91 123 154 182 217 261
#     4   9  16  26  41  61  86 116 150 184 214 247
#
# _framework density 15.408854
#
# number of rings (size 3 to 8) (size 9 to 14) (size 15 to 20)
#    0.000    2.500    2.500    0.750    0.000    2.750 
#    0.000    0.000    0.000    2.250    0.000    0.875 
#    0.000    5.000    0.000    0.000    0.000    0.125 
#
# Total GULP energy -793386.882924 kJ/mol
# GULP energy per Si atom -12396.670046 kJ/mol
# Density = 1.537378 g / cm^3
# Si number density = 15.408854 Si / 1000 Ang^3
#
#
#
# Elastic Constant Matrix: (Units=GPa)
#
#
# Indices 1 2 3 4 5 6 
#
# 1 90.3044 40.3440 61.5739 0.0000 0.0000 0.0000
# 2 40.3440 46.1138 43.5228 0.0000 0.0000 0.0000
# 3 61.5739 43.5228 124.9165 0.0000 0.0000 0.0000
# 4 0.0000 0.0000 0.0000 15.8188 0.0000 0.0000
# 5 0.0000 0.0000 0.0000 0.0000 23.3211 0.0000
# 6 0.0000 0.0000 0.0000 0.0000 0.0000 19.8986
#
#
#
# Elastic Compliance Matrix: (Units=1/GPa)
#
#
# Indices 1 2 3 4 5 6 
#
# 1 0.020651 -0.012605 -0.005788 0.000000 0.000000 0.000000
# 2 -0.012605 0.040004 -0.007725 0.000000 0.000000 0.000000
# 3 -0.005788 -0.007725 0.013550 0.000000 0.000000 0.000000
# 4 0.000000 0.000000 0.000000 0.063216 0.000000 0.000000
# 5 0.000000 0.000000 0.000000 0.000000 0.042880 0.000000
# 6 0.000000 0.000000 0.000000 0.000000 0.000000 0.050255
#
#
# Mechanical properties :
#
#
# Convention : Reuss Voigt Hill
#
# Bulk Modulus (GPa) = 45.51625 61.35733 53.43679
# Shear Modulus (GPa) = 17.23466 19.53399 18.38432
#
# Velocity S-wave (km/s) = 3.34801 3.56436 3.45788
# Velocity P-wave (km/s) = 6.67448 7.53959 7.12019
#
# Compressibility (1/GPa) = 0.02197018
#
# Stress axis : x y z
#
# Youngs Moduli (GPa) = 48.42312 24.99757 73.80255
#
# Poissons Ratio (x) = 0.31509 0.42715
# Poissons Ratio (y) = 0.61037 0.57011
# Poissons Ratio (z) = 0.28026 0.19310
#
# Static dielectric constant tensor:
#      x y z
#    x 2.905660 0.000000 0.000000 
#    y 0.000000 2.887690 0.000000 
#    z 0.000000 0.000000 3.168040 
# 
# 
# High freq. dielectric constant tensor:
#      x y z
#    x 1.562540 0.000000 0.000000 
#    y 0.000000 1.582840 0.000000 
#    z 0.000000 0.000000 1.591940 
# 
# From -- ./inp_files/29826.got.cif
#   From: 2010.03.12/outbox.cif.g09.slc.cpg/sg59_15_cif.got.tgz:29826.got - 2010.04.16 16:29:54.
