data_PCOD8239604
_publ_section_title
;
Structure prediction by ZEFSAII (Michael W. Deem and Ramdas Pophale) SiO2 
 PCOD8239604
Probable space group: P M M N
;
_chemical_formula_sum "Si O2"
_cell_formula_units_Z 48
_cell_length_a 15.647001
_cell_length_b 9.095690
_cell_length_c 18.733167
_cell_angle_alpha 90.000000
_cell_angle_beta 90.000000
_cell_angle_gamma 90.000000
_cell_volume 2666.109395
_symmetry_space_group_name_H-M "P M M N"
_symmetry_group_IT_number 59
_space_group.IT_coordinate_system_code '2'
_symmetry_cell_setting 'orthorhombic'
loop_
_space_group_symop_operation_xyz
x,y,z
1/2-x,1/2-y,z
1/2+x,-y,-z
-x,1/2+y,-z
-x,-y,-z
1/2+x,1/2+y,-z
1/2-x,y,z
x,1/2-y,z
loop_
_atom_site_type_symbol
_atom_site_label
_atom_site_fract_x
_atom_site_fract_y
_atom_site_fract_z
Si Si1 0.497675 0.925586 0.832403
Si Si2 0.418494 0.577698 0.533302
Si Si3 0.500729 0.078260 0.326170
Si Si4 0.343422 0.081640 0.415015
Si Si5 0.151913 0.578334 0.092431
Si Si6 0.844426 0.075593 0.069966
O O1 0.500196 0.750000 0.836245
O O2 0.481683 0.987552 0.752111
O O3 0.418988 0.988866 0.879469
O O4 0.588593 0.985480 0.858403
O O5 0.500000 0.500000 0.500000
O O6 0.420603 0.750000 0.518108
O O7 0.420155 0.547137 0.619159
O O8 0.339624 0.505285 0.491043
O O9 0.486737 0.250000 0.315737
O O10 0.412722 0.013563 0.360131
O O11 0.250000 0.068191 0.379537
O O12 0.367402 0.250000 0.432349
O O13 0.250000 0.545860 0.114901
O O14 0.131218 0.750000 0.101243
O O15 0.136714 0.526916 0.011010
O O16 0.750000 0.017080 0.093484
O O17 0.843460 0.250000 0.074545
#
# Coordination Sequence:
#
# PCOD8239604 Si02
#       6
#     8   8   8   8   8   8
#     4  10  18  29  49  73  93 119 158 196 229 273
#     4   9  16  29  47  64  85 113 146 182 219 261
#     4   8  16  29  44  66  94 119 143 179 230 276
#     4   9  17  30  47  65  88 120 152 182 223 273
#     4   9  18  32  47  65  94 128 156 187 233 282
#     4   8  15  29  48  68  91 121 156 193 234 279
#
# _framework density 18.003761000000001
#
# number of rings (size 3 to 8) (size 9 to 14) (size 15 to 20)
#    0.000    3.167    0.000    3.000    0.000    1.333 
#    0.000    6.667    0.000    4.500    0.000    0.000 
#    0.000    0.000    0.000    0.000    0.000    0.000 
#
# Total GULP energy -594638.547709 kJ/mol
# GULP energy per Si atom -12388.303077 kJ/mol
# Density = 1.796278 g / cm^3
# Si number density = 18.003761 Si / 1000 Ang^3
#
#
#
# Elastic Constant Matrix: (Units=GPa)
#
#
# Indices 1 2 3 4 5 6 
#
# 1 67.5431 12.3986 37.2912 0.0000 0.0000 0.0000
# 2 12.3986 33.9628 20.8258 0.0000 0.0000 0.0000
# 3 37.2912 20.8258 116.7762 0.0000 0.0000 0.0000
# 4 0.0000 0.0000 0.0000 17.9248 0.0000 0.0000
# 5 0.0000 0.0000 0.0000 0.0000 19.7915 0.0000
# 6 0.0000 0.0000 0.0000 0.0000 0.0000 22.2449
#
#
#
# Elastic Compliance Matrix: (Units=1/GPa)
#
#
# Indices 1 2 3 4 5 6 
#
# 1 0.018334 -0.003484 -0.005234 0.000000 0.000000 0.000000
# 2 -0.003484 0.033721 -0.004901 0.000000 0.000000 0.000000
# 3 -0.005234 -0.004901 0.011109 0.000000 0.000000 0.000000
# 4 0.000000 0.000000 0.000000 0.055789 0.000000 0.000000
# 5 0.000000 0.000000 0.000000 0.000000 0.050527 0.000000
# 6 0.000000 0.000000 0.000000 0.000000 0.000000 0.044954
#
#
# Mechanical properties :
#
#
# Convention : Reuss Voigt Hill
#
# Bulk Modulus (GPa) = 27.83439 39.92370 33.87904
# Shear Modulus (GPa) = 19.71241 21.84333 20.77787
#
# Velocity S-wave (km/s) = 3.31252 3.48697 3.40087
# Velocity P-wave (km/s) = 5.48856 6.19962 5.85490
#
# Compressibility (1/GPa) = 0.03592678
#
# Stress axis : x y z
#
# Youngs Moduli (GPa) = 54.54231 29.65481 90.01910
#
# Poissons Ratio (x) = 0.10332 0.47112
# Poissons Ratio (y) = 0.19003 0.44121
# Poissons Ratio (z) = 0.28545 0.14535
#
# Static dielectric constant tensor:
#      x y z
#    x 3.267710 0.000000 0.000000 
#    y 0.000000 3.113410 0.000000 
#    z 0.000000 0.000000 3.675430 
# 
# 
# High freq. dielectric constant tensor:
#      x y z
#    x 1.691760 0.000000 0.000000 
#    y 0.000000 1.659920 0.000000 
#    z 0.000000 0.000000 1.694360 
# 
# From -- ./inp_files/27781.got.cif
#   From: 2010.03.12/outbox.cif.g09.slc.cpg/sg59_14_cif.got.tgz:27781.got - 2010.04.16 16:29:54.
