data_PCOD8239835
_publ_section_title
;
Structure prediction by ZEFSAII (Michael W. Deem and Ramdas Pophale) SiO2 
 PCOD8239835
Probable space group: P M M N
;
_chemical_formula_sum "Si O2"
_cell_formula_units_Z 64
_cell_length_a 19.705678
_cell_length_b 9.449889
_cell_length_c 19.148281
_cell_angle_alpha 90.000000
_cell_angle_beta 90.000000
_cell_angle_gamma 90.000000
_cell_volume 3565.725290
_symmetry_space_group_name_H-M "P M M N"
_symmetry_group_IT_number 59
_space_group.IT_coordinate_system_code '2'
_symmetry_cell_setting 'orthorhombic'
loop_
_space_group_symop_operation_xyz
x,y,z
1/2-x,1/2-y,z
1/2+x,-y,-z
-x,1/2+y,-z
-x,-y,-z
1/2+x,1/2+y,-z
1/2-x,y,z
x,1/2-y,z
loop_
_atom_site_type_symbol
_atom_site_label
_atom_site_fract_x
_atom_site_fract_y
_atom_site_fract_z
Si Si1 0.578015 0.412242 0.068389
Si Si2 0.443142 0.912706 0.086726
Si Si3 0.056969 0.584342 0.710137
Si Si4 0.419272 0.414640 0.213615
Si Si5 0.325874 0.910539 0.471063
Si Si6 0.544830 0.413670 0.445150
Si Si7 0.174065 0.917456 0.808411
Si Si8 0.828453 0.587001 0.659971
O O1 0.555573 0.250000 0.085693
O O2 0.516667 0.516584 0.083668
O O3 0.642158 0.456431 0.115936
O O4 0.597168 0.425929 0.986582
O O5 0.452532 0.750000 0.108297
O O6 0.400144 0.994815 0.145377
O O7 0.066457 0.750000 0.698281
O O8 0.039910 0.521051 0.633298
O O9 0.125678 0.522575 0.746023
O O10 0.996229 0.552873 0.763480
O O11 0.407834 0.250000 0.197168
O O12 0.369321 0.468736 0.273733
O O13 0.250000 0.958424 0.493913
O O14 0.325099 0.750000 0.444152
O O15 0.375731 0.929066 0.536166
O O16 0.354064 0.004487 0.407801
O O17 0.500000 0.500000 0.500000
O O18 0.521154 0.250000 0.448146
O O19 0.250000 0.983404 0.802737
O O20 0.178566 0.750000 0.801270
O O21 0.750000 0.558474 0.674768
O O22 0.845160 0.750000 0.645842
#
# Coordination Sequence:
#
# PCOD8239835 Si02
#       8
#     8   8   8   8   8   8   8   8
#     4   9  17  32  50  71  99 127 161 201 242 288
#     4  10  19  29  48  75  99 126 162 200 240 290
#     4   9  17  29  47  71  96 125 163 201 242 287
#     4  10  18  31  50  70  98 130 160 203 246 285
#     4   9  18  32  49  70  98 130 161 201 254 303
#     4  10  20  33  50  73 101 130 163 206 252 300
#     4   9  16  28  50  76  99 126 164 207 244 282
#     4   9  18  32  51  73  95 126 168 206 243 295
#
# _framework density 17.948661000000001
#
# number of rings (size 3 to 8) (size 9 to 14) (size 15 to 20)
#    0.000    2.625    1.250    1.125    0.000    3.000 
#    0.000    3.750    0.000    1.125    0.000    0.000 
#    0.000    0.000    0.000    0.000    0.000    0.000 
#
# Total GULP energy -793348.954472 kJ/mol
# GULP energy per Si atom -12396.077414 kJ/mol
# Density = 1.790781 g / cm^3
# Si number density = 17.948661 Si / 1000 Ang^3
#
#
#
# Elastic Constant Matrix: (Units=GPa)
#
#
# Indices 1 2 3 4 5 6 
#
# 1 60.3682 13.5582 32.4381 0.0000 0.0000 0.0000
# 2 13.5582 45.6792 33.4738 0.0000 0.0000 0.0000
# 3 32.4381 33.4738 117.8003 0.0000 0.0000 0.0000
# 4 0.0000 0.0000 0.0000 27.5789 0.0000 0.0000
# 5 0.0000 0.0000 0.0000 0.0000 29.7976 0.0000
# 6 0.0000 0.0000 0.0000 0.0000 0.0000 17.3654
#
#
#
# Elastic Compliance Matrix: (Units=1/GPa)
#
#
# Indices 1 2 3 4 5 6 
#
# 1 0.019641 -0.002357 -0.004739 0.000000 0.000000 0.000000
# 2 -0.002357 0.027932 -0.007288 0.000000 0.000000 0.000000
# 3 -0.004739 -0.007288 0.011865 0.000000 0.000000 0.000000
# 4 0.000000 0.000000 0.000000 0.036260 0.000000 0.000000
# 5 0.000000 0.000000 0.000000 0.000000 0.033560 0.000000
# 6 0.000000 0.000000 0.000000 0.000000 0.000000 0.057586
#
#
# Mechanical properties :
#
#
# Convention : Reuss Voigt Hill
#
# Bulk Modulus (GPa) = 32.60518 42.53198 37.56858
# Shear Modulus (GPa) = 22.14021 24.57355 23.35688
#
# Velocity S-wave (km/s) = 3.51597 3.70415 3.61129
# Velocity P-wave (km/s) = 5.88965 6.48400 6.19396
#
# Compressibility (1/GPa) = 0.03066997
#
# Stress axis : x y z
#
# Youngs Moduli (GPa) = 50.91495 35.80107 84.28359
#
# Poissons Ratio (x) = 0.08439 0.39938
# Poissons Ratio (y) = 0.12002 0.61426
# Poissons Ratio (z) = 0.24126 0.26092
#
# Static dielectric constant tensor:
#      x y z
#    x 3.347950 0.000000 0.000000 
#    y 0.000000 3.119550 0.000000 
#    z 0.000000 0.000000 3.580580 
# 
# 
# High freq. dielectric constant tensor:
#      x y z
#    x 1.684120 0.000000 0.000000 
#    y 0.000000 1.661540 0.000000 
#    z 0.000000 0.000000 1.705040 
# 
# From -- ./inp_files/28317.got.cif
#   From: 2010.03.12/outbox.cif.g09.slc.cpg/sg59_15_cif.got.tgz:28317.got - 2010.04.16 16:29:54.
