data_PCOD8239563
_publ_section_title
;
Structure prediction by ZEFSAII (Michael W. Deem and Ramdas Pophale) SiO2 
 PCOD8239563
Probable space group: P M M N
;
_chemical_formula_sum "Si O2"
_cell_formula_units_Z 48
_cell_length_a 9.247749
_cell_length_b 29.709172
_cell_length_c 10.165170
_cell_angle_alpha 90.000000
_cell_angle_beta 90.000000
_cell_angle_gamma 90.000000
_cell_volume 2792.808952
_symmetry_space_group_name_H-M "P M M N"
_symmetry_group_IT_number 59
_space_group.IT_coordinate_system_code '2'
_symmetry_cell_setting 'orthorhombic'
loop_
_space_group_symop_operation_xyz
x,y,z
1/2-x,1/2-y,z
1/2+x,-y,-z
-x,1/2+y,-z
-x,-y,-z
1/2+x,1/2+y,-z
1/2-x,y,z
x,1/2-y,z
loop_
_atom_site_type_symbol
_atom_site_label
_atom_site_fract_x
_atom_site_fract_y
_atom_site_fract_z
Si Si1 0.086692 0.799966 0.209926
Si Si2 0.584678 0.617779 0.514430
Si Si3 0.584035 0.522954 0.615823
Si Si4 0.921625 0.887360 0.212036
Si Si5 0.577094 0.025560 0.882400
Si Si6 0.087889 0.701358 0.522474
O O1 0.250000 0.810664 0.161530
O O2 0.039382 0.750000 0.158888
O O3 0.083247 0.799808 0.366210
O O4 0.976654 0.838571 0.159490
O O5 0.750000 0.631770 0.509702
O O6 0.553259 0.576263 0.611106
O O7 0.535403 0.606167 0.365403
O O8 0.504234 0.660232 0.579140
O O9 0.500000 0.500000 0.500000
O O10 0.750000 0.512429 0.588117
O O11 0.535524 0.503793 0.755223
O O12 0.750000 0.891647 0.187899
O O13 0.007324 0.925099 0.130368
O O14 0.750000 0.029143 0.903482
O O15 0.500000 0.000000 0.000000
O O16 0.250000 0.695197 0.574450
O O17 0.027314 0.750000 0.570895
#
# Coordination Sequence:
#
# PCOD8239563 Si02
#       6
#     8   8   8   8   8   8
#     4   8  14  25  41  63  94 129 163 199 241 292
#     4   9  17  28  44  69  97 124 159 201 243 289
#     4  10  20  34  52  74  99 129 165 205 248 295
#     4  10  18  29  47  70  99 130 163 205 248 296
#     4  11  23  37  53  72  99 135 171 210 256 304
#     4   8  14  24  38  60  92 127 160 193 234 286
#
# _framework density 17.186997999999999
#
# number of rings (size 3 to 8) (size 9 to 14) (size 15 to 20)
#    0.000    2.667    1.667    2.000    0.000    2.667 
#    0.000    3.333    0.000    0.000    0.000    1.167 
#    0.000    6.667    0.000    0.000    0.000    0.000 
#
# Total GULP energy -594914.201681 kJ/mol
# GULP energy per Si atom -12394.045868 kJ/mol
# Density = 1.714788 g / cm^3
# Si number density = 17.186998 Si / 1000 Ang^3
#
#
#
# Elastic Constant Matrix: (Units=GPa)
#
#
# Indices 1 2 3 4 5 6 
#
# 1 80.5210 66.9362 37.6069 0.0000 0.0000 0.0000
# 2 66.9362 141.6489 48.9668 0.0000 0.0000 0.0000
# 3 37.6069 48.9668 57.0371 0.0000 0.0000 0.0000
# 4 0.0000 0.0000 0.0000 12.9996 0.0000 0.0000
# 5 0.0000 0.0000 0.0000 0.0000 16.7781 0.0000
# 6 0.0000 0.0000 0.0000 0.0000 0.0000 38.3472
#
#
#
# Elastic Compliance Matrix: (Units=1/GPa)
#
#
# Indices 1 2 3 4 5 6 
#
# 1 0.022898 -0.007965 -0.008259 0.000000 0.000000 0.000000
# 2 -0.007965 0.012810 -0.005746 0.000000 0.000000 0.000000
# 3 -0.008259 -0.005746 0.027911 0.000000 0.000000 0.000000
# 4 0.000000 0.000000 0.000000 0.076926 0.000000 0.000000
# 5 0.000000 0.000000 0.000000 0.000000 0.059601 0.000000
# 6 0.000000 0.000000 0.000000 0.000000 0.000000 0.026078
#
#
# Mechanical properties :
#
#
# Convention : Reuss Voigt Hill
#
# Bulk Modulus (GPa) = 50.81734 65.13631 57.97683
# Shear Modulus (GPa) = 18.06861 22.00479 20.03670
#
# Velocity S-wave (km/s) = 3.24589 3.58203 3.41809
# Velocity P-wave (km/s) = 6.60902 7.42218 7.02738
#
# Compressibility (1/GPa) = 0.01967832
#
# Stress axis : x y z
#
# Youngs Moduli (GPa) = 43.67181 78.06468 35.82848
#
# Poissons Ratio (x) = 0.62181 0.29592
# Poissons Ratio (y) = 0.34786 0.20585
# Poissons Ratio (z) = 0.36070 0.44852
#
# Static dielectric constant tensor:
#      x y z
#    x 3.279370 0.000000 0.000000 
#    y 0.000000 3.651500 0.000000 
#    z 0.000000 0.000000 2.695810 
# 
# 
# High freq. dielectric constant tensor:
#      x y z
#    x 1.666960 0.000000 0.000000 
#    y 0.000000 1.684130 0.000000 
#    z 0.000000 0.000000 1.598270 
# 
# From -- ./inp_files/6331.got.cif
#   From: 2010.03.12/outbox.cif.g09.slc.cpg/sg59_4_cif.got.tgz:6331.got - 2010.04.16 16:29:54.
