data_PCOD8239462
_publ_section_title
;
Structure prediction by ZEFSAII (Michael W. Deem and Ramdas Pophale) SiO2 
 PCOD8239462
Probable space group: P M M N
;
_chemical_formula_sum "Si O2"
_cell_formula_units_Z 40
_cell_length_a 26.410270
_cell_length_b 8.436358
_cell_length_c 9.257696
_cell_angle_alpha 90.000000
_cell_angle_beta 90.000000
_cell_angle_gamma 90.000000
_cell_volume 2062.674775
_symmetry_space_group_name_H-M "P M M N"
_symmetry_group_IT_number 59
_space_group.IT_coordinate_system_code '2'
_symmetry_cell_setting 'orthorhombic'
loop_
_space_group_symop_operation_xyz
x,y,z
1/2-x,1/2-y,z
1/2+x,-y,-z
-x,1/2+y,-z
-x,-y,-z
1/2+x,1/2+y,-z
1/2-x,y,z
x,1/2-y,z
loop_
_atom_site_type_symbol
_atom_site_label
_atom_site_fract_x
_atom_site_fract_y
_atom_site_fract_z
Si Si1 0.353584 0.062307 0.418790
Si Si2 0.250000 0.565301 0.395003
Si Si3 0.642111 0.561014 0.911401
Si Si4 0.250000 0.433110 0.083561
Si Si5 0.547804 0.562238 0.413744
Si Si6 0.952637 0.561688 0.087191
O O1 0.347501 0.250000 0.431552
O O2 0.365095 0.007000 0.254447
O O3 0.400313 0.999889 0.514716
O O4 0.301909 0.980222 0.479359
O O5 0.250000 0.750000 0.354914
O O6 0.250000 0.452583 0.255706
O O7 0.642149 0.750000 0.917361
O O8 0.696528 0.494323 0.973277
O O9 0.597582 0.491437 0.010360
O O10 0.250000 0.250000 0.044242
O O11 0.500000 0.500000 0.500000
O O12 0.546585 0.750000 0.416874
O O13 0.545281 0.497100 0.250299
O O14 0.951974 0.750000 0.083860
O O15 0.000000 0.500000 0.000000
#
# Coordination Sequence:
#
# PCOD8239462 Si02
#       6
#     8   4   8   4   8   8
#     4   9  17  32  51  71  98 135 170 202 245 301
#     4  10  18  28  47  76 102 126 162 210 251 290
#     4   8  14  27  49  71  94 124 161 199 238 287
#     4   8  14  28  49  70  94 130 164 194 241 300
#     4  10  21  35  53  76 103 135 173 213 256 304
#     4  10  20  34  51  75 102 130 166 208 253 303
#
# _framework density 19.392296999999999
#
# number of rings (size 3 to 8) (size 9 to 14) (size 15 to 20)
#    0.000    2.800    0.000    3.300    0.000    3.200 
#    0.000    7.000    0.000    4.800    0.000    5.600 
#    0.000    0.000    0.000    0.000    0.000    0.000 
#
# Total GULP energy -495652.781256 kJ/mol
# GULP energy per Si atom -12391.319531 kJ/mol
# Density = 1.934816 g / cm^3
# Si number density = 19.392297 Si / 1000 Ang^3
#
#
#
# Elastic Constant Matrix: (Units=GPa)
#
#
# Indices 1 2 3 4 5 6 
#
# 1 238.6921 20.0822 101.5698 0.0000 0.0000 0.0000
# 2 20.0822 14.4332 16.2292 0.0000 0.0000 0.0000
# 3 101.5698 16.2292 127.0796 0.0000 0.0000 0.0000
# 4 0.0000 0.0000 0.0000 15.3548 0.0000 0.0000
# 5 0.0000 0.0000 0.0000 0.0000 35.9639 0.0000
# 6 0.0000 0.0000 0.0000 0.0000 0.0000 28.3074
#
#
#
# Elastic Compliance Matrix: (Units=1/GPa)
#
#
# Indices 1 2 3 4 5 6 
#
# 1 0.006518 -0.003750 -0.004731 0.000000 0.000000 0.000000
# 2 -0.003750 0.083059 -0.007610 0.000000 0.000000 0.000000
# 3 -0.004731 -0.007610 0.012622 0.000000 0.000000 0.000000
# 4 0.000000 0.000000 0.000000 0.065126 0.000000 0.000000
# 5 0.000000 0.000000 0.000000 0.000000 0.027806 0.000000
# 6 0.000000 0.000000 0.000000 0.000000 0.000000 0.035326
#
#
# Mechanical properties :
#
#
# Convention : Reuss Voigt Hill
#
# Bulk Modulus (GPa) = 14.28212 72.88526 43.58369
# Shear Modulus (GPa) = 17.48383 32.08014 24.78198
#
# Velocity S-wave (km/s) = 3.00590 4.07169 3.57869
# Velocity P-wave (km/s) = 4.40773 7.73118 6.29282
#
# Compressibility (1/GPa) = 0.07001762
#
# Stress axis : x y z
#
# Youngs Moduli (GPa) = 153.42046 12.03960 79.22610
#
# Poissons Ratio (x) = 0.04514 0.37480
# Poissons Ratio (y) = 0.57528 0.60294
# Poissons Ratio (z) = 0.72579 0.09163
#
# Static dielectric constant tensor:
#      x y z
#    x 3.642930 0.000000 0.000000 
#    y 0.000000 3.138590 0.000000 
#    z 0.000000 0.000000 3.492490 
# 
# 
# High freq. dielectric constant tensor:
#      x y z
#    x 1.786890 0.000000 0.000000 
#    y 0.000000 1.716090 0.000000 
#    z 0.000000 0.000000 1.723230 
# 
# From -- ./inp_files/12422.got.cif
#   From: 2010.03.12/outbox.cif.g09.slc.cpg/sg59_7_cif.got.tgz:12422.got - 2010.04.16 16:29:54.
