data_PCOD8239414
_publ_section_title
;
Structure prediction by ZEFSAII (Michael W. Deem and Ramdas Pophale) SiO2 
 PCOD8239414
Probable space group: P M M N
;
_chemical_formula_sum "Si O2"
_cell_formula_units_Z 48
_cell_length_a 19.228246
_cell_length_b 8.854468
_cell_length_c 16.002452
_cell_angle_alpha 90.000000
_cell_angle_beta 90.000000
_cell_angle_gamma 90.000000
_cell_volume 2724.511690
_symmetry_space_group_name_H-M "P M M N"
_symmetry_group_IT_number 59
_space_group.IT_coordinate_system_code '2'
_symmetry_cell_setting 'orthorhombic'
loop_
_space_group_symop_operation_xyz
x,y,z
1/2-x,1/2-y,z
1/2+x,-y,-z
-x,1/2+y,-z
-x,-y,-z
1/2+x,1/2+y,-z
1/2-x,y,z
x,1/2-y,z
loop_
_atom_site_type_symbol
_atom_site_label
_atom_site_fract_x
_atom_site_fract_y
_atom_site_fract_z
Si Si1 0.514911 0.073916 0.625144
Si Si2 0.750000 0.929490 0.422624
Si Si3 0.932151 0.923515 0.966957
Si Si4 0.115016 0.072397 0.861349
Si Si5 0.607320 0.073198 0.466655
Si Si6 0.024735 0.427300 0.204477
Si Si7 0.750000 0.571012 0.232600
O O1 0.498345 0.250000 0.630031
O O2 0.571879 0.036251 0.555205
O O3 0.441745 0.991276 0.606747
O O4 0.546530 0.016007 0.712293
O O5 0.750000 0.750000 0.428698
O O6 0.750000 0.987693 0.327264
O O7 0.681750 0.992700 0.467963
O O8 0.951290 0.750000 0.963139
O O9 0.919232 0.971793 0.869739
O O10 0.873267 0.954400 0.037702
O O11 0.000000 0.000000 0.000000
O O12 0.102277 0.250000 0.843067
O O13 0.182598 0.008605 0.815004
O O14 0.051321 0.977517 0.825460
O O15 0.617458 0.250000 0.451948
O O16 0.025056 0.250000 0.224514
O O17 0.750000 0.750000 0.229479
#
# Coordination Sequence:
#
# PCOD8239414 Si02
#       7
#     8   4   8   8   8   8   4
#     4  10  20  34  52  74  98 128 166 207 254 302
#     4  11  21  33  51  76 105 134 164 197 241 303
#     4   8  15  26  42  64  89 118 150 187 228 270
#     4   9  16  29  46  65  93 126 158 191 231 281
#     4  10  21  36  53  73  99 130 165 207 252 298
#     4  10  18  28  45  70  96 121 155 199 243 287
#     4   9  18  29  45  68  91 120 154 185 221 275
#
# _framework density 17.617836
#
# number of rings (size 3 to 8) (size 9 to 14) (size 15 to 20)
#    0.000    2.500    0.000    2.750    0.000    4.000 
#    0.000    1.250    0.000    1.000    0.000    2.333 
#    0.000    0.000    0.000    0.000    0.000    0.000 
#
# Total GULP energy -594780.921201 kJ/mol
# GULP energy per Si atom -12391.269192 kJ/mol
# Density = 1.757774 g / cm^3
# Si number density = 17.617836 Si / 1000 Ang^3
#
#
#
# Elastic Constant Matrix: (Units=GPa)
#
#
# Indices 1 2 3 4 5 6 
#
# 1 78.6088 29.9394 37.1979 0.0000 0.0000 0.0000
# 2 29.9394 58.3461 39.3426 0.0000 0.0000 0.0000
# 3 37.1979 39.3426 127.3679 0.0000 0.0000 0.0000
# 4 0.0000 0.0000 0.0000 27.6759 0.0000 0.0000
# 5 0.0000 0.0000 0.0000 0.0000 20.5015 0.0000
# 6 0.0000 0.0000 0.0000 0.0000 0.0000 22.7761
#
#
#
# Elastic Compliance Matrix: (Units=1/GPa)
#
#
# Indices 1 2 3 4 5 6 
#
# 1 0.016563 -0.006615 -0.002794 0.000000 0.000000 0.000000
# 2 -0.006615 0.024290 -0.005571 0.000000 0.000000 0.000000
# 3 -0.002794 -0.005571 0.010388 0.000000 0.000000 0.000000
# 4 0.000000 0.000000 0.000000 0.036132 0.000000 0.000000
# 5 0.000000 0.000000 0.000000 0.000000 0.048777 0.000000
# 6 0.000000 0.000000 0.000000 0.000000 0.000000 0.043906
#
#
# Mechanical properties :
#
#
# Convention : Reuss Voigt Hill
#
# Bulk Modulus (GPa) = 46.99021 53.03139 50.01080
# Shear Modulus (GPa) = 23.02988 24.71357 23.87173
#
# Velocity S-wave (km/s) = 3.61943 3.74941 3.68499
# Velocity P-wave (km/s) = 6.64808 6.99359 6.82302
#
# Compressibility (1/GPa) = 0.02128103
#
# Stress axis : x y z
#
# Youngs Moduli (GPa) = 60.37662 41.16918 96.26465
#
# Poissons Ratio (x) = 0.27234 0.26895
# Poissons Ratio (y) = 0.39939 0.53629
# Poissons Ratio (z) = 0.16868 0.22935
#
# Static dielectric constant tensor:
#      x y z
#    x 3.068930 0.000000 0.000000 
#    y 0.000000 3.405730 0.000000 
#    z 0.000000 0.000000 3.847940 
# 
# 
# High freq. dielectric constant tensor:
#      x y z
#    x 1.640720 0.000000 0.000000 
#    y 0.000000 1.683170 0.000000 
#    z 0.000000 0.000000 1.699430 
# 
# From -- ./inp_files/23688.got.cif
#   From: 2010.03.12/outbox.cif.g09.slc.cpg/sg59_12_cif.got.tgz:23688.got - 2010.04.16 16:29:54.
