data_PCOD8239169
_publ_section_title
;
Structure prediction by ZEFSAII (Michael W. Deem and Ramdas Pophale) SiO2 
 PCOD8239169
Probable space group: P M M N
;
_chemical_formula_sum "Si O2"
_cell_formula_units_Z 64
_cell_length_a 13.077413
_cell_length_b 27.428611
_cell_length_c 10.029050
_cell_angle_alpha 90.000000
_cell_angle_beta 90.000000
_cell_angle_gamma 90.000000
_cell_volume 3597.372838
_symmetry_space_group_name_H-M "P M M N"
_symmetry_group_IT_number 59
_space_group.IT_coordinate_system_code '2'
_symmetry_cell_setting 'orthorhombic'
loop_
_space_group_symop_operation_xyz
x,y,z
1/2-x,1/2-y,z
1/2+x,-y,-z
-x,1/2+y,-z
-x,-y,-z
1/2+x,1/2+y,-z
1/2-x,y,z
x,1/2-y,z
loop_
_atom_site_type_symbol
_atom_site_label
_atom_site_fract_x
_atom_site_fract_y
_atom_site_fract_z
Si Si1 0.048867 0.374988 0.549980
Si Si2 0.871213 0.696042 0.229971
Si Si3 0.441836 0.437909 0.110738
Si Si4 0.632926 0.067211 0.647870
Si Si5 0.132464 0.165338 0.051161
Si Si6 0.131089 0.305378 0.335573
Si Si7 0.866811 0.457758 0.950344
Si Si8 0.132296 0.041600 0.391739
O O1 0.089791 0.347428 0.678633
O O2 0.058470 0.338846 0.425232
O O3 0.112121 0.424980 0.521610
O O4 0.932156 0.390490 0.577152
O O5 0.750000 0.692370 0.228829
O O6 0.905459 0.750000 0.280051
O O7 0.917977 0.687959 0.081846
O O8 0.381446 0.392346 0.052357
O O9 0.384114 0.484412 0.050803
O O10 0.438445 0.438341 0.271483
O O11 0.559639 0.434497 0.062057
O O12 0.750000 0.081762 0.625642
O O13 0.606805 0.063968 0.804881
O O14 0.607714 0.015047 0.578170
O O15 0.250000 0.179541 0.047288
O O16 0.087726 0.189755 0.185382
O O17 0.250000 0.322909 0.347343
O O18 0.121726 0.250000 0.384921
O O19 0.750000 0.446334 0.990073
O O20 0.250000 0.045829 0.345171
#
# Coordination Sequence:
#
# PCOD8239169 Si02
#       8
#     8   8   8   8   8   8   8   8
#     4  12  20  32  54  78 102 140 182 213 256 312
#     4  10  21  34  49  75 110 139 169 217 267 312
#     4  10  17  29  51  77 102 139 180 216 256 315
#     4   9  20  36  52  73 104 141 180 223 267 305
#     4  10  18  31  51  74 103 139 175 208 257 322
#     4  10  20  33  52  78 106 136 172 215 269 329
#     4   9  18  32  50  73 106 141 177 221 266 309
#     4  10  19  33  52  77 110 142 174 216 262 314
#
# _framework density 17.790759999999999
#
# number of rings (size 3 to 8) (size 9 to 14) (size 15 to 20)
#    0.000    2.000    1.250    4.875    0.000    2.500 
#    0.000    0.625    0.000    9.000    0.000    0.000 
#    0.000    3.000    0.000    0.000    0.000    0.000 
#
# Total GULP energy -793427.678115 kJ/mol
# GULP energy per Si atom -12397.307471 kJ/mol
# Density = 1.775027 g / cm^3
# Si number density = 17.790760 Si / 1000 Ang^3
#
#
#
# Elastic Constant Matrix: (Units=GPa)
#
#
# Indices 1 2 3 4 5 6 
#
# 1 72.4937 40.0891 50.4651 0.0000 0.0000 0.0000
# 2 40.0891 95.6364 53.5386 0.0000 0.0000 0.0000
# 3 50.4651 53.5386 104.6001 0.0000 0.0000 0.0000
# 4 0.0000 0.0000 0.0000 24.1056 0.0000 0.0000
# 5 0.0000 0.0000 0.0000 0.0000 24.9208 0.0000
# 6 0.0000 0.0000 0.0000 0.0000 0.0000 25.6485
#
#
#
# Elastic Compliance Matrix: (Units=1/GPa)
#
#
# Indices 1 2 3 4 5 6 
#
# 1 0.022140 -0.004627 -0.008314 0.000000 0.000000 0.000000
# 2 -0.004627 0.015623 -0.005764 0.000000 0.000000 0.000000
# 3 -0.008314 -0.005764 0.016521 0.000000 0.000000 0.000000
# 4 0.000000 0.000000 0.000000 0.041484 0.000000 0.000000
# 5 0.000000 0.000000 0.000000 0.000000 0.040127 0.000000
# 6 0.000000 0.000000 0.000000 0.000000 0.000000 0.038989
#
#
# Mechanical properties :
#
#
# Convention : Reuss Voigt Hill
#
# Bulk Modulus (GPa) = 59.25758 62.32399 60.79079
# Shear Modulus (GPa) = 22.94443 23.51081 23.22762
#
# Velocity S-wave (km/s) = 3.59511 3.63921 3.61723
# Velocity P-wave (km/s) = 7.11431 7.26404 7.18956
#
# Compressibility (1/GPa) = 0.01687548
#
# Stress axis : x y z
#
# Youngs Moduli (GPa) = 45.16666 64.01021 60.52745
#
# Poissons Ratio (x) = 0.29616 0.50320
# Poissons Ratio (y) = 0.20898 0.34888
# Poissons Ratio (z) = 0.37550 0.36896
#
# Static dielectric constant tensor:
#      x y z
#    x 3.048820 0.000000 0.000000 
#    y 0.000000 3.347780 0.000000 
#    z 0.000000 0.000000 3.466390 
# 
# 
# High freq. dielectric constant tensor:
#      x y z
#    x 1.648860 0.000000 0.000000 
#    y 0.000000 1.690090 0.000000 
#    z 0.000000 0.000000 1.690660 
# 
# From -- ./inp_files/16328.got.cif
#   From: 2010.03.12/outbox.cif.g09.slc.cpg/sg59_9_cif.got.tgz:16328.got - 2010.04.16 16:29:54.
