data_PCOD8239618
_publ_section_title
;
Structure prediction by ZEFSAII (Michael W. Deem and Ramdas Pophale) SiO2 
 PCOD8239618
Probable space group: P M M N
;
_chemical_formula_sum "Si O2"
_cell_formula_units_Z 64
_cell_length_a 9.078840
_cell_length_b 29.548731
_cell_length_c 12.498837
_cell_angle_alpha 90.000000
_cell_angle_beta 90.000000
_cell_angle_gamma 90.000000
_cell_volume 3353.040516
_symmetry_space_group_name_H-M "P M M N"
_symmetry_group_IT_number 59
_space_group.IT_coordinate_system_code '2'
_symmetry_cell_setting 'orthorhombic'
loop_
_space_group_symop_operation_xyz
x,y,z
1/2-x,1/2-y,z
1/2+x,-y,-z
-x,1/2+y,-z
-x,-y,-z
1/2+x,1/2+y,-z
1/2-x,y,z
x,1/2-y,z
loop_
_atom_site_type_symbol
_atom_site_label
_atom_site_fract_x
_atom_site_fract_y
_atom_site_fract_z
Si Si1 0.574579 0.608102 0.020406
Si Si2 0.580646 0.199804 0.433997
Si Si3 0.425954 0.933283 0.819196
Si Si4 0.579093 0.965876 0.188869
Si Si5 0.418355 0.408417 0.617488
Si Si6 0.580793 0.799116 0.121288
Si Si7 0.080551 0.821232 0.326620
Si Si8 0.921617 0.889106 0.621855
O O1 0.750000 0.605612 0.005368
O O2 0.514586 0.572455 0.109221
O O3 0.521028 0.658818 0.051508
O O4 0.495594 0.598121 0.909243
O O5 0.750000 0.185545 0.412417
O O6 0.548464 0.250000 0.386599
O O7 0.550198 0.202620 0.560432
O O8 0.473320 0.163230 0.380212
O O9 0.250000 0.930693 0.822685
O O10 0.480939 0.916294 0.705015
O O11 0.487083 0.984561 0.834934
O O12 0.750000 0.968235 0.164522
O O13 0.551004 0.954007 0.314365
O O14 0.250000 0.392228 0.633898
O O15 0.524801 0.372340 0.670608
O O16 0.451094 0.414098 0.491679
O O17 0.750000 0.809013 0.146357
O O18 0.560126 0.750000 0.062543
O O19 0.501331 0.794154 0.234544
O O20 0.250000 0.821466 0.296376
O O21 0.750000 0.890143 0.653292
#
# Coordination Sequence:
#
# PCOD8239618 Si02
#       8
#     8   8   8   8   8   8   8   8
#     4  10  20  38  60  80 110 144 182 232 279 325
#     4   9  18  33  53  78 110 147 184 224 273 324
#     4  11  23  38  57  80 108 145 190 233 281 336
#     4   9  18  35  60  85 109 142 180 229 286 333
#     4   9  17  34  57  81 112 147 181 222 272 326
#     4  10  20  34  55  81 109 145 183 219 269 330
#     4  10  18  29  49  81 118 149 175 215 269 327
#     4  10  21  36  56  81 111 147 187 228 271 327
#
# _framework density 19.087154000000002
#
# number of rings (size 3 to 8) (size 9 to 14) (size 15 to 20)
#    0.000    2.250    1.250    1.875    0.000    3.000 
#    0.000    2.500    0.000    2.250    0.000    0.000 
#    0.000    0.000    0.000    0.000    0.000    0.000 
#
# Total GULP energy -793350.174124 kJ/mol
# GULP energy per Si atom -12396.096471 kJ/mol
# Density = 1.904371 g / cm^3
# Si number density = 19.087154 Si / 1000 Ang^3
#
#
#
# Elastic Constant Matrix: (Units=GPa)
#
#
# Indices 1 2 3 4 5 6 
#
# 1 46.7611 35.1860 26.8399 0.0000 0.0000 0.0000
# 2 35.1860 130.8589 50.7873 0.0000 0.0000 0.0000
# 3 26.8399 50.7873 87.6247 0.0000 0.0000 0.0000
# 4 0.0000 0.0000 0.0000 13.8846 0.0000 0.0000
# 5 0.0000 0.0000 0.0000 0.0000 29.3813 0.0000
# 6 0.0000 0.0000 0.0000 0.0000 0.0000 21.4248
#
#
#
# Elastic Compliance Matrix: (Units=1/GPa)
#
#
# Indices 1 2 3 4 5 6 
#
# 1 0.028785 -0.005571 -0.005588 0.000000 0.000000 0.000000
# 2 -0.005571 0.010938 -0.004633 0.000000 0.000000 0.000000
# 3 -0.005588 -0.004633 0.015809 0.000000 0.000000 0.000000
# 4 0.000000 0.000000 0.000000 0.072022 0.000000 0.000000
# 5 0.000000 0.000000 0.000000 0.000000 0.034035 0.000000
# 6 0.000000 0.000000 0.000000 0.000000 0.000000 0.046675
#
#
# Mechanical properties :
#
#
# Convention : Reuss Voigt Hill
#
# Bulk Modulus (GPa) = 41.75779 54.54123 48.14951
# Shear Modulus (GPa) = 20.17503 23.10024 21.63764
#
# Velocity S-wave (km/s) = 3.25467 3.48264 3.37058
# Velocity P-wave (km/s) = 6.00406 6.69392 6.35836
#
# Compressibility (1/GPa) = 0.02394763
#
# Stress axis : x y z
#
# Youngs Moduli (GPa) = 34.74070 91.42448 63.25387
#
# Poissons Ratio (x) = 0.50933 0.35345
# Poissons Ratio (y) = 0.19354 0.29307
# Poissons Ratio (z) = 0.19413 0.42359
#
# Static dielectric constant tensor:
#      x y z
#    x 3.367160 0.000000 0.000000 
#    y 0.000000 3.750690 0.000000 
#    z 0.000000 0.000000 3.370650 
# 
# 
# High freq. dielectric constant tensor:
#      x y z
#    x 1.729230 0.000000 0.000000 
#    y 0.000000 1.747690 0.000000 
#    z 0.000000 0.000000 1.726170 
# 
# From -- ./inp_files/15021.got.cif
#   From: 2010.03.12/outbox.cif.g09.slc.cpg/sg59_8_cif.got.tgz:15021.got - 2010.04.16 16:29:54.
