data_PCOD8239834
_publ_section_title
;
Structure prediction by ZEFSAII (Michael W. Deem and Ramdas Pophale) SiO2 
 PCOD8239834
Probable space group: P M M N
;
_chemical_formula_sum "Si O2"
_cell_formula_units_Z 48
_cell_length_a 8.704647
_cell_length_b 25.060094
_cell_length_c 12.577953
_cell_angle_alpha 90.000000
_cell_angle_beta 90.000000
_cell_angle_gamma 90.000000
_cell_volume 2743.745511
_symmetry_space_group_name_H-M "P M M N"
_symmetry_group_IT_number 59
_space_group.IT_coordinate_system_code '2'
_symmetry_cell_setting 'orthorhombic'
loop_
_space_group_symop_operation_xyz
x,y,z
1/2-x,1/2-y,z
1/2+x,-y,-z
-x,1/2+y,-z
-x,-y,-z
1/2+x,1/2+y,-z
1/2-x,y,z
x,1/2-y,z
loop_
_atom_site_type_symbol
_atom_site_label
_atom_site_fract_x
_atom_site_fract_y
_atom_site_fract_z
Si Si1 0.077430 0.813377 0.014949
Si Si2 0.069896 0.189360 0.200725
Si Si3 0.426548 0.312825 0.769775
Si Si4 0.568348 0.894314 0.622560
Si Si5 0.932628 0.998190 0.382344
Si Si6 0.569277 0.109198 0.609355
O O1 0.250000 0.834893 0.028888
O O2 0.072067 0.750000 0.011542
O O3 0.009371 0.835087 0.904318
O O4 0.977076 0.833957 0.114158
O O5 0.250000 0.186941 0.180182
O O6 0.016011 0.250000 0.223332
O O7 0.020806 0.154339 0.301543
O O8 0.250000 0.328201 0.751405
O O9 0.454424 0.250000 0.759986
O O10 0.530622 0.339691 0.680062
O O11 0.750000 0.900973 0.612614
O O12 0.496970 0.948452 0.674298
O O13 0.500459 0.881707 0.507147
O O14 0.750000 0.998191 0.381536
O O15 0.000000 0.000000 0.500000
O O16 0.996378 0.943118 0.332312
O O17 0.750000 0.101533 0.598568
#
# Coordination Sequence:
#
# PCOD8239834 Si02
#       6
#     8   8   8   8   8   8
#     4   9  17  30  49  72  97 126 163 204 241 281
#     4   9  18  32  50  72  99 132 166 199 238 287
#     4  10  20  34  52  73  99 131 165 200 241 291
#     4  10  19  32  50  73 101 132 167 204 244 290
#     4  10  18  31  50  70  94 126 166 205 243 289
#     4  11  21  33  50  73 101 130 163 203 247 293
#
# _framework density 17.494333000000001
#
# number of rings (size 3 to 8) (size 9 to 14) (size 15 to 20)
#    0.000    2.167    0.000    6.500    0.000    5.000 
#    0.000    1.667    0.000    1.000    0.000    0.000 
#    0.000    0.000    0.000    0.000    0.000    0.000 
#
# Total GULP energy -595121.419959 kJ/mol
# GULP energy per Si atom -12398.362916 kJ/mol
# Density = 1.745452 g / cm^3
# Si number density = 17.494333 Si / 1000 Ang^3
#
#
#
# Elastic Constant Matrix: (Units=GPa)
#
#
# Indices 1 2 3 4 5 6 
#
# 1 112.1002 42.0434 43.3983 0.0000 0.0000 0.0000
# 2 42.0434 77.0186 49.1085 0.0000 0.0000 0.0000
# 3 43.3983 49.1085 96.5086 0.0000 0.0000 0.0000
# 4 0.0000 0.0000 0.0000 3.6569 0.0000 0.0000
# 5 0.0000 0.0000 0.0000 0.0000 25.4760 0.0000
# 6 0.0000 0.0000 0.0000 0.0000 0.0000 27.6011
#
#
#
# Elastic Compliance Matrix: (Units=1/GPa)
#
#
# Indices 1 2 3 4 5 6 
#
# 1 0.011775 -0.004517 -0.002996 0.000000 0.000000 0.000000
# 2 -0.004517 0.020953 -0.008631 0.000000 0.000000 0.000000
# 3 -0.002996 -0.008631 0.016101 0.000000 0.000000 0.000000
# 4 0.000000 0.000000 0.000000 0.273453 0.000000 0.000000
# 5 0.000000 0.000000 0.000000 0.000000 0.039253 0.000000
# 6 0.000000 0.000000 0.000000 0.000000 0.000000 0.036230
#
#
# Mechanical properties :
#
#
# Convention : Reuss Voigt Hill
#
# Bulk Modulus (GPa) = 60.45860 61.63643 61.04752
# Shear Modulus (GPa) = 11.47932 21.41860 16.44896
#
# Velocity S-wave (km/s) = 2.56437 3.50282 3.06967
# Velocity P-wave (km/s) = 6.58802 7.18807 6.89458
#
# Compressibility (1/GPa) = 0.01654024
#
# Stress axis : x y z
#
# Youngs Moduli (GPa) = 84.92736 47.72656 62.10856
#
# Poissons Ratio (x) = 0.21559 0.18610
# Poissons Ratio (y) = 0.38363 0.53603
# Poissons Ratio (z) = 0.25447 0.41190
#
# Static dielectric constant tensor:
#      x y z
#    x 3.369020 0.000000 0.000000 
#    y 0.000000 3.658030 0.000000 
#    z 0.000000 0.000000 3.152330 
# 
# 
# High freq. dielectric constant tensor:
#      x y z
#    x 1.693140 0.000000 0.000000 
#    y 0.000000 1.663080 0.000000 
#    z 0.000000 0.000000 1.655510 
# 
# From -- ./inp_files/14516.got.cif
#   From: 2010.03.12/outbox.cif.g09.slc.cpg/sg59_8_cif.got.tgz:14516.got - 2010.04.16 16:29:54.
