data_PCOD8239731
_publ_section_title
;
Structure prediction by ZEFSAII (Michael W. Deem and Ramdas Pophale) SiO2 
 PCOD8239731
Probable space group: P M M N
;
_chemical_formula_sum "Si O2"
_cell_formula_units_Z 64
_cell_length_a 8.684594
_cell_length_b 14.602853
_cell_length_c 24.952851
_cell_angle_alpha 90.000000
_cell_angle_beta 90.000000
_cell_angle_gamma 90.000000
_cell_volume 3164.516810
_symmetry_space_group_name_H-M "P M M N"
_symmetry_group_IT_number 59
_space_group.IT_coordinate_system_code '2'
_symmetry_cell_setting 'orthorhombic'
loop_
_space_group_symop_operation_xyz
x,y,z
1/2-x,1/2-y,z
1/2+x,-y,-z
-x,1/2+y,-z
-x,-y,-z
1/2+x,1/2+y,-z
1/2-x,y,z
x,1/2-y,z
loop_
_atom_site_type_symbol
_atom_site_label
_atom_site_fract_x
_atom_site_fract_y
_atom_site_fract_z
Si Si1 0.931132 0.468406 0.378035
Si Si2 0.066416 0.144677 0.281180
Si Si3 0.570151 0.146748 0.585514
Si Si4 0.428875 0.145614 0.469826
Si Si5 0.576692 0.149894 0.095991
Si Si6 0.429236 0.031883 0.181085
Si Si7 0.066147 0.849847 0.132633
Si Si8 0.072444 0.906465 0.017725
O O1 0.750000 0.477629 0.370111
O O2 0.001031 0.401143 0.334122
O O3 0.006886 0.569970 0.373282
O O4 0.969224 0.423837 0.435328
O O5 0.250000 0.141184 0.282987
O O6 0.010009 0.250000 0.277117
O O7 0.996642 0.087151 0.230784
O O8 0.750000 0.130766 0.574659
O O9 0.542075 0.250000 0.608330
O O10 0.476650 0.133395 0.531025
O O11 0.250000 0.119911 0.463405
O O12 0.459100 0.250000 0.450914
O O13 0.750000 0.113079 0.105619
O O14 0.555401 0.250000 0.121703
O O15 0.459090 0.082122 0.124822
O O16 0.544170 0.160636 0.032528
O O17 0.250000 0.028471 0.191718
O O18 0.493376 0.927811 0.174280
O O19 0.250000 0.851580 0.130446
O O20 0.007730 0.750000 0.152250
O O21 0.999004 0.867245 0.072623
O O22 0.250000 0.923239 0.029221
O O23 0.000000 0.000000 0.000000
#
# Coordination Sequence:
#
# PCOD8239731 Si02
#       8
#     8   8   8   8   8   8   8   8
#     4  12  24  37  57  84 115 151 192 239 287 339
#     4  10  22  40  59  80 109 142 179 230 288 341
#     4  10  21  38  60  86 118 156 196 235 276 329
#     4  10  20  35  57  86 122 160 196 237 284 335
#     4  10  20  32  49  75 107 141 174 213 267 329
#     4  10  20  36  58  81 104 136 181 231 277 322
#     4   9  17  31  53  79 107 140 178 219 266 324
#     4  10  18  30  49  74 106 142 177 215 261 319
#
# _framework density 20.224256
#
# number of rings (size 3 to 8) (size 9 to 14) (size 15 to 20)
#    0.000    1.875    1.250    3.375    0.000    6.000 
#    0.000    0.625    0.000    4.500    0.000    0.000 
#    0.000    0.000    0.000    0.000    0.000    0.000 
#
# Total GULP energy -793315.373810 kJ/mol
# GULP energy per Si atom -12395.552716 kJ/mol
# Density = 2.017822 g / cm^3
# Si number density = 20.224256 Si / 1000 Ang^3
#
#
#
# Elastic Constant Matrix: (Units=GPa)
#
#
# Indices 1 2 3 4 5 6 
#
# 1 23.5472 30.1159 15.7445 0.0000 0.0000 0.0000
# 2 30.1159 174.0931 58.0322 0.0000 0.0000 0.0000
# 3 15.7445 58.0322 73.0284 0.0000 0.0000 0.0000
# 4 0.0000 0.0000 0.0000 35.5126 0.0000 0.0000
# 5 0.0000 0.0000 0.0000 0.0000 22.5998 0.0000
# 6 0.0000 0.0000 0.0000 0.0000 0.0000 22.3132
#
#
#
# Elastic Compliance Matrix: (Units=1/GPa)
#
#
# Indices 1 2 3 4 5 6 
#
# 1 0.056398 -0.007758 -0.005994 0.000000 0.000000 0.000000
# 2 -0.007758 0.008881 -0.005385 0.000000 0.000000 0.000000
# 3 -0.005994 -0.005385 0.019265 0.000000 0.000000 0.000000
# 4 0.000000 0.000000 0.000000 0.028159 0.000000 0.000000
# 5 0.000000 0.000000 0.000000 0.000000 0.044248 0.000000
# 6 0.000000 0.000000 0.000000 0.000000 0.000000 0.044816
#
#
# Mechanical properties :
#
#
# Convention : Reuss Voigt Hill
#
# Bulk Modulus (GPa) = 21.61239 53.16153 37.38696
# Shear Modulus (GPa) = 19.57221 27.20354 23.38787
#
# Velocity S-wave (km/s) = 3.11426 3.67153 3.40432
# Velocity P-wave (km/s) = 4.86220 6.65707 5.82914
#
# Compressibility (1/GPa) = 0.04626976
#
# Stress axis : x y z
#
# Youngs Moduli (GPa) = 17.73116 112.59924 51.90861
#
# Poissons Ratio (x) = 0.87355 0.31115
# Poissons Ratio (y) = 0.13756 0.27952
# Poissons Ratio (z) = 0.10628 0.60632
#
# Static dielectric constant tensor:
#      x y z
#    x 3.440990 0.000000 0.000000 
#    y 0.000000 4.212950 0.000000 
#    z 0.000000 0.000000 3.527680 
# 
# 
# High freq. dielectric constant tensor:
#      x y z
#    x 1.764440 0.000000 0.000000 
#    y 0.000000 1.809500 0.000000 
#    z 0.000000 0.000000 1.769220 
# 
# From -- ./inp_files/31410.got.cif
#   From: 2010.03.12/outbox.cif.g09.slc.cpg/sg59_16_cif.got.tgz:31410.got - 2010.04.16 16:29:54.
