data_PCOD8239719
_publ_section_title
;
Structure prediction by ZEFSAII (Michael W. Deem and Ramdas Pophale) SiO2 
 PCOD8239719
Probable space group: P M M N
;
_chemical_formula_sum "Si O2"
_cell_formula_units_Z 64
_cell_length_a 18.865108
_cell_length_b 17.614679
_cell_length_c 11.526467
_cell_angle_alpha 90.000000
_cell_angle_beta 90.000000
_cell_angle_gamma 90.000000
_cell_volume 3830.277509
_symmetry_space_group_name_H-M "P M M N"
_symmetry_group_IT_number 59
_space_group.IT_coordinate_system_code '2'
_symmetry_cell_setting 'orthorhombic'
loop_
_space_group_symop_operation_xyz
x,y,z
1/2-x,1/2-y,z
1/2+x,-y,-z
-x,1/2+y,-z
-x,-y,-z
1/2+x,1/2+y,-z
1/2-x,y,z
x,1/2-y,z
loop_
_atom_site_type_symbol
_atom_site_label
_atom_site_fract_x
_atom_site_fract_y
_atom_site_fract_z
Si Si1 0.552047 0.897366 0.541369
Si Si2 0.830113 0.972156 0.231272
Si Si3 0.671209 0.375492 0.353658
Si Si4 0.669077 0.337801 0.619667
Si Si5 0.470346 0.514400 0.874049
Si Si6 0.532158 0.333034 0.246645
Si Si7 0.548596 0.445612 0.659078
Si Si8 0.669199 0.835546 0.393264
O O1 0.509485 0.848926 0.634950
O O2 0.505762 0.902421 0.424648
O O3 0.623584 0.853854 0.507441
O O4 0.573820 0.978607 0.593495
O O5 0.750000 0.973987 0.179355
O O6 0.848440 0.890623 0.285572
O O7 0.838461 0.033910 0.334849
O O8 0.886723 0.992424 0.130704
O O9 0.750000 0.348808 0.317668
O O10 0.656086 0.356361 0.485831
O O11 0.615956 0.331142 0.273770
O O12 0.750000 0.355960 0.655872
O O13 0.651207 0.250000 0.644842
O O14 0.615720 0.392084 0.690274
O O15 0.483816 0.603414 0.849166
O O16 0.511040 0.463625 0.780230
O O17 0.500000 0.500000 0.000000
O O18 0.510356 0.250000 0.198411
O O19 0.750000 0.846743 0.432560
O O20 0.654282 0.750000 0.350330
#
# Coordination Sequence:
#
# PCOD8239719 Si02
#       8
#     8   8   8   8   8   8   8   8
#     4  10  18  30  49  73 102 129 161 199 254 317
#     4   9  17  32  51  70  95 128 167 212 257 297
#     4   9  16  26  45  73 104 136 163 193 242 301
#     4  10  19  29  44  72 109 140 165 195 238 304
#     4  10  21  38  54  71  98 133 178 219 247 294
#     4  10  19  31  51  76 104 132 163 209 255 297
#     4  10  19  32  49  72  98 134 169 203 251 300
#     4  10  19  29  45  73 105 131 159 202 258 312
#
# _framework density 16.708971999999999
#
# number of rings (size 3 to 8) (size 9 to 14) (size 15 to 20)
#    0.000    2.250    2.500    1.500    0.000    2.750 
#    0.000    1.875    0.000    0.750    0.000    0.000 
#    0.000    0.000    0.000    0.000    0.000    0.000 
#
# Total GULP energy -793464.339209 kJ/mol
# GULP energy per Si atom -12397.880300 kJ/mol
# Density = 1.667094 g / cm^3
# Si number density = 16.708972 Si / 1000 Ang^3
#
#
#
# Elastic Constant Matrix: (Units=GPa)
#
#
# Indices 1 2 3 4 5 6 
#
# 1 101.1910 55.2433 45.3203 0.0000 0.0000 0.0000
# 2 55.2433 116.8090 37.5428 0.0000 0.0000 0.0000
# 3 45.3203 37.5428 80.3927 0.0000 0.0000 0.0000
# 4 0.0000 0.0000 0.0000 10.9580 0.0000 0.0000
# 5 0.0000 0.0000 0.0000 0.0000 18.2996 0.0000
# 6 0.0000 0.0000 0.0000 0.0000 0.0000 26.0861
#
#
#
# Elastic Compliance Matrix: (Units=1/GPa)
#
#
# Indices 1 2 3 4 5 6 
#
# 1 0.015639 -0.005368 -0.006309 0.000000 0.000000 0.000000
# 2 -0.005368 0.011916 -0.002538 0.000000 0.000000 0.000000
# 3 -0.006309 -0.002538 0.017181 0.000000 0.000000 0.000000
# 4 0.000000 0.000000 0.000000 0.091258 0.000000 0.000000
# 5 0.000000 0.000000 0.000000 0.000000 0.054646 0.000000
# 6 0.000000 0.000000 0.000000 0.000000 0.000000 0.038335
#
#
# Mechanical properties :
#
#
# Convention : Reuss Voigt Hill
#
# Bulk Modulus (GPa) = 61.33477 63.84506 62.58991
# Shear Modulus (GPa) = 19.02303 21.75450 20.38876
#
# Velocity S-wave (km/s) = 3.37782 3.61219 3.49697
# Velocity P-wave (km/s) = 7.21112 7.46259 7.33793
#
# Compressibility (1/GPa) = 0.01630397
#
# Stress axis : x y z
#
# Youngs Moduli (GPa) = 63.94396 83.92325 58.20403
#
# Poissons Ratio (x) = 0.45053 0.36722
# Poissons Ratio (y) = 0.34327 0.14773
# Poissons Ratio (z) = 0.40343 0.21301
#
# Static dielectric constant tensor:
#      x y z
#    x 3.396010 0.000000 0.000000 
#    y 0.000000 3.362110 0.000000 
#    z 0.000000 0.000000 2.629790 
# 
# 
# High freq. dielectric constant tensor:
#      x y z
#    x 1.655850 0.000000 0.000000 
#    y 0.000000 1.654930 0.000000 
#    z 0.000000 0.000000 1.583660 
# 
# From -- ./inp_files/17944.got.cif
#   From: 2010.03.12/outbox.cif.g09.slc.cpg/sg59_9_cif.got.tgz:17944.got - 2010.04.16 16:29:54.
