data_PCOD8239450
_publ_section_title
;
Structure prediction by ZEFSAII (Michael W. Deem and Ramdas Pophale) SiO2 
 PCOD8239450
Probable space group: P M M N
;
_chemical_formula_sum "Si O2"
_cell_formula_units_Z 64
_cell_length_a 24.125226
_cell_length_b 9.438408
_cell_length_c 15.331877
_cell_angle_alpha 90.000000
_cell_angle_beta 90.000000
_cell_angle_gamma 90.000000
_cell_volume 3491.125521
_symmetry_space_group_name_H-M "P M M N"
_symmetry_group_IT_number 59
_space_group.IT_coordinate_system_code '2'
_symmetry_cell_setting 'orthorhombic'
loop_
_space_group_symop_operation_xyz
x,y,z
1/2-x,1/2-y,z
1/2+x,-y,-z
-x,1/2+y,-z
-x,-y,-z
1/2+x,1/2+y,-z
1/2-x,y,z
x,1/2-y,z
loop_
_atom_site_type_symbol
_atom_site_label
_atom_site_fract_x
_atom_site_fract_y
_atom_site_fract_z
Si Si1 0.369242 0.091056 0.942848
Si Si2 0.313827 0.082328 0.463802
Si Si3 0.408879 0.083798 0.123626
Si Si4 0.105708 0.414779 0.317149
Si Si5 0.015166 0.412796 0.855669
Si Si6 0.518476 0.087076 0.313756
Si Si7 0.867170 0.086860 0.381351
Si Si8 0.686873 0.086376 0.201506
O O1 0.348753 0.250000 0.923982
O O2 0.433863 0.074832 0.921326
O O3 0.330675 0.990222 0.887002
O O4 0.364272 0.055846 0.046632
O O5 0.250000 0.041517 0.447911
O O6 0.321456 0.250000 0.474249
O O7 0.349647 0.017205 0.383356
O O8 0.335711 0.011857 0.551544
O O9 0.424728 0.250000 0.128209
O O10 0.385161 0.031497 0.217623
O O11 0.463955 0.995738 0.102041
O O12 0.117525 0.250000 0.319542
O O13 0.043007 0.449811 0.349920
O O14 0.998621 0.250000 0.838455
O O15 0.033345 0.484520 0.765389
O O16 0.519352 0.250000 0.280216
O O17 0.565908 0.066168 0.387568
O O18 0.850231 0.250000 0.398639
O O19 0.849237 0.038887 0.284374
O O20 0.750000 0.048909 0.223329
O O21 0.677975 0.250000 0.181972
#
# Coordination Sequence:
#
# PCOD8239450 Si02
#       8
#     8   8   8   8   8   8   8   8
#     4  10  20  32  49  76 106 137 174 214 256 302
#     4  10  21  36  54  76 101 132 170 213 261 307
#     4   9  18  33  52  73 102 139 176 212 254 304
#     4   8  16  33  54  75 102 134 172 212 251 305
#     4  10  18  28  46  77 111 137 167 209 255 303
#     4   9  17  32  54  76 102 139 173 205 257 316
#     4  10  20  35  56  79 102 131 171 213 259 317
#     4  10  21  36  53  73 101 138 176 214 257 312
#
# _framework density 18.332196
#
# number of rings (size 3 to 8) (size 9 to 14) (size 15 to 20)
#    0.000    2.500    1.250    1.875    0.000    3.500 
#    0.000    3.125    0.000    2.250    0.000    0.000 
#    0.000    0.000    0.000    0.000    0.000    0.000 
#
# Total GULP energy -793313.322579 kJ/mol
# GULP energy per Si atom -12395.520665 kJ/mol
# Density = 1.829047 g / cm^3
# Si number density = 18.332196 Si / 1000 Ang^3
#
#
#
# Elastic Constant Matrix: (Units=GPa)
#
#
# Indices 1 2 3 4 5 6 
#
# 1 105.5588 36.4359 67.3371 0.0000 0.0000 0.0000
# 2 36.4359 55.4006 41.5821 0.0000 0.0000 0.0000
# 3 67.3371 41.5821 98.9098 0.0000 0.0000 0.0000
# 4 0.0000 0.0000 0.0000 22.3901 0.0000 0.0000
# 5 0.0000 0.0000 0.0000 0.0000 26.6740 0.0000
# 6 0.0000 0.0000 0.0000 0.0000 0.0000 24.2034
#
#
#
# Elastic Compliance Matrix: (Units=1/GPa)
#
#
# Indices 1 2 3 4 5 6 
#
# 1 0.017249 -0.003697 -0.010189 0.000000 0.000000 0.000000
# 2 -0.003697 0.027164 -0.008903 0.000000 0.000000 0.000000
# 3 -0.010189 -0.008903 0.020790 0.000000 0.000000 0.000000
# 4 0.000000 0.000000 0.000000 0.044663 0.000000 0.000000
# 5 0.000000 0.000000 0.000000 0.000000 0.037490 0.000000
# 6 0.000000 0.000000 0.000000 0.000000 0.000000 0.041317
#
#
# Mechanical properties :
#
#
# Convention : Reuss Voigt Hill
#
# Bulk Modulus (GPa) = 50.95511 61.17552 56.06532
# Shear Modulus (GPa) = 20.76490 22.28777 21.52633
#
# Velocity S-wave (km/s) = 3.36921 3.49057 3.43043
# Velocity P-wave (km/s) = 6.55677 7.04900 6.80734
#
# Compressibility (1/GPa) = 0.01962512
#
# Stress axis : x y z
#
# Youngs Moduli (GPa) = 57.97433 36.81321 48.10098
#
# Poissons Ratio (x) = 0.13610 0.49009
# Poissons Ratio (y) = 0.21433 0.42825
# Poissons Ratio (z) = 0.59069 0.32775
#
# Static dielectric constant tensor:
#      x y z
#    x 3.430690 0.000000 0.000000 
#    y 0.000000 3.252140 0.000000 
#    z 0.000000 0.000000 3.475120 
# 
# 
# High freq. dielectric constant tensor:
#      x y z
#    x 1.702370 0.000000 0.000000 
#    y 0.000000 1.694050 0.000000 
#    z 0.000000 0.000000 1.705800 
# 
# From -- ./inp_files/24757.got.cif
#   From: 2010.03.12/outbox.cif.g09.slc.cpg/sg59_13_cif.got.tgz:24757.got - 2010.04.16 16:29:54.
