data_PCOD8239069
_publ_section_title
;
Structure prediction by ZEFSAII (Michael W. Deem and Ramdas Pophale) SiO2 
 PCOD8239069
Probable space group: P M M N
;
_chemical_formula_sum "Si O2"
_cell_formula_units_Z 56
_cell_length_a 9.098918
_cell_length_b 22.105597
_cell_length_c 17.564360
_cell_angle_alpha 90.000000
_cell_angle_beta 90.000000
_cell_angle_gamma 90.000000
_cell_volume 3532.842931
_symmetry_space_group_name_H-M "P M M N"
_symmetry_group_IT_number 59
_space_group.IT_coordinate_system_code '2'
_symmetry_cell_setting 'orthorhombic'
loop_
_space_group_symop_operation_xyz
x,y,z
1/2-x,1/2-y,z
1/2+x,-y,-z
-x,1/2+y,-z
-x,-y,-z
1/2+x,1/2+y,-z
1/2-x,y,z
x,1/2-y,z
loop_
_atom_site_type_symbol
_atom_site_label
_atom_site_fract_x
_atom_site_fract_y
_atom_site_fract_z
Si Si1 0.579098 0.897255 0.702388
Si Si2 0.580538 0.965373 0.111986
Si Si3 0.416059 0.059545 0.589956
Si Si4 0.423535 0.182995 0.158720
Si Si5 0.584315 0.418173 0.445208
Si Si6 0.919288 0.580151 0.950923
Si Si7 0.920756 0.036208 0.737855
O O1 0.750000 0.887565 0.684687
O O2 0.518115 0.851354 0.766147
O O3 0.491551 0.883648 0.624973
O O4 0.550422 0.964665 0.732784
O O5 0.750000 0.972088 0.135446
O O6 0.490344 0.939782 0.183561
O O7 0.522672 0.030595 0.086922
O O8 0.560136 0.918419 0.042093
O O9 0.250000 0.083564 0.597881
O O10 0.496136 0.096379 0.522563
O O11 0.502013 0.071196 0.668415
O O12 0.417972 0.989170 0.570428
O O13 0.250000 0.188322 0.165372
O O14 0.494501 0.250000 0.153376
O O15 0.465414 0.145286 0.082916
O O16 0.750000 0.394279 0.454365
O O17 0.750000 0.564476 0.929261
O O18 0.750000 0.052368 0.735837
#
# Coordination Sequence:
#
# PCOD8239069 Si02
#       7
#     8   8   8   8   8   8   8
#     4   9  16  26  40  57  78 107 141 176 210 246
#     4  10  18  26  41  61  84 111 141 176 215 262
#     4   9  16  25  37  56  81 108 139 169 201 241
#     4   9  16  28  46  64  82 108 145 185 220 253
#     4   9  16  25  37  54  78 109 140 168 200 241
#     4   9  17  30  43  60  82 108 142 179 218 259
#     4  10  17  26  40  58  84 112 141 174 209 253
#
# _framework density 15.851255999999999
#
# number of rings (size 3 to 8) (size 9 to 14) (size 15 to 20)
#    0.000    2.714    1.429    1.714    0.000    4.571 
#    0.000    0.000    0.000    1.714    0.000    0.000 
#    0.000    1.143    0.000    9.714    0.000    2.857 
#
# Total GULP energy -694283.159658 kJ/mol
# GULP energy per Si atom -12397.913565 kJ/mol
# Density = 1.581518 g / cm^3
# Si number density = 15.851256 Si / 1000 Ang^3
#
#
#
# Elastic Constant Matrix: (Units=GPa)
#
#
# Indices 1 2 3 4 5 6 
#
# 1 99.5014 19.3619 68.8532 0.0000 0.0000 0.0000
# 2 19.3619 50.9638 40.9733 0.0000 0.0000 0.0000
# 3 68.8532 40.9733 151.3812 0.0000 0.0000 0.0000
# 4 0.0000 0.0000 0.0000 14.5343 0.0000 0.0000
# 5 0.0000 0.0000 0.0000 0.0000 31.5915 0.0000
# 6 0.0000 0.0000 0.0000 0.0000 0.0000 8.1774
#
#
#
# Elastic Compliance Matrix: (Units=1/GPa)
#
#
# Indices 1 2 3 4 5 6 
#
# 1 0.014669 -0.000267 -0.006600 0.000000 0.000000 0.000000
# 2 -0.000267 0.025084 -0.006668 0.000000 0.000000 0.000000
# 3 -0.006600 -0.006668 0.011412 0.000000 0.000000 0.000000
# 4 0.000000 0.000000 0.000000 0.068803 0.000000 0.000000
# 5 0.000000 0.000000 0.000000 0.000000 0.031654 0.000000
# 6 0.000000 0.000000 0.000000 0.000000 0.000000 0.122289
#
#
# Mechanical properties :
#
#
# Convention : Reuss Voigt Hill
#
# Bulk Modulus (GPa) = 41.50040 62.24703 51.87371
# Shear Modulus (GPa) = 16.18060 22.37115 19.27588
#
# Velocity S-wave (km/s) = 3.19843 3.76083 3.49097
# Velocity P-wave (km/s) = 6.31489 7.62975 7.00325
#
# Compressibility (1/GPa) = 0.02409616
#
# Stress axis : x y z
#
# Youngs Moduli (GPa) = 68.17140 39.86608 87.62468
#
# Poissons Ratio (x) = 0.01065 0.57829
# Poissons Ratio (y) = 0.01821 0.58427
# Poissons Ratio (z) = 0.44991 0.26582
#
# Static dielectric constant tensor:
#      x y z
#    x 3.045920 0.000000 0.000000 
#    y 0.000000 2.610860 0.000000 
#    z 0.000000 0.000000 3.257230 
# 
# 
# High freq. dielectric constant tensor:
#      x y z
#    x 1.609650 0.000000 0.000000 
#    y 0.000000 1.533540 0.000000 
#    z 0.000000 0.000000 1.625020 
# 
# From -- ./inp_files/26377.got.cif
#   From: 2010.03.12/outbox.cif.g09.slc.cpg/sg59_14_cif.got.tgz:26377.got - 2010.04.16 16:29:54.
