data_PCOD8239804
_publ_section_title
;
Structure prediction by ZEFSAII (Michael W. Deem and Ramdas Pophale) SiO2 
 PCOD8239804
Probable space group: P M M N
;
_chemical_formula_sum "Si O2"
_cell_formula_units_Z 48
_cell_length_a 31.231760
_cell_length_b 8.681407
_cell_length_c 9.068950
_cell_angle_alpha 90.000000
_cell_angle_beta 90.000000
_cell_angle_gamma 90.000000
_cell_volume 2458.915380
_symmetry_space_group_name_H-M "P M M N"
_symmetry_group_IT_number 59
_space_group.IT_coordinate_system_code '2'
_symmetry_cell_setting 'orthorhombic'
loop_
_space_group_symop_operation_xyz
x,y,z
1/2-x,1/2-y,z
1/2+x,-y,-z
-x,1/2+y,-z
-x,-y,-z
1/2+x,1/2+y,-z
1/2-x,y,z
x,1/2-y,z
loop_
_atom_site_type_symbol
_atom_site_label
_atom_site_fract_x
_atom_site_fract_y
_atom_site_fract_z
Si Si1 0.750000 0.932476 0.339477
Si Si2 0.669056 0.570073 0.152691
Si Si3 0.414136 0.429950 0.657916
Si Si4 0.670421 0.070153 0.835251
Si Si5 0.250000 0.431533 0.330939
Si Si6 0.999740 0.432601 0.336546
Si Si7 0.413885 0.568472 0.337038
O O1 0.750000 0.750000 0.349809
O O2 0.792170 0.989546 0.254400
O O3 0.750000 0.003217 0.504190
O O4 0.674074 0.750000 0.114351
O O5 0.625093 0.534982 0.235559
O O6 0.669868 0.471248 0.005838
O O7 0.420443 0.250000 0.628390
O O8 0.456694 0.498924 0.738053
O O9 0.405253 0.510376 0.502053
O O10 0.678429 0.250000 0.815249
O O11 0.625724 0.018185 0.763683
O O12 0.708070 0.981790 0.754711
O O13 0.250000 0.250000 0.340654
O O14 0.997817 0.250000 0.335206
O O15 0.043847 0.491127 0.262508
O O16 0.000000 0.500000 0.500000
O O17 0.420740 0.750000 0.340804
#
# Coordination Sequence:
#
# PCOD8239804 Si02
#       7
#     4   8   8   8   4   8   8
#     4   9  19  37  60  86 108 135 180 227 266 314
#     4  10  21  37  58  82 111 147 185 224 272 329
#     4  10  19  33  55  83 112 144 186 232 276 329
#     4  11  24  39  56  82 116 148 182 224 274 327
#     4  11  22  39  64  86 110 143 182 225 270 324
#     4  10  18  30  52  80 109 143 184 231 280 328
#     4  10  20  35  55  80 111 147 186 231 278 327
#
# _framework density 19.520802
#
# number of rings (size 3 to 8) (size 9 to 14) (size 15 to 20)
#    0.000    1.833    0.000    6.750    0.000    6.000 
#    0.000    2.500    0.000    0.000    0.000    0.000 
#    0.000    0.000    0.000    0.000    0.000    0.000 
#
# Total GULP energy -595231.475122 kJ/mol
# GULP energy per Si atom -12400.655732 kJ/mol
# Density = 1.947637 g / cm^3
# Si number density = 19.520802 Si / 1000 Ang^3
#
#
#
# Elastic Constant Matrix: (Units=GPa)
#
#
# Indices 1 2 3 4 5 6 
#
# 1 187.5737 58.0507 63.5535 0.0000 0.0000 0.0000
# 2 58.0507 72.7542 19.8351 0.0000 0.0000 0.0000
# 3 63.5535 19.8351 92.0583 0.0000 0.0000 0.0000
# 4 0.0000 0.0000 0.0000 26.3131 0.0000 0.0000
# 5 0.0000 0.0000 0.0000 0.0000 37.4992 0.0000
# 6 0.0000 0.0000 0.0000 0.0000 0.0000 25.3136
#
#
#
# Elastic Compliance Matrix: (Units=1/GPa)
#
#
# Indices 1 2 3 4 5 6 
#
# 1 0.008698 -0.005634 -0.004791 0.000000 0.000000 0.000000
# 2 -0.005634 0.018252 -0.000043 0.000000 0.000000 0.000000
# 3 -0.004791 -0.000043 0.014179 0.000000 0.000000 0.000000
# 4 0.000000 0.000000 0.000000 0.038004 0.000000 0.000000
# 5 0.000000 0.000000 0.000000 0.000000 0.026667 0.000000
# 6 0.000000 0.000000 0.000000 0.000000 0.000000 0.039504
#
#
# Mechanical properties :
#
#
# Convention : Reuss Voigt Hill
#
# Bulk Modulus (GPa) = 49.52095 70.58499 60.05297
# Shear Modulus (GPa) = 28.90630 31.88830 30.39730
#
# Velocity S-wave (km/s) = 3.85228 4.04611 3.95039
# Velocity P-wave (km/s) = 6.72385 7.62006 7.18594
#
# Compressibility (1/GPa) = 0.02019347
#
# Stress axis : x y z
#
# Youngs Moduli (GPa) = 114.96701 54.78813 70.52474
#
# Poissons Ratio (x) = 0.30868 0.33788
# Poissons Ratio (y) = 0.64774 0.00304
# Poissons Ratio (z) = 0.55080 0.00236
#
# Static dielectric constant tensor:
#      x y z
#    x 4.260360 0.000000 0.000000 
#    y 0.000000 3.526520 0.000000 
#    z 0.000000 0.000000 3.381040 
# 
# 
# High freq. dielectric constant tensor:
#      x y z
#    x 1.788790 0.000000 0.000000 
#    y 0.000000 1.762490 0.000000 
#    z 0.000000 0.000000 1.736710 
# 
# From -- ./inp_files/13005.got.cif
#   From: 2010.03.12/outbox.cif.g09.slc.cpg/sg59_7_cif.got.tgz:13005.got - 2010.04.16 16:29:54.
