data_PCOD8239610
_publ_section_title
;
Structure prediction by ZEFSAII (Michael W. Deem and Ramdas Pophale) SiO2 
 PCOD8239610
Probable space group: P M M N
;
_chemical_formula_sum "Si O2"
_cell_formula_units_Z 48
_cell_length_a 15.687069
_cell_length_b 9.167357
_cell_length_c 18.724009
_cell_angle_alpha 90.000000
_cell_angle_beta 90.000000
_cell_angle_gamma 90.000000
_cell_volume 2692.680295
_symmetry_space_group_name_H-M "P M M N"
_symmetry_group_IT_number 59
_space_group.IT_coordinate_system_code '2'
_symmetry_cell_setting 'orthorhombic'
loop_
_space_group_symop_operation_xyz
x,y,z
1/2-x,1/2-y,z
1/2+x,-y,-z
-x,1/2+y,-z
-x,-y,-z
1/2+x,1/2+y,-z
1/2-x,y,z
x,1/2-y,z
loop_
_atom_site_type_symbol
_atom_site_label
_atom_site_fract_x
_atom_site_fract_y
_atom_site_fract_z
Si Si1 0.844014 0.922959 0.584630
Si Si2 0.919509 0.079422 0.033530
Si Si3 0.998224 0.580195 0.826126
Si Si4 0.347910 0.419249 0.577723
Si Si5 0.990221 0.075813 0.332407
Si Si6 0.843395 0.916696 0.917464
O O1 0.750000 0.981523 0.609427
O O2 0.841769 0.750000 0.587707
O O3 0.861587 0.972491 0.503511
O O4 0.920512 0.982601 0.634220
O O5 0.921659 0.250000 0.016639
O O6 0.922072 0.052507 0.119578
O O7 0.840148 0.005710 0.992785
O O8 0.000000 0.000000 0.000000
O O9 0.982718 0.750000 0.813803
O O10 0.015226 0.511968 0.748420
O O11 0.911353 0.516043 0.861494
O O12 0.250000 0.445677 0.600956
O O13 0.372171 0.250000 0.585888
O O14 0.409013 0.514369 0.626768
O O15 0.985439 0.250000 0.335899
O O16 0.750000 0.927047 0.882372
O O17 0.868431 0.750000 0.935450
#
# Coordination Sequence:
#
# PCOD8239610 Si02
#       6
#     8   8   8   8   8   8
#     4   8  15  28  47  71  96 122 154 192 233 279
#     4   9  16  29  47  64  86 116 149 182 218 263
#     4   8  16  29  44  66  94 119 143 180 232 278
#     4   9  18  33  49  65  91 126 160 195 237 281
#     4  10  18  29  49  74  96 121 157 196 233 278
#     4   9  17  30  48  69  92 118 150 188 228 273
#
# _framework density 17.826104000000001
#
# number of rings (size 3 to 8) (size 9 to 14) (size 15 to 20)
#    0.000    3.167    0.000    3.000    0.000    1.333 
#    0.000    8.333    0.000    6.500    0.000    0.000 
#    0.000    0.000    0.000    0.000    0.000    0.000 
#
# Total GULP energy -594639.500492 kJ/mol
# GULP energy per Si atom -12388.322927 kJ/mol
# Density = 1.778553 g / cm^3
# Si number density = 17.826104 Si / 1000 Ang^3
#
#
#
# Elastic Constant Matrix: (Units=GPa)
#
#
# Indices 1 2 3 4 5 6 
#
# 1 79.6629 20.5683 50.6694 0.0000 0.0000 0.0000
# 2 20.5683 39.0468 28.8126 0.0000 0.0000 0.0000
# 3 50.6694 28.8126 127.3505 0.0000 0.0000 0.0000
# 4 0.0000 0.0000 0.0000 20.3220 0.0000 0.0000
# 5 0.0000 0.0000 0.0000 0.0000 18.7111 0.0000
# 6 0.0000 0.0000 0.0000 0.0000 0.0000 23.9990
#
#
#
# Elastic Compliance Matrix: (Units=1/GPa)
#
#
# Indices 1 2 3 4 5 6 
#
# 1 0.017558 -0.004914 -0.005874 0.000000 0.000000 0.000000
# 2 -0.004914 0.032118 -0.005311 0.000000 0.000000 0.000000
# 3 -0.005874 -0.005311 0.011391 0.000000 0.000000 0.000000
# 4 0.000000 0.000000 0.000000 0.049208 0.000000 0.000000
# 5 0.000000 0.000000 0.000000 0.000000 0.053444 0.000000
# 6 0.000000 0.000000 0.000000 0.000000 0.000000 0.041668
#
#
# Mechanical properties :
#
#
# Convention : Reuss Voigt Hill
#
# Bulk Modulus (GPa) = 34.64058 49.57340 42.10699
# Shear Modulus (GPa) = 20.22574 22.34040 21.28307
#
# Velocity S-wave (km/s) = 3.37206 3.54395 3.45907
# Velocity P-wave (km/s) = 5.88521 6.67952 6.29491
#
# Compressibility (1/GPa) = 0.02886788
#
# Stress axis : x y z
#
# Youngs Moduli (GPa) = 56.95454 31.13495 87.78776
#
# Poissons Ratio (x) = 0.15301 0.51566
# Poissons Ratio (y) = 0.27990 0.46627
# Poissons Ratio (z) = 0.33455 0.16537
#
# Static dielectric constant tensor:
#      x y z
#    x 4.372270 0.000000 0.000000 
#    y 0.000000 3.121210 0.000000 
#    z 0.000000 0.000000 3.666810 
# 
# 
# High freq. dielectric constant tensor:
#      x y z
#    x 1.686340 0.000000 0.000000 
#    y 0.000000 1.652970 0.000000 
#    z 0.000000 0.000000 1.686300 
# 
# From -- ./inp_files/27785.got.cif
#   From: 2010.03.12/outbox.cif.g09.slc.cpg/sg59_14_cif.got.tgz:27785.got - 2010.04.16 16:29:54.
