data_PCOD8239624
_publ_section_title
;
Structure prediction by ZEFSAII (Michael W. Deem and Ramdas Pophale) SiO2 
 PCOD8239624
Probable space group: P M M N
;
_chemical_formula_sum "Si O2"
_cell_formula_units_Z 64
_cell_length_a 9.299803
_cell_length_b 27.969136
_cell_length_c 13.902168
_cell_angle_alpha 90.000000
_cell_angle_beta 90.000000
_cell_angle_gamma 90.000000
_cell_volume 3616.057536
_symmetry_space_group_name_H-M "P M M N"
_symmetry_group_IT_number 59
_space_group.IT_coordinate_system_code '2'
_symmetry_cell_setting 'orthorhombic'
loop_
_space_group_symop_operation_xyz
x,y,z
1/2-x,1/2-y,z
1/2+x,-y,-z
-x,1/2+y,-z
-x,-y,-z
1/2+x,1/2+y,-z
1/2-x,y,z
x,1/2-y,z
loop_
_atom_site_type_symbol
_atom_site_label
_atom_site_fract_x
_atom_site_fract_y
_atom_site_fract_z
Si Si1 0.591088 0.693582 0.607425
Si Si2 0.582845 0.982021 0.407144
Si Si3 0.079471 0.102876 0.087476
Si Si4 0.920228 0.802341 0.818062
Si Si5 0.579732 0.570599 0.118203
Si Si6 0.582428 0.193996 0.574919
Si Si7 0.581313 0.472565 0.206288
Si Si8 0.580564 0.882742 0.312379
O O1 0.750000 0.670571 0.590816
O O2 0.606023 0.750000 0.600771
O O3 0.526193 0.680524 0.712321
O O4 0.482288 0.675198 0.526042
O O5 0.750000 0.984989 0.430802
O O6 0.540669 0.927528 0.380940
O O7 0.500000 0.000000 0.500000
O O8 0.545286 0.016327 0.317286
O O9 0.250000 0.095491 0.093318
O O10 0.035707 0.158393 0.102977
O O11 0.007915 0.073130 0.173089
O O12 0.015813 0.087671 0.983896
O O13 0.750000 0.797722 0.810192
O O14 0.984661 0.750000 0.846190
O O15 0.750000 0.571636 0.115124
O O16 0.528772 0.516802 0.140126
O O17 0.529723 0.605660 0.203643
O O18 0.750000 0.182436 0.574444
O O19 0.552199 0.250000 0.592269
O O20 0.505811 0.164584 0.659135
O O21 0.750000 0.463035 0.192469
O O22 0.750000 0.872210 0.317082
#
# Coordination Sequence:
#
# PCOD8239624 Si02
#       8
#     8   8   8   8   8   8   8   8
#     4   8  14  27  46  64  86 121 157 184 220 275
#     4   9  19  34  51  71  98 130 160 194 237 287
#     4  10  18  29  50  76  95 117 157 201 232 269
#     4   8  15  28  45  67  96 124 149 185 232 273
#     4   8  16  32  51  70  94 122 154 195 238 278
#     4  10  20  32  47  71  99 124 157 203 245 277
#     4   9  18  33  49  68  98 129 153 186 237 286
#     4   9  18  34  52  68  92 129 165 194 233 286
#
# _framework density 17.698833
#
# number of rings (size 3 to 8) (size 9 to 14) (size 15 to 20)
#    0.000    3.125    0.000    3.000    0.000    2.750 
#    0.000    7.500    0.000    3.375    0.000    0.000 
#    0.000    0.000    0.000    0.000    0.000    0.000 
#
# Total GULP energy -793261.261048 kJ/mol
# GULP energy per Si atom -12394.707204 kJ/mol
# Density = 1.765855 g / cm^3
# Si number density = 17.698833 Si / 1000 Ang^3
#
#
#
# Elastic Constant Matrix: (Units=GPa)
#
#
# Indices 1 2 3 4 5 6 
#
# 1 51.2489 38.3325 39.6025 0.0000 0.0000 0.0000
# 2 38.3325 97.6908 63.8383 0.0000 0.0000 0.0000
# 3 39.6025 63.8383 114.2964 0.0000 0.0000 0.0000
# 4 0.0000 0.0000 0.0000 28.4760 0.0000 0.0000
# 5 0.0000 0.0000 0.0000 0.0000 19.1451 0.0000
# 6 0.0000 0.0000 0.0000 0.0000 0.0000 24.3837
#
#
#
# Elastic Compliance Matrix: (Units=1/GPa)
#
#
# Indices 1 2 3 4 5 6 
#
# 1 0.030039 -0.007851 -0.006023 0.000000 0.000000 0.000000
# 2 -0.007851 0.018172 -0.007429 0.000000 0.000000 0.000000
# 3 -0.006023 -0.007429 0.014986 0.000000 0.000000 0.000000
# 4 0.000000 0.000000 0.000000 0.035117 0.000000 0.000000
# 5 0.000000 0.000000 0.000000 0.000000 0.052233 0.000000
# 6 0.000000 0.000000 0.000000 0.000000 0.000000 0.041011
#
#
# Mechanical properties :
#
#
# Convention : Reuss Voigt Hill
#
# Bulk Modulus (GPa) = 48.56775 60.75361 54.66068
# Shear Modulus (GPa) = 20.74446 22.49849 21.62148
#
# Velocity S-wave (km/s) = 3.42728 3.56924 3.49898
# Velocity P-wave (km/s) = 6.56981 7.16846 6.87565
#
# Compressibility (1/GPa) = 0.02058980
#
# Stress axis : x y z
#
# Youngs Moduli (GPa) = 33.28962 55.03024 66.73029
#
# Poissons Ratio (x) = 0.43204 0.40194
# Poissons Ratio (y) = 0.26136 0.49576
# Poissons Ratio (z) = 0.20051 0.40884
#
# Static dielectric constant tensor:
#      x y z
#    x 2.994090 0.000000 0.000000 
#    y 0.000000 3.268180 0.000000 
#    z 0.000000 0.000000 3.524120 
# 
# 
# High freq. dielectric constant tensor:
#      x y z
#    x 1.653610 0.000000 0.000000 
#    y 0.000000 1.677200 0.000000 
#    z 0.000000 0.000000 1.685530 
# 
# From -- ./inp_files/14943.got.cif
#   From: 2010.03.12/outbox.cif.g09.slc.cpg/sg59_8_cif.got.tgz:14943.got - 2010.04.16 16:29:54.
