data_PCOD8239298
_publ_section_title
;
Structure prediction by ZEFSAII (Michael W. Deem and Ramdas Pophale) SiO2 
 PCOD8239298
Probable space group: P M M N
;
_chemical_formula_sum "Si O2"
_cell_formula_units_Z 48
_cell_length_a 9.082285
_cell_length_b 26.181113
_cell_length_c 11.560757
_cell_angle_alpha 90.000000
_cell_angle_beta 90.000000
_cell_angle_gamma 90.000000
_cell_volume 2748.966856
_symmetry_space_group_name_H-M "P M M N"
_symmetry_group_IT_number 59
_space_group.IT_coordinate_system_code '2'
_symmetry_cell_setting 'orthorhombic'
loop_
_space_group_symop_operation_xyz
x,y,z
1/2-x,1/2-y,z
1/2+x,-y,-z
-x,1/2+y,-z
-x,-y,-z
1/2+x,1/2+y,-z
1/2-x,y,z
x,1/2-y,z
loop_
_atom_site_type_symbol
_atom_site_label
_atom_site_fract_x
_atom_site_fract_y
_atom_site_fract_z
Si Si1 0.421207 0.937650 0.114091
Si Si2 0.088749 0.879409 0.657725
Si Si3 0.923697 0.691905 0.497458
Si Si4 0.912091 0.454342 0.551345
Si Si5 0.921968 0.042974 0.149041
Si Si6 0.923811 0.881951 0.293954
O O1 0.250000 0.937038 0.145923
O O2 0.498344 0.886145 0.167854
O O3 0.489638 0.990373 0.163707
O O4 0.448114 0.933732 0.977515
O O5 0.250000 0.858919 0.697538
O O6 0.110204 0.912376 0.544692
O O7 0.018834 0.914197 0.760063
O O8 0.987174 0.832269 0.616363
O O9 0.750000 0.687194 0.508222
O O10 0.978165 0.750000 0.489249
O O11 0.974423 0.664890 0.376689
O O12 0.750000 0.470578 0.598350
O O13 0.000000 0.500000 0.500000
O O14 0.016585 0.434468 0.652387
O O15 0.750000 0.031407 0.172657
O O16 0.750000 0.882435 0.278095
#
# Coordination Sequence:
#
# PCOD8239298 Si02
#       6
#     8   8   8   8   8   8
#     4  10  19  30  47  71  99 131 165 197 227 267
#     4   9  18  31  47  68  93 122 154 189 232 282
#     4   9  19  35  53  72  92 116 151 198 248 291
#     4  10  18  27  42  66  95 123 153 189 230 280
#     4   9  18  32  48  69 100 133 162 192 228 274
#     4  10  19  31  47  66  92 125 158 194 237 283
#
# _framework density 17.461103999999999
#
# number of rings (size 3 to 8) (size 9 to 14) (size 15 to 20)
#    0.000    2.500    0.000    2.500    0.000    4.333 
#    0.000    0.000    0.000    1.000    0.000    4.667 
#    0.000    0.000    0.000    0.000    0.000    0.000 
#
# Total GULP energy -594702.389618 kJ/mol
# GULP energy per Si atom -12389.633117 kJ/mol
# Density = 1.742136 g / cm^3
# Si number density = 17.461104 Si / 1000 Ang^3
#
#
#
# Elastic Constant Matrix: (Units=GPa)
#
#
# Indices 1 2 3 4 5 6 
#
# 1 68.8329 44.5186 34.5845 0.0000 0.0000 0.0000
# 2 44.5186 78.8341 36.2763 0.0000 0.0000 0.0000
# 3 34.5845 36.2763 88.5820 0.0000 0.0000 0.0000
# 4 0.0000 0.0000 0.0000 25.8618 0.0000 0.0000
# 5 0.0000 0.0000 0.0000 0.0000 27.8178 0.0000
# 6 0.0000 0.0000 0.0000 0.0000 0.0000 22.8212
#
#
#
# Elastic Compliance Matrix: (Units=1/GPa)
#
#
# Indices 1 2 3 4 5 6 
#
# 1 0.024433 -0.011593 -0.004792 0.000000 0.000000 0.000000
# 2 -0.011593 0.021131 -0.004127 0.000000 0.000000 0.000000
# 3 -0.004792 -0.004127 0.014850 0.000000 0.000000 0.000000
# 4 0.000000 0.000000 0.000000 0.038667 0.000000 0.000000
# 5 0.000000 0.000000 0.000000 0.000000 0.035948 0.000000
# 6 0.000000 0.000000 0.000000 0.000000 0.000000 0.043819
#
#
# Mechanical properties :
#
#
# Convention : Reuss Voigt Hill
#
# Bulk Modulus (GPa) = 51.57279 51.88976 51.73128
# Shear Modulus (GPa) = 22.09106 23.35814 22.72460
#
# Velocity S-wave (km/s) = 3.56076 3.66146 3.61146
# Velocity P-wave (km/s) = 6.81948 6.90340 6.86157
#
# Compressibility (1/GPa) = 0.01939007
#
# Stress axis : x y z
#
# Youngs Moduli (GPa) = 40.92757 47.32435 67.33966
#
# Poissons Ratio (x) = 0.54862 0.32268
# Poissons Ratio (y) = 0.47447 0.27794
# Poissons Ratio (z) = 0.19612 0.19533
#
# Static dielectric constant tensor:
#      x y z
#    x 3.460500 0.000000 0.000000 
#    y 0.000000 2.952070 0.000000 
#    z 0.000000 0.000000 3.320210 
# 
# 
# High freq. dielectric constant tensor:
#      x y z
#    x 1.681030 0.000000 0.000000 
#    y 0.000000 1.638580 0.000000 
#    z 0.000000 0.000000 1.678020 
# 
# From -- ./inp_files/14457.got.cif
#   From: 2010.03.12/outbox.cif.g09.slc.cpg/sg59_8_cif.got.tgz:14457.got - 2010.04.16 16:29:54.
