data_PCOD8239753
_publ_section_title
;
Structure prediction by ZEFSAII (Michael W. Deem and Ramdas Pophale) SiO2 
 PCOD8239753
Probable space group: P M M N
;
_chemical_formula_sum "Si O2"
_cell_formula_units_Z 64
_cell_length_a 8.627412
_cell_length_b 17.751730
_cell_length_c 23.155219
_cell_angle_alpha 90.000000
_cell_angle_beta 90.000000
_cell_angle_gamma 90.000000
_cell_volume 3546.256255
_symmetry_space_group_name_H-M "P M M N"
_symmetry_group_IT_number 59
_space_group.IT_coordinate_system_code '2'
_symmetry_cell_setting 'orthorhombic'
loop_
_space_group_symop_operation_xyz
x,y,z
1/2-x,1/2-y,z
1/2+x,-y,-z
-x,1/2+y,-z
-x,-y,-z
1/2+x,1/2+y,-z
1/2-x,y,z
x,1/2-y,z
loop_
_atom_site_type_symbol
_atom_site_label
_atom_site_fract_x
_atom_site_fract_y
_atom_site_fract_z
Si Si1 0.932645 0.836530 0.552847
Si Si2 0.065949 0.566239 0.461150
Si Si3 0.572731 0.885434 0.077389
Si Si4 0.071650 0.547193 0.873835
Si Si5 0.933267 0.333130 0.039688
Si Si6 0.565204 0.987768 0.244629
Si Si7 0.933805 0.468294 0.370061
Si Si8 0.565669 0.831922 0.200602
O O1 0.750000 0.848666 0.550841
O O2 0.976105 0.750000 0.567374
O O3 0.001900 0.856385 0.489224
O O4 0.001562 0.891430 0.601938
O O5 0.250000 0.567834 0.460851
O O6 0.000000 0.500000 0.500000
O O7 0.001241 0.545859 0.397811
O O8 0.750000 0.863584 0.064377
O O9 0.511180 0.842681 0.134455
O O10 0.553694 0.974024 0.086760
O O11 0.469459 0.862743 0.023698
O O12 0.250000 0.566644 0.863505
O O13 0.991825 0.615014 0.909667
O O14 0.996937 0.534694 0.810034
O O15 0.750000 0.333474 0.046080
O O16 0.002758 0.250000 0.048177
O O17 0.750000 0.985384 0.240890
O O18 0.503368 0.900865 0.240457
O O19 0.511853 0.028123 0.303483
O O20 0.750000 0.468196 0.377257
O O21 0.750000 0.834153 0.201348
O O22 0.505077 0.750000 0.223014
#
# Coordination Sequence:
#
# PCOD8239753 Si02
#       8
#     8   8   8   8   8   8   8   8
#     4  10  20  34  52  74 100 128 159 197 238 275
#     4  10  18  30  50  73  99 128 156 187 227 276
#     4   9  16  27  46  66  83 109 146 187 230 279
#     4   8  15  29  45  62  86 116 152 191 229 270
#     4  10  19  28  40  61  89 117 144 182 235 287
#     4   8  15  27  44  65  89 121 159 195 225 261
#     4  10  18  30  50  74  99 126 160 197 233 277
#     4   8  13  23  41  65  89 112 144 188 233 272
#
# _framework density 18.047201999999999
#
# number of rings (size 3 to 8) (size 9 to 14) (size 15 to 20)
#    0.000    2.875    0.000    5.625    0.000    1.750 
#    0.000    1.250    0.000   12.000    0.000    0.000 
#    0.000    0.000    0.000    0.000    0.000    0.000 
#
# Total GULP energy -792943.988923 kJ/mol
# GULP energy per Si atom -12389.749827 kJ/mol
# Density = 1.800613 g / cm^3
# Si number density = 18.047202 Si / 1000 Ang^3
#
#
#
# Elastic Constant Matrix: (Units=GPa)
#
#
# Indices 1 2 3 4 5 6 
#
# 1 51.7080 31.9425 28.3472 0.0000 0.0000 0.0000
# 2 31.9425 105.4259 78.5431 0.0000 0.0000 0.0000
# 3 28.3472 78.5431 109.2559 0.0000 0.0000 0.0000
# 4 0.0000 0.0000 0.0000 20.5049 0.0000 0.0000
# 5 0.0000 0.0000 0.0000 0.0000 20.7016 0.0000
# 6 0.0000 0.0000 0.0000 0.0000 0.0000 18.1773
#
#
#
# Elastic Compliance Matrix: (Units=1/GPa)
#
#
# Indices 1 2 3 4 5 6 
#
# 1 0.024026 -0.005674 -0.002154 0.000000 0.000000 0.000000
# 2 -0.005674 0.021764 -0.014174 0.000000 0.000000 0.000000
# 3 -0.002154 -0.014174 0.019901 0.000000 0.000000 0.000000
# 4 0.000000 0.000000 0.000000 0.048769 0.000000 0.000000
# 5 0.000000 0.000000 0.000000 0.000000 0.048305 0.000000
# 6 0.000000 0.000000 0.000000 0.000000 0.000000 0.055014
#
#
# Mechanical properties :
#
#
# Convention : Reuss Voigt Hill
#
# Bulk Modulus (GPa) = 46.11273 60.45058 53.28165
# Shear Modulus (GPa) = 18.58647 20.38058 19.48353
#
# Velocity S-wave (km/s) = 3.21266 3.36414 3.28927
# Velocity P-wave (km/s) = 6.27441 6.97556 6.63425
#
# Compressibility (1/GPa) = 0.02168599
#
# Stress axis : x y z
#
# Youngs Moduli (GPa) = 41.62195 45.94696 50.24820
#
# Poissons Ratio (x) = 0.26072 0.10825
# Poissons Ratio (y) = 0.23618 0.71221
# Poissons Ratio (z) = 0.08967 0.65124
#
# Static dielectric constant tensor:
#      x y z
#    x 3.060990 0.000000 0.000000 
#    y 0.000000 3.712320 0.000000 
#    z 0.000000 0.000000 3.694540 
# 
# 
# High freq. dielectric constant tensor:
#      x y z
#    x 1.664640 0.000000 0.000000 
#    y 0.000000 1.696900 0.000000 
#    z 0.000000 0.000000 1.691850 
# 
# From -- ./inp_files/31717.got.cif
#   From: 2010.03.12/outbox.cif.g09.slc.cpg/sg59_16_cif.got.tgz:31717.got - 2010.04.16 16:29:54.
