data_PCOD8239240
_publ_section_title
;
Structure prediction by ZEFSAII (Michael W. Deem and Ramdas Pophale) SiO2 
 PCOD8239240
Probable space group: P M M N
;
_chemical_formula_sum "Si O2"
_cell_formula_units_Z 64
_cell_length_a 26.181170
_cell_length_b 8.884784
_cell_length_c 18.587879
_cell_angle_alpha 90.000000
_cell_angle_beta 90.000000
_cell_angle_gamma 90.000000
_cell_volume 4323.801635
_symmetry_space_group_name_H-M "P M M N"
_symmetry_group_IT_number 59
_space_group.IT_coordinate_system_code '2'
_symmetry_cell_setting 'orthorhombic'
loop_
_space_group_symop_operation_xyz
x,y,z
1/2-x,1/2-y,z
1/2+x,-y,-z
-x,1/2+y,-z
-x,-y,-z
1/2+x,1/2+y,-z
1/2-x,y,z
x,1/2-y,z
loop_
_atom_site_type_symbol
_atom_site_label
_atom_site_fract_x
_atom_site_fract_y
_atom_site_fract_z
Si Si1 0.451081 0.927072 0.535767
Si Si2 0.490163 0.073862 0.331118
Si Si3 0.512490 0.571951 0.828913
Si Si4 0.392579 0.071397 0.419908
Si Si5 0.191065 0.074632 0.178239
Si Si6 0.107367 0.927353 0.089813
Si Si7 0.809387 0.074426 0.672885
Si Si8 0.954096 0.076364 0.039161
O O1 0.449312 0.750000 0.520166
O O2 0.458749 0.959917 0.621367
O O3 0.500000 0.000000 0.500000
O O4 0.401315 0.006192 0.500987
O O5 0.482011 0.250000 0.324560
O O6 0.497269 0.006812 0.251154
O O7 0.438651 0.010956 0.368918
O O8 0.524467 0.750000 0.828580
O O9 0.560945 0.486641 0.861503
O O10 0.460290 0.538070 0.875614
O O11 0.389960 0.250000 0.424129
O O12 0.339462 0.007200 0.390947
O O13 0.250000 0.040972 0.161561
O O14 0.180115 0.250000 0.188289
O O15 0.159368 0.010292 0.111352
O O16 0.172949 0.992928 0.250903
O O17 0.113692 0.750000 0.102277
O O18 0.097716 0.967513 0.004351
O O19 0.750000 0.041370 0.659436
O O20 0.821943 0.250000 0.672705
O O21 0.963100 0.250000 0.026626
O O22 0.000000 0.000000 0.000000
#
# Coordination Sequence:
#
# PCOD8239240 Si02
#       8
#     8   8   8   8   8   8   8   8
#     4   9  16  27  40  56  79 106 137 172 208 243
#     4   8  15  25  39  58  78 103 136 169 198 233
#     4   9  15  26  42  58  79 108 139 168 200 238
#     4  10  18  28  42  60  82 110 141 167 197 240
#     4  10  20  32  44  58  77 104 138 171 201 236
#     4  10  18  27  39  58  82 107 136 167 202 240
#     4  10  20  32  45  62  83 106 133 168 207 240
#     4   8  15  25  38  56  78 104 133 165 199 237
#
# _framework density 14.801788999999999
#
# number of rings (size 3 to 8) (size 9 to 14) (size 15 to 20)
#    0.000    2.750    0.000    3.375    0.000    3.000 
#    0.000    3.125    0.000    0.000    0.000    0.000 
#    0.000    1.000    0.000    8.250    0.000    2.000 
#
# Total GULP energy -792851.486297 kJ/mol
# GULP energy per Si atom -12388.304473 kJ/mol
# Density = 1.476810 g / cm^3
# Si number density = 14.801789 Si / 1000 Ang^3
#
#
#
# Elastic Constant Matrix: (Units=GPa)
#
#
# Indices 1 2 3 4 5 6 
#
# 1 61.4257 31.2959 43.7179 0.0000 0.0000 0.0000
# 2 31.2959 60.6342 30.2117 0.0000 0.0000 0.0000
# 3 43.7179 30.2117 93.7878 0.0000 0.0000 0.0000
# 4 0.0000 0.0000 0.0000 18.0829 0.0000 0.0000
# 5 0.0000 0.0000 0.0000 0.0000 28.4466 0.0000
# 6 0.0000 0.0000 0.0000 0.0000 0.0000 21.9831
#
#
#
# Elastic Compliance Matrix: (Units=1/GPa)
#
#
# Indices 1 2 3 4 5 6 
#
# 1 0.028388 -0.009600 -0.010140 0.000000 0.000000 0.000000
# 2 -0.009600 0.022892 -0.002899 0.000000 0.000000 0.000000
# 3 -0.010140 -0.002899 0.016323 0.000000 0.000000 0.000000
# 4 0.000000 0.000000 0.000000 0.055301 0.000000 0.000000
# 5 0.000000 0.000000 0.000000 0.000000 0.035154 0.000000
# 6 0.000000 0.000000 0.000000 0.000000 0.000000 0.045489
#
#
# Mechanical properties :
#
#
# Convention : Reuss Voigt Hill
#
# Bulk Modulus (GPa) = 44.79459 47.36653 46.08056
# Shear Modulus (GPa) = 19.51096 21.07735 20.29415
#
# Velocity S-wave (km/s) = 3.63457 3.77765 3.70680
# Velocity P-wave (km/s) = 6.92403 7.14825 7.03703
#
# Compressibility (1/GPa) = 0.02232413
#
# Stress axis : x y z
#
# Youngs Moduli (GPa) = 35.22645 43.68380 61.26308
#
# Poissons Ratio (x) = 0.41935 0.62122
# Poissons Ratio (y) = 0.33816 0.17762
# Poissons Ratio (z) = 0.35720 0.12665
#
# Static dielectric constant tensor:
#      x y z
#    x 2.765330 0.000000 0.000000 
#    y 0.000000 2.841200 0.000000 
#    z 0.000000 0.000000 3.423460 
# 
# 
# High freq. dielectric constant tensor:
#      x y z
#    x 1.530690 0.000000 0.000000 
#    y 0.000000 1.573580 0.000000 
#    z 0.000000 0.000000 1.560010 
# 
# From -- ./inp_files/28437.got.cif
#   From: 2010.03.12/outbox.cif.g09.slc.cpg/sg59_15_cif.got.tgz:28437.got - 2010.04.16 16:29:54.
