data_PCOD8239747
_publ_section_title
;
Structure prediction by ZEFSAII (Michael W. Deem and Ramdas Pophale) SiO2 
 PCOD8239747
Probable space group: P M M N
;
_chemical_formula_sum "Si O2"
_cell_formula_units_Z 48
_cell_length_a 34.504157
_cell_length_b 7.911345
_cell_length_c 9.301282
_cell_angle_alpha 90.000000
_cell_angle_beta 90.000000
_cell_angle_gamma 90.000000
_cell_volume 2539.010850
_symmetry_space_group_name_H-M "P M M N"
_symmetry_group_IT_number 59
_space_group.IT_coordinate_system_code '2'
_symmetry_cell_setting 'orthorhombic'
loop_
_space_group_symop_operation_xyz
x,y,z
1/2-x,1/2-y,z
1/2+x,-y,-z
-x,1/2+y,-z
-x,-y,-z
1/2+x,1/2+y,-z
1/2-x,y,z
x,1/2-y,z
loop_
_atom_site_type_symbol
_atom_site_label
_atom_site_fract_x
_atom_site_fract_y
_atom_site_fract_z
Si Si1 0.929792 0.447838 0.351811
Si Si2 0.156450 0.562090 0.676027
Si Si3 0.293936 0.250000 0.678351
Si Si4 0.157574 0.565347 0.334300
Si Si5 0.706161 0.750000 0.665225
Si Si6 0.000484 0.051021 0.164054
Si Si7 0.074447 0.056098 0.330265
O O1 0.934621 0.250000 0.384819
O O2 0.887730 0.482531 0.280385
O O3 0.962034 0.519582 0.242447
O O4 0.934762 0.545410 0.501016
O O5 0.168181 0.750000 0.733399
O O6 0.184961 0.418569 0.739496
O O7 0.158987 0.560310 0.505190
O O8 0.250000 0.250000 0.735308
O O9 0.295274 0.250000 0.506587
O O10 0.171914 0.750000 0.279273
O O11 0.185092 0.417514 0.272611
O O12 0.113250 0.542339 0.284657
O O13 0.750000 0.750000 0.722190
O O14 0.000746 0.250000 0.180853
O O15 0.038769 0.976217 0.240736
O O16 0.000000 0.000000 0.000000
O O17 0.081138 0.250000 0.289186
#
# Coordination Sequence:
#
# PCOD8239747 Si02
#       7
#     8   8   4   8   4   8   8
#     4   9  18  32  49  70  94 127 171 211 246 297
#     4   8  15  26  41  61  89 122 159 200 238 283
#     4   9  16  24  38  62  93 125 159 195 241 295
#     4   9  16  27  43  64  92 128 165 204 246 293
#     4   9  16  26  40  64  97 129 163 205 249 299
#     4  10  22  36  48  69 102 130 162 209 258 305
#     4  10  18  30  50  72  95 129 172 213 249 297
#
# _framework density 18.905000000000001
#
# number of rings (size 3 to 8) (size 9 to 14) (size 15 to 20)
#    0.000    2.833    0.833    2.000    3.500    2.667 
#    0.000    3.333    0.000    0.000    0.000    0.000 
#    0.000    2.667    0.000    4.333    0.000    6.167 
#
# Total GULP energy -594988.417777 kJ/mol
# GULP energy per Si atom -12395.592037 kJ/mol
# Density = 1.886197 g / cm^3
# Si number density = 18.905000 Si / 1000 Ang^3
#
#
#
# Elastic Constant Matrix: (Units=GPa)
#
#
# Indices 1 2 3 4 5 6 
#
# 1 168.8843 78.7181 36.9738 0.0000 0.0000 0.0000
# 2 78.7181 119.2639 13.3641 0.0000 0.0000 0.0000
# 3 36.9738 13.3641 39.1982 0.0000 0.0000 0.0000
# 4 0.0000 0.0000 0.0000 13.7956 0.0000 0.0000
# 5 0.0000 0.0000 0.0000 0.0000 3.1729 0.0000
# 6 0.0000 0.0000 0.0000 0.0000 0.0000 26.1051
#
#
#
# Elastic Compliance Matrix: (Units=1/GPa)
#
#
# Indices 1 2 3 4 5 6 
#
# 1 0.010427 -0.006010 -0.007786 0.000000 0.000000 0.000000
# 2 -0.006010 0.012182 0.001516 0.000000 0.000000 0.000000
# 3 -0.007786 0.001516 0.032339 0.000000 0.000000 0.000000
# 4 0.000000 0.000000 0.000000 0.072487 0.000000 0.000000
# 5 0.000000 0.000000 0.000000 0.000000 0.315171 0.000000
# 6 0.000000 0.000000 0.000000 0.000000 0.000000 0.038307
#
#
# Mechanical properties :
#
#
# Convention : Reuss Voigt Hill
#
# Bulk Modulus (GPa) = 32.90916 65.05094 48.98005
# Shear Modulus (GPa) = 9.69740 21.83407 15.76573
#
# Velocity S-wave (km/s) = 2.26731 3.40212 2.89094
# Velocity P-wave (km/s) = 4.92947 7.06517 6.09165
#
# Compressibility (1/GPa) = 0.03038668
#
# Stress axis : x y z
#
# Youngs Moduli (GPa) = 95.90439 82.09144 30.92216
#
# Poissons Ratio (x) = 0.49334 0.24077
# Poissons Ratio (y) = 0.57636 -0.04686
# Poissons Ratio (z) = 0.74675 -0.12441
#
# Static dielectric constant tensor:
#      x y z
#    x 3.741620 0.000000 0.000000 
#    y 0.000000 3.695900 0.000000 
#    z 0.000000 0.000000 2.695170 
# 
# 
# High freq. dielectric constant tensor:
#      x y z
#    x 1.741280 0.000000 0.000000 
#    y 0.000000 1.743970 0.000000 
#    z 0.000000 0.000000 1.658150 
# 
# From -- ./inp_files/13062.got.cif
#   From: 2010.03.12/outbox.cif.g09.slc.cpg/sg59_7_cif.got.tgz:13062.got - 2010.04.16 16:29:54.
