data_PCOD8239121
_publ_section_title
;
Structure prediction by ZEFSAII (Michael W. Deem and Ramdas Pophale) SiO2 
 PCOD8239121
Probable space group: P M M N
;
_chemical_formula_sum "Si O2"
_cell_formula_units_Z 64
_cell_length_a 20.100020
_cell_length_b 21.721842
_cell_length_c 8.524918
_cell_angle_alpha 90.000000
_cell_angle_beta 90.000000
_cell_angle_gamma 90.000000
_cell_volume 3722.059833
_symmetry_space_group_name_H-M "P M M N"
_symmetry_group_IT_number 59
_space_group.IT_coordinate_system_code '2'
_symmetry_cell_setting 'orthorhombic'
loop_
_space_group_symop_operation_xyz
x,y,z
1/2-x,1/2-y,z
1/2+x,-y,-z
-x,1/2+y,-z
-x,-y,-z
1/2+x,1/2+y,-z
1/2-x,y,z
x,1/2-y,z
loop_
_atom_site_type_symbol
_atom_site_label
_atom_site_fract_x
_atom_site_fract_y
_atom_site_fract_z
Si Si1 0.455218 0.181165 0.201035
Si Si2 0.174823 0.099011 0.669332
Si Si3 0.963532 0.450986 0.697505
Si Si4 0.177146 0.534428 0.789741
Si Si5 0.045421 0.924879 0.655131
Si Si6 0.563257 0.883575 0.100014
Si Si7 0.824492 0.626502 0.685463
Si Si8 0.134319 0.018991 0.101179
O O1 0.479328 0.250000 0.241557
O O2 0.501047 0.132838 0.293010
O O3 0.377788 0.174481 0.248838
O O4 0.458179 0.172320 0.012716
O O5 0.250000 0.120238 0.705866
O O6 0.127763 0.133786 0.794577
O O7 0.153412 0.113245 0.492574
O O8 0.166242 0.025977 0.684418
O O9 0.943036 0.423211 0.530474
O O10 0.896756 0.466129 0.790823
O O11 0.008959 0.511649 0.694440
O O12 0.002344 0.397144 0.785857
O O13 0.250000 0.563977 0.752792
O O14 0.116444 0.579939 0.745715
O O15 0.179130 0.515303 0.972654
O O16 0.577055 0.942352 0.988200
O O17 0.750000 0.654731 0.690994
O O18 0.823225 0.564187 0.788318
#
# Coordination Sequence:
#
# PCOD8239121 Si02
#       8
#     8   8   8   8   8   8   8   8
#     4  11  24  38  52  72 100 140 184 221 257 303
#     4   9  17  29  47  74 106 137 168 209 262 312
#     4  11  18  30  54  84 104 132 170 208 272 314
#     4  10  19  30  49  80 114 139 163 204 262 324
#     4  11  20  33  56  78 107 136 171 216 262 317
#     4  10  18  30  49  72 102 134 169 216 258 305
#     4  10  19  32  50  72 102 142 182 218 254 295
#     4  10  17  27  47  76 108 138 163 206 254 318
#
# _framework density 17.194780000000002
#
# number of rings (size 3 to 8) (size 9 to 14) (size 15 to 20)
#    0.000    1.750    5.000    3.000    0.000    3.250 
#    0.000    3.125    0.000    1.125    0.000    0.000 
#    0.000    2.000    0.000    0.000    0.000    0.000 
#
# Total GULP energy -793431.174265 kJ/mol
# GULP energy per Si atom -12397.362098 kJ/mol
# Density = 1.715564 g / cm^3
# Si number density = 17.194780 Si / 1000 Ang^3
#
#
#
# Elastic Constant Matrix: (Units=GPa)
#
#
# Indices 1 2 3 4 5 6 
#
# 1 75.3346 36.6273 23.8384 0.0000 0.0000 0.0000
# 2 36.6273 57.7752 35.1679 0.0000 0.0000 0.0000
# 3 23.8384 35.1679 110.1552 0.0000 0.0000 0.0000
# 4 0.0000 0.0000 0.0000 10.0484 0.0000 0.0000
# 5 0.0000 0.0000 0.0000 0.0000 22.9134 0.0000
# 6 0.0000 0.0000 0.0000 0.0000 0.0000 8.5476
#
#
#
# Elastic Compliance Matrix: (Units=1/GPa)
#
#
# Indices 1 2 3 4 5 6 
#
# 1 0.019198 -0.011968 -0.000334 0.000000 0.000000 0.000000
# 2 -0.011968 0.028944 -0.006651 0.000000 0.000000 0.000000
# 3 -0.000334 -0.006651 0.011274 0.000000 0.000000 0.000000
# 4 0.000000 0.000000 0.000000 0.099518 0.000000 0.000000
# 5 0.000000 0.000000 0.000000 0.000000 0.043643 0.000000
# 6 0.000000 0.000000 0.000000 0.000000 0.000000 0.116992
#
#
# Mechanical properties :
#
#
# Convention : Reuss Voigt Hill
#
# Bulk Modulus (GPa) = 46.48728 48.28134 47.38431
# Shear Modulus (GPa) = 13.71202 18.14399 15.92801
#
# Velocity S-wave (km/s) = 2.82698 3.25191 3.04687
# Velocity P-wave (km/s) = 6.14412 6.49923 6.32416
#
# Compressibility (1/GPa) = 0.02151126
#
# Stress axis : x y z
#
# Youngs Moduli (GPa) = 52.08743 34.54964 88.70276
#
# Poissons Ratio (x) = 0.41349 0.02961
# Poissons Ratio (y) = 0.62338 0.58993
# Poissons Ratio (z) = 0.01739 0.22978
#
# Static dielectric constant tensor:
#      x y z
#    x 3.222160 0.000000 0.000000 
#    y 0.000000 2.688920 0.000000 
#    z 0.000000 0.000000 3.508320 
# 
# 
# High freq. dielectric constant tensor:
#      x y z
#    x 1.660560 0.000000 0.000000 
#    y 0.000000 1.593060 0.000000 
#    z 0.000000 0.000000 1.687010 
# 
# From -- ./inp_files/12280.got.cif
#   From: 2010.03.12/outbox.cif.g09.slc.cpg/sg59_7_cif.got.tgz:12280.got - 2010.04.16 16:29:54.
