data_PCOD8239948
_publ_section_title
;
Structure prediction by ZEFSAII (Michael W. Deem and Ramdas Pophale) SiO2 
 PCOD8239948
Probable space group: P M M N
;
_chemical_formula_sum "Si O2"
_cell_formula_units_Z 48
_cell_length_a 14.631899
_cell_length_b 8.804776
_cell_length_c 20.093389
_cell_angle_alpha 90.000000
_cell_angle_beta 90.000000
_cell_angle_gamma 90.000000
_cell_volume 2588.643223
_symmetry_space_group_name_H-M "P M M N"
_symmetry_group_IT_number 59
_space_group.IT_coordinate_system_code '2'
_symmetry_cell_setting 'orthorhombic'
loop_
_space_group_symop_operation_xyz
x,y,z
1/2-x,1/2-y,z
1/2+x,-y,-z
-x,1/2+y,-z
-x,-y,-z
1/2+x,1/2+y,-z
1/2-x,y,z
x,1/2-y,z
loop_
_atom_site_type_symbol
_atom_site_label
_atom_site_fract_x
_atom_site_fract_y
_atom_site_fract_z
Si Si1 0.945292 0.080746 0.056511
Si Si2 0.561229 0.431000 0.208381
Si Si3 0.750000 0.929868 0.483039
Si Si4 0.750000 0.568802 0.635194
Si Si5 0.750000 0.573088 0.210095
Si Si6 0.944817 0.929068 0.440336
Si Si7 0.436788 0.569647 0.315114
Si Si8 0.750000 0.418492 0.076439
O O1 0.983050 0.250000 0.058572
O O2 0.951615 0.015002 0.131524
O O3 0.840110 0.069543 0.031548
O O4 0.000000 0.000000 0.000000
O O5 0.561830 0.250000 0.215074
O O6 0.656976 0.496188 0.238201
O O7 0.475742 0.503047 0.246635
O O8 0.750000 0.750000 0.485218
O O9 0.750000 0.990236 0.558983
O O10 0.839939 0.988667 0.443968
O O11 0.750000 0.750000 0.639668
O O12 0.838816 0.504228 0.671820
O O13 0.750000 0.750000 0.229616
O O14 0.750000 0.550810 0.130857
O O15 0.948124 0.750000 0.449176
O O16 0.991057 0.980213 0.371753
O O17 0.000000 0.000000 0.500000
O O18 0.425966 0.750000 0.310510
O O19 0.750000 0.250000 0.112592
#
# Coordination Sequence:
#
# PCOD8239948 Si02
#       8
#     8   8   4   4   4   8   8   4
#     4   9  18  33  55  80 108 144 185 230 275 328
#     4  10  21  38  57  80 114 154 191 226 277 345
#     4   9  18  34  56  80 107 144 183 221 273 336
#     4  11  21  37  61  79 105 153 193 223 279 351
#     4  10  18  31  55  83 110 141 179 228 282 328
#     4  10  20  35  55  80 109 140 181 229 276 327
#     4  11  23  37  57  85 114 144 187 242 286 325
#     4   8  16  32  50  74 108 146 181 214 268 339
#
# _framework density 18.542531
#
# number of rings (size 3 to 8) (size 9 to 14) (size 15 to 20)
#    0.000    2.167    1.667    3.000    0.000    4.667 
#    0.000    2.917    0.000    4.000    0.000    0.000 
#    0.000    0.000    0.000    0.000    0.000    0.000 
#
# Total GULP energy -594933.291919 kJ/mol
# GULP energy per Si atom -12394.443582 kJ/mol
# Density = 1.850033 g / cm^3
# Si number density = 18.542531 Si / 1000 Ang^3
#
#
#
# Elastic Constant Matrix: (Units=GPa)
#
#
# Indices 1 2 3 4 5 6 
#
# 1 173.7910 47.6340 74.1465 0.0000 0.0000 0.0000
# 2 47.6340 71.3847 37.9101 0.0000 0.0000 0.0000
# 3 74.1465 37.9101 96.7081 0.0000 0.0000 0.0000
# 4 0.0000 0.0000 0.0000 27.2812 0.0000 0.0000
# 5 0.0000 0.0000 0.0000 0.0000 32.6339 0.0000
# 6 0.0000 0.0000 0.0000 0.0000 0.0000 31.3667
#
#
#
# Elastic Compliance Matrix: (Units=1/GPa)
#
#
# Indices 1 2 3 4 5 6 
#
# 1 0.009022 -0.002964 -0.005755 0.000000 0.000000 0.000000
# 2 -0.002964 0.018665 -0.005045 0.000000 0.000000 0.000000
# 3 -0.005755 -0.005045 0.016730 0.000000 0.000000 0.000000
# 4 0.000000 0.000000 0.000000 0.036655 0.000000 0.000000
# 5 0.000000 0.000000 0.000000 0.000000 0.030643 0.000000
# 6 0.000000 0.000000 0.000000 0.000000 0.000000 0.031881
#
#
# Mechanical properties :
#
#
# Convention : Reuss Voigt Hill
#
# Bulk Modulus (GPa) = 59.20512 73.47387 66.33949
# Shear Modulus (GPa) = 28.28791 30.40258 29.34524
#
# Velocity S-wave (km/s) = 3.91009 4.05361 3.98249
# Velocity P-wave (km/s) = 7.23766 7.84981 7.54994
#
# Compressibility (1/GPa) = 0.01689043
#
# Stress axis : x y z
#
# Youngs Moduli (GPa) = 110.84283 53.57544 59.77111
#
# Poissons Ratio (x) = 0.15878 0.34400
# Poissons Ratio (y) = 0.32850 0.30152
# Poissons Ratio (z) = 0.63793 0.27027
#
# Static dielectric constant tensor:
#      x y z
#    x 3.900220 0.000000 0.000000 
#    y 0.000000 3.369730 0.000000 
#    z 0.000000 0.000000 3.266200 
# 
# 
# High freq. dielectric constant tensor:
#      x y z
#    x 1.734280 0.000000 0.000000 
#    y 0.000000 1.714310 0.000000 
#    z 0.000000 0.000000 1.696280 
# 
# From -- ./inp_files/27520.got.cif
#   From: 2010.03.12/outbox.cif.g09.slc.cpg/sg59_14_cif.got.tgz:27520.got - 2010.04.16 16:29:54.
