data_PCOD8239006
_publ_section_title
;
Structure prediction by ZEFSAII (Michael W. Deem and Ramdas Pophale) SiO2 
 PCOD8239006
Probable space group: P N N M
;
_chemical_formula_sum "Si O2"
_cell_formula_units_Z 40
_cell_length_a 18.000000
_cell_length_b 12.000000
_cell_length_c 9.000000
_cell_angle_alpha 90.000000
_cell_angle_beta 90.000000
_cell_angle_gamma 90.000000
_cell_volume 1944.000000
_symmetry_space_group_name_H-M "P N N M"
_symmetry_group_IT_number 58
_symmetry_cell_setting 'orthorhombic'
loop_
_space_group_symop_operation_xyz
x,y,z
-x,-y,z
1/2+x,1/2-y,1/2-z
1/2-x,1/2+y,1/2-z
-x,-y,-z
x,y,-z
1/2-x,1/2+y,1/2+z
1/2+x,1/2-y,1/2+z
loop_
_atom_site_type_symbol
_atom_site_label
_atom_site_fract_x
_atom_site_fract_y
_atom_site_fract_z
Si Si1 0.116428 0.200556 0.832018
Si Si2 0.060380 0.581842 0.665909
Si Si3 0.823857 0.598538 0.335056
Si Si4 0.447884 0.307074 0.331570
Si Si5 0.170321 0.974318 0.821509
O O1 0.123898 0.315246 0.747063
O O2 0.032696 0.157339 0.818144
O O3 0.166183 0.101559 0.762856
O O4 0.138837 0.226057 0.000000
O O5 0.031979 0.610810 0.500000
O O6 0.139682 0.522645 0.663645
O O7 0.071201 0.692861 0.754442
O O8 0.000000 0.500000 0.742382
O O9 0.813082 0.645209 0.500000
O O10 0.743936 0.584460 0.257602
O O11 0.423003 0.290239 0.500000
O O12 0.399222 0.405063 0.259005
O O13 0.170254 0.980278 0.000000
#
# Coordination Sequence:
#
# PCOD8239006 Si02
#       5
#     8   8   8   8   8
#     4  10  20  36  58  81 107 139 179 223 267 317
#     4  10  20  35  54  77 109 146 178 213 264 322
#     4  10  21  37  55  77 109 146 179 217 267 319
#     4  10  20  35  58  83 106 137 181 227 266 313
#     4   9  20  37  56  79 109 144 178 219 273 321
#
# _framework density 20.576132000000001
#
# number of rings (size 3 to 8) (size 9 to 14) (size 15 to 20)
#    0.000    2.200    2.000    0.600    2.800    3.600 
#    0.000    2.000    0.000    2.400    0.000    0.000 
#    0.000    0.000    0.000    0.000    0.000    0.000 
#
# Total GULP energy -495760.974657 kJ/mol
# GULP energy per Si atom -12394.024366 kJ/mol
# Density = 2.052930 g / cm^3
# Si number density = 20.576132 Si / 1000 Ang^3
#
#
#
# Elastic Constant Matrix: (Units=GPa)
#
#
# Indices 1 2 3 4 5 6 
#
# 1 53.2554 24.0097 26.3308 0.0000 0.0000 0.0000
# 2 24.0097 77.0346 25.2776 0.0000 0.0000 0.0000
# 3 26.3308 25.2776 22.0090 0.0000 0.0000 0.0000
# 4 0.0000 0.0000 0.0000********** 0.0000 0.0000
# 5 0.0000 0.0000 0.0000 0.0000 12.6546 0.0000
# 6 0.0000 0.0000 0.0000 0.0000 0.0000 21.1979
#
#
#
# Elastic Compliance Matrix: (Units=1/GPa)
#
#
# Indices 1 2 3 4 5 6 
#
# 1 0.047744 0.006198 -0.064237 0.000000 0.000000 0.000000
# 2 0.006198 0.021637 -0.032265 0.000000 0.000000 0.000000
# 3 -0.064237 -0.032265 0.159345 0.000000 0.000000 0.000000
# 4 0.000000 0.000000 0.000000 -0.000080 0.000000 0.000000
# 5 0.000000 0.000000 0.000000 0.000000 0.079023 0.000000
# 6 0.000000 0.000000 0.000000 0.000000 0.000000 0.047174
#
#
# Mechanical properties :
#
#
# Convention : Reuss Voigt Hill
#
# Bulk Modulus (GPa) = 20.78321 33.72613 27.25467
# Shear Modulus (GPa) = 9.06635 -2483.70855 -1237.32110
#
# Velocity S-wave (km/s) = 2.10138 -34.78078 -24.54880
# Velocity P-wave (km/s) = 4.00129 39.95636 28.11139
#
# Compressibility (1/GPa) = 0.04811577
#
# Stress axis : x y z
#
# Youngs Moduli (GPa) = 20.94515 46.21781 6.27571
#
# Poissons Ratio (x) = -0.28646 0.40314
# Poissons Ratio (y) = -0.12982 0.20249
# Poissons Ratio (z) = 1.34546 1.49122
#
# Static dielectric constant tensor:
#      x y z
#    x 3.841230 0.000000 0.000000 
#    y 0.000000 3.534070 0.000000 
#    z 0.000000 0.000000 3.293370 
# 
# 
# High freq. dielectric constant tensor:
#      x y z
#    x 1.800280 0.000000 0.000000 
#    y 0.000000 1.797980 0.000000 
#    z 0.000000 0.000000 1.748260 
# 
# From -- ./inp_files/3791.got.cif
#   From: 2010.06.25/outbox.ucp.g09.slc.cvg/sg58_2_cif.got.tgz:3791.got - 2010.06.28 15:54:47.
