data_PCOD8239329
_publ_section_title
;
Structure prediction by ZEFSAII (Michael W. Deem and Ramdas Pophale) SiO2 
 PCOD8239329
Probable space group: P M M N
;
_chemical_formula_sum "Si O2"
_cell_formula_units_Z 48
_cell_length_a 29.988142
_cell_length_b 8.894112
_cell_length_c 11.702685
_cell_angle_alpha 90.000000
_cell_angle_beta 90.000000
_cell_angle_gamma 90.000000
_cell_volume 3121.315493
_symmetry_space_group_name_H-M "P M M N"
_symmetry_group_IT_number 59
_space_group.IT_coordinate_system_code '2'
_symmetry_cell_setting 'orthorhombic'
loop_
_space_group_symop_operation_xyz
x,y,z
1/2-x,1/2-y,z
1/2+x,-y,-z
-x,1/2+y,-z
-x,-y,-z
1/2+x,1/2+y,-z
1/2-x,y,z
x,1/2-y,z
loop_
_atom_site_type_symbol
_atom_site_label
_atom_site_fract_x
_atom_site_fract_y
_atom_site_fract_z
Si Si1 0.965812 0.427168 0.412512
Si Si2 0.128655 0.426422 0.209681
Si Si3 0.566723 0.425741 0.961138
Si Si4 0.799335 0.422352 0.662177
Si Si5 0.888499 0.420844 0.571496
Si Si6 0.976124 0.574051 0.167839
O O1 0.974352 0.250000 0.404485
O O2 0.915799 0.465669 0.458608
O O3 0.970992 0.499552 0.290135
O O4 0.000000 0.500000 0.500000
O O5 0.126672 0.250000 0.192717
O O6 0.110832 0.505526 0.095682
O O7 0.179696 0.481647 0.232655
O O8 0.098090 0.476120 0.319065
O O9 0.573060 0.250000 0.980902
O O10 0.525038 0.462732 0.879646
O O11 0.560558 0.503414 0.083756
O O12 0.750000 0.483284 0.629172
O O13 0.796212 0.250000 0.702114
O O14 0.834268 0.436549 0.554544
O O15 0.900926 0.250000 0.606044
O O16 0.967359 0.750000 0.178240
#
# Coordination Sequence:
#
# PCOD8239329 Si02
#       6
#     8   8   8   8   8   8
#     4  11  21  32  46  65  94 127 161 198 233 277
#     4  10  18  27  45  70  96 120 148 190 235 276
#     4  10  19  33  48  64  89 123 159 194 232 279
#     4   8  15  30  49  68  93 123 154 189 234 286
#     4   8  17  31  44  64  92 123 156 188 227 276
#     4  10  21  33  47  66  90 120 160 201 235 274
#
# _framework density 15.378132000000001
#
# number of rings (size 3 to 8) (size 9 to 14) (size 15 to 20)
#    1.000    1.500    0.000    3.500    0.000    7.667 
#    0.000    0.000    0.000    0.000    0.000    1.167 
#    0.000    6.667    0.000    0.000    0.000    0.000 
#
# Total GULP energy -594682.124217 kJ/mol
# GULP energy per Si atom -12389.210921 kJ/mol
# Density = 1.534313 g / cm^3
# Si number density = 15.378132 Si / 1000 Ang^3
#
#
#
# Elastic Constant Matrix: (Units=GPa)
#
#
# Indices 1 2 3 4 5 6 
#
# 1 95.5441 41.7447 51.7107 0.0000 0.0000 0.0000
# 2 41.7447 84.0617 50.0731 0.0000 0.0000 0.0000
# 3 51.7107 50.0731 111.2387 0.0000 0.0000 0.0000
# 4 0.0000 0.0000 0.0000 28.6571 0.0000 0.0000
# 5 0.0000 0.0000 0.0000 0.0000 19.8481 0.0000
# 6 0.0000 0.0000 0.0000 0.0000 0.0000 18.9914
#
#
#
# Elastic Compliance Matrix: (Units=1/GPa)
#
#
# Indices 1 2 3 4 5 6 
#
# 1 0.015160 -0.004551 -0.004999 0.000000 0.000000 0.000000
# 2 -0.004551 0.017620 -0.005816 0.000000 0.000000 0.000000
# 3 -0.004999 -0.005816 0.013932 0.000000 0.000000 0.000000
# 4 0.000000 0.000000 0.000000 0.034895 0.000000 0.000000
# 5 0.000000 0.000000 0.000000 0.000000 0.050383 0.000000
# 6 0.000000 0.000000 0.000000 0.000000 0.000000 0.052655
#
#
# Mechanical properties :
#
#
# Convention : Reuss Voigt Hill
#
# Bulk Modulus (GPa) = 62.57643 64.21128 63.39386
# Shear Modulus (GPa) = 22.65476 23.32041 22.98758
#
# Velocity S-wave (km/s) = 3.84237 3.89841 3.87049
# Velocity P-wave (km/s) = 7.77594 7.88093 7.82861
#
# Compressibility (1/GPa) = 0.01598046
#
# Stress axis : x y z
#
# Youngs Moduli (GPa) = 65.96217 56.75217 71.77933
#
# Poissons Ratio (x) = 0.25827 0.35882
# Poissons Ratio (y) = 0.30018 0.41748
# Poissons Ratio (z) = 0.32974 0.33008
#
# Static dielectric constant tensor:
#      x y z
#    x 3.008130 0.000000 0.000000 
#    y 0.000000 3.059070 0.000000 
#    z 0.000000 0.000000 2.781840 
# 
# 
# High freq. dielectric constant tensor:
#      x y z
#    x 1.570950 0.000000 0.000000 
#    y 0.000000 1.602140 0.000000 
#    z 0.000000 0.000000 1.564250 
# 
# From -- ./inp_files/18833.got.cif
#   From: 2010.03.12/outbox.cif.g09.slc.cpg/sg59_10_cif.got.tgz:18833.got - 2010.04.16 16:29:54.
