data_PCOD8239567
_publ_section_title
;
Structure prediction by ZEFSAII (Michael W. Deem and Ramdas Pophale) SiO2 
 PCOD8239567
Probable space group: P M M N
;
_chemical_formula_sum "Si O2"
_cell_formula_units_Z 56
_cell_length_a 18.707926
_cell_length_b 8.434454
_cell_length_c 19.140180
_cell_angle_alpha 90.000000
_cell_angle_beta 90.000000
_cell_angle_gamma 90.000000
_cell_volume 3020.150847
_symmetry_space_group_name_H-M "P M M N"
_symmetry_group_IT_number 59
_space_group.IT_coordinate_system_code '2'
_symmetry_cell_setting 'orthorhombic'
loop_
_space_group_symop_operation_xyz
x,y,z
1/2-x,1/2-y,z
1/2+x,-y,-z
-x,1/2+y,-z
-x,-y,-z
1/2+x,1/2+y,-z
1/2-x,y,z
x,1/2-y,z
loop_
_atom_site_type_symbol
_atom_site_label
_atom_site_fract_x
_atom_site_fract_y
_atom_site_fract_z
Si Si1 0.172222 0.567189 0.381769
Si Si2 0.024555 0.065332 0.426582
Si Si3 0.401404 0.936436 0.101703
Si Si4 0.058589 0.434955 0.856070
Si Si5 0.862614 0.566894 0.757963
Si Si6 0.507871 0.565651 0.287227
Si Si7 0.170249 0.437050 0.964334
O O1 0.250000 0.539278 0.418501
O O2 0.149293 0.750000 0.386540
O O3 0.184409 0.518140 0.301092
O O4 0.109387 0.466446 0.417745
O O5 0.009410 0.250000 0.422777
O O6 0.974333 0.980436 0.367246
O O7 0.000000 0.000000 0.500000
O O8 0.398813 0.750000 0.089269
O O9 0.482023 0.999867 0.116448
O O10 0.351328 0.982329 0.167400
O O11 0.371049 0.024315 0.034830
O O12 0.058150 0.250000 0.871514
O O13 0.068639 0.466721 0.772067
O O14 0.124438 0.510402 0.899376
O O15 0.840879 0.750000 0.764292
O O16 0.943914 0.550010 0.733216
O O17 0.484325 0.750000 0.282797
O O18 0.250000 0.512534 0.963339
O O19 0.176863 0.250000 0.956900
#
# Coordination Sequence:
#
# PCOD8239567 Si02
#       7
#     8   8   8   8   8   8   8
#     4  10  20  34  52  75 105 139 171 204 248 303
#     4  11  21  34  54  80 109 138 171 210 251 296
#     4  10  19  32  49  68  94 127 165 207 248 296
#     4   8  16  31  51  72  93 123 162 203 247 295
#     4  10  18  29  47  71  98 126 160 200 242 293
#     4   9  16  30  51  74  99 125 158 199 244 294
#     4  10  20  33  48  68  95 125 160 205 255 302
#
# _framework density 18.542119
#
# number of rings (size 3 to 8) (size 9 to 14) (size 15 to 20)
#    0.000    2.286    0.000    6.857    0.000    2.000 
#    0.000    3.571    0.000    0.857    0.000    2.000 
#    0.000    0.000    0.000    0.000    0.000    0.000 
#
# Total GULP energy -693823.988426 kJ/mol
# GULP energy per Si atom -12389.714079 kJ/mol
# Density = 1.849992 g / cm^3
# Si number density = 18.542119 Si / 1000 Ang^3
#
#
#
# Elastic Constant Matrix: (Units=GPa)
#
#
# Indices 1 2 3 4 5 6 
#
# 1 83.5595 17.1782 60.9485 0.0000 0.0000 0.0000
# 2 17.1782 48.3436 11.7377 0.0000 0.0000 0.0000
# 3 60.9485 11.7377 148.3682 0.0000 0.0000 0.0000
# 4 0.0000 0.0000 0.0000 25.6109 0.0000 0.0000
# 5 0.0000 0.0000 0.0000 0.0000 10.4055 0.0000
# 6 0.0000 0.0000 0.0000 0.0000 0.0000 15.0036
#
#
#
# Elastic Compliance Matrix: (Units=1/GPa)
#
#
# Indices 1 2 3 4 5 6 
#
# 1 0.018082 -0.004712 -0.007055 0.000000 0.000000 0.000000
# 2 -0.004712 0.022318 0.000170 0.000000 0.000000 0.000000
# 3 -0.007055 0.000170 0.009625 0.000000 0.000000 0.000000
# 4 0.000000 0.000000 0.000000 0.039046 0.000000 0.000000
# 5 0.000000 0.000000 0.000000 0.000000 0.096103 0.000000
# 6 0.000000 0.000000 0.000000 0.000000 0.000000 0.066651
#
#
# Mechanical properties :
#
#
# Convention : Reuss Voigt Hill
#
# Bulk Modulus (GPa) = 37.27084 51.11114 44.19099
# Shear Modulus (GPa) = 17.60785 22.89778 20.25281
#
# Velocity S-wave (km/s) = 3.08492 3.51794 3.30852
# Velocity P-wave (km/s) = 5.73003 6.64273 6.20319
#
# Compressibility (1/GPa) = 0.02683063
#
# Stress axis : x y z
#
# Youngs Moduli (GPa) = 55.30220 44.80600 103.89825
#
# Poissons Ratio (x) = 0.21114 0.73304
# Poissons Ratio (y) = 0.26060 -0.01768
# Poissons Ratio (z) = 0.39018 -0.00762
#
# Static dielectric constant tensor:
#      x y z
#    x 3.402800 0.000000 0.000000 
#    y 0.000000 3.265080 0.000000 
#    z 0.000000 0.000000 3.716300 
# 
# 
# High freq. dielectric constant tensor:
#      x y z
#    x 1.688470 0.000000 0.000000 
#    y 0.000000 1.713450 0.000000 
#    z 0.000000 0.000000 1.718640 
# 
# From -- ./inp_files/30590.got.cif
#   From: 2010.03.12/outbox.cif.g09.slc.cpg/sg59_16_cif.got.tgz:30590.got - 2010.04.16 16:29:54.
