data_PCOD8239743
_publ_section_title
;
Structure prediction by ZEFSAII (Michael W. Deem and Ramdas Pophale) SiO2 
 PCOD8239743
Probable space group: P M M N
;
_chemical_formula_sum "Si O2"
_cell_formula_units_Z 64
_cell_length_a 18.851274
_cell_length_b 9.269371
_cell_length_c 20.160564
_cell_angle_alpha 90.000000
_cell_angle_beta 90.000000
_cell_angle_gamma 90.000000
_cell_volume 3522.845916
_symmetry_space_group_name_H-M "P M M N"
_symmetry_group_IT_number 59
_space_group.IT_coordinate_system_code '2'
_symmetry_cell_setting 'orthorhombic'
loop_
_space_group_symop_operation_xyz
x,y,z
1/2-x,1/2-y,z
1/2+x,-y,-z
-x,1/2+y,-z
-x,-y,-z
1/2+x,1/2+y,-z
1/2-x,y,z
x,1/2-y,z
loop_
_atom_site_type_symbol
_atom_site_label
_atom_site_fract_x
_atom_site_fract_y
_atom_site_fract_z
Si Si1 0.671205 0.919810 0.920544
Si Si2 0.934269 0.580725 0.183223
Si Si3 0.433993 0.081807 0.968466
Si Si4 0.921946 0.921767 0.798551
Si Si5 0.827472 0.580368 0.678911
Si Si6 0.432770 0.080508 0.585569
Si Si7 0.927465 0.917142 0.564714
Si Si8 0.670147 0.920655 0.298603
O O1 0.750000 0.989473 0.916095
O O2 0.678329 0.750000 0.910914
O O3 0.619475 0.979679 0.863361
O O4 0.637139 0.958939 0.991437
O O5 0.949987 0.750000 0.190242
O O6 0.918251 0.537479 0.107238
O O7 0.868074 0.535086 0.229662
O O8 0.001940 0.493722 0.207698
O O9 0.451691 0.250000 0.975056
O O10 0.500000 0.000000 0.000000
O O11 0.931852 0.750000 0.799562
O O12 0.878081 0.980203 0.735973
O O13 0.750000 0.507951 0.684649
O O14 0.820615 0.750000 0.689290
O O15 0.858004 0.543699 0.606610
O O16 0.443824 0.250000 0.595678
O O17 0.408295 0.041753 0.510844
O O18 0.374874 0.020987 0.638148
O O19 0.508021 0.005084 0.596890
O O20 0.948348 0.750000 0.570768
O O21 0.750000 0.986707 0.299762
O O22 0.675496 0.750000 0.303951
#
# Coordination Sequence:
#
# PCOD8239743 Si02
#       8
#     8   8   8   8   8   8   8   8
#     4   9  17  29  47  71  94 118 153 192 229 274
#     4  10  20  32  50  73  96 123 156 197 239 279
#     4  10  19  32  50  72  96 123 155 194 237 282
#     4  10  18  30  50  71  93 125 158 191 233 282
#     4   9  17  28  44  69  97 121 152 196 237 272
#     4   9  17  30  49  70  93 125 161 197 236 282
#     4   9  17  29  47  71  96 123 158 198 240 282
#     4   9  18  32  49  71  98 127 162 202 242 283
#
# _framework density 18.16713
#
# number of rings (size 3 to 8) (size 9 to 14) (size 15 to 20)
#    0.000    2.625    1.250    1.125    0.000    2.500 
#    0.000    5.000    0.000    5.250    0.000    5.250 
#    0.000    0.000    0.000    0.000    0.000    0.000 
#
# Total GULP energy -793403.278223 kJ/mol
# GULP energy per Si atom -12396.926222 kJ/mol
# Density = 1.812578 g / cm^3
# Si number density = 18.167130 Si / 1000 Ang^3
#
#
#
# Elastic Constant Matrix: (Units=GPa)
#
#
# Indices 1 2 3 4 5 6 
#
# 1 138.7077 25.2707 72.4767 0.0000 0.0000 0.0000
# 2 25.2707 19.6495 20.2951 0.0000 0.0000 0.0000
# 3 72.4767 20.2951 136.7270 0.0000 0.0000 0.0000
# 4 0.0000 0.0000 0.0000 16.8873 0.0000 0.0000
# 5 0.0000 0.0000 0.0000 0.0000 29.7068 0.0000
# 6 0.0000 0.0000 0.0000 0.0000 0.0000 22.3924
#
#
#
# Elastic Compliance Matrix: (Units=1/GPa)
#
#
# Indices 1 2 3 4 5 6 
#
# 1 0.011412 -0.009955 -0.004572 0.000000 0.000000 0.000000
# 2 -0.009955 0.068790 -0.004934 0.000000 0.000000 0.000000
# 3 -0.004572 -0.004934 0.010470 0.000000 0.000000 0.000000
# 4 0.000000 0.000000 0.000000 0.059216 0.000000 0.000000
# 5 0.000000 0.000000 0.000000 0.000000 0.033662 0.000000
# 6 0.000000 0.000000 0.000000 0.000000 0.000000 0.044658
#
#
# Mechanical properties :
#
#
# Convention : Reuss Voigt Hill
#
# Bulk Modulus (GPa) = 19.32322 59.01878 39.17100
# Shear Modulus (GPa) = 17.58216 25.60008 21.59112
#
# Velocity S-wave (km/s) = 3.11432 3.75793 3.45116
# Velocity P-wave (km/s) = 4.85711 7.16843 6.12282
#
# Compressibility (1/GPa) = 0.05175120
#
# Stress axis : x y z
#
# Youngs Moduli (GPa) = 87.62950 14.53690 95.51517
#
# Poissons Ratio (x) = 0.14471 0.43665
# Poissons Ratio (y) = 0.87231 0.47129
# Poissons Ratio (z) = 0.40060 0.07173
#
# Static dielectric constant tensor:
#      x y z
#    x 3.556640 0.000000 0.000000 
#    y 0.000000 2.954410 0.000000 
#    z 0.000000 0.000000 3.628780 
# 
# 
# High freq. dielectric constant tensor:
#      x y z
#    x 1.705620 0.000000 0.000000 
#    y 0.000000 1.653650 0.000000 
#    z 0.000000 0.000000 1.722380 
# 
# From -- ./inp_files/30765.got.cif
#   From: 2010.03.12/outbox.cif.g09.slc.cpg/sg59_16_cif.got.tgz:30765.got - 2010.04.16 16:29:54.
