data_PCOD8239522
_publ_section_title
;
Structure prediction by ZEFSAII (Michael W. Deem and Ramdas Pophale) SiO2 
 PCOD8239522
Probable space group: P M M N
;
_chemical_formula_sum "Si O2"
_cell_formula_units_Z 64
_cell_length_a 9.587898
_cell_length_b 21.649852
_cell_length_c 19.059300
_cell_angle_alpha 90.000000
_cell_angle_beta 90.000000
_cell_angle_gamma 90.000000
_cell_volume 3956.264172
_symmetry_space_group_name_H-M "P M M N"
_symmetry_group_IT_number 59
_space_group.IT_coordinate_system_code '2'
_symmetry_cell_setting 'orthorhombic'
loop_
_space_group_symop_operation_xyz
x,y,z
1/2-x,1/2-y,z
1/2+x,-y,-z
-x,1/2+y,-z
-x,-y,-z
1/2+x,1/2+y,-z
1/2-x,y,z
x,1/2-y,z
loop_
_atom_site_type_symbol
_atom_site_label
_atom_site_fract_x
_atom_site_fract_y
_atom_site_fract_z
Si Si1 0.905531 0.679174 0.310310
Si Si2 0.088093 0.054792 0.035991
Si Si3 0.091326 0.501484 0.179751
Si Si4 0.912932 0.818229 0.028732
Si Si5 0.586868 0.881608 0.169899
Si Si6 0.095510 0.885931 0.406332
Si Si7 0.911545 0.517512 0.662320
Si Si8 0.088697 0.950145 0.542133
O O1 0.750000 0.655775 0.325452
O O2 0.907417 0.750000 0.290187
O O3 0.969580 0.643445 0.243895
O O4 0.992900 0.667254 0.380433
O O5 0.250000 0.047989 0.011388
O O6 0.077870 0.051468 0.120721
O O7 0.027988 0.122911 0.015311
O O8 0.000000 0.000000 0.000000
O O9 0.250000 0.525806 0.185748
O O10 0.045061 0.475962 0.256097
O O11 0.994817 0.556339 0.152200
O O12 0.750000 0.814394 0.013776
O O13 0.977985 0.750000 0.009429
O O14 0.943727 0.830716 0.110596
O O15 0.750000 0.897195 0.172907
O O16 0.250000 0.866005 0.384444
O O17 0.084891 0.890631 0.490984
O O18 0.056636 0.948972 0.365653
O O19 0.750000 0.535624 0.649978
O O20 0.012244 0.562902 0.616659
O O21 0.250000 0.971269 0.553559
O O22 0.000000 0.000000 0.500000
#
# Coordination Sequence:
#
# PCOD8239522 Si02
#       8
#     8   8   8   8   8   8   8   8
#     4  10  20  30  41  62  90 120 157 196 228 265
#     4  10  19  31  49  71  95 125 159 198 243 288
#     4  10  19  30  45  67  97 125 152 193 241 285
#     4   9  17  30  48  69  93 123 161 201 239 284
#     4  10  18  29  46  66  89 123 162 195 229 275
#     4   9  17  29  43  60  84 116 150 183 223 271
#     4   9  17  29  43  62  89 118 148 181 224 275
#     4   9  17  28  43  64  88 113 144 180 218 264
#
# _framework density 16.176877999999999
#
# number of rings (size 3 to 8) (size 9 to 14) (size 15 to 20)
#    0.000    2.500    2.500    1.500    0.000    4.750 
#    0.000    0.000    0.000    2.250    0.000    0.875 
#    0.000    3.000    0.000    0.000    0.000    0.000 
#
# Total GULP energy -793041.572444 kJ/mol
# GULP energy per Si atom -12391.274569 kJ/mol
# Density = 1.614006 g / cm^3
# Si number density = 16.176878 Si / 1000 Ang^3
#
#
#
# Elastic Constant Matrix: (Units=GPa)
#
#
# Indices 1 2 3 4 5 6 
#
# 1 57.2191 30.9029 37.8592 0.0000 0.0000 0.0000
# 2 30.9029 79.4131 42.4623 0.0000 0.0000 0.0000
# 3 37.8592 42.4623 101.3999 0.0000 0.0000 0.0000
# 4 0.0000 0.0000 0.0000 17.7158 0.0000 0.0000
# 5 0.0000 0.0000 0.0000 0.0000 21.5945 0.0000
# 6 0.0000 0.0000 0.0000 0.0000 0.0000 18.4796
#
#
#
# Elastic Compliance Matrix: (Units=1/GPa)
#
#
# Indices 1 2 3 4 5 6 
#
# 1 0.025375 -0.006196 -0.006879 0.000000 0.000000 0.000000
# 2 -0.006196 0.017738 -0.005115 0.000000 0.000000 0.000000
# 3 -0.006879 -0.005115 0.014572 0.000000 0.000000 0.000000
# 4 0.000000 0.000000 0.000000 0.056447 0.000000 0.000000
# 5 0.000000 0.000000 0.000000 0.000000 0.046308 0.000000
# 6 0.000000 0.000000 0.000000 0.000000 0.000000 0.054114
#
#
# Mechanical properties :
#
#
# Convention : Reuss Voigt Hill
#
# Bulk Modulus (GPa) = 46.93693 51.16453 49.05073
# Shear Modulus (GPa) = 19.37713 20.01182 19.69447
#
# Velocity S-wave (km/s) = 3.46472 3.52101 3.49298
# Velocity P-wave (km/s) = 6.71443 6.94455 6.83046
#
# Compressibility (1/GPa) = 0.02130518
#
# Stress axis : x y z
#
# Youngs Moduli (GPa) = 39.40919 56.37504 68.62310
#
# Poissons Ratio (x) = 0.34930 0.47209
# Poissons Ratio (y) = 0.24418 0.35099
# Poissons Ratio (z) = 0.27111 0.28835
#
# Static dielectric constant tensor:
#      x y z
#    x 3.064120 0.000000 0.000000 
#    y 0.000000 2.897470 0.000000 
#    z 0.000000 0.000000 3.353060 
# 
# 
# High freq. dielectric constant tensor:
#      x y z
#    x 1.614800 0.000000 0.000000 
#    y 0.000000 1.579610 0.000000 
#    z 0.000000 0.000000 1.626630 
# 
# From -- ./inp_files/28456.got.cif
#   From: 2010.03.12/outbox.cif.g09.slc.cpg/sg59_15_cif.got.tgz:28456.got - 2010.04.16 16:29:54.
