data_PCOD8239908
_publ_section_title
;
Structure prediction by ZEFSAII (Michael W. Deem and Ramdas Pophale) SiO2 
 PCOD8239908
Probable space group: P M M N
;
_chemical_formula_sum "Si O2"
_cell_formula_units_Z 64
_cell_length_a 14.533696
_cell_length_b 18.746651
_cell_length_c 12.119326
_cell_angle_alpha 90.000000
_cell_angle_beta 90.000000
_cell_angle_gamma 90.000000
_cell_volume 3302.008858
_symmetry_space_group_name_H-M "P M M N"
_symmetry_group_IT_number 59
_space_group.IT_coordinate_system_code '2'
_symmetry_cell_setting 'orthorhombic'
loop_
_space_group_symop_operation_xyz
x,y,z
1/2-x,1/2-y,z
1/2+x,-y,-z
-x,1/2+y,-z
-x,-y,-z
1/2+x,1/2+y,-z
1/2-x,y,z
x,1/2-y,z
loop_
_atom_site_type_symbol
_atom_site_label
_atom_site_fract_x
_atom_site_fract_y
_atom_site_fract_z
Si Si1 0.914042 0.671925 0.825426
Si Si2 0.351212 0.379096 0.956905
Si Si3 0.453774 0.948172 0.773625
Si Si4 0.525817 0.097741 0.831143
Si Si5 0.648872 0.460047 0.017276
Si Si6 0.525352 0.079854 0.469853
Si Si7 0.141746 0.833337 0.356499
Si Si8 0.351463 0.332093 0.413189
O O1 0.959689 0.750000 0.809632
O O2 0.856540 0.674026 0.939052
O O3 0.851703 0.654957 0.718572
O O4 0.990343 0.612133 0.837631
O O5 0.250000 0.370715 0.901653
O O6 0.428486 0.364721 0.862714
O O7 0.363810 0.457106 0.011476
O O8 0.364017 0.955094 0.849993
O O9 0.429442 0.920778 0.651675
O O10 0.509038 0.023206 0.767077
O O11 0.587255 0.149483 0.756107
O O12 0.576972 0.085128 0.946837
O O13 0.750000 0.431987 0.987225
O O14 0.600424 0.116971 0.547525
O O15 0.429629 0.122910 0.474606
O O16 0.500000 0.000000 0.500000
O O17 0.250000 0.851309 0.342138
O O18 0.128077 0.750000 0.385562
O O19 0.250000 0.355827 0.455275
O O20 0.369459 0.250000 0.442788
#
# Coordination Sequence:
#
# PCOD8239908 Si02
#       8
#     8   8   8   8   8   8   8   8
#     4  10  18  31  52  82 121 156 188 234 292 356
#     4  10  19  31  53  85 121 159 196 239 297 360
#     4  10  19  37  59  86 121 150 200 250 300 356
#     4  11  19  39  62  85 122 160 204 251 295 359
#     4  10  19  33  58  88 118 158 199 249 306 357
#     4  11  22  39  63  90 117 152 204 258 304 353
#     4  11  26  46  66  89 119 161 209 255 307 366
#     4   9  19  35  56  84 118 154 188 233 298 359
#
# _framework density 19.38214
#
# number of rings (size 3 to 8) (size 9 to 14) (size 15 to 20)
#    0.000    1.750    3.750    1.875    0.000    2.750 
#    0.000    0.625    0.000    1.125    0.000    0.000 
#    0.000    0.000    0.000    0.000    0.000    0.000 
#
# Total GULP energy -793275.595884 kJ/mol
# GULP energy per Si atom -12394.931186 kJ/mol
# Density = 1.933803 g / cm^3
# Si number density = 19.382140 Si / 1000 Ang^3
#
#
#
# Elastic Constant Matrix: (Units=GPa)
#
#
# Indices 1 2 3 4 5 6 
#
# 1 130.3581 44.2703 51.9030 0.0000 0.0000 0.0000
# 2 44.2703 83.3220 23.5136 0.0000 0.0000 0.0000
# 3 51.9030 23.5136 92.4116 0.0000 0.0000 0.0000
# 4 0.0000 0.0000 0.0000 26.9381 0.0000 0.0000
# 5 0.0000 0.0000 0.0000 0.0000 26.3347 0.0000
# 6 0.0000 0.0000 0.0000 0.0000 0.0000 23.7362
#
#
#
# Elastic Compliance Matrix: (Units=1/GPa)
#
#
# Indices 1 2 3 4 5 6 
#
# 1 0.011270 -0.004527 -0.005178 0.000000 0.000000 0.000000
# 2 -0.004527 0.014748 -0.001210 0.000000 0.000000 0.000000
# 3 -0.005178 -0.001210 0.014037 0.000000 0.000000 0.000000
# 4 0.000000 0.000000 0.000000 0.037122 0.000000 0.000000
# 5 0.000000 0.000000 0.000000 0.000000 0.037973 0.000000
# 6 0.000000 0.000000 0.000000 0.000000 0.000000 0.042130
#
#
# Mechanical properties :
#
#
# Convention : Reuss Voigt Hill
#
# Bulk Modulus (GPa) = 54.86734 60.60729 57.73732
# Shear Modulus (GPa) = 26.99994 27.82880 27.41437
#
# Velocity S-wave (km/s) = 3.73638 3.79330 3.76495
# Velocity P-wave (km/s) = 6.85447 7.10796 6.98236
#
# Compressibility (1/GPa) = 0.01822578
#
# Stress axis : x y z
#
# Youngs Moduli (GPa) = 88.72976 67.80455 71.23849
#
# Poissons Ratio (x) = 0.30693 0.36888
# Poissons Ratio (y) = 0.40166 0.08621
# Poissons Ratio (z) = 0.45945 0.08205
#
# Static dielectric constant tensor:
#      x y z
#    x 3.593760 0.000000 0.000000 
#    y 0.000000 3.543830 0.000000 
#    z 0.000000 0.000000 3.421320 
# 
# 
# High freq. dielectric constant tensor:
#      x y z
#    x 1.747600 0.000000 0.000000 
#    y 0.000000 1.749190 0.000000 
#    z 0.000000 0.000000 1.746800 
# 
# From -- ./inp_files/17215.got.cif
#   From: 2010.03.12/outbox.cif.g09.slc.cpg/sg59_9_cif.got.tgz:17215.got - 2010.04.16 16:29:54.
