data_PCOD8239585
_publ_section_title
;
Structure prediction by ZEFSAII (Michael W. Deem and Ramdas Pophale) SiO2 
 PCOD8239585
Probable space group: P M M N
;
_chemical_formula_sum "Si O2"
_cell_formula_units_Z 64
_cell_length_a 8.974308
_cell_length_b 27.368181
_cell_length_c 14.656669
_cell_angle_alpha 90.000000
_cell_angle_beta 90.000000
_cell_angle_gamma 90.000000
_cell_volume 3599.831592
_symmetry_space_group_name_H-M "P M M N"
_symmetry_group_IT_number 59
_space_group.IT_coordinate_system_code '2'
_symmetry_cell_setting 'orthorhombic'
loop_
_space_group_symop_operation_xyz
x,y,z
1/2-x,1/2-y,z
1/2+x,-y,-z
-x,1/2+y,-z
-x,-y,-z
1/2+x,1/2+y,-z
1/2-x,y,z
x,1/2-y,z
loop_
_atom_site_type_symbol
_atom_site_label
_atom_site_fract_x
_atom_site_fract_y
_atom_site_fract_z
Si Si1 0.427047 0.696069 0.346134
Si Si2 0.574500 0.917860 0.657769
Si Si3 0.575348 0.531828 0.160523
Si Si4 0.078740 0.807040 0.141148
Si Si5 0.576842 0.029553 0.655764
Si Si6 0.425985 0.887501 0.480673
Si Si7 0.425967 0.385580 0.977895
Si Si8 0.426406 0.920444 0.845268
O O1 0.250000 0.696663 0.345986
O O2 0.487698 0.750000 0.372500
O O3 0.478623 0.681998 0.243941
O O4 0.486814 0.657143 0.419199
O O5 0.750000 0.910197 0.666912
O O6 0.510838 0.884634 0.576567
O O7 0.496337 0.901160 0.751019
O O8 0.531056 0.973880 0.635641
O O9 0.750000 0.534974 0.174096
O O10 0.503870 0.549987 0.254670
O O11 0.521035 0.567345 0.080167
O O12 0.524695 0.476643 0.137520
O O13 0.250000 0.823775 0.129097
O O14 0.062380 0.750000 0.118783
O O15 0.973980 0.836197 0.072166
O O16 0.750000 0.034844 0.676373
O O17 0.530293 0.062052 0.569362
O O18 0.250000 0.883771 0.497884
O O19 0.250000 0.385477 0.993406
O O20 0.507682 0.387312 0.074778
O O21 0.250000 0.914388 0.840915
#
# Coordination Sequence:
#
# PCOD8239585 Si02
#       8
#     8   8   8   8   8   8   8   8
#     4   8  15  29  50  75 100 125 157 198 237 276
#     4  10  20  33  47  67  97 129 162 203 248 288
#     4   9  19  32  47  71 102 133 164 200 242 291
#     4   9  18  34  55  77 101 131 166 200 237 287
#     4   9  18  30  46  69  97 130 165 200 238 285
#     4  10  18  29  48  72  96 126 164 199 237 289
#     4  11  21  32  49  75 104 131 161 200 249 297
#     4  10  20  35  52  69  94 131 172 208 241 284
#
# _framework density 17.778608999999999
#
# number of rings (size 3 to 8) (size 9 to 14) (size 15 to 20)
#    0.000    2.500    0.000    3.375    0.000    3.750 
#    0.000    0.625    0.000    1.875    0.000    1.750 
#    0.000    0.000    0.000    0.000    0.000    0.000 
#
# Total GULP energy -793696.901308 kJ/mol
# GULP energy per Si atom -12401.514083 kJ/mol
# Density = 1.773814 g / cm^3
# Si number density = 17.778609 Si / 1000 Ang^3
#
#
#
# Elastic Constant Matrix: (Units=GPa)
#
#
# Indices 1 2 3 4 5 6 
#
# 1 53.7084 26.8728 48.5938 0.0000 0.0000 0.0000
# 2 26.8728 69.2623 59.0269 0.0000 0.0000 0.0000
# 3 48.5938 59.0269 146.8953 0.0000 0.0000 0.0000
# 4 0.0000 0.0000 0.0000 26.1227 0.0000 0.0000
# 5 0.0000 0.0000 0.0000 0.0000 32.8852 0.0000
# 6 0.0000 0.0000 0.0000 0.0000 0.0000 20.7821
#
#
#
# Elastic Compliance Matrix: (Units=1/GPa)
#
#
# Indices 1 2 3 4 5 6 
#
# 1 0.027436 -0.004426 -0.007298 0.000000 0.000000 0.000000
# 2 -0.004426 0.022671 -0.007646 0.000000 0.000000 0.000000
# 3 -0.007298 -0.007646 0.012294 0.000000 0.000000 0.000000
# 4 0.000000 0.000000 0.000000 0.038281 0.000000 0.000000
# 5 0.000000 0.000000 0.000000 0.000000 0.030409 0.000000
# 6 0.000000 0.000000 0.000000 0.000000 0.000000 0.048118
#
#
# Mechanical properties :
#
#
# Convention : Reuss Voigt Hill
#
# Bulk Modulus (GPa) = 42.26040 59.87256 51.06648
# Shear Modulus (GPa) = 22.14008 24.98284 23.56146
#
# Velocity S-wave (km/s) = 3.53274 3.75269 3.64438
# Velocity P-wave (km/s) = 6.36100 7.24754 6.81869
#
# Compressibility (1/GPa) = 0.02366281
#
# Stress axis : x y z
#
# Youngs Moduli (GPa) = 36.44824 44.10945 81.34038
#
# Poissons Ratio (x) = 0.19521 0.59360
# Poissons Ratio (y) = 0.16130 0.62191
# Poissons Ratio (z) = 0.26599 0.33725
#
# Static dielectric constant tensor:
#      x y z
#    x 3.097260 0.000000 0.000000 
#    y 0.000000 3.306380 0.000000 
#    z 0.000000 0.000000 3.307410 
# 
# 
# High freq. dielectric constant tensor:
#      x y z
#    x 1.676690 0.000000 0.000000 
#    y 0.000000 1.666800 0.000000 
#    z 0.000000 0.000000 1.689530 
# 
# From -- ./inp_files/21553.got.cif
#   From: 2010.03.12/outbox.cif.g09.slc.cpg/sg59_11_cif.got.tgz:21553.got - 2010.04.16 16:29:54.
