data_PCOD8239889
_publ_section_title
;
Structure prediction by ZEFSAII (Michael W. Deem and Ramdas Pophale) SiO2 
 PCOD8239889
Probable space group: P M M N
;
_chemical_formula_sum "Si O2"
_cell_formula_units_Z 64
_cell_length_a 18.993730
_cell_length_b 9.224293
_cell_length_c 20.011464
_cell_angle_alpha 90.000000
_cell_angle_beta 90.000000
_cell_angle_gamma 90.000000
_cell_volume 3506.083149
_symmetry_space_group_name_H-M "P M M N"
_symmetry_group_IT_number 59
_space_group.IT_coordinate_system_code '2'
_symmetry_cell_setting 'orthorhombic'
loop_
_space_group_symop_operation_xyz
x,y,z
1/2-x,1/2-y,z
1/2+x,-y,-z
-x,1/2+y,-z
-x,-y,-z
1/2+x,1/2+y,-z
1/2-x,y,z
x,1/2-y,z
loop_
_atom_site_type_symbol
_atom_site_label
_atom_site_fract_x
_atom_site_fract_y
_atom_site_fract_z
Si Si1 0.413585 0.078499 0.414083
Si Si2 0.909300 0.577460 0.841747
Si Si3 0.939330 0.079895 0.360507
Si Si4 0.057424 0.577613 0.789050
Si Si5 0.830433 0.080385 0.105558
Si Si6 0.168731 0.419848 0.027506
Si Si7 0.672084 0.922246 0.714417
Si Si8 0.669102 0.420326 0.469593
O O1 0.407859 0.250000 0.425790
O O2 0.494372 0.024987 0.405003
O O3 0.374128 0.026456 0.347608
O O4 0.376743 0.000835 0.475513
O O5 0.906232 0.750000 0.841660
O O6 0.860654 0.515347 0.782510
O O7 0.988326 0.521573 0.828214
O O8 0.879543 0.519661 0.912205
O O9 0.949870 0.250000 0.351681
O O10 0.938440 0.010752 0.285967
O O11 0.866271 0.043045 0.397919
O O12 0.055715 0.750000 0.783951
O O13 0.124743 0.525019 0.831212
O O14 0.750000 0.041249 0.121832
O O15 0.841395 0.250000 0.093109
O O16 0.856650 0.999864 0.039200
O O17 0.250000 0.455661 0.044078
O O18 0.157744 0.250000 0.016553
O O19 0.750000 0.986999 0.705880
O O20 0.673998 0.750000 0.717480
O O21 0.750000 0.475283 0.468822
O O22 0.665736 0.250000 0.484245
#
# Coordination Sequence:
#
# PCOD8239889 Si02
#       8
#     8   8   8   8   8   8   8   8
#     4  10  18  31  52  75  96 122 157 199 242 284
#     4   9  15  25  42  67  95 119 148 190 233 272
#     4   9  17  31  50  72  97 125 159 200 243 282
#     4   9  16  28  47  70  94 119 153 197 237 271
#     4   9  18  31  47  68  93 122 156 193 232 273
#     4   9  17  29  46  68  94 123 153 187 230 279
#     4   9  15  23  40  68  96 118 146 188 233 272
#     4  10  21  34  48  70 100 131 161 194 235 285
#
# _framework density 18.253986999999999
#
# number of rings (size 3 to 8) (size 9 to 14) (size 15 to 20)
#    0.000    2.750    1.250    1.125    0.000    3.250 
#    0.000    2.500    0.000    2.250    0.000    3.500 
#    0.000    0.000    0.000    0.000    0.000    0.000 
#
# Total GULP energy -793376.888723 kJ/mol
# GULP energy per Si atom -12396.513886 kJ/mol
# Density = 1.821244 g / cm^3
# Si number density = 18.253987 Si / 1000 Ang^3
#
#
#
# Elastic Constant Matrix: (Units=GPa)
#
#
# Indices 1 2 3 4 5 6 
#
# 1 124.7147 19.4121 84.2104 0.0000 0.0000 0.0000
# 2 19.4121 15.9408 27.4381 0.0000 0.0000 0.0000
# 3 84.2104 27.4381 152.7327 0.0000 0.0000 0.0000
# 4 0.0000 0.0000 0.0000 20.5419 0.0000 0.0000
# 5 0.0000 0.0000 0.0000 0.0000 38.2684 0.0000
# 6 0.0000 0.0000 0.0000 0.0000 0.0000 14.2211
#
#
#
# Elastic Compliance Matrix: (Units=1/GPa)
#
#
# Indices 1 2 3 4 5 6 
#
# 1 0.013052 -0.005078 -0.006284 0.000000 0.000000 0.000000
# 2 -0.005078 0.092788 -0.013870 0.000000 0.000000 0.000000
# 3 -0.006284 -0.013870 0.012504 0.000000 0.000000 0.000000
# 4 0.000000 0.000000 0.000000 0.048681 0.000000 0.000000
# 5 0.000000 0.000000 0.000000 0.000000 0.026131 0.000000
# 6 0.000000 0.000000 0.000000 0.000000 0.000000 0.070318
#
#
# Mechanical properties :
#
#
# Convention : Reuss Voigt Hill
#
# Bulk Modulus (GPa) = 14.73157 61.72329 38.22743
# Shear Modulus (GPa) = 14.85601 25.42811 20.14206
#
# Velocity S-wave (km/s) = 2.85590 3.73636 3.32540
# Velocity P-wave (km/s) = 4.35462 7.24575 5.97761
#
# Compressibility (1/GPa) = 0.06788142
#
# Stress axis : x y z
#
# Youngs Moduli (GPa) = 76.61801 10.77721 79.97567
#
# Poissons Ratio (x) = 0.05472 0.50257
# Poissons Ratio (y) = 0.38903 1.10924
# Poissons Ratio (z) = 0.48147 0.14948
#
# Static dielectric constant tensor:
#      x y z
#    x 3.608870 0.000000 0.000000 
#    y 0.000000 2.795430 0.000000 
#    z 0.000000 0.000000 3.586640 
# 
# 
# High freq. dielectric constant tensor:
#      x y z
#    x 1.719180 0.000000 0.000000 
#    y 0.000000 1.641590 0.000000 
#    z 0.000000 0.000000 1.718880 
# 
# From -- ./inp_files/27989.got.cif
#   From: 2010.03.12/outbox.cif.g09.slc.cpg/sg59_14_cif.got.tgz:27989.got - 2010.04.16 16:29:54.
