data_PCOD8239709
_publ_section_title
;
Structure prediction by ZEFSAII (Michael W. Deem and Ramdas Pophale) SiO2 
 PCOD8239709
Probable space group: P M M N
;
_chemical_formula_sum "Si O2"
_cell_formula_units_Z 40
_cell_length_a 9.411744
_cell_length_b 20.946178
_cell_length_c 11.854698
_cell_angle_alpha 90.000000
_cell_angle_beta 90.000000
_cell_angle_gamma 90.000000
_cell_volume 2337.035936
_symmetry_space_group_name_H-M "P M M N"
_symmetry_group_IT_number 59
_space_group.IT_coordinate_system_code '2'
_symmetry_cell_setting 'orthorhombic'
loop_
_space_group_symop_operation_xyz
x,y,z
1/2-x,1/2-y,z
1/2+x,-y,-z
-x,1/2+y,-z
-x,-y,-z
1/2+x,1/2+y,-z
1/2-x,y,z
x,1/2-y,z
loop_
_atom_site_type_symbol
_atom_site_label
_atom_site_fract_x
_atom_site_fract_y
_atom_site_fract_z
Si Si1 0.907043 0.176539 0.883205
Si Si2 0.913811 0.956267 0.415117
Si Si3 0.414298 0.321819 0.660304
Si Si4 0.589920 0.592545 0.972160
Si Si5 0.408819 0.991524 0.827787
O O1 0.750000 0.143953 0.875879
O O2 0.886557 0.250000 0.905968
O O3 0.990039 0.164237 0.767965
O O4 0.994682 0.151873 0.990307
O O5 0.750000 0.969671 0.440383
O O6 0.946475 0.879531 0.428445
O O7 0.956030 0.976161 0.288626
O O8 0.000000 0.000000 0.500000
O O9 0.250000 0.326834 0.699024
O O10 0.444822 0.250000 0.610518
O O11 0.750000 0.614333 0.943580
O O12 0.521009 0.563597 0.858603
O O13 0.587398 0.543619 0.074877
O O14 0.250000 0.962572 0.818072
#
# Coordination Sequence:
#
# PCOD8239709 Si02
#       5
#     8   8   8   8   8
#     4  10  19  29  45  72 103 132 162 200 249 302
#     4  10  20  34  51  75 103 133 170 212 256 301
#     4   9  17  32  52  72  98 130 166 210 256 300
#     4  10  18  30  49  71  97 129 163 199 241 296
#     4   9  18  32  47  69  99 127 160 202 249 295
#
# _framework density 17.115697999999998
#
# number of rings (size 3 to 8) (size 9 to 14) (size 15 to 20)
#    0.000    2.400    2.000    1.200    0.000    3.600 
#    0.000    0.000    0.000    1.200    0.000    5.600 
#    0.000    0.000    0.000    0.000    0.000    0.000 
#
# Total GULP energy -495707.224577 kJ/mol
# GULP energy per Si atom -12392.680614 kJ/mol
# Density = 1.707674 g / cm^3
# Si number density = 17.115698 Si / 1000 Ang^3
#
#
#
# Elastic Constant Matrix: (Units=GPa)
#
#
# Indices 1 2 3 4 5 6 
#
# 1 105.4953 54.3974 35.1583 0.0000 0.0000 0.0000
# 2 54.3974 100.4993 45.5041 0.0000 0.0000 0.0000
# 3 35.1583 45.5041 56.5816 0.0000 0.0000 0.0000
# 4 0.0000 0.0000 0.0000 27.4160 0.0000 0.0000
# 5 0.0000 0.0000 0.0000 0.0000 28.0019 0.0000
# 6 0.0000 0.0000 0.0000 0.0000 0.0000 27.1620
#
#
#
# Elastic Compliance Matrix: (Units=1/GPa)
#
#
# Indices 1 2 3 4 5 6 
#
# 1 0.013704 -0.005602 -0.004010 0.000000 0.000000 0.000000
# 2 -0.005602 0.017938 -0.010946 0.000000 0.000000 0.000000
# 3 -0.004010 -0.010946 0.028968 0.000000 0.000000 0.000000
# 4 0.000000 0.000000 0.000000 0.036475 0.000000 0.000000
# 5 0.000000 0.000000 0.000000 0.000000 0.035712 0.000000
# 6 0.000000 0.000000 0.000000 0.000000 0.000000 0.036816
#
#
# Mechanical properties :
#
#
# Convention : Reuss Voigt Hill
#
# Bulk Modulus (GPa) = 51.29457 59.18842 55.24150
# Shear Modulus (GPa) = 23.01737 25.01709 24.01723
#
# Velocity S-wave (km/s) = 3.67114 3.82730 3.75003
# Velocity P-wave (km/s) = 6.92850 7.36121 7.14813
#
# Compressibility (1/GPa) = 0.01949524
#
# Stress axis : x y z
#
# Youngs Moduli (GPa) = 72.97076 55.74637 34.52079
#
# Poissons Ratio (x) = 0.31229 0.13844
# Poissons Ratio (y) = 0.40877 0.37785
# Poissons Ratio (z) = 0.29263 0.61017
#
# Static dielectric constant tensor:
#      x y z
#    x 3.511210 0.000000 0.000000 
#    y 0.000000 3.384970 0.000000 
#    z 0.000000 0.000000 2.863230 
# 
# 
# High freq. dielectric constant tensor:
#      x y z
#    x 1.674050 0.000000 0.000000 
#    y 0.000000 1.656610 0.000000 
#    z 0.000000 0.000000 1.614880 
# 
# From -- ./inp_files/14024.got.cif
#   From: 2010.03.12/outbox.cif.g09.slc.cpg/sg59_8_cif.got.tgz:14024.got - 2010.04.16 16:29:54.
