data_PCOD8239942
_publ_section_title
;
Structure prediction by ZEFSAII (Michael W. Deem and Ramdas Pophale) SiO2 
 PCOD8239942
Probable space group: P M M N
;
_chemical_formula_sum "Si O2"
_cell_formula_units_Z 56
_cell_length_a 8.699035
_cell_length_b 14.946877
_cell_length_c 22.095760
_cell_angle_alpha 90.000000
_cell_angle_beta 90.000000
_cell_angle_gamma 90.000000
_cell_volume 2872.965977
_symmetry_space_group_name_H-M "P M M N"
_symmetry_group_IT_number 59
_space_group.IT_coordinate_system_code '2'
_symmetry_cell_setting 'orthorhombic'
loop_
_space_group_symop_operation_xyz
x,y,z
1/2-x,1/2-y,z
1/2+x,-y,-z
-x,1/2+y,-z
-x,-y,-z
1/2+x,1/2+y,-z
1/2-x,y,z
x,1/2-y,z
loop_
_atom_site_type_symbol
_atom_site_label
_atom_site_fract_x
_atom_site_fract_y
_atom_site_fract_z
Si Si1 0.069343 0.750000 0.386688
Si Si2 0.929846 0.985269 0.208854
Si Si3 0.930005 0.095643 0.008671
Si Si4 0.433173 0.065084 0.659513
Si Si5 0.076225 0.650384 0.121401
Si Si6 0.433113 0.847422 0.861971
Si Si7 0.927523 0.750000 0.515547
Si Si8 0.569677 0.947425 0.556466
O O1 0.250000 0.750000 0.375165
O O2 0.997646 0.838169 0.357347
O O3 0.036955 0.750000 0.457817
O O4 0.750000 0.995933 0.216623
O O5 0.998598 0.959489 0.274032
O O6 0.961257 0.909446 0.159631
O O7 0.001187 0.078459 0.183999
O O8 0.750000 0.085867 0.016752
O O9 0.971288 0.153294 0.949315
O O10 0.998126 0.139338 0.069821
O O11 0.000000 0.000000 0.000000
O O12 0.250000 0.069655 0.656373
O O13 0.491319 0.986110 0.616267
O O14 0.250000 0.613390 0.128550
O O15 0.063542 0.750000 0.147468
O O16 0.250000 0.854156 0.863419
O O17 0.486866 0.750000 0.838809
O O18 0.750000 0.750000 0.493939
O O19 0.962762 0.659624 0.553582
O O20 0.750000 0.967324 0.558205
O O21 0.500000 0.000000 0.500000
#
# Coordination Sequence:
#
# PCOD8239942 Si02
#       8
#     4   8   8   8   8   8   4   8
#     4  12  24  38  64  94 118 156 203 236 283 358
#     4  10  22  39  58  82 111 151 195 236 286 340
#     4  10  18  31  54  80 109 143 181 232 291 345
#     4  11  24  41  59  86 125 160 194 246 298 346
#     4  10  21  35  53  81 113 145 184 233 289 345
#     4   9  17  33  58  82 106 142 191 239 286 346
#     4  10  22  40  64  92 126 158 191 242 299 344
#     4  11  22  39  64  92 122 158 198 241 292 348
#
# _framework density 19.492052000000001
#
# number of rings (size 3 to 8) (size 9 to 14) (size 15 to 20)
#    0.000    1.714    2.857    1.929    1.000    3.714 
#    1.286    0.000    0.000    2.571    0.000    0.000 
#    0.000    0.000    0.000    0.000    0.000    0.000 
#
# Total GULP energy -694268.874867 kJ/mol
# GULP energy per Si atom -12397.658480 kJ/mol
# Density = 1.944769 g / cm^3
# Si number density = 19.492052 Si / 1000 Ang^3
#
#
#
# Elastic Constant Matrix: (Units=GPa)
#
#
# Indices 1 2 3 4 5 6 
#
# 1 50.9034 32.8474 35.5894 0.0000 0.0000 0.0000
# 2 32.8474 165.2769 74.1080 0.0000 0.0000 0.0000
# 3 35.5894 74.1080 135.5140 0.0000 0.0000 0.0000
# 4 0.0000 0.0000 0.0000 8.5048 0.0000 0.0000
# 5 0.0000 0.0000 0.0000 0.0000 21.9586 0.0000
# 6 0.0000 0.0000 0.0000 0.0000 0.0000 26.2804
#
#
#
# Elastic Compliance Matrix: (Units=1/GPa)
#
#
# Indices 1 2 3 4 5 6 
#
# 1 0.024925 -0.002674 -0.005083 0.000000 0.000000 0.000000
# 2 -0.002674 0.008303 -0.003838 0.000000 0.000000 0.000000
# 3 -0.005083 -0.003838 0.010813 0.000000 0.000000 0.000000
# 4 0.000000 0.000000 0.000000 0.117581 0.000000 0.000000
# 5 0.000000 0.000000 0.000000 0.000000 0.045540 0.000000
# 6 0.000000 0.000000 0.000000 0.000000 0.000000 0.038051
#
#
# Mechanical properties :
#
#
# Convention : Reuss Voigt Hill
#
# Bulk Modulus (GPa) = 47.96340 70.75377 59.35859
# Shear Modulus (GPa) = 18.15835 25.29206 21.72520
#
# Velocity S-wave (km/s) = 3.05549 3.60607 3.34214
# Velocity P-wave (km/s) = 6.09164 7.32911 6.73884
#
# Compressibility (1/GPa) = 0.02084923
#
# Stress axis : x y z
#
# Youngs Moduli (GPa) = 40.12063 120.43875 92.47798
#
# Poissons Ratio (x) = 0.32208 0.47011
# Poissons Ratio (y) = 0.10729 0.35496
# Poissons Ratio (z) = 0.20395 0.46228
#
# Static dielectric constant tensor:
#      x y z
#    x 3.384810 0.000000 0.000000 
#    y 0.000000 3.761270 0.000000 
#    z 0.000000 0.000000 3.795920 
# 
# 
# High freq. dielectric constant tensor:
#      x y z
#    x 1.738370 0.000000 0.000000 
#    y 0.000000 1.773660 0.000000 
#    z 0.000000 0.000000 1.757710 
# 
# From -- ./inp_files/29225.got.cif
#   From: 2010.03.12/outbox.cif.g09.slc.cpg/sg59_15_cif.got.tgz:29225.got - 2010.04.16 16:29:54.
