data_PCOD8239714
_publ_section_title
;
Structure prediction by ZEFSAII (Michael W. Deem and Ramdas Pophale) SiO2 
 PCOD8239714
Probable space group: P M M N
;
_chemical_formula_sum "Si O2"
_cell_formula_units_Z 64
_cell_length_a 20.013418
_cell_length_b 8.897639
_cell_length_c 20.365315
_cell_angle_alpha 90.000000
_cell_angle_beta 90.000000
_cell_angle_gamma 90.000000
_cell_volume 3626.495805
_symmetry_space_group_name_H-M "P M M N"
_symmetry_group_IT_number 59
_space_group.IT_coordinate_system_code '2'
_symmetry_cell_setting 'orthorhombic'
loop_
_space_group_symop_operation_xyz
x,y,z
1/2-x,1/2-y,z
1/2+x,-y,-z
-x,1/2+y,-z
-x,-y,-z
1/2+x,1/2+y,-z
1/2-x,y,z
x,1/2-y,z
loop_
_atom_site_type_symbol
_atom_site_label
_atom_site_fract_x
_atom_site_fract_y
_atom_site_fract_z
Si Si1 0.945554 0.573020 0.835742
Si Si2 0.593285 0.572653 0.696390
Si Si3 0.429867 0.428069 0.019375
Si Si4 0.673627 0.427795 0.077994
Si Si5 0.945006 0.072249 0.336365
Si Si6 0.430504 0.571580 0.519829
Si Si7 0.825265 0.072331 0.586566
Si Si8 0.909678 0.428580 0.198107
O O1 0.953129 0.750000 0.830950
O O2 0.901268 0.521048 0.773084
O O3 0.913197 0.526059 0.905068
O O4 0.020744 0.506974 0.830963
O O5 0.602380 0.750000 0.688392
O O6 0.521739 0.517248 0.668523
O O7 0.651594 0.492303 0.656286
O O8 0.435560 0.250000 0.010725
O O9 0.500000 0.500000 0.000000
O O10 0.369243 0.490663 0.977196
O O11 0.750000 0.476818 0.069243
O O12 0.663936 0.250000 0.070060
O O13 0.649879 0.482924 0.150431
O O14 0.946017 0.250000 0.332557
O O15 0.913213 0.019346 0.405447
O O16 0.902076 0.011527 0.273601
O O17 0.500000 0.500000 0.500000
O O18 0.437808 0.750000 0.515469
O O19 0.371857 0.511503 0.472579
O O20 0.750000 0.017676 0.572440
O O21 0.829235 0.250000 0.590550
O O22 0.910718 0.250000 0.198914
#
# Coordination Sequence:
#
# PCOD8239714 Si02
#       8
#     8   8   8   8   8   8   8   8
#     4   8  15  28  50  75  97 121 158 210 256 287
#     4   9  16  30  52  74  92 119 163 210 244 281
#     4  11  20  33  54  78 104 135 170 212 258 307
#     4  10  20  34  52  75 105 139 172 207 253 309
#     4   8  14  25  47  74  95 117 156 207 247 277
#     4  10  18  30  49  72  97 127 163 205 245 290
#     4  10  21  34  46  67 104 140 160 190 251 310
#     4   8  13  26  47  71  98 125 156 201 251 292
#
# _framework density 17.64789
#
# number of rings (size 3 to 8) (size 9 to 14) (size 15 to 20)
#    0.000    2.750    2.500    1.875    0.000    0.500 
#    0.000    2.500    0.000    8.250    0.000    0.000 
#    0.000    2.000    0.000    0.000    0.000    0.000 
#
# Total GULP energy -793040.645180 kJ/mol
# GULP energy per Si atom -12391.260081 kJ/mol
# Density = 1.760772 g / cm^3
# Si number density = 17.647890 Si / 1000 Ang^3
#
#
#
# Elastic Constant Matrix: (Units=GPa)
#
#
# Indices 1 2 3 4 5 6 
#
# 1 125.8875 29.7418 90.0837 0.0000 0.0000 0.0000
# 2 29.7418 21.3591 30.0591 0.0000 0.0000 0.0000
# 3 90.0837 30.0591 182.8430 0.0000 0.0000 0.0000
# 4 0.0000 0.0000 0.0000 22.4835 0.0000 0.0000
# 5 0.0000 0.0000 0.0000 0.0000 29.4080 0.0000
# 6 0.0000 0.0000 0.0000 0.0000 0.0000 20.8614
#
#
#
# Elastic Compliance Matrix: (Units=1/GPa)
#
#
# Indices 1 2 3 4 5 6 
#
# 1 0.014722 -0.013391 -0.005052 0.000000 0.000000 0.000000
# 2 -0.013391 0.073090 -0.005419 0.000000 0.000000 0.000000
# 3 -0.005052 -0.005419 0.008849 0.000000 0.000000 0.000000
# 4 0.000000 0.000000 0.000000 0.044477 0.000000 0.000000
# 5 0.000000 0.000000 0.000000 0.000000 0.034004 0.000000
# 6 0.000000 0.000000 0.000000 0.000000 0.000000 0.047935
#
#
# Mechanical properties :
#
#
# Convention : Reuss Voigt Hill
#
# Bulk Modulus (GPa) = 20.43361 69.98432 45.20896
# Shear Modulus (GPa) = 17.41470 26.56424 21.98947
#
# Velocity S-wave (km/s) = 3.14472 3.88395 3.53372
# Velocity P-wave (km/s) = 4.97889 7.73663 6.50556
#
# Compressibility (1/GPa) = 0.04893898
#
# Stress axis : x y z
#
# Youngs Moduli (GPa) = 67.92341 13.68178 113.00615
#
# Poissons Ratio (x) = 0.18321 0.57092
# Poissons Ratio (y) = 0.90953 0.61233
# Poissons Ratio (z) = 0.34316 0.07414
#
# Static dielectric constant tensor:
#      x y z
#    x 3.182050 0.000000 0.000000 
#    y 0.000000 2.889880 0.000000 
#    z 0.000000 0.000000 4.115000 
# 
# 
# High freq. dielectric constant tensor:
#      x y z
#    x 1.654690 0.000000 0.000000 
#    y 0.000000 1.641750 0.000000 
#    z 0.000000 0.000000 1.705830 
# 
# From -- ./inp_files/30984.got.cif
#   From: 2010.03.12/outbox.cif.g09.slc.cpg/sg59_16_cif.got.tgz:30984.got - 2010.04.16 16:29:54.
