data_PCOD8239792
_publ_section_title
;
Structure prediction by ZEFSAII (Michael W. Deem and Ramdas Pophale) SiO2 
 PCOD8239792
Probable space group: P M M N
;
_chemical_formula_sum "Si O2"
_cell_formula_units_Z 64
_cell_length_a 22.504453
_cell_length_b 15.564982
_cell_length_c 9.562148
_cell_angle_alpha 90.000000
_cell_angle_beta 90.000000
_cell_angle_gamma 90.000000
_cell_volume 3349.442645
_symmetry_space_group_name_H-M "P M M N"
_symmetry_group_IT_number 59
_space_group.IT_coordinate_system_code '2'
_symmetry_cell_setting 'orthorhombic'
loop_
_space_group_symop_operation_xyz
x,y,z
1/2-x,1/2-y,z
1/2+x,-y,-z
-x,1/2+y,-z
-x,-y,-z
1/2+x,1/2+y,-z
1/2-x,y,z
x,1/2-y,z
loop_
_atom_site_type_symbol
_atom_site_label
_atom_site_fract_x
_atom_site_fract_y
_atom_site_fract_z
Si Si1 0.318539 0.846051 0.061038
Si Si2 0.610551 0.655295 0.206868
Si Si3 0.076768 0.601718 0.226589
Si Si4 0.684151 0.846281 0.817462
Si Si5 0.816593 0.521882 0.070262
Si Si6 0.009731 0.345880 0.009083
Si Si7 0.516962 0.654138 0.444603
Si Si8 0.566740 0.910647 0.718269
O O1 0.250000 0.862793 0.106106
O O2 0.324303 0.750000 0.992710
O O3 0.360967 0.849256 0.197752
O O4 0.340602 0.924363 0.959059
O O5 0.641756 0.750000 0.222588
O O6 0.569856 0.636736 0.338483
O O7 0.653074 0.572258 0.198915
O O8 0.573317 0.656881 0.064445
O O9 0.091835 0.504949 0.261964
O O10 0.044743 0.642356 0.361625
O O11 0.036912 0.602568 0.085651
O O12 0.750000 0.859182 0.745962
O O13 0.681961 0.750000 0.882454
O O14 0.676111 0.917729 0.935671
O O15 0.627484 0.853552 0.712356
O O16 0.750000 0.511150 0.119544
O O17 0.983901 0.250000 0.027365
O O18 0.019909 0.387651 0.159988
O O19 0.518361 0.750000 0.504642
O O20 0.527728 0.592981 0.576981
#
# Coordination Sequence:
#
# PCOD8239792 Si02
#       8
#     8   8   8   8   8   8   8   8
#     4  10  20  35  56  82 111 141 178 230 284 327
#     4   9  17  32  51  76 110 146 177 214 267 327
#     4  11  21  36  54  79 111 144 184 228 279 336
#     4  10  19  31  51  80 112 143 177 222 272 321
#     4  10  18  30  51  81 110 138 181 230 270 319
#     4  10  19  32  53  78 106 140 178 220 272 325
#     4  10  22  37  53  76 112 151 185 224 276 333
#     4  12  21  34  55  82 113 148 188 231 277 329
#
# _framework density 19.107657
#
# number of rings (size 3 to 8) (size 9 to 14) (size 15 to 20)
#    0.000    1.750    2.500    4.125    0.000    1.750 
#    0.000    0.625    0.000    0.750    0.000    2.625 
#    0.000   10.000    0.000    0.000    0.000    0.000 
#
# Total GULP energy -792917.425526 kJ/mol
# GULP energy per Si atom -12389.334774 kJ/mol
# Density = 1.906417 g / cm^3
# Si number density = 19.107657 Si / 1000 Ang^3
#
#
#
# Elastic Constant Matrix: (Units=GPa)
#
#
# Indices 1 2 3 4 5 6 
#
# 1 78.0737 26.1433 22.0925 0.0000 0.0000 0.0000
# 2 26.1433 133.3503 24.0521 0.0000 0.0000 0.0000
# 3 22.0925 24.0521 75.9020 0.0000 0.0000 0.0000
# 4 0.0000 0.0000 0.0000 101.0890 0.0000 0.0000
# 5 0.0000 0.0000 0.0000 0.0000 13.1782 0.0000
# 6 0.0000 0.0000 0.0000 0.0000 0.0000 28.5187
#
#
#
# Elastic Compliance Matrix: (Units=1/GPa)
#
#
# Indices 1 2 3 4 5 6 
#
# 1 0.014550 -0.002215 -0.003533 0.000000 0.000000 0.000000
# 2 -0.002215 0.008291 -0.001982 0.000000 0.000000 0.000000
# 3 -0.003533 -0.001982 0.014831 0.000000 0.000000 0.000000
# 4 0.000000 0.000000 0.000000 0.009892 0.000000 0.000000
# 5 0.000000 0.000000 0.000000 0.000000 0.075883 0.000000
# 6 0.000000 0.000000 0.000000 0.000000 0.000000 0.035065
#
#
# Mechanical properties :
#
#
# Convention : Reuss Voigt Hill
#
# Bulk Modulus (GPa) = 45.02315 47.98909 46.50612
# Shear Modulus (GPa) = 27.56687 42.89305 35.22996
#
# Velocity S-wave (km/s) = 3.80243 4.74308 4.29856
# Velocity P-wave (km/s) = 6.54920 7.42734 7.00205
#
# Compressibility (1/GPa) = 0.02221080
#
# Stress axis : x y z
#
# Youngs Moduli (GPa) = 68.72885 120.61384 67.42439
#
# Poissons Ratio (x) = 0.26719 0.23821
# Poissons Ratio (y) = 0.15225 0.13367
# Poissons Ratio (z) = 0.24282 0.23911
#
# Static dielectric constant tensor:
#      x y z
#    x 3.633540 0.000000 0.000000 
#    y 0.000000 3.799770 0.000000 
#    z 0.000000 0.000000 3.122900 
# 
# 
# High freq. dielectric constant tensor:
#      x y z
#    x 1.741620 0.000000 0.000000 
#    y 0.000000 1.762560 0.000000 
#    z 0.000000 0.000000 1.692130 
# 
# From -- ./inp_files/12215.got.cif
#   From: 2010.03.12/outbox.cif.g09.slc.cpg/sg59_7_cif.got.tgz:12215.got - 2010.04.16 16:29:54.
