data_PCOD8239520
_publ_section_title
;
Structure prediction by ZEFSAII (Michael W. Deem and Ramdas Pophale) SiO2 
 PCOD8239520
Probable space group: P M M N
;
_chemical_formula_sum "Si O2"
_cell_formula_units_Z 64
_cell_length_a 29.553938
_cell_length_b 9.505151
_cell_length_c 14.795428
_cell_angle_alpha 90.000000
_cell_angle_beta 90.000000
_cell_angle_gamma 90.000000
_cell_volume 4156.252380
_symmetry_space_group_name_H-M "P M M N"
_symmetry_group_IT_number 59
_space_group.IT_coordinate_system_code '2'
_symmetry_cell_setting 'orthorhombic'
loop_
_space_group_symop_operation_xyz
x,y,z
1/2-x,1/2-y,z
1/2+x,-y,-z
-x,1/2+y,-z
-x,-y,-z
1/2+x,1/2+y,-z
1/2-x,y,z
x,1/2-y,z
loop_
_atom_site_type_symbol
_atom_site_label
_atom_site_fract_x
_atom_site_fract_y
_atom_site_fract_z
Si Si1 0.960200 0.086927 0.804879
Si Si2 0.027007 0.086928 0.367416
Si Si3 0.603697 0.085553 0.968170
Si Si4 0.376221 0.409014 0.707592
Si Si5 0.198854 0.590453 0.778118
Si Si6 0.700915 0.416661 0.018661
Si Si7 0.445943 0.091268 0.562314
Si Si8 0.559093 0.914127 0.128600
O O1 0.961708 0.250000 0.776112
O O2 0.918769 0.054751 0.871896
O O3 0.007088 0.044162 0.853028
O O4 0.950793 0.993515 0.716623
O O5 0.020308 0.250000 0.342177
O O6 0.059372 0.067609 0.454865
O O7 0.978760 0.021123 0.391927
O O8 0.600671 0.250000 0.993312
O O9 0.656652 0.035952 0.961806
O O10 0.576873 0.001976 0.044350
O O11 0.361126 0.250000 0.725460
O O12 0.331862 0.503426 0.709900
O O13 0.397158 0.427899 0.607940
O O14 0.412741 0.455652 0.782613
O O15 0.250000 0.578872 0.743238
O O16 0.181666 0.750000 0.776739
O O17 0.194242 0.527608 0.879178
O O18 0.750000 0.473736 0.980827
O O19 0.704308 0.250000 0.021818
O O20 0.464431 0.250000 0.581799
O O21 0.563444 0.750000 0.104929
#
# Coordination Sequence:
#
# PCOD8239520 Si02
#       8
#     8   8   8   8   8   8   8   8
#     4  10  20  33  45  61  92 125 153 189 230 263
#     4  10  19  30  48  69  87 116 154 188 223 266
#     4  10  19  30  47  66  85 120 159 187 219 269
#     4  10  18  29  46  65  90 123 150 179 225 272
#     4   9  17  29  45  65  91 119 147 187 229 262
#     4   8  14  26  43  63  86 110 142 185 224 258
#     4   9  18  33  48  65  92 119 147 186 230 267
#     4  10  19  30  42  60  92 127 149 181 225 258
#
# _framework density 15.398486999999999
#
# number of rings (size 3 to 8) (size 9 to 14) (size 15 to 20)
#    0.000    2.500    2.500    1.500    0.000    2.250 
#    0.000    0.000    0.000    0.375    0.000    0.875 
#    0.000    3.000    0.000    0.000    0.000    0.000 
#
# Total GULP energy -793358.506540 kJ/mol
# GULP energy per Si atom -12396.226665 kJ/mol
# Density = 1.536344 g / cm^3
# Si number density = 15.398487 Si / 1000 Ang^3
#
#
#
# Elastic Constant Matrix: (Units=GPa)
#
#
# Indices 1 2 3 4 5 6 
#
# 1 106.4044 42.7600 54.5462 0.0000 0.0000 0.0000
# 2 42.7600 63.2652 49.7966 0.0000 0.0000 0.0000
# 3 54.5462 49.7966 93.0470 0.0000 0.0000 0.0000
# 4 0.0000 0.0000 0.0000 25.2967 0.0000 0.0000
# 5 0.0000 0.0000 0.0000 0.0000 19.1541 0.0000
# 6 0.0000 0.0000 0.0000 0.0000 0.0000 20.5384
#
#
#
# Elastic Compliance Matrix: (Units=1/GPa)
#
#
# Indices 1 2 3 4 5 6 
#
# 1 0.014409 -0.005339 -0.005589 0.000000 0.000000 0.000000
# 2 -0.005339 0.029290 -0.012545 0.000000 0.000000 0.000000
# 3 -0.005589 -0.012545 0.020738 0.000000 0.000000 0.000000
# 4 0.000000 0.000000 0.000000 0.039531 0.000000 0.000000
# 5 0.000000 0.000000 0.000000 0.000000 0.052208 0.000000
# 6 0.000000 0.000000 0.000000 0.000000 0.000000 0.048689
#
#
# Mechanical properties :
#
#
# Convention : Reuss Voigt Hill
#
# Bulk Modulus (GPa) = 57.17976 61.88023 59.52999
# Shear Modulus (GPa) = 19.40676 20.70542 20.05609
#
# Velocity S-wave (km/s) = 3.55393 3.67091 3.61289
# Velocity P-wave (km/s) = 7.35218 7.63155 7.49317
#
# Compressibility (1/GPa) = 0.01748871
#
# Stress axis : x y z
#
# Youngs Moduli (GPa) = 69.40045 34.14178 48.22141
#
# Poissons Ratio (x) = 0.18230 0.26953
# Poissons Ratio (y) = 0.37056 0.60494
# Poissons Ratio (z) = 0.38791 0.42831
#
# Static dielectric constant tensor:
#      x y z
#    x 3.041850 0.000000 0.000000 
#    y 0.000000 2.900680 0.000000 
#    z 0.000000 0.000000 2.893830 
# 
# 
# High freq. dielectric constant tensor:
#      x y z
#    x 1.579090 0.000000 0.000000 
#    y 0.000000 1.584560 0.000000 
#    z 0.000000 0.000000 1.570150 
# 
# From -- ./inp_files/21940.got.cif
#   From: 2010.03.12/outbox.cif.g09.slc.cpg/sg59_11_cif.got.tgz:21940.got - 2010.04.16 16:29:54.
