data_PCOD8239350
_publ_section_title
;
Structure prediction by ZEFSAII (Michael W. Deem and Ramdas Pophale) SiO2 
 PCOD8239350
Probable space group: P M M N
;
_chemical_formula_sum "Si O2"
_cell_formula_units_Z 64
_cell_length_a 20.467487
_cell_length_b 9.543550
_cell_length_c 20.435476
_cell_angle_alpha 90.000000
_cell_angle_beta 90.000000
_cell_angle_gamma 90.000000
_cell_volume 3991.712321
_symmetry_space_group_name_H-M "P M M N"
_symmetry_group_IT_number 59
_space_group.IT_coordinate_system_code '2'
_symmetry_cell_setting 'orthorhombic'
loop_
_space_group_symop_operation_xyz
x,y,z
1/2-x,1/2-y,z
1/2+x,-y,-z
-x,1/2+y,-z
-x,-y,-z
1/2+x,1/2+y,-z
1/2-x,y,z
x,1/2-y,z
loop_
_atom_site_type_symbol
_atom_site_label
_atom_site_fract_x
_atom_site_fract_y
_atom_site_fract_z
Si Si1 0.323721 0.908847 0.534145
Si Si2 0.356247 0.408924 0.657950
Si Si3 0.049819 0.913334 0.455374
Si Si4 0.009353 0.907563 0.315208
Si Si5 0.006974 0.903576 0.800166
Si Si6 0.819979 0.084092 0.084368
Si Si7 0.461421 0.583344 0.945685
Si Si8 0.842871 0.095271 0.227013
O O1 0.250000 0.929608 0.506948
O O2 0.333179 0.750000 0.560748
O O3 0.375347 0.938342 0.476471
O O4 0.337466 0.018213 0.590842
O O5 0.330684 0.250000 0.656217
O O6 0.433106 0.415051 0.669267
O O7 0.319459 0.490932 0.716141
O O8 0.029344 0.750000 0.460245
O O9 0.045766 0.964938 0.380047
O O10 0.000000 0.000000 0.500000
O O11 0.031358 0.750000 0.299574
O O12 0.030634 0.994962 0.250523
O O13 0.973554 0.750000 0.798257
O O14 0.008448 0.959247 0.875074
O O15 0.079761 0.890822 0.774088
O O16 0.750000 0.040292 0.050691
O O17 0.826818 0.250000 0.088378
O O18 0.885455 0.030740 0.048042
O O19 0.818089 0.029161 0.158863
O O20 0.467142 0.750000 0.956723
O O21 0.500000 0.500000 0.000000
O O22 0.812832 0.250000 0.239484
#
# Coordination Sequence:
#
# PCOD8239350 Si02
#       8
#     8   8   8   8   8   8   8   8
#     4  10  21  34  46  61  84 117 153 187 226 275
#     4  10  18  28  42  62  89 118 147 183 225 263
#     4  10  19  32  49  68  89 113 149 192 231 273
#     4   9  17  28  44  67  90 112 144 188 231 265
#     4   8  15  27  42  63  90 118 148 180 216 263
#     4   8  14  26  44  64  86 116 155 192 218 250
#     4   9  17  29  46  69  95 122 152 185 222 266
#     4   8  14  25  41  60  84 116 152 184 213 251
#
# _framework density 16.03322
#
# number of rings (size 3 to 8) (size 9 to 14) (size 15 to 20)
#    0.000    3.000    1.250    1.875    0.000    2.250 
#    0.000    3.125    0.000    1.125    0.000    0.875 
#    0.000    5.000    0.000    0.000    0.000    0.000 
#
# Total GULP energy -792923.182477 kJ/mol
# GULP energy per Si atom -12389.424726 kJ/mol
# Density = 1.599673 g / cm^3
# Si number density = 16.033220 Si / 1000 Ang^3
#
#
#
# Elastic Constant Matrix: (Units=GPa)
#
#
# Indices 1 2 3 4 5 6 
#
# 1 64.5204 33.1950 50.5932 0.0000 0.0000 0.0000
# 2 33.1950 72.2438 55.2700 0.0000 0.0000 0.0000
# 3 50.5932 55.2700 116.2180 0.0000 0.0000 0.0000
# 4 0.0000 0.0000 0.0000 27.7287 0.0000 0.0000
# 5 0.0000 0.0000 0.0000 0.0000 7.8120 0.0000
# 6 0.0000 0.0000 0.0000 0.0000 0.0000 5.4041
#
#
#
# Elastic Compliance Matrix: (Units=1/GPa)
#
#
# Indices 1 2 3 4 5 6 
#
# 1 0.024582 -0.004886 -0.008378 0.000000 0.000000 0.000000
# 2 -0.004886 0.022730 -0.008683 0.000000 0.000000 0.000000
# 3 -0.008378 -0.008683 0.016381 0.000000 0.000000 0.000000
# 4 0.000000 0.000000 0.000000 0.036064 0.000000 0.000000
# 5 0.000000 0.000000 0.000000 0.000000 0.128008 0.000000
# 6 0.000000 0.000000 0.000000 0.000000 0.000000 0.185045
#
#
# Mechanical properties :
#
#
# Convention : Reuss Voigt Hill
#
# Bulk Modulus (GPa) = 50.50462 59.01098 54.75780
# Shear Modulus (GPa) = 10.79211 15.78389 13.28800
#
# Velocity S-wave (km/s) = 2.59725 3.14100 2.88198
# Velocity P-wave (km/s) = 6.36888 7.07388 6.73062
#
# Compressibility (1/GPa) = 0.01980017
#
# Stress axis : x y z
#
# Youngs Moduli (GPa) = 40.68023 43.99556 61.04680
#
# Poissons Ratio (x) = 0.21495 0.51144
# Poissons Ratio (y) = 0.19875 0.53005
# Poissons Ratio (z) = 0.34081 0.38200
#
# Static dielectric constant tensor:
#      x y z
#    x 3.077790 0.000000 0.000000 
#    y 0.000000 3.213910 0.000000 
#    z 0.000000 0.000000 3.010190 
# 
# 
# High freq. dielectric constant tensor:
#      x y z
#    x 1.591560 0.000000 0.000000 
#    y 0.000000 1.606670 0.000000 
#    z 0.000000 0.000000 1.599040 
# 
# From -- ./inp_files/31013.got.cif
#   From: 2010.03.12/outbox.cif.g09.slc.cpg/sg59_16_cif.got.tgz:31013.got - 2010.04.16 16:29:54.
