data_PCOD8239590
_publ_section_title
;
Structure prediction by ZEFSAII (Michael W. Deem and Ramdas Pophale) SiO2 
 PCOD8239590
Probable space group: P M M N
;
_chemical_formula_sum "Si O2"
_cell_formula_units_Z 64
_cell_length_a 20.068712
_cell_length_b 8.880305
_cell_length_c 20.115325
_cell_angle_alpha 90.000000
_cell_angle_beta 90.000000
_cell_angle_gamma 90.000000
_cell_volume 3584.878463
_symmetry_space_group_name_H-M "P M M N"
_symmetry_group_IT_number 59
_space_group.IT_coordinate_system_code '2'
_symmetry_cell_setting 'orthorhombic'
loop_
_space_group_symop_operation_xyz
x,y,z
1/2-x,1/2-y,z
1/2+x,-y,-z
-x,1/2+y,-z
-x,-y,-z
1/2+x,1/2+y,-z
1/2-x,y,z
x,1/2-y,z
loop_
_atom_site_type_symbol
_atom_site_label
_atom_site_fract_x
_atom_site_fract_y
_atom_site_fract_z
Si Si1 0.946483 0.427528 0.844111
Si Si2 0.585498 0.427051 0.699991
Si Si3 0.430307 0.428049 0.021614
Si Si4 0.673774 0.424577 0.074914
Si Si5 0.951462 0.076782 0.335053
Si Si6 0.430732 0.573595 0.519531
Si Si7 0.823722 0.070786 0.584155
Si Si8 0.919308 0.422746 0.191338
O O1 0.940383 0.250000 0.856716
O O2 0.908846 0.480927 0.776597
O O3 0.912083 0.516016 0.904416
O O4 0.024288 0.469824 0.839213
O O5 0.579127 0.250000 0.699305
O O6 0.519391 0.485195 0.664804
O O7 0.648506 0.480844 0.656412
O O8 0.438253 0.250000 0.019870
O O9 0.500000 0.500000 0.000000
O O10 0.370066 0.476565 0.974543
O O11 0.750000 0.479121 0.071159
O O12 0.667047 0.250000 0.054593
O O13 0.648587 0.449996 0.150636
O O14 0.972452 0.250000 0.334457
O O15 0.912360 0.038177 0.403212
O O16 0.907105 0.038766 0.269493
O O17 0.500000 0.500000 0.500000
O O18 0.438192 0.750000 0.506466
O O19 0.371060 0.507363 0.474413
O O20 0.750000 0.001535 0.575512
O O21 0.820655 0.250000 0.580256
O O22 0.943465 0.250000 0.183065
#
# Coordination Sequence:
#
# PCOD8239590 Si02
#       8
#     8   8   8   8   8   8   8   8
#     4  10  19  31  51  79 105 130 170 219 263 308
#     4   9  17  30  49  73  99 130 170 211 253 305
#     4  12  23  36  56  81 109 141 177 221 267 317
#     4  10  21  37  56  78 107 143 180 218 264 321
#     4   9  17  28  46  74 102 128 165 212 260 303
#     4  10  18  29  48  73 101 133 172 217 260 306
#     4   9  17  30  48  71 101 137 175 214 258 308
#     4   9  17  31  50  73 103 136 169 209 261 315
#
# _framework density 17.852767
#
# number of rings (size 3 to 8) (size 9 to 14) (size 15 to 20)
#    0.000    2.250    2.500    1.500    0.000    0.750 
#    0.000    1.250    0.000    7.500    0.000    0.000 
#    0.000    3.000    0.000    0.000    0.000    0.000 
#
# Total GULP energy -793330.916061 kJ/mol
# GULP energy per Si atom -12395.795563 kJ/mol
# Density = 1.781213 g / cm^3
# Si number density = 17.852767 Si / 1000 Ang^3
#
#
#
# Elastic Constant Matrix: (Units=GPa)
#
#
# Indices 1 2 3 4 5 6 
#
# 1 126.5266 31.1355 79.7883 0.0000 0.0000 0.0000
# 2 31.1355 45.9405 38.3340 0.0000 0.0000 0.0000
# 3 79.7883 38.3340 155.4225 0.0000 0.0000 0.0000
# 4 0.0000 0.0000 0.0000 21.8323 0.0000 0.0000
# 5 0.0000 0.0000 0.0000 0.0000 27.1567 0.0000
# 6 0.0000 0.0000 0.0000 0.0000 0.0000 19.8950
#
#
#
# Elastic Compliance Matrix: (Units=1/GPa)
#
#
# Indices 1 2 3 4 5 6 
#
# 1 0.012200 -0.003831 -0.005318 0.000000 0.000000 0.000000
# 2 -0.003831 0.028611 -0.005090 0.000000 0.000000 0.000000
# 3 -0.005318 -0.005090 0.010420 0.000000 0.000000 0.000000
# 4 0.000000 0.000000 0.000000 0.045804 0.000000 0.000000
# 5 0.000000 0.000000 0.000000 0.000000 0.036823 0.000000
# 6 0.000000 0.000000 0.000000 0.000000 0.000000 0.050264
#
#
# Mechanical properties :
#
#
# Convention : Reuss Voigt Hill
#
# Bulk Modulus (GPa) = 43.95141 69.60058 56.77600
# Shear Modulus (GPa) = 22.70839 25.68559 24.19699
#
# Velocity S-wave (km/s) = 3.57035 3.79719 3.68552
# Velocity P-wave (km/s) = 6.45514 7.63514 7.06980
#
# Compressibility (1/GPa) = 0.02275240
#
# Stress axis : x y z
#
# Youngs Moduli (GPa) = 81.96894 34.95181 95.97233
#
# Poissons Ratio (x) = 0.13389 0.51039
# Poissons Ratio (y) = 0.31399 0.48852
# Poissons Ratio (z) = 0.43592 0.17791
#
# Static dielectric constant tensor:
#      x y z
#    x 3.213200 0.000000 0.000000 
#    y 0.000000 3.186190 0.000000 
#    z 0.000000 0.000000 3.948980 
# 
# 
# High freq. dielectric constant tensor:
#      x y z
#    x 1.655930 0.000000 0.000000 
#    y 0.000000 1.675990 0.000000 
#    z 0.000000 0.000000 1.713520 
# 
# From -- ./inp_files/30985.got.cif
#   From: 2010.03.12/outbox.cif.g09.slc.cpg/sg59_16_cif.got.tgz:30985.got - 2010.04.16 16:29:54.
