data_PCOD8239956
_publ_section_title
;
Structure prediction by ZEFSAII (Michael W. Deem and Ramdas Pophale) SiO2 
 PCOD8239956
Probable space group: P M M N
;
_chemical_formula_sum "Si O2"
_cell_formula_units_Z 40
_cell_length_a 14.148294
_cell_length_b 10.548429
_cell_length_c 11.292544
_cell_angle_alpha 90.000000
_cell_angle_beta 90.000000
_cell_angle_gamma 90.000000
_cell_volume 1685.324954
_symmetry_space_group_name_H-M "P M M N"
_symmetry_group_IT_number 59
_space_group.IT_coordinate_system_code '2'
_symmetry_cell_setting 'orthorhombic'
loop_
_space_group_symop_operation_xyz
x,y,z
1/2-x,1/2-y,z
1/2+x,-y,-z
-x,1/2+y,-z
-x,-y,-z
1/2+x,1/2+y,-z
1/2-x,y,z
x,1/2-y,z
loop_
_atom_site_type_symbol
_atom_site_label
_atom_site_fract_x
_atom_site_fract_y
_atom_site_fract_z
Si Si1 0.362621 0.503130 0.438830
Si Si2 0.896734 0.750000 0.964898
Si Si3 0.637463 0.750000 0.686901
Si Si4 0.398576 0.503179 0.937935
Si Si5 0.637433 0.102742 0.309823
Si Si6 0.141844 0.750000 0.315930
Si Si7 0.612918 0.250000 0.958244
O O1 0.250000 0.497204 0.430710
O O2 0.403842 0.373598 0.381423
O O3 0.395992 0.525596 0.573790
O O4 0.404958 0.622015 0.365951
O O5 0.895598 0.750000 0.822908
O O6 0.845550 0.626042 0.021543
O O7 0.003088 0.750000 0.011062
O O8 0.750000 0.750000 0.684391
O O9 0.407637 0.521204 0.796962
O O10 0.500000 0.500000 0.000000
O O11 0.339615 0.624366 0.986060
O O12 0.750000 0.101937 0.300071
O O13 0.601338 0.250000 0.310878
O O14 0.250000 0.750000 0.358712
O O15 0.132262 0.750000 0.177904
#
# Coordination Sequence:
#
# PCOD8239956 Si02
#       7
#     8   4   4   8   8   4   4
#     4   9  18  33  55  86 118 147 183 237 300 352
#     4  10  22  37  54  78 118 160 196 237 286 339
#     4  10  20  35  56  81 115 154 188 232 292 356
#     4  10  21  37  57  80 115 162 195 235 288 344
#     4  10  19  35  62  92 119 147 190 245 295 347
#     4  10  18  31  56  87 115 146 192 240 288 348
#     4  10  20  35  56  78 112 158 198 239 284 335
#
# _framework density 23.734294999999999
#
# number of rings (size 3 to 8) (size 9 to 14) (size 15 to 20)
#    0.000    2.200    2.000    1.200    0.000    2.400 
#    0.000    1.000    0.000   28.800    0.000    0.000 
#    0.000    0.000    0.000    0.000    0.000    0.000 
#
# Total GULP energy -495702.624311 kJ/mol
# GULP energy per Si atom -12392.565608 kJ/mol
# Density = 2.368028 g / cm^3
# Si number density = 23.734295 Si / 1000 Ang^3
#
#
#
# Elastic Constant Matrix: (Units=GPa)
#
#
# Indices 1 2 3 4 5 6 
#
# 1 45.1113 32.8703 86.1266 0.0000 0.0000 0.0000
# 2 32.8703 301.4108 206.5047 0.0000 0.0000 0.0000
# 3 86.1266 206.5047 491.1087 0.0000 0.0000 0.0000
# 4 0.0000 0.0000 0.0000 59.1151 0.0000 0.0000
# 5 0.0000 0.0000 0.0000 0.0000 38.3012 0.0000
# 6 0.0000 0.0000 0.0000 0.0000 0.0000 4.8484
#
#
#
# Elastic Compliance Matrix: (Units=1/GPa)
#
#
# Indices 1 2 3 4 5 6 
#
# 1 0.033383 0.000520 -0.006073 0.000000 0.000000 0.000000
# 2 0.000520 0.004668 -0.002054 0.000000 0.000000 0.000000
# 3 -0.006073 -0.002054 0.003965 0.000000 0.000000 0.000000
# 4 0.000000 0.000000 0.000000 0.016916 0.000000 0.000000
# 5 0.000000 0.000000 0.000000 0.000000 0.026109 0.000000
# 6 0.000000 0.000000 0.000000 0.000000 0.000000 0.206255
#
#
# Mechanical properties :
#
#
# Convention : Reuss Voigt Hill
#
# Bulk Modulus (GPa) = 37.30999 165.40377 101.35688
# Shear Modulus (GPa) = 15.85059 54.59488 35.22274
#
# Velocity S-wave (km/s) = 2.58705 4.80130 3.85651
# Velocity P-wave (km/s) = 4.96767 10.02884 7.91377
#
# Compressibility (1/GPa) = 0.02680247
#
# Stress axis : x y z
#
# Youngs Moduli (GPa) = 29.95503 214.20549 252.20123
#
# Poissons Ratio (x) = -0.11147 1.53170
# Poissons Ratio (y) = -0.01559 0.51809
# Poissons Ratio (z) = 0.18193 0.44003
#
# Static dielectric constant tensor:
#      x y z
#    x 3.759090 0.000000 0.000000 
#    y 0.000000 -45.300790 0.000000 
#    z 0.000000 0.000000 4.304430 
# 
# 
# High freq. dielectric constant tensor:
#      x y z
#    x 1.911630 0.000000 0.000000 
#    y 0.000000 1.963370 0.000000 
#    z 0.000000 0.000000 1.947140 
# 
# From -- ./inp_files/11195.got.cif
#   From: 2010.03.12/outbox.cif.g09.slc.cpg/sg59_6_cif.got.tgz:11195.got - 2010.04.16 16:29:54.
