data_PCOD8239042
_publ_section_title
;
Structure prediction by ZEFSAII (Michael W. Deem and Ramdas Pophale) SiO2 
 PCOD8239042
Probable space group: P M M N
;
_chemical_formula_sum "Si O2"
_cell_formula_units_Z 56
_cell_length_a 9.148232
_cell_length_b 18.554751
_cell_length_c 18.312154
_cell_angle_alpha 90.000000
_cell_angle_beta 90.000000
_cell_angle_gamma 90.000000
_cell_volume 3108.363012
_symmetry_space_group_name_H-M "P M M N"
_symmetry_group_IT_number 59
_space_group.IT_coordinate_system_code '2'
_symmetry_cell_setting 'orthorhombic'
loop_
_space_group_symop_operation_xyz
x,y,z
1/2-x,1/2-y,z
1/2+x,-y,-z
-x,1/2+y,-z
-x,-y,-z
1/2+x,1/2+y,-z
1/2-x,y,z
x,1/2-y,z
loop_
_atom_site_type_symbol
_atom_site_label
_atom_site_fract_x
_atom_site_fract_y
_atom_site_fract_z
Si Si1 0.577046 0.574566 0.781971
Si Si2 0.421135 0.920391 0.637798
Si Si3 0.911922 0.912538 0.060361
Si Si4 0.084876 0.088498 0.625676
Si Si5 0.922902 0.168650 0.500987
Si Si6 0.914676 0.084101 0.076484
Si Si7 0.417570 0.427689 0.784437
O O1 0.750000 0.585340 0.782642
O O2 0.508581 0.608859 0.708472
O O3 0.508624 0.611960 0.854341
O O4 0.536146 0.490735 0.782723
O O5 0.250000 0.907609 0.651874
O O6 0.480172 0.875667 0.568715
O O7 0.454896 0.004068 0.622618
O O8 0.750000 0.891334 0.033852
O O9 0.944402 0.879964 0.141899
O O10 0.924270 0.998231 0.071141
O O11 0.022334 0.882918 0.999277
O O12 0.250000 0.100878 0.598369
O O13 0.065418 0.117350 0.709382
O O14 0.977841 0.133152 0.575251
O O15 0.750000 0.166715 0.503718
O O16 0.982192 0.250000 0.495236
O O17 0.750000 0.111972 0.085375
O O18 0.250000 0.459776 0.787082
#
# Coordination Sequence:
#
# PCOD8239042 Si02
#       7
#     8   8   8   8   8   8   8
#     4  10  17  24  38  60  83 110 149 189 223 263
#     4   9  18  33  49  65  90 121 152 187 228 273
#     4   8  13  21  33  50  76 111 148 182 215 258
#     4   9  17  30  49  70  91 119 153 188 227 269
#     4  10  21  35  50  69  93 120 149 184 228 275
#     4   9  15  22  32  49  79 116 148 179 220 266
#     4   8  15  27  40  57  84 116 148 183 225 267
#
# _framework density 18.015913999999999
#
# number of rings (size 3 to 8) (size 9 to 14) (size 15 to 20)
#    0.000    3.000    0.000    3.857    0.000    6.571 
#    0.000    0.000    0.000    0.000    0.000    0.000 
#    0.000    1.143    0.000    8.286    0.000    8.857 
#
# Total GULP energy -693930.969342 kJ/mol
# GULP energy per Si atom -12391.624453 kJ/mol
# Density = 1.797491 g / cm^3
# Si number density = 18.015914 Si / 1000 Ang^3
#
#
#
# Elastic Constant Matrix: (Units=GPa)
#
#
# Indices 1 2 3 4 5 6 
#
# 1 89.3098 18.0878 66.5448 0.0000 0.0000 0.0000
# 2 18.0878 33.7354 36.7843 0.0000 0.0000 0.0000
# 3 66.5448 36.7843 181.5954 0.0000 0.0000 0.0000
# 4 0.0000 0.0000 0.0000 0.2384 0.0000 0.0000
# 5 0.0000 0.0000 0.0000 0.0000 38.0935 0.0000
# 6 0.0000 0.0000 0.0000 0.0000 0.0000 10.0759
#
#
#
# Elastic Compliance Matrix: (Units=1/GPa)
#
#
# Indices 1 2 3 4 5 6 
#
# 1 0.015597 -0.002735 -0.005161 0.000000 0.000000 0.000000
# 2 -0.002735 0.038525 -0.006802 0.000000 0.000000 0.000000
# 3 -0.005161 -0.006802 0.008776 0.000000 0.000000 0.000000
# 4 0.000000 0.000000 0.000000 4.194606 0.000000 0.000000
# 5 0.000000 0.000000 0.000000 0.000000 0.026251 0.000000
# 6 0.000000 0.000000 0.000000 0.000000 0.000000 0.099246
#
#
# Mechanical properties :
#
#
# Convention : Reuss Voigt Hill
#
# Bulk Modulus (GPa) = 29.84872 60.83050 45.33961
# Shear Modulus (GPa) = 1.13031 21.89649 11.51340
#
# Velocity S-wave (km/s) = 0.79294 3.49004 2.53072
# Velocity P-wave (km/s) = 4.17640 7.07663 5.81038
#
# Compressibility (1/GPa) = 0.03350228
#
# Stress axis : x y z
#
# Youngs Moduli (GPa) = 64.11674 25.95724 113.94895
#
# Poissons Ratio (x) = 0.07098 0.58813
# Poissons Ratio (y) = 0.17533 0.77504
# Poissons Ratio (z) = 0.33093 0.17655
#
# Static dielectric constant tensor:
#      x y z
#    x 3.249010 0.000000 0.000000 
#    y 0.000000 2.684800 0.000000 
#    z 0.000000 0.000000 3.927910 
# 
# 
# High freq. dielectric constant tensor:
#      x y z
#    x 1.693150 0.000000 0.000000 
#    y 0.000000 1.609750 0.000000 
#    z 0.000000 0.000000 1.728630 
# 
# From -- ./inp_files/26050.got.cif
#   From: 2010.03.12/outbox.cif.g09.slc.cpg/sg59_14_cif.got.tgz:26050.got - 2010.04.16 16:29:54.
