data_PCOD8239148
_publ_section_title
;
Structure prediction by ZEFSAII (Michael W. Deem and Ramdas Pophale) SiO2 
 PCOD8239148
Probable space group: P M M N
;
_chemical_formula_sum "Si O2"
_cell_formula_units_Z 48
_cell_length_a 21.677553
_cell_length_b 8.617016
_cell_length_c 15.198701
_cell_angle_alpha 90.000000
_cell_angle_beta 90.000000
_cell_angle_gamma 90.000000
_cell_volume 2839.053832
_symmetry_space_group_name_H-M "P M M N"
_symmetry_group_IT_number 59
_space_group.IT_coordinate_system_code '2'
_symmetry_cell_setting 'orthorhombic'
loop_
_space_group_symop_operation_xyz
x,y,z
1/2-x,1/2-y,z
1/2+x,-y,-z
-x,1/2+y,-z
-x,-y,-z
1/2+x,1/2+y,-z
1/2-x,y,z
x,1/2-y,z
loop_
_atom_site_type_symbol
_atom_site_label
_atom_site_fract_x
_atom_site_fract_y
_atom_site_fract_z
Si Si1 0.096123 0.933760 0.851062
Si Si2 0.454320 0.069704 0.376491
Si Si3 0.319097 0.934612 0.694187
Si Si4 0.535596 0.432050 0.804511
Si Si5 0.933536 0.933772 0.975555
Si Si6 0.587245 0.432094 0.451660
O O1 0.096692 0.750000 0.861126
O O2 0.148089 0.993141 0.783259
O O3 0.029920 0.983101 0.813665
O O4 0.111817 0.010200 0.946176
O O5 0.446762 0.250000 0.355900
O O6 0.524168 0.025693 0.401740
O O7 0.435406 0.973615 0.289879
O O8 0.408882 0.021302 0.455638
O O9 0.250000 0.003071 0.690353
O O10 0.318517 0.750000 0.694112
O O11 0.356587 0.992450 0.608651
O O12 0.525896 0.250000 0.815179
O O13 0.582910 0.493900 0.880094
O O14 0.934006 0.750000 0.969562
O O15 0.000000 0.000000 0.000000
O O16 0.590985 0.250000 0.470623
#
# Coordination Sequence:
#
# PCOD8239148 Si02
#       6
#     8   8   8   8   8   8
#     4  10  17  29  45  65  93 123 156 192 228 271
#     4  10  18  29  45  67  93 124 154 191 237 284
#     4   9  17  30  49  70  93 124 161 197 231 269
#     4  11  19  28  44  67  93 123 154 187 231 281
#     4  10  18  28  42  63  91 122 152 184 225 272
#     4   9  17  30  45  66  92 122 157 194 232 277
#
# _framework density 16.907041
#
# number of rings (size 3 to 8) (size 9 to 14) (size 15 to 20)
#    0.000    2.167    1.667    6.000    0.000    0.667 
#    0.000    0.000    0.000    4.500    0.000    1.167 
#    0.000    9.333    0.000    0.000    0.000    0.000 
#
# Total GULP energy -595076.509169 kJ/mol
# GULP energy per Si atom -12397.427274 kJ/mol
# Density = 1.686856 g / cm^3
# Si number density = 16.907041 Si / 1000 Ang^3
#
#
#
# Elastic Constant Matrix: (Units=GPa)
#
#
# Indices 1 2 3 4 5 6 
#
# 1 66.2327 8.9708 49.5677 0.0000 0.0000 0.0000
# 2 8.9708 68.6993 38.9567 0.0000 0.0000 0.0000
# 3 49.5677 38.9567 164.3166 0.0000 0.0000 0.0000
# 4 0.0000 0.0000 0.0000 32.4458 0.0000 0.0000
# 5 0.0000 0.0000 0.0000 0.0000 19.7982 0.0000
# 6 0.0000 0.0000 0.0000 0.0000 0.0000 10.7169
#
#
#
# Elastic Compliance Matrix: (Units=1/GPa)
#
#
# Indices 1 2 3 4 5 6 
#
# 1 0.019550 0.000914 -0.006114 0.000000 0.000000 0.000000
# 2 0.000914 0.016860 -0.004273 0.000000 0.000000 0.000000
# 3 -0.006114 -0.004273 0.008943 0.000000 0.000000 0.000000
# 4 0.000000 0.000000 0.000000 0.030821 0.000000 0.000000
# 5 0.000000 0.000000 0.000000 0.000000 0.050510 0.000000
# 6 0.000000 0.000000 0.000000 0.000000 0.000000 0.093310
#
#
# Mechanical properties :
#
#
# Convention : Reuss Voigt Hill
#
# Bulk Modulus (GPa) = 37.86808 54.91544 46.39176
# Shear Modulus (GPa) = 20.18224 26.04241 23.11232
#
# Velocity S-wave (km/s) = 3.45877 3.92896 3.70134
# Velocity P-wave (km/s) = 6.19655 7.28928 6.76502
#
# Compressibility (1/GPa) = 0.02640746
#
# Stress axis : x y z
#
# Youngs Moduli (GPa) = 51.15007 59.31250 111.81549
#
# Poissons Ratio (x) = -0.05423 0.68367
# Poissons Ratio (y) = -0.04677 0.47779
# Poissons Ratio (z) = 0.31275 0.25344
#
# Static dielectric constant tensor:
#      x y z
#    x 2.859490 0.000000 0.000000 
#    y 0.000000 3.071660 0.000000 
#    z 0.000000 0.000000 3.828710 
# 
# 
# High freq. dielectric constant tensor:
#      x y z
#    x 1.581750 0.000000 0.000000 
#    y 0.000000 1.651640 0.000000 
#    z 0.000000 0.000000 1.675600 
# 
# From -- ./inp_files/24503.got.cif
#   From: 2010.03.12/outbox.cif.g09.slc.cpg/sg59_13_cif.got.tgz:24503.got - 2010.04.16 16:29:54.
