data_PCOD8239363
_publ_section_title
;
Structure prediction by ZEFSAII (Michael W. Deem and Ramdas Pophale) SiO2 
 PCOD8239363
Probable space group: P M M N
;
_chemical_formula_sum "Si O2"
_cell_formula_units_Z 64
_cell_length_a 28.946015
_cell_length_b 9.324784
_cell_length_c 13.980466
_cell_angle_alpha 90.000000
_cell_angle_beta 90.000000
_cell_angle_gamma 90.000000
_cell_volume 3773.542199
_symmetry_space_group_name_H-M "P M M N"
_symmetry_group_IT_number 59
_space_group.IT_coordinate_system_code '2'
_symmetry_cell_setting 'orthorhombic'
loop_
_space_group_symop_operation_xyz
x,y,z
1/2-x,1/2-y,z
1/2+x,-y,-z
-x,1/2+y,-z
-x,-y,-z
1/2+x,1/2+y,-z
1/2-x,y,z
x,1/2-y,z
loop_
_atom_site_type_symbol
_atom_site_label
_atom_site_fract_x
_atom_site_fract_y
_atom_site_fract_z
Si Si1 0.057568 0.087935 0.961865
Si Si2 0.801935 0.416284 0.013877
Si Si3 0.352119 0.411230 0.831811
Si Si4 0.899058 0.090806 0.314598
Si Si5 0.011799 0.908786 0.812537
Si Si6 0.387551 0.585595 0.107782
Si Si7 0.451974 0.583056 0.501845
Si Si8 0.562840 0.412173 0.708824
O O1 0.040593 0.250000 0.981033
O O2 0.100877 0.088425 0.891170
O O3 0.016146 0.996958 0.912307
O O4 0.072993 0.014072 0.061018
O O5 0.750000 0.451495 0.979686
O O6 0.807706 0.250000 0.040461
O O7 0.812986 0.505186 0.109136
O O8 0.836317 0.459501 0.926783
O O9 0.334839 0.250000 0.812805
O O10 0.359604 0.487495 0.728778
O O11 0.878298 0.250000 0.332541
O O12 0.938936 0.102258 0.236607
O O13 0.918795 0.025072 0.413827
O O14 0.993109 0.750000 0.836855
O O15 0.978216 0.983893 0.737942
O O16 0.397295 0.750000 0.077511
O O17 0.392326 0.564781 0.222669
O O18 0.500000 0.500000 0.500000
O O19 0.463146 0.750000 0.520776
O O20 0.424627 0.558696 0.401852
O O21 0.544220 0.250000 0.720529
#
# Coordination Sequence:
#
# PCOD8239363 Si02
#       8
#     8   8   8   8   8   8   8   8
#     4   9  17  29  44  62  86 118 154 189 226 269
#     4   9  17  31  52  74  95 119 145 176 220 277
#     4   9  17  28  45  70  95 118 146 184 227 271
#     4   9  17  29  44  63  89 121 156 193 235 276
#     4  10  18  28  43  62  85 118 158 196 232 269
#     4   9  18  32  46  64  90 118 149 185 225 274
#     4  10  19  31  46  65  88 120 162 204 242 272
#     4  10  20  31  44  62  88 120 156 196 234 269
#
# _framework density 16.960190999999998
#
# number of rings (size 3 to 8) (size 9 to 14) (size 15 to 20)
#    0.000    2.625    1.250    1.125    0.000    5.250 
#    0.000    0.000    0.000    0.000    0.000    0.875 
#    0.000    5.000    0.000    0.125    0.000    0.375 
#
# Total GULP energy -793399.048329 kJ/mol
# GULP energy per Si atom -12396.860130 kJ/mol
# Density = 1.692159 g / cm^3
# Si number density = 16.960191 Si / 1000 Ang^3
#
#
#
# Elastic Constant Matrix: (Units=GPa)
#
#
# Indices 1 2 3 4 5 6 
#
# 1 53.7803 28.0993 29.1897 0.0000 0.0000 0.0000
# 2 28.0993 84.8397 39.2786 0.0000 0.0000 0.0000
# 3 29.1897 39.2786 118.0277 0.0000 0.0000 0.0000
# 4 0.0000 0.0000 0.0000 15.1837 0.0000 0.0000
# 5 0.0000 0.0000 0.0000 0.0000 17.6853 0.0000
# 6 0.0000 0.0000 0.0000 0.0000 0.0000 15.6677
#
#
#
# Elastic Compliance Matrix: (Units=1/GPa)
#
#
# Indices 1 2 3 4 5 6 
#
# 1 0.023894 -0.006121 -0.003872 0.000000 0.000000 0.000000
# 2 -0.006121 0.015502 -0.003645 0.000000 0.000000 0.000000
# 3 -0.003872 -0.003645 0.010643 0.000000 0.000000 0.000000
# 4 0.000000 0.000000 0.000000 0.065860 0.000000 0.000000
# 5 0.000000 0.000000 0.000000 0.000000 0.056544 0.000000
# 6 0.000000 0.000000 0.000000 0.000000 0.000000 0.063826
#
#
# Mechanical properties :
#
#
# Convention : Reuss Voigt Hill
#
# Bulk Modulus (GPa) = 43.93211 49.97589 46.95400
# Shear Modulus (GPa) = 18.44111 20.37934 19.41022
#
# Velocity S-wave (km/s) = 3.30103 3.47017 3.38665
# Velocity P-wave (km/s) = 6.36305 6.75179 6.56030
#
# Compressibility (1/GPa) = 0.02276239
#
# Stress axis : x y z
#
# Youngs Moduli (GPa) = 41.85145 64.50856 93.95596
#
# Poissons Ratio (x) = 0.39486 0.36382
# Poissons Ratio (y) = 0.25618 0.34247
# Poissons Ratio (z) = 0.16206 0.23514
#
# Static dielectric constant tensor:
#      x y z
#    x 2.848070 0.000000 0.000000 
#    y 0.000000 3.411780 0.000000 
#    z 0.000000 0.000000 3.310760 
# 
# 
# High freq. dielectric constant tensor:
#      x y z
#    x 1.606450 0.000000 0.000000 
#    y 0.000000 1.662200 0.000000 
#    z 0.000000 0.000000 1.651340 
# 
# From -- ./inp_files/21928.got.cif
#   From: 2010.03.12/outbox.cif.g09.slc.cpg/sg59_11_cif.got.tgz:21928.got - 2010.04.16 16:29:54.
