data_PCOD8239565
_publ_section_title
;
Structure prediction by ZEFSAII (Michael W. Deem and Ramdas Pophale) SiO2 
 PCOD8239565
Probable space group: P M M N
;
_chemical_formula_sum "Si O2"
_cell_formula_units_Z 64
_cell_length_a 19.142716
_cell_length_b 8.906983
_cell_length_c 19.875473
_cell_angle_alpha 90.000000
_cell_angle_beta 90.000000
_cell_angle_gamma 90.000000
_cell_volume 3388.844587
_symmetry_space_group_name_H-M "P M M N"
_symmetry_group_IT_number 59
_space_group.IT_coordinate_system_code '2'
_symmetry_cell_setting 'orthorhombic'
loop_
_space_group_symop_operation_xyz
x,y,z
1/2-x,1/2-y,z
1/2+x,-y,-z
-x,1/2+y,-z
-x,-y,-z
1/2+x,1/2+y,-z
1/2-x,y,z
x,1/2-y,z
loop_
_atom_site_type_symbol
_atom_site_label
_atom_site_fract_x
_atom_site_fract_y
_atom_site_fract_z
Si Si1 0.949124 0.572695 0.635542
Si Si2 0.672524 0.927917 0.283034
Si Si3 0.671463 0.927332 0.538884
Si Si4 0.086189 0.071417 0.589943
Si Si5 0.672558 0.928455 0.879948
Si Si6 0.586247 0.571958 0.155059
Si Si7 0.171936 0.428302 0.970643
Si Si8 0.049083 0.071553 0.211524
O O1 0.960450 0.750000 0.632884
O O2 0.873433 0.528963 0.604905
O O3 0.952608 0.511239 0.711949
O O4 0.008764 0.497647 0.589802
O O5 0.750000 0.997298 0.288693
O O6 0.676768 0.750000 0.287506
O O7 0.625482 0.989166 0.343803
O O8 0.639515 0.979731 0.212946
O O9 0.750000 0.996761 0.543651
O O10 0.678243 0.750000 0.532306
O O11 0.630407 0.988654 0.473549
O O12 0.079081 0.250000 0.588697
O O13 0.750000 0.990503 0.863266
O O14 0.673941 0.750000 0.879304
O O15 0.619721 0.989015 0.823544
O O16 0.649212 0.982466 0.954731
O O17 0.575330 0.750000 0.155564
O O18 0.617179 0.511010 0.084494
O O19 0.512998 0.493281 0.167175
O O20 0.250000 0.488282 0.954454
O O21 0.173125 0.250000 0.966520
O O22 0.045396 0.250000 0.210492
#
# Coordination Sequence:
#
# PCOD8239565 Si02
#       8
#     8   8   8   8   8   8   8   8
#     4  10  20  33  49  70  99 131 158 191 236 284
#     4   9  16  26  44  70  94 118 153 192 227 267
#     4   9  18  32  51  75  97 119 157 205 242 273
#     4  10  18  31  52  74  95 123 156 195 239 283
#     4   8  15  29  48  69  92 121 160 202 239 275
#     4  10  18  29  47  71  97 124 155 195 239 282
#     4   8  14  26  46  71  95 119 155 203 243 273
#     4  10  20  32  47  69  98 129 159 192 232 281
#
# _framework density 18.885491999999999
#
# number of rings (size 3 to 8) (size 9 to 14) (size 15 to 20)
#    0.000    2.750    1.250    1.875    0.000    4.000 
#    0.000    2.500    0.000    5.250    0.000    3.500 
#    0.000    0.000    0.000    0.000    0.000    0.000 
#
# Total GULP energy -793358.282973 kJ/mol
# GULP energy per Si atom -12396.223171 kJ/mol
# Density = 1.884251 g / cm^3
# Si number density = 18.885492 Si / 1000 Ang^3
#
#
#
# Elastic Constant Matrix: (Units=GPa)
#
#
# Indices 1 2 3 4 5 6 
#
# 1 161.7485 17.8864 77.6847 0.0000 0.0000 0.0000
# 2 17.8864 10.5551 13.6474 0.0000 0.0000 0.0000
# 3 77.6847 13.6474 113.1164 0.0000 0.0000 0.0000
# 4 0.0000 0.0000 0.0000 12.6896 0.0000 0.0000
# 5 0.0000 0.0000 0.0000 0.0000 40.0575 0.0000
# 6 0.0000 0.0000 0.0000 0.0000 0.0000 23.2634
#
#
#
# Elastic Compliance Matrix: (Units=1/GPa)
#
#
# Indices 1 2 3 4 5 6 
#
# 1 0.009974 -0.009532 -0.005700 0.000000 0.000000 0.000000
# 2 -0.009532 0.121362 -0.008096 0.000000 0.000000 0.000000
# 3 -0.005700 -0.008096 0.013732 0.000000 0.000000 0.000000
# 4 0.000000 0.000000 0.000000 0.078805 0.000000 0.000000
# 5 0.000000 0.000000 0.000000 0.000000 0.024964 0.000000
# 6 0.000000 0.000000 0.000000 0.000000 0.000000 0.042986
#
#
# Mechanical properties :
#
#
# Convention : Reuss Voigt Hill
#
# Bulk Modulus (GPa) = 10.16139 55.98411 33.07275
# Shear Modulus (GPa) = 13.46687 26.94887 20.20787
#
# Velocity S-wave (km/s) = 2.67325 3.78161 3.27467
# Velocity P-wave (km/s) = 3.86272 6.98397 5.64342
#
# Compressibility (1/GPa) = 0.09841174
#
# Stress axis : x y z
#
# Youngs Moduli (GPa) = 100.26061 8.23984 72.82452
#
# Poissons Ratio (x) = 0.07854 0.41508
# Poissons Ratio (y) = 0.95569 0.58958
# Poissons Ratio (z) = 0.57146 0.06671
#
# Static dielectric constant tensor:
#      x y z
#    x 3.721040 0.000000 0.000000 
#    y 0.000000 2.834800 0.000000 
#    z 0.000000 0.000000 3.769770 
# 
# 
# High freq. dielectric constant tensor:
#      x y z
#    x 1.743960 0.000000 0.000000 
#    y 0.000000 1.667320 0.000000 
#    z 0.000000 0.000000 1.745730 
# 
# From -- ./inp_files/30814.got.cif
#   From: 2010.03.12/outbox.cif.g09.slc.cpg/sg59_16_cif.got.tgz:30814.got - 2010.04.16 16:29:54.
