data_PCOD8239642
_publ_section_title
;
Structure prediction by ZEFSAII (Michael W. Deem and Ramdas Pophale) SiO2 
 PCOD8239642
Probable space group: P M M N
;
_chemical_formula_sum "Si O2"
_cell_formula_units_Z 56
_cell_length_a 8.693602
_cell_length_b 26.844446
_cell_length_c 14.578752
_cell_angle_alpha 90.000000
_cell_angle_beta 90.000000
_cell_angle_gamma 90.000000
_cell_volume 3402.315219
_symmetry_space_group_name_H-M "P M M N"
_symmetry_group_IT_number 59
_space_group.IT_coordinate_system_code '2'
_symmetry_cell_setting 'orthorhombic'
loop_
_space_group_symop_operation_xyz
x,y,z
1/2-x,1/2-y,z
1/2+x,-y,-z
-x,1/2+y,-z
-x,-y,-z
1/2+x,1/2+y,-z
1/2-x,y,z
x,1/2-y,z
loop_
_atom_site_type_symbol
_atom_site_label
_atom_site_fract_x
_atom_site_fract_y
_atom_site_fract_z
Si Si1 0.568059 0.934076 0.576365
Si Si2 0.930806 0.387893 0.981773
Si Si3 0.429608 0.436330 0.819778
Si Si4 0.430325 0.038887 0.619638
Si Si5 0.933603 0.693046 0.894555
Si Si6 0.923971 0.962578 0.879683
Si Si7 0.578113 0.625298 0.738237
O O1 0.750000 0.933037 0.588294
O O2 0.519938 0.928181 0.469515
O O3 0.499614 0.888467 0.639441
O O4 0.513970 0.986326 0.616903
O O5 0.750000 0.388337 0.996220
O O6 0.996852 0.335588 0.018428
O O7 0.006676 0.434999 0.032178
O O8 0.975786 0.393965 0.874679
O O9 0.250000 0.426638 0.834094
O O10 0.475702 0.431834 0.712193
O O11 0.470077 0.490893 0.856481
O O12 0.250000 0.027511 0.616911
O O13 0.750000 0.686901 0.897947
O O14 0.986749 0.750000 0.898782
O O15 0.001628 0.668543 0.799863
O O16 0.750000 0.980202 0.902205
O O17 0.923627 0.925799 0.794202
O O18 0.750000 0.644295 0.719644
#
# Coordination Sequence:
#
# PCOD8239642 Si02
#       7
#     8   8   8   8   8   8   8
#     4   9  15  27  43  62  89 122 156 189 223 261
#     4  11  22  33  46  65  89 119 154 192 232 275
#     4  11  20  30  42  62  92 126 162 196 229 267
#     4   9  18  27  40  62  90 123 159 194 224 255
#     4   9  18  34  53  72  93 116 144 183 232 286
#     4  10  18  30  45  64  90 123 157 189 228 272
#     4   8  14  25  45  68  89 117 150 181 221 272
#
# _framework density 16.459381
#
# number of rings (size 3 to 8) (size 9 to 14) (size 15 to 20)
#    0.000    2.429    1.429    3.429    0.000    0.857 
#    0.000    0.000    0.000    0.000    0.000    1.000 
#    0.000    5.714    0.000    0.000    0.000    0.429 
#
# Total GULP energy -693923.209890 kJ/mol
# GULP energy per Si atom -12391.485891 kJ/mol
# Density = 1.642192 g / cm^3
# Si number density = 16.459381 Si / 1000 Ang^3
#
#
#
# Elastic Constant Matrix: (Units=GPa)
#
#
# Indices 1 2 3 4 5 6 
#
# 1 36.7340 12.9143 25.1570 0.0000 0.0000 0.0000
# 2 12.9143 78.9597 54.6711 0.0000 0.0000 0.0000
# 3 25.1570 54.6711 129.2919 0.0000 0.0000 0.0000
# 4 0.0000 0.0000 0.0000 12.9379 0.0000 0.0000
# 5 0.0000 0.0000 0.0000 0.0000 16.7654 0.0000
# 6 0.0000 0.0000 0.0000 0.0000 0.0000 17.1811
#
#
#
# Elastic Compliance Matrix: (Units=1/GPa)
#
#
# Indices 1 2 3 4 5 6 
#
# 1 0.031500 -0.001284 -0.005586 0.000000 0.000000 0.000000
# 2 -0.001284 0.017960 -0.007345 0.000000 0.000000 0.000000
# 3 -0.005586 -0.007345 0.011927 0.000000 0.000000 0.000000
# 4 0.000000 0.000000 0.000000 0.077292 0.000000 0.000000
# 5 0.000000 0.000000 0.000000 0.000000 0.059647 0.000000
# 6 0.000000 0.000000 0.000000 0.000000 0.000000 0.058204
#
#
# Mechanical properties :
#
#
# Convention : Reuss Voigt Hill
#
# Bulk Modulus (GPa) = 30.34243 47.83004 39.08623
# Shear Modulus (GPa) = 16.89507 19.52643 18.21075
#
# Velocity S-wave (km/s) = 3.20733 3.44807 3.32988
# Velocity P-wave (km/s) = 5.67369 6.70632 6.21150
#
# Compressibility (1/GPa) = 0.03295715
#
# Stress axis : x y z
#
# Youngs Moduli (GPa) = 31.74629 55.67925 83.84367
#
# Poissons Ratio (x) = 0.07151 0.46835
# Poissons Ratio (y) = 0.04077 0.61579
# Poissons Ratio (z) = 0.17734 0.40894
#
# Static dielectric constant tensor:
#      x y z
#    x 3.018610 0.000000 0.000000 
#    y 0.000000 2.848550 0.000000 
#    z 0.000000 0.000000 3.591220 
# 
# 
# High freq. dielectric constant tensor:
#      x y z
#    x 1.623840 0.000000 0.000000 
#    y 0.000000 1.585120 0.000000 
#    z 0.000000 0.000000 1.644740 
# 
# From -- ./inp_files/21768.got.cif
#   From: 2010.03.12/outbox.cif.g09.slc.cpg/sg59_11_cif.got.tgz:21768.got - 2010.04.16 16:29:54.
