data_PCOD8239582
_publ_section_title
;
Structure prediction by ZEFSAII (Michael W. Deem and Ramdas Pophale) SiO2 
 PCOD8239582
Probable space group: P M M N
;
_chemical_formula_sum "Si O2"
_cell_formula_units_Z 64
_cell_length_a 14.356741
_cell_length_b 9.534275
_cell_length_c 28.169443
_cell_angle_alpha 90.000000
_cell_angle_beta 90.000000
_cell_angle_gamma 90.000000
_cell_volume 3855.864817
_symmetry_space_group_name_H-M "P M M N"
_symmetry_group_IT_number 59
_space_group.IT_coordinate_system_code '2'
_symmetry_cell_setting 'orthorhombic'
loop_
_space_group_symop_operation_xyz
x,y,z
1/2-x,1/2-y,z
1/2+x,-y,-z
-x,1/2+y,-z
-x,-y,-z
1/2+x,1/2+y,-z
1/2-x,y,z
x,1/2-y,z
loop_
_atom_site_type_symbol
_atom_site_label
_atom_site_fract_x
_atom_site_fract_y
_atom_site_fract_z
Si Si1 0.356327 0.411056 0.619783
Si Si2 0.145917 0.416639 0.152173
Si Si3 0.847415 0.588588 0.583848
Si Si4 0.988319 0.916484 0.659120
Si Si5 0.853719 0.583691 0.741834
Si Si6 0.640788 0.586934 0.023982
Si Si7 0.481277 0.413737 0.067901
Si Si8 0.584969 0.590560 0.483639
O O1 0.250000 0.431210 0.634101
O O2 0.387349 0.250000 0.624932
O O3 0.412884 0.506022 0.657082
O O4 0.369464 0.462732 0.565260
O O5 0.250000 0.472890 0.139453
O O6 0.148335 0.250000 0.149091
O O7 0.118269 0.466703 0.205232
O O8 0.067752 0.472229 0.115728
O O9 0.750000 0.521310 0.602160
O O10 0.848759 0.750000 0.599405
O O11 0.935295 0.524687 0.611718
O O12 0.843840 0.574176 0.527087
O O13 0.005221 0.750000 0.659995
O O14 0.930329 0.970900 0.704565
O O15 0.750000 0.527152 0.728932
O O16 0.851291 0.750000 0.739986
O O17 0.750000 0.539583 0.024399
O O18 0.633561 0.750000 0.037941
O O19 0.578285 0.497431 0.060885
O O20 0.595890 0.559248 0.972591
O O21 0.507225 0.250000 0.071069
O O22 0.500000 0.500000 0.500000
O O23 0.551255 0.750000 0.477980
#
# Coordination Sequence:
#
# PCOD8239582 Si02
#       8
#     8   8   8   8   8   8   8   8
#     4  10  21  35  49  64  86 119 153 181 213 256
#     4   8  13  23  42  68  95 119 144 179 223 269
#     4   9  16  26  43  66  89 112 136 163 201 252
#     4  10  18  29  48  72  92 111 140 180 219 256
#     4   8  14  25  44  72  99 117 138 175 224 273
#     4   9  17  28  41  60  90 125 156 187 225 269
#     4   9  16  26  43  66  89 117 155 192 225 264
#     4  10  18  30  47  65  87 114 144 175 209 250
#
# _framework density 16.598092000000001
#
# number of rings (size 3 to 8) (size 9 to 14) (size 15 to 20)
#    0.000    2.875    1.250    1.875    0.000    5.000 
#    0.000    0.000    0.000    6.000    0.000    7.000 
#    0.000    0.000    0.000    0.000    0.000    0.000 
#
# Total GULP energy -792917.496443 kJ/mol
# GULP energy per Si atom -12389.335882 kJ/mol
# Density = 1.656031 g / cm^3
# Si number density = 16.598092 Si / 1000 Ang^3
#
#
#
# Elastic Constant Matrix: (Units=GPa)
#
#
# Indices 1 2 3 4 5 6 
#
# 1 124.9256 42.4887 58.5539 0.0000 0.0000 0.0000
# 2 42.4887 33.2172 29.0687 0.0000 0.0000 0.0000
# 3 58.5539 29.0687 100.2757 0.0000 0.0000 0.0000
# 4 0.0000 0.0000 0.0000 15.0575 0.0000 0.0000
# 5 0.0000 0.0000 0.0000 0.0000 26.7642 0.0000
# 6 0.0000 0.0000 0.0000 0.0000 0.0000 22.7558
#
#
#
# Elastic Compliance Matrix: (Units=1/GPa)
#
#
# Indices 1 2 3 4 5 6 
#
# 1 0.015510 -0.015963 -0.004429 0.000000 0.000000 0.000000
# 2 -0.015963 0.056767 -0.007135 0.000000 0.000000 0.000000
# 3 -0.004429 -0.007135 0.014627 0.000000 0.000000 0.000000
# 4 0.000000 0.000000 0.000000 0.066412 0.000000 0.000000
# 5 0.000000 0.000000 0.000000 0.000000 0.037363 0.000000
# 6 0.000000 0.000000 0.000000 0.000000 0.000000 0.043945
#
#
# Mechanical properties :
#
#
# Convention : Reuss Voigt Hill
#
# Bulk Modulus (GPa) = 31.39703 57.62678 44.51191
# Shear Modulus (GPa) = 16.65027 21.46932 19.05979
#
# Velocity S-wave (km/s) = 3.17068 3.60040 3.39235
# Velocity P-wave (km/s) = 5.68871 7.21652 6.49767
#
# Compressibility (1/GPa) = 0.03185015
#
# Stress axis : x y z
#
# Youngs Moduli (GPa) = 64.47444 17.61580 68.36575
#
# Poissons Ratio (x) = 0.28120 0.30281
# Poissons Ratio (y) = 1.02921 0.48778
# Poissons Ratio (z) = 0.28558 0.12569
#
# Static dielectric constant tensor:
#      x y z
#    x 3.144910 0.000000 0.000000 
#    y 0.000000 2.788860 0.000000 
#    z 0.000000 0.000000 2.957760 
# 
# 
# High freq. dielectric constant tensor:
#      x y z
#    x 1.640490 0.000000 0.000000 
#    y 0.000000 1.595090 0.000000 
#    z 0.000000 0.000000 1.628330 
# 
# From -- ./inp_files/33347.got.cif
#   From: 2010.03.12/outbox.cif.g09.slc.cpg/sg59_17_cif.got.tgz:33347.got - 2010.04.16 16:29:54.
