data_PCOD8239399
_publ_section_title
;
Structure prediction by ZEFSAII (Michael W. Deem and Ramdas Pophale) SiO2 
 PCOD8239399
Probable space group: P M M N
;
_chemical_formula_sum "Si O2"
_cell_formula_units_Z 48
_cell_length_a 20.571284
_cell_length_b 9.230074
_cell_length_c 15.010903
_cell_angle_alpha 90.000000
_cell_angle_beta 90.000000
_cell_angle_gamma 90.000000
_cell_volume 2850.187305
_symmetry_space_group_name_H-M "P M M N"
_symmetry_group_IT_number 59
_space_group.IT_coordinate_system_code '2'
_symmetry_cell_setting 'orthorhombic'
loop_
_space_group_symop_operation_xyz
x,y,z
1/2-x,1/2-y,z
1/2+x,-y,-z
-x,1/2+y,-z
-x,-y,-z
1/2+x,1/2+y,-z
1/2-x,y,z
x,1/2-y,z
loop_
_atom_site_type_symbol
_atom_site_label
_atom_site_fract_x
_atom_site_fract_y
_atom_site_fract_z
Si Si1 0.990479 0.586320 0.246825
Si Si2 0.548939 0.420241 0.933943
Si Si3 0.679382 0.415837 0.372337
Si Si4 0.844799 0.913060 0.198339
Si Si5 0.179148 0.585299 0.975981
Si Si6 0.462103 0.920591 0.577736
O O1 0.005486 0.750000 0.281071
O O2 0.922072 0.581001 0.197146
O O3 0.992088 0.476317 0.329289
O O4 0.040384 0.535262 0.169908
O O5 0.535763 0.250000 0.944836
O O6 0.500000 0.500000 0.000000
O O7 0.622820 0.465658 0.956804
O O8 0.750000 0.435372 0.422766
O O9 0.669918 0.250000 0.342852
O O10 0.683964 0.510666 0.284633
O O11 0.615423 0.459623 0.430157
O O12 0.818719 0.750000 0.198921
O O13 0.818271 0.989161 0.111383
O O14 0.250000 0.571666 0.023342
O O15 0.165473 0.750000 0.946149
O O16 0.474374 0.750000 0.570350
O O17 0.500000 0.000000 0.500000
#
# Coordination Sequence:
#
# PCOD8239399 Si02
#       6
#     8   8   8   8   8   8
#     4   9  18  32  49  71  97 127 165 207 246 288
#     4  10  19  32  50  70  96 130 169 207 242 284
#     4   9  18  32  49  70  98 130 162 195 237 294
#     4  10  18  28  44  69  99 129 162 199 243 291
#     4  10  20  31  44  65  96 133 169 205 246 291
#     4  10  20  34  54  77 100 128 161 201 249 297
#
# _framework density 16.840999
#
# number of rings (size 3 to 8) (size 9 to 14) (size 15 to 20)
#    0.000    2.333    1.667    1.500    0.000    4.667 
#    0.000    0.000    0.000    1.000    0.000    4.667 
#    0.000    0.000    0.000    0.000    0.000    0.000 
#
# Total GULP energy -594877.285630 kJ/mol
# GULP energy per Si atom -12393.276784 kJ/mol
# Density = 1.680267 g / cm^3
# Si number density = 16.840999 Si / 1000 Ang^3
#
#
#
# Elastic Constant Matrix: (Units=GPa)
#
#
# Indices 1 2 3 4 5 6 
#
# 1 134.6038 48.1636 69.7349 0.0000 0.0000 0.0000
# 2 48.1636 72.6827 44.5246 0.0000 0.0000 0.0000
# 3 69.7349 44.5246 88.4256 0.0000 0.0000 0.0000
# 4 0.0000 0.0000 0.0000 26.9879 0.0000 0.0000
# 5 0.0000 0.0000 0.0000 0.0000 17.3792 0.0000
# 6 0.0000 0.0000 0.0000 0.0000 0.0000 18.7688
#
#
#
# Elastic Compliance Matrix: (Units=1/GPa)
#
#
# Indices 1 2 3 4 5 6 
#
# 1 0.013120 -0.003406 -0.008631 0.000000 0.000000 0.000000
# 2 -0.003406 0.020780 -0.007777 0.000000 0.000000 0.000000
# 3 -0.008631 -0.007777 0.022032 0.000000 0.000000 0.000000
# 4 0.000000 0.000000 0.000000 0.037054 0.000000 0.000000
# 5 0.000000 0.000000 0.000000 0.000000 0.057540 0.000000
# 6 0.000000 0.000000 0.000000 0.000000 0.000000 0.053280
#
#
# Mechanical properties :
#
#
# Convention : Reuss Voigt Hill
#
# Bulk Modulus (GPa) = 61.34191 68.95092 65.14641
# Shear Modulus (GPa) = 20.09099 21.51312 20.80206
#
# Velocity S-wave (km/s) = 3.45770 3.57799 3.51836
# Velocity P-wave (km/s) = 7.24183 7.62237 7.43454
#
# Compressibility (1/GPa) = 0.01630207
#
# Stress axis : x y z
#
# Youngs Moduli (GPa) = 76.22059 48.12403 45.38917
#
# Poissons Ratio (x) = 0.16393 0.39177
# Poissons Ratio (y) = 0.25964 0.35298
# Poissons Ratio (z) = 0.65789 0.37425
#
# Static dielectric constant tensor:
#      x y z
#    x 3.494100 0.000000 0.000000 
#    y 0.000000 3.297490 0.000000 
#    z 0.000000 0.000000 2.914970 
# 
# 
# High freq. dielectric constant tensor:
#      x y z
#    x 1.657420 0.000000 0.000000 
#    y 0.000000 1.655430 0.000000 
#    z 0.000000 0.000000 1.612310 
# 
# From -- ./inp_files/20696.got.cif
#   From: 2010.03.12/outbox.cif.g09.slc.cpg/sg59_11_cif.got.tgz:20696.got - 2010.04.16 16:29:54.
