data_PCOD8239007
_publ_section_title
;
Structure prediction by ZEFSAII (Michael W. Deem and Ramdas Pophale) SiO2 
 PCOD8239007
Probable space group: P N N M
;
_chemical_formula_sum "Si O2"
_cell_formula_units_Z 64
_cell_length_a 21.000000
_cell_length_b 18.000000
_cell_length_c 9.000000
_cell_angle_alpha 90.000000
_cell_angle_beta 90.000000
_cell_angle_gamma 90.000000
_cell_volume 3402.000000
_symmetry_space_group_name_H-M "P N N M"
_symmetry_group_IT_number 58
_symmetry_cell_setting 'orthorhombic'
loop_
_space_group_symop_operation_xyz
x,y,z
-x,-y,z
1/2+x,1/2-y,1/2-z
1/2-x,1/2+y,1/2-z
-x,-y,-z
x,y,-z
1/2-x,1/2+y,1/2+z
1/2+x,1/2-y,1/2+z
loop_
_atom_site_type_symbol
_atom_site_label
_atom_site_fract_x
_atom_site_fract_y
_atom_site_fract_z
Si Si1 0.315241 0.039314 0.176652
Si Si2 0.066545 0.464677 0.170442
Si Si3 0.974786 0.211707 0.321989
Si Si4 0.152920 0.705715 0.325243
Si Si5 0.589941 0.204869 0.328855
Si Si6 0.698357 0.535694 0.178357
Si Si7 0.059356 0.944684 0.823243
Si Si8 0.235696 0.309938 0.175903
O O1 0.339017 0.120968 0.222064
O O2 0.371845 0.986324 0.233159
O O3 0.246609 0.026400 0.255611
O O4 0.306771 0.029831 0.000000
O O5 0.059765 0.376569 0.183493
O O6 0.000000 0.500000 0.230264
O O7 0.078515 0.489352 0.000000
O O8 0.977538 0.204615 0.500000
O O9 0.915772 0.264147 0.269113
O O10 0.961438 0.132309 0.249836
O O11 0.043264 0.241717 0.265229
O O12 0.154805 0.716961 0.500000
O O13 0.214199 0.749773 0.259352
O O14 0.589977 0.232125 0.500000
O O15 0.663168 0.204513 0.264488
O O16 0.627288 0.529206 0.250446
O O17 0.734357 0.611463 0.224721
O O18 0.691588 0.527573 0.000000
O O19 0.069766 0.936485 0.000000
O O20 0.000000 0.000000 0.789734
O O21 0.230651 0.307349 0.000000
#
# Coordination Sequence:
#
# PCOD8239007 Si02
#       8
#     8   8   8   8   8   8   8   8
#     4  11  22  35  57  89 125 159 200 251 309 372
#     4  10  20  35  55  81 118 162 207 251 300 358
#     4  11  22  39  63  90 123 162 208 256 303 361
#     4   9  19  36  58  85 115 157 201 245 303 364
#     4  10  20  35  57  85 118 160 201 243 303 364
#     4  11  21  40  67  90 120 160 205 256 307 362
#     4  11  25  44  66  93 125 162 205 253 313 376
#     4   9  17  35  61  82 109 156 203 241 295 360
#
# _framework density 18.812463000000001
#
# number of rings (size 3 to 8) (size 9 to 14) (size 15 to 20)
#    0.000    1.750    2.500    2.250    0.000    2.750 
#    0.000    4.375    0.000    0.000    0.000    0.000 
#    0.000    0.000    0.000    0.000    0.000    0.000 
#
# Total GULP energy -793291.963173 kJ/mol
# GULP energy per Si atom -12395.186925 kJ/mol
# Density = 1.876965 g / cm^3
# Si number density = 18.812463 Si / 1000 Ang^3
#
#
#
# Elastic Constant Matrix: (Units=GPa)
#
#
# Indices 1 2 3 4 5 6 
#
# 1 202.9776 54.0201 51.6930 0.0000 0.0000 0.0000
# 2 54.0201 94.3885 37.8630 0.0000 0.0000 0.0000
# 3 51.6930 37.8630 94.0721 0.0000 0.0000 0.0000
# 4 0.0000 0.0000 0.0000 26.7253 0.0000 0.0000
# 5 0.0000 0.0000 0.0000 0.0000 42.6902 0.0000
# 6 0.0000 0.0000 0.0000 0.0000 0.0000 47.6148
#
#
#
# Elastic Compliance Matrix: (Units=1/GPa)
#
#
# Indices 1 2 3 4 5 6 
#
# 1 0.006225 -0.002612 -0.002369 0.000000 0.000000 0.000000
# 2 -0.002612 0.013731 -0.004091 0.000000 0.000000 0.000000
# 3 -0.002369 -0.004091 0.013579 0.000000 0.000000 0.000000
# 4 0.000000 0.000000 0.000000 0.037418 0.000000 0.000000
# 5 0.000000 0.000000 0.000000 0.000000 0.023425 0.000000
# 6 0.000000 0.000000 0.000000 0.000000 0.000000 0.021002
#
#
# Mechanical properties :
#
#
# Convention : Reuss Voigt Hill
#
# Bulk Modulus (GPa) = 64.98034 75.39894 70.18964
# Shear Modulus (GPa) = 36.06100 39.93021 37.99560
#
# Velocity S-wave (km/s) = 4.38295 4.61210 4.49899
# Velocity P-wave (km/s) = 7.76079 8.27818 8.02365
#
# Compressibility (1/GPa) = 0.01538927
#
# Stress axis : x y z
#
# Youngs Moduli (GPa) = 160.63403 72.82969 73.64489
#
# Poissons Ratio (x) = 0.19026 0.17449
# Poissons Ratio (y) = 0.41964 0.30127
# Poissons Ratio (z) = 0.38060 0.29794
#
# Static dielectric constant tensor:
#      x y z
#    x 4.058160 0.000000 0.000000 
#    y 0.000000 3.523930 0.000000 
#    z 0.000000 0.000000 3.410840 
# 
# 
# High freq. dielectric constant tensor:
#      x y z
#    x 1.775240 0.000000 0.000000 
#    y 0.000000 1.734980 0.000000 
#    z 0.000000 0.000000 1.721450 
# 
# From -- ./inp_files/9226.got.cif
#   From: 2010.06.25/outbox.ucp.g09.slc.cvg/sg58_5_cif.got.tgz:9226.got - 2010.06.28 15:54:47.
