data_PCOD8239066
_publ_section_title
;
Structure prediction by ZEFSAII (Michael W. Deem and Ramdas Pophale) SiO2 
 PCOD8239066
Probable space group: P M M N
;
_chemical_formula_sum "Si O2"
_cell_formula_units_Z 64
_cell_length_a 8.974065
_cell_length_b 27.078495
_cell_length_c 18.302430
_cell_angle_alpha 90.000000
_cell_angle_beta 90.000000
_cell_angle_gamma 90.000000
_cell_volume 4447.566889
_symmetry_space_group_name_H-M "P M M N"
_symmetry_group_IT_number 59
_space_group.IT_coordinate_system_code '2'
_symmetry_cell_setting 'orthorhombic'
loop_
_space_group_symop_operation_xyz
x,y,z
1/2-x,1/2-y,z
1/2+x,-y,-z
-x,1/2+y,-z
-x,-y,-z
1/2+x,1/2+y,-z
1/2-x,y,z
x,1/2-y,z
loop_
_atom_site_type_symbol
_atom_site_label
_atom_site_fract_x
_atom_site_fract_y
_atom_site_fract_z
Si Si1 0.418723 0.518830 0.928857
Si Si2 0.420455 0.015498 0.777452
Si Si3 0.578472 0.127922 0.301093
Si Si4 0.923847 0.306657 0.432260
Si Si5 0.917837 0.549753 0.606381
Si Si6 0.419368 0.113938 0.529590
Si Si7 0.422466 0.560026 0.347631
Si Si8 0.575184 0.577882 0.816581
O O1 0.250000 0.532431 0.949453
O O2 0.424987 0.475945 0.865800
O O3 0.497834 0.568323 0.895792
O O4 0.500000 0.500000 0.000000
O O5 0.250000 0.005872 0.752688
O O6 0.492146 0.060010 0.730987
O O7 0.523826 0.966960 0.762118
O O8 0.750000 0.125823 0.278264
O O9 0.540368 0.176427 0.348877
O O10 0.540449 0.080729 0.350503
O O11 0.483429 0.127141 0.224974
O O12 0.750000 0.315112 0.448646
O O13 0.971305 0.250000 0.439618
O O14 0.017108 0.337483 0.490604
O O15 0.750000 0.561618 0.635841
O O16 0.929868 0.565808 0.521853
O O17 0.952840 0.491819 0.611854
O O18 0.250000 0.125070 0.551852
O O19 0.512119 0.103748 0.603142
O O20 0.250000 0.570542 0.333273
O O21 0.750000 0.579847 0.828314
#
# Coordination Sequence:
#
# PCOD8239066 Si02
#       8
#     8   8   8   8   8   8   8   8
#     4   9  17  27  41  59  82 113 147 176 201 234
#     4   9  18  28  39  56  79 109 142 173 204 238
#     4  10  17  26  43  62  80 105 138 176 217 256
#     4   9  19  35  50  62  78 103 138 180 225 270
#     4   9  17  27  38  54  77 105 134 165 202 245
#     4  10  20  30  41  58  79 103 134 172 211 254
#     4  11  19  27  40  57  80 110 139 168 206 248
#     4  10  17  26  39  57  82 110 141 174 205 243
#
# _framework density 14.389891
#
# number of rings (size 3 to 8) (size 9 to 14) (size 15 to 20)
#    0.750    1.625    1.250    3.000    0.000    1.750 
#    0.000    0.000    0.000    0.000    0.000    0.000 
#    0.000    0.000    0.000    1.125    0.000   18.250 
#
# Total GULP energy -792988.132956 kJ/mol
# GULP energy per Si atom -12390.439577 kJ/mol
# Density = 1.435714 g / cm^3
# Si number density = 14.389891 Si / 1000 Ang^3
#
#
#
# Elastic Constant Matrix: (Units=GPa)
#
#
# Indices 1 2 3 4 5 6 
#
# 1 107.1098 29.7370 44.3241 0.0000 0.0000 0.0000
# 2 29.7370 47.8513 26.6703 0.0000 0.0000 0.0000
# 3 44.3241 26.6703 73.7658 0.0000 0.0000 0.0000
# 4 0.0000 0.0000 0.0000 14.5167 0.0000 0.0000
# 5 0.0000 0.0000 0.0000 0.0000 27.6380 0.0000
# 6 0.0000 0.0000 0.0000 0.0000 0.0000 14.7899
#
#
#
# Elastic Compliance Matrix: (Units=1/GPa)
#
#
# Indices 1 2 3 4 5 6 
#
# 1 0.013235 -0.004750 -0.006235 0.000000 0.000000 0.000000
# 2 -0.004750 0.027877 -0.007225 0.000000 0.000000 0.000000
# 3 -0.006235 -0.007225 0.019915 0.000000 0.000000 0.000000
# 4 0.000000 0.000000 0.000000 0.068886 0.000000 0.000000
# 5 0.000000 0.000000 0.000000 0.000000 0.036182 0.000000
# 6 0.000000 0.000000 0.000000 0.000000 0.000000 0.067614
#
#
# Mechanical properties :
#
#
# Convention : Reuss Voigt Hill
#
# Bulk Modulus (GPa) = 40.63869 47.79886 44.21878
# Shear Modulus (GPa) = 17.96418 19.92195 18.94307
#
# Velocity S-wave (km/s) = 3.53709 3.72484 3.63218
# Velocity P-wave (km/s) = 6.70699 7.19641 6.95601
#
# Compressibility (1/GPa) = 0.02460709
#
# Stress axis : x y z
#
# Youngs Moduli (GPa) = 75.55612 35.87241 50.21240
#
# Poissons Ratio (x) = 0.17038 0.31310
# Poissons Ratio (y) = 0.35886 0.36278
# Poissons Ratio (z) = 0.47113 0.25918
#
# Static dielectric constant tensor:
#      x y z
#    x 2.900660 0.000000 0.000000 
#    y 0.000000 2.434920 0.000000 
#    z 0.000000 0.000000 2.714590 
# 
# 
# High freq. dielectric constant tensor:
#      x y z
#    x 1.569490 0.000000 0.000000 
#    y 0.000000 1.489660 0.000000 
#    z 0.000000 0.000000 1.536160 
# 
# From -- ./inp_files/29872.got.cif
#   From: 2010.03.12/outbox.cif.g09.slc.cpg/sg59_15_cif.got.tgz:29872.got - 2010.04.16 16:29:54.
