data_PCOD8239020
_publ_section_title
;
Structure prediction by ZEFSAII (Michael W. Deem and Ramdas Pophale) SiO2 
 PCOD8239020
Probable space group: P M M N
;
_chemical_formula_sum "Si O2"
_cell_formula_units_Z 56
_cell_length_a 8.614508
_cell_length_b 19.645263
_cell_length_c 18.324486
_cell_angle_alpha 90.000000
_cell_angle_beta 90.000000
_cell_angle_gamma 90.000000
_cell_volume 3101.131108
_symmetry_space_group_name_H-M "P M M N"
_symmetry_group_IT_number 59
_space_group.IT_coordinate_system_code '2'
_symmetry_cell_setting 'orthorhombic'
loop_
_space_group_symop_operation_xyz
x,y,z
1/2-x,1/2-y,z
1/2+x,-y,-z
-x,1/2+y,-z
-x,-y,-z
1/2+x,1/2+y,-z
1/2-x,y,z
x,1/2-y,z
loop_
_atom_site_type_symbol
_atom_site_label
_atom_site_fract_x
_atom_site_fract_y
_atom_site_fract_z
Si Si1 0.432499 0.076004 0.502929
Si Si2 0.934665 0.174466 0.078385
Si Si3 0.428403 0.829490 0.085725
Si Si4 0.567841 0.426904 0.646281
Si Si5 0.566459 0.426964 0.198611
Si Si6 0.430417 0.924756 0.641833
Si Si7 0.931491 0.580400 0.207468
O O1 0.250000 0.076097 0.513119
O O2 0.512740 0.113615 0.572833
O O3 0.477122 0.111278 0.425215
O O4 0.500000 0.000000 0.500000
O O5 0.750000 0.176250 0.083885
O O6 0.999620 0.250000 0.096000
O O7 0.007630 0.120913 0.135980
O O8 0.982139 0.152781 0.996571
O O9 0.250000 0.850485 0.098173
O O10 0.451740 0.750000 0.101375
O O11 0.537349 0.871758 0.139047
O O12 0.750000 0.441399 0.642831
O O13 0.468923 0.495778 0.646261
O O14 0.521356 0.388808 0.721416
O O15 0.750000 0.428607 0.189213
O O16 0.523590 0.395029 0.278344
O O17 0.504237 0.504258 0.190228
O O18 0.250000 0.914878 0.625675
O O19 0.750000 0.579132 0.224957
#
# Coordination Sequence:
#
# PCOD8239020 Si02
#       7
#     8   8   8   8   8   8   8
#     4  10  16  23  36  56  84 117 152 185 221 268
#     4   8  14  27  47  68  90 118 152 188 225 265
#     4   9  18  32  49  68  89 115 151 191 225 264
#     4  10  17  26  40  59  85 116 150 186 225 268
#     4   8  15  26  41  64  93 121 150 187 227 267
#     4   9  15  24  37  57  88 120 149 184 226 270
#     4  10  19  30  44  65  94 122 148 183 229 277
#
# _framework density 18.057926999999999
#
# number of rings (size 3 to 8) (size 9 to 14) (size 15 to 20)
#    0.000    2.857    0.000    6.857    0.000    0.857 
#    0.000    0.000    0.000    4.286    0.000    1.000 
#    0.000    5.714    0.000    0.000    0.000    0.000 
#
# Total GULP energy -693833.780729 kJ/mol
# GULP energy per Si atom -12389.888942 kJ/mol
# Density = 1.801683 g / cm^3
# Si number density = 18.057927 Si / 1000 Ang^3
#
#
#
# Elastic Constant Matrix: (Units=GPa)
#
#
# Indices 1 2 3 4 5 6 
#
# 1 62.8656 16.7369 40.3899 0.0000 0.0000 0.0000
# 2 16.7369 40.3060 51.9604 0.0000 0.0000 0.0000
# 3 40.3899 51.9604 174.7785 0.0000 0.0000 0.0000
# 4 0.0000 0.0000 0.0000 2.7164 0.0000 0.0000
# 5 0.0000 0.0000 0.0000 0.0000 26.9107 0.0000
# 6 0.0000 0.0000 0.0000 0.0000 0.0000 11.8559
#
#
#
# Elastic Compliance Matrix: (Units=1/GPa)
#
#
# Indices 1 2 3 4 5 6 
#
# 1 0.019000 -0.003615 -0.003316 0.000000 0.000000 0.000000
# 2 -0.003615 0.040915 -0.011328 0.000000 0.000000 0.000000
# 3 -0.003316 -0.011328 0.009856 0.000000 0.000000 0.000000
# 4 0.000000 0.000000 0.000000 0.368138 0.000000 0.000000
# 5 0.000000 0.000000 0.000000 0.000000 0.037160 0.000000
# 6 0.000000 0.000000 0.000000 0.000000 0.000000 0.084346
#
#
# Mechanical properties :
#
#
# Convention : Reuss Voigt Hill
#
# Bulk Modulus (GPa) = 30.07313 55.12496 42.59904
# Shear Modulus (GPa) = 8.23699 19.55412 13.89556
#
# Velocity S-wave (km/s) = 2.13807 3.29425 2.77699
# Velocity P-wave (km/s) = 4.77336 6.71285 5.82440
#
# Compressibility (1/GPa) = 0.03325227
#
# Stress axis : x y z
#
# Youngs Moduli (GPa) = 52.63210 24.44075 101.46387
#
# Poissons Ratio (x) = 0.08835 0.33646
# Poissons Ratio (y) = 0.19025 1.14943
# Poissons Ratio (z) = 0.17453 0.27688
#
# Static dielectric constant tensor:
#      x y z
#    x 3.071740 0.000000 0.000000 
#    y 0.000000 3.011350 0.000000 
#    z 0.000000 0.000000 4.446870 
# 
# 
# High freq. dielectric constant tensor:
#      x y z
#    x 1.681870 0.000000 0.000000 
#    y 0.000000 1.627320 0.000000 
#    z 0.000000 0.000000 1.731530 
# 
# From -- ./inp_files/26063.got.cif
#   From: 2010.03.12/outbox.cif.g09.slc.cpg/sg59_14_cif.got.tgz:26063.got - 2010.04.16 16:29:54.
