data_PCOD8239279
_publ_section_title
;
Structure prediction by ZEFSAII (Michael W. Deem and Ramdas Pophale) SiO2 
 PCOD8239279
Probable space group: P M M N
;
_chemical_formula_sum "Si O2"
_cell_formula_units_Z 48
_cell_length_a 9.441582
_cell_length_b 21.284908
_cell_length_c 15.252261
_cell_angle_alpha 90.000000
_cell_angle_beta 90.000000
_cell_angle_gamma 90.000000
_cell_volume 3065.143243
_symmetry_space_group_name_H-M "P M M N"
_symmetry_group_IT_number 59
_space_group.IT_coordinate_system_code '2'
_symmetry_cell_setting 'orthorhombic'
loop_
_space_group_symop_operation_xyz
x,y,z
1/2-x,1/2-y,z
1/2+x,-y,-z
-x,1/2+y,-z
-x,-y,-z
1/2+x,1/2+y,-z
1/2-x,y,z
x,1/2-y,z
loop_
_atom_site_type_symbol
_atom_site_label
_atom_site_fract_x
_atom_site_fract_y
_atom_site_fract_z
Si Si1 0.914319 0.528606 0.702199
Si Si2 0.086870 0.588326 0.048143
Si Si3 0.087830 0.051772 0.107051
Si Si4 0.583392 0.598092 0.335511
Si Si5 0.085789 0.677018 0.203985
Si Si6 0.909995 0.939997 0.517954
O O1 0.750000 0.505760 0.707506
O O2 0.952452 0.565606 0.791557
O O3 0.936841 0.578027 0.620582
O O4 0.013430 0.467795 0.692586
O O5 0.250000 0.596826 0.024737
O O6 0.053494 0.521310 0.091202
O O7 0.035826 0.641132 0.116343
O O8 0.003224 0.595988 0.956772
O O9 0.250000 0.067321 0.086872
O O10 0.750000 0.596503 0.312218
O O11 0.508492 0.655190 0.285890
O O12 0.558407 0.610814 0.440976
O O13 0.250000 0.662102 0.224266
O O14 0.058981 0.750000 0.188078
O O15 0.750000 0.962444 0.506674
O O16 0.000000 0.000000 0.500000
#
# Coordination Sequence:
#
# PCOD8239279 Si02
#       6
#     8   8   8   8   8   8
#     4   9  15  27  44  62  88 119 148 170 203 260
#     4   9  17  29  42  61  85 110 143 181 218 259
#     4   9  16  26  43  64  86 114 142 173 216 262
#     4  10  18  27  41  64  91 114 142 180 220 252
#     4  10  20  34  49  62  81 116 155 183 214 261
#     4   8  15  25  39  60  86 115 140 168 204 247
#
# _framework density 15.659953
#
# number of rings (size 3 to 8) (size 9 to 14) (size 15 to 20)
#    0.000    2.833    1.667    0.500    0.000    2.333 
#    0.000    0.000    0.000    0.000    0.000    1.167 
#    0.000    6.667    0.000    0.000    0.000    0.000 
#
# Total GULP energy -594656.218471 kJ/mol
# GULP energy per Si atom -12388.671218 kJ/mol
# Density = 1.562431 g / cm^3
# Si number density = 15.659953 Si / 1000 Ang^3
#
#
#
# Elastic Constant Matrix: (Units=GPa)
#
#
# Indices 1 2 3 4 5 6 
#
# 1 59.2973 27.6524 57.8588 0.0000 0.0000 0.0000
# 2 27.6524 50.1795 45.4288 0.0000 0.0000 0.0000
# 3 57.8588 45.4288 166.3443 0.0000 0.0000 0.0000
# 4 0.0000 0.0000 0.0000 17.0115 0.0000 0.0000
# 5 0.0000 0.0000 0.0000 0.0000 26.3757 0.0000
# 6 0.0000 0.0000 0.0000 0.0000 0.0000 14.9694
#
#
#
# Elastic Compliance Matrix: (Units=1/GPa)
#
#
# Indices 1 2 3 4 5 6 
#
# 1 0.028205 -0.008849 -0.007394 0.000000 0.000000 0.000000
# 2 -0.008849 0.029250 -0.004910 0.000000 0.000000 0.000000
# 3 -0.007394 -0.004910 0.009924 0.000000 0.000000 0.000000
# 4 0.000000 0.000000 0.000000 0.058784 0.000000 0.000000
# 5 0.000000 0.000000 0.000000 0.000000 0.037914 0.000000
# 6 0.000000 0.000000 0.000000 0.000000 0.000000 0.066803
#
#
# Mechanical properties :
#
#
# Convention : Reuss Voigt Hill
#
# Bulk Modulus (GPa) = 39.88294 59.74455 49.81375
# Shear Modulus (GPa) = 17.75915 21.33007 19.54461
#
# Velocity S-wave (km/s) = 3.37122 3.69464 3.53663
# Velocity P-wave (km/s) = 6.37784 7.51229 6.96819
#
# Compressibility (1/GPa) = 0.02507338
#
# Stress axis : x y z
#
# Youngs Moduli (GPa) = 35.45431 34.18752 100.76188
#
# Poissons Ratio (x) = 0.30254 0.74501
# Poissons Ratio (y) = 0.31375 0.49477
# Poissons Ratio (z) = 0.26214 0.16787
#
# Static dielectric constant tensor:
#      x y z
#    x 3.044660 0.000000 0.000000 
#    y 0.000000 2.375600 0.000000 
#    z 0.000000 0.000000 3.667810 
# 
# 
# High freq. dielectric constant tensor:
#      x y z
#    x 1.607190 0.000000 0.000000 
#    y 0.000000 1.532050 0.000000 
#    z 0.000000 0.000000 1.622940 
# 
# From -- ./inp_files/20740.got.cif
#   From: 2010.03.12/outbox.cif.g09.slc.cpg/sg59_11_cif.got.tgz:20740.got - 2010.04.16 16:29:54.
