data_PCOD8239630
_publ_section_title
;
Structure prediction by ZEFSAII (Michael W. Deem and Ramdas Pophale) SiO2 
 PCOD8239630
Probable space group: P M M N
;
_chemical_formula_sum "Si O2"
_cell_formula_units_Z 64
_cell_length_a 9.124517
_cell_length_b 14.094924
_cell_length_c 25.871693
_cell_angle_alpha 90.000000
_cell_angle_beta 90.000000
_cell_angle_gamma 90.000000
_cell_volume 3327.342232
_symmetry_space_group_name_H-M "P M M N"
_symmetry_group_IT_number 59
_space_group.IT_coordinate_system_code '2'
_symmetry_cell_setting 'orthorhombic'
loop_
_space_group_symop_operation_xyz
x,y,z
1/2-x,1/2-y,z
1/2+x,-y,-z
-x,1/2+y,-z
-x,-y,-z
1/2+x,1/2+y,-z
1/2-x,y,z
x,1/2-y,z
loop_
_atom_site_type_symbol
_atom_site_label
_atom_site_fract_x
_atom_site_fract_y
_atom_site_fract_z
Si Si1 0.084620 0.637295 0.475605
Si Si2 0.924133 0.645134 0.971523
Si Si3 0.421389 0.358888 0.912934
Si Si4 0.424212 0.142907 0.225303
Si Si5 0.077631 0.359798 0.628055
Si Si6 0.920059 0.859047 0.575680
Si Si7 0.577609 0.523544 0.676658
Si Si8 0.576128 0.529286 0.874442
O O1 0.250000 0.597616 0.471252
O O2 0.082907 0.750000 0.479147
O O3 0.995998 0.604846 0.425191
O O4 0.008334 0.596454 0.527272
O O5 0.750000 0.647699 0.969927
O O6 0.985002 0.750000 0.959288
O O7 0.984783 0.575889 0.927349
O O8 0.975206 0.614575 0.028888
O O9 0.250000 0.377783 0.906815
O O10 0.459251 0.250000 0.900445
O O11 0.508013 0.424021 0.872044
O O12 0.250000 0.148322 0.225865
O O13 0.488301 0.250000 0.227817
O O14 0.479841 0.081734 0.273890
O O15 0.480820 0.091692 0.173452
O O16 0.250000 0.376493 0.624026
O O17 0.040792 0.250000 0.639777
O O18 0.008588 0.423480 0.673851
O O19 0.750000 0.869207 0.562268
O O20 0.962773 0.750000 0.585308
O O21 0.963776 0.914683 0.626909
O O22 0.750000 0.502545 0.680450
O O23 0.750000 0.521217 0.873320
#
# Coordination Sequence:
#
# PCOD8239630 Si02
#       8
#     8   8   8   8   8   8   8   8
#     4   9  17  30  50  76 104 133 165 202 244 292
#     4   8  14  26  46  73 103 135 171 208 251 306
#     4   9  18  32  48  68 101 143 177 206 248 303
#     4   9  18  34  56  81 106 130 161 204 253 303
#     4  10  21  37  55  74  99 131 166 206 251 297
#     4   9  17  30  49  74 104 135 165 198 241 296
#     4  10  20  34  54  77  99 129 168 207 248 294
#     4  10  18  29  51  79 102 129 169 216 258 295
#
# _framework density 19.234570999999999
#
# number of rings (size 3 to 8) (size 9 to 14) (size 15 to 20)
#    0.000    2.750    0.000    2.625    0.000    6.500 
#    0.000    1.250    0.000    7.875    0.000    0.000 
#    0.000    0.000    0.000    0.000    0.000    0.000 
#
# Total GULP energy -793521.544746 kJ/mol
# GULP energy per Si atom -12398.774137 kJ/mol
# Density = 1.919079 g / cm^3
# Si number density = 19.234571 Si / 1000 Ang^3
#
#
#
# Elastic Constant Matrix: (Units=GPa)
#
#
# Indices 1 2 3 4 5 6 
#
# 1 52.3410 43.1903 38.0658 0.0000 0.0000 0.0000
# 2 43.1903 119.2309 79.8995 0.0000 0.0000 0.0000
# 3 38.0658 79.8995 109.1673 0.0000 0.0000 0.0000
# 4 0.0000 0.0000 0.0000 34.0109 0.0000 0.0000
# 5 0.0000 0.0000 0.0000 0.0000 19.6955 0.0000
# 6 0.0000 0.0000 0.0000 0.0000 0.0000 26.8368
#
#
#
# Elastic Compliance Matrix: (Units=1/GPa)
#
#
# Indices 1 2 3 4 5 6 
#
# 1 0.028410 -0.007169 -0.004659 0.000000 0.000000 0.000000
# 2 -0.007169 0.018269 -0.010872 0.000000 0.000000 0.000000
# 3 -0.004659 -0.010872 0.018742 0.000000 0.000000 0.000000
# 4 0.000000 0.000000 0.000000 0.029402 0.000000 0.000000
# 5 0.000000 0.000000 0.000000 0.000000 0.050773 0.000000
# 6 0.000000 0.000000 0.000000 0.000000 0.000000 0.037262
#
#
# Mechanical properties :
#
#
# Convention : Reuss Voigt Hill
#
# Bulk Modulus (GPa) = 49.94697 67.00558 58.47628
# Shear Modulus (GPa) = 21.28282 24.08087 22.68185
#
# Velocity S-wave (km/s) = 3.33000 3.54214 3.43771
# Velocity P-wave (km/s) = 6.38818 7.18614 6.79888
#
# Compressibility (1/GPa) = 0.02002123
#
# Stress axis : x y z
#
# Youngs Moduli (GPa) = 35.19944 54.73700 53.35664
#
# Poissons Ratio (x) = 0.39240 0.24861
# Poissons Ratio (y) = 0.25234 0.58007
# Poissons Ratio (z) = 0.16401 0.59507
#
# Static dielectric constant tensor:
#      x y z
#    x 3.161350 0.000000 0.000000 
#    y 0.000000 3.636010 0.000000 
#    z 0.000000 0.000000 3.540040 
# 
# 
# High freq. dielectric constant tensor:
#      x y z
#    x 1.713880 0.000000 0.000000 
#    y 0.000000 1.759870 0.000000 
#    z 0.000000 0.000000 1.735480 
# 
# From -- ./inp_files/31548.got.cif
#   From: 2010.03.12/outbox.cif.g09.slc.cpg/sg59_16_cif.got.tgz:31548.got - 2010.04.16 16:29:54.
