data_PCOD8239204
_publ_section_title
;
Structure prediction by ZEFSAII (Michael W. Deem and Ramdas Pophale) SiO2 
 PCOD8239204
Probable space group: P M M N
;
_chemical_formula_sum "Si O2"
_cell_formula_units_Z 64
_cell_length_a 8.841082
_cell_length_b 31.086871
_cell_length_c 12.006992
_cell_angle_alpha 90.000000
_cell_angle_beta 90.000000
_cell_angle_gamma 90.000000
_cell_volume 3300.020600
_symmetry_space_group_name_H-M "P M M N"
_symmetry_group_IT_number 59
_space_group.IT_coordinate_system_code '2'
_symmetry_cell_setting 'orthorhombic'
loop_
_space_group_symop_operation_xyz
x,y,z
1/2-x,1/2-y,z
1/2+x,-y,-z
-x,1/2+y,-z
-x,-y,-z
1/2+x,1/2+y,-z
1/2-x,y,z
x,1/2-y,z
loop_
_atom_site_type_symbol
_atom_site_label
_atom_site_fract_x
_atom_site_fract_y
_atom_site_fract_z
Si Si1 0.928212 0.083732 0.252064
Si Si2 0.571017 0.454082 0.019072
Si Si3 0.928747 0.297330 0.488813
Si Si4 0.071602 0.954149 0.520124
Si Si5 0.429753 0.122340 0.879974
Si Si6 0.429643 0.820527 0.753737
Si Si7 0.075821 0.297226 0.023793
Si Si8 0.429172 0.624060 0.361377
O O1 0.750000 0.087387 0.266788
O O2 0.996347 0.062234 0.362640
O O3 0.994234 0.131251 0.237223
O O4 0.974562 0.056458 0.145179
O O5 0.750000 0.454952 0.000522
O O6 0.501210 0.419560 0.935584
O O7 0.500000 0.500000 0.000000
O O8 0.750000 0.302756 0.484075
O O9 0.975086 0.250000 0.535227
O O10 0.990701 0.301298 0.362678
O O11 0.991534 0.335159 0.567749
O O12 0.250000 0.959791 0.526584
O O13 0.027779 0.919987 0.424688
O O14 0.000000 0.000000 0.500000
O O15 0.250000 0.118463 0.882968
O O16 0.484183 0.124881 0.754091
O O17 0.488621 0.165354 0.943348
O O18 0.250000 0.818332 0.759114
O O19 0.492167 0.794646 0.858282
O O20 0.250000 0.306888 0.047614
O O21 0.053798 0.250000 0.967179
O O22 0.250000 0.627231 0.341378
#
# Coordination Sequence:
#
# PCOD8239204 Si02
#       8
#     8   8   8   8   8   8   8   8
#     4   9  18  35  60  85 115 148 179 228 285 335
#     4  11  23  40  62  89 120 152 191 237 289 344
#     4   9  17  31  56  88 116 144 182 230 286 346
#     4  10  21  38  58  84 115 149 185 227 281 336
#     4  11  24  41  59  81 113 155 200 242 287 341
#     4  10  17  33  60  89 116 145 184 232 287 345
#     4  10  22  39  57  81 116 154 190 236 293 345
#     4  10  21  38  58  81 114 150 187 236 287 335
#
# _framework density 19.393816999999999
#
# number of rings (size 3 to 8) (size 9 to 14) (size 15 to 20)
#    0.000    2.000    2.500    1.125    1.750    2.250 
#    0.000    1.875    0.000    0.750    0.000    0.000 
#    0.000    0.000    0.000    0.000    0.000    0.000 
#
# Total GULP energy -793489.061657 kJ/mol
# GULP energy per Si atom -12398.266588 kJ/mol
# Density = 1.934968 g / cm^3
# Si number density = 19.393817 Si / 1000 Ang^3
#
#
#
# Elastic Constant Matrix: (Units=GPa)
#
#
# Indices 1 2 3 4 5 6 
#
# 1 38.2327 37.6547 40.3180 0.0000 0.0000 0.0000
# 2 37.6547 177.5199 73.5004 0.0000 0.0000 0.0000
# 3 40.3180 73.5004 146.9024 0.0000 0.0000 0.0000
# 4 0.0000 0.0000 0.0000 28.6558 0.0000 0.0000
# 5 0.0000 0.0000 0.0000 0.0000 22.3088 0.0000
# 6 0.0000 0.0000 0.0000 0.0000 0.0000 22.2090
#
#
#
# Elastic Compliance Matrix: (Units=1/GPa)
#
#
# Indices 1 2 3 4 5 6 
#
# 1 0.040007 -0.004969 -0.008494 0.000000 0.000000 0.000000
# 2 -0.004969 0.007722 -0.002500 0.000000 0.000000 0.000000
# 3 -0.008494 -0.002500 0.010389 0.000000 0.000000 0.000000
# 4 0.000000 0.000000 0.000000 0.034897 0.000000 0.000000
# 5 0.000000 0.000000 0.000000 0.000000 0.044825 0.000000
# 6 0.000000 0.000000 0.000000 0.000000 0.000000 0.045027
#
#
# Mechanical properties :
#
#
# Convention : Reuss Voigt Hill
#
# Bulk Modulus (GPa) = 38.17901 73.95570 56.06736
# Shear Modulus (GPa) = 22.36898 28.71353 25.54125
#
# Velocity S-wave (km/s) = 3.39987 3.85197 3.63296
# Velocity P-wave (km/s) = 5.92799 7.61577 6.82426
#
# Compressibility (1/GPa) = 0.02619240
#
# Stress axis : x y z
#
# Youngs Moduli (GPa) = 24.99576 129.49531 96.25421
#
# Poissons Ratio (x) = 0.64350 0.81756
# Poissons Ratio (y) = 0.12421 0.24062
# Poissons Ratio (z) = 0.21231 0.32372
#
# Static dielectric constant tensor:
#      x y z
#    x 3.222950 0.000000 0.000000 
#    y 0.000000 3.823030 0.000000 
#    z 0.000000 0.000000 3.711770 
# 
# 
# High freq. dielectric constant tensor:
#      x y z
#    x 1.722130 0.000000 0.000000 
#    y 0.000000 1.775670 0.000000 
#    z 0.000000 0.000000 1.760870 
# 
# From -- ./inp_files/14955.got.cif
#   From: 2010.03.12/outbox.cif.g09.slc.cpg/sg59_8_cif.got.tgz:14955.got - 2010.04.16 16:29:54.
