data_PCOD8239511
_publ_section_title
;
Structure prediction by ZEFSAII (Michael W. Deem and Ramdas Pophale) SiO2 
 PCOD8239511
Probable space group: P M M N
;
_chemical_formula_sum "Si O2"
_cell_formula_units_Z 56
_cell_length_a 14.018317
_cell_length_b 14.640912
_cell_length_c 15.205737
_cell_angle_alpha 90.000000
_cell_angle_beta 90.000000
_cell_angle_gamma 90.000000
_cell_volume 3120.839840
_symmetry_space_group_name_H-M "P M M N"
_symmetry_group_IT_number 59
_space_group.IT_coordinate_system_code '2'
_symmetry_cell_setting 'orthorhombic'
loop_
_space_group_symop_operation_xyz
x,y,z
1/2-x,1/2-y,z
1/2+x,-y,-z
-x,1/2+y,-z
-x,-y,-z
1/2+x,1/2+y,-z
1/2-x,y,z
x,1/2-y,z
loop_
_atom_site_type_symbol
_atom_site_label
_atom_site_fract_x
_atom_site_fract_y
_atom_site_fract_z
Si Si1 0.141765 0.460036 0.339881
Si Si2 0.144365 0.651680 0.419980
Si Si3 0.856430 0.856633 0.331812
Si Si4 0.482787 0.356292 0.829174
Si Si5 0.138997 0.004662 0.147062
Si Si6 0.361628 0.352603 0.000785
Si Si7 0.031727 0.397889 0.493763
O O1 0.250000 0.442249 0.367581
O O2 0.117161 0.568328 0.355513
O O3 0.124045 0.439876 0.237969
O O4 0.080477 0.388376 0.397969
O O5 0.250000 0.636952 0.460976
O O6 0.141121 0.750000 0.368936
O O7 0.065636 0.660292 0.497796
O O8 0.750000 0.900152 0.322391
O O9 0.848394 0.750000 0.314177
O O10 0.930002 0.895489 0.258587
O O11 0.893653 0.874338 0.429884
O O12 0.510755 0.250000 0.819036
O O13 0.578478 0.411978 0.851175
O O14 0.410542 0.372783 0.908603
O O15 0.250000 0.977347 0.135389
O O16 0.102616 0.073437 0.071839
O O17 0.250000 0.363423 0.984994
O O18 0.386149 0.250000 0.034197
O O19 0.000000 0.500000 0.500000
#
# Coordination Sequence:
#
# PCOD8239511 Si02
#       7
#     8   8   8   8   8   8   8
#     4   9  18  31  46  65  92 126 159 193 234 280
#     4   9  17  29  45  65  90 122 158 194 236 286
#     4  10  20  33  50  73  98 123 156 200 247 293
#     4  10  19  32  52  77 103 128 156 197 251 303
#     4  10  20  33  50  74 102 131 165 200 236 288
#     4   9  18  34  54  73  96 129 167 206 245 284
#     4  10  18  29  45  65  92 124 156 189 228 275
#
# _framework density 17.943888000000001
#
# number of rings (size 3 to 8) (size 9 to 14) (size 15 to 20)
#    0.000    2.429    0.000    3.429    0.000    4.286 
#    0.000    2.857    0.000    3.429    0.000    0.000 
#    0.000    0.000    0.000    0.000    0.000    0.429 
#
# Total GULP energy -693850.073517 kJ/mol
# GULP energy per Si atom -12390.179884 kJ/mol
# Density = 1.790305 g / cm^3
# Si number density = 17.943888 Si / 1000 Ang^3
#
#
#
# Elastic Constant Matrix: (Units=GPa)
#
#
# Indices 1 2 3 4 5 6 
#
# 1 84.3998 29.3442 30.7893 0.0000 0.0000 0.0000
# 2 29.3442 47.6969 27.9317 0.0000 0.0000 0.0000
# 3 30.7893 27.9317 90.4832 0.0000 0.0000 0.0000
# 4 0.0000 0.0000 0.0000 23.7679 0.0000 0.0000
# 5 0.0000 0.0000 0.0000 0.0000 20.8077 0.0000
# 6 0.0000 0.0000 0.0000 0.0000 0.0000 25.9680
#
#
#
# Elastic Compliance Matrix: (Units=1/GPa)
#
#
# Indices 1 2 3 4 5 6 
#
# 1 0.015662 -0.007952 -0.002875 0.000000 0.000000 0.000000
# 2 -0.007952 0.029630 -0.006441 0.000000 0.000000 0.000000
# 3 -0.002875 -0.006441 0.014018 0.000000 0.000000 0.000000
# 4 0.000000 0.000000 0.000000 0.042074 0.000000 0.000000
# 5 0.000000 0.000000 0.000000 0.000000 0.048059 0.000000
# 6 0.000000 0.000000 0.000000 0.000000 0.000000 0.038509
#
#
# Mechanical properties :
#
#
# Convention : Reuss Voigt Hill
#
# Bulk Modulus (GPa) = 40.36324 44.30116 42.33220
# Shear Modulus (GPa) = 21.66900 23.07636 22.37268
#
# Velocity S-wave (km/s) = 3.47882 3.59001 3.53486
# Velocity P-wave (km/s) = 6.21926 6.47507 6.34846
#
# Compressibility (1/GPa) = 0.02477502
#
# Stress axis : x y z
#
# Youngs Moduli (GPa) = 63.84951 33.74984 71.33622
#
# Poissons Ratio (x) = 0.26838 0.20506
# Poissons Ratio (y) = 0.50774 0.45945
# Poissons Ratio (z) = 0.18354 0.21737
#
# Static dielectric constant tensor:
#      x y z
#    x 4.012960 0.000000 0.000000 
#    y 0.000000 3.428560 0.000000 
#    z 0.000000 0.000000 3.486790 
# 
# 
# High freq. dielectric constant tensor:
#      x y z
#    x 1.708080 0.000000 0.000000 
#    y 0.000000 1.673820 0.000000 
#    z 0.000000 0.000000 1.681540 
# 
# From -- ./inp_files/23312.got.cif
#   From: 2010.03.12/outbox.cif.g09.slc.cpg/sg59_12_cif.got.tgz:23312.got - 2010.04.16 16:29:54.
