data_PCOD8239544
_publ_section_title
;
Structure prediction by ZEFSAII (Michael W. Deem and Ramdas Pophale) SiO2 
 PCOD8239544
Probable space group: P M M N
;
_chemical_formula_sum "Si O2"
_cell_formula_units_Z 64
_cell_length_a 8.952877
_cell_length_b 28.675421
_cell_length_c 15.710306
_cell_angle_alpha 90.000000
_cell_angle_beta 90.000000
_cell_angle_gamma 90.000000
_cell_volume 4033.267853
_symmetry_space_group_name_H-M "P M M N"
_symmetry_group_IT_number 59
_space_group.IT_coordinate_system_code '2'
_symmetry_cell_setting 'orthorhombic'
loop_
_space_group_symop_operation_xyz
x,y,z
1/2-x,1/2-y,z
1/2+x,-y,-z
-x,1/2+y,-z
-x,-y,-z
1/2+x,1/2+y,-z
1/2-x,y,z
x,1/2-y,z
loop_
_atom_site_type_symbol
_atom_site_label
_atom_site_fract_x
_atom_site_fract_y
_atom_site_fract_z
Si Si1 0.573424 0.300181 0.090778
Si Si2 0.076230 0.952632 0.680004
Si Si3 0.426283 0.108192 0.837897
Si Si4 0.926832 0.550212 0.997152
Si Si5 0.074497 0.896734 0.844004
Si Si6 0.578540 0.048453 0.503967
Si Si7 0.075669 0.802894 0.101206
Si Si8 0.925762 0.447654 0.687753
O O1 0.750000 0.296812 0.085840
O O2 0.510643 0.250000 0.124325
O O3 0.524125 0.342428 0.151970
O O4 0.515301 0.309249 0.995094
O O5 0.250000 0.967022 0.688046
O O6 0.032610 0.914676 0.750506
O O7 0.044839 0.927249 0.587722
O O8 0.978664 0.998792 0.694174
O O9 0.250000 0.109419 0.831660
O O10 0.479934 0.079782 0.921073
O O11 0.486747 0.160995 0.839900
O O12 0.488654 0.083751 0.754444
O O13 0.750000 0.544574 0.995534
O O14 0.000000 0.500000 0.000000
O O15 0.980614 0.574928 0.912030
O O16 0.250000 0.902597 0.864376
O O17 0.750000 0.036280 0.511977
O O18 0.533699 0.073700 0.592973
O O19 0.500000 0.000000 0.500000
O O20 0.250000 0.814779 0.107397
O O21 0.044694 0.750000 0.132540
O O22 0.750000 0.445729 0.707109
#
# Coordination Sequence:
#
# PCOD8239544 Si02
#       8
#     8   8   8   8   8   8   8   8
#     4   8  14  26  45  67  88 111 143 181 216 256
#     4   9  17  29  45  67  93 118 146 186 231 272
#     4  11  22  33  45  65  92 121 152 189 229 265
#     4  11  23  34  43  59  88 124 155 183 216 257
#     4  10  18  29  47  67  88 117 149 180 219 264
#     4   8  15  28  44  63  87 114 147 186 229 269
#     4   9  17  31  51  70  88 114 149 188 226 265
#     4  10  19  30  46  65  87 121 157 189 224 269
#
# _framework density 15.868026
#
# number of rings (size 3 to 8) (size 9 to 14) (size 15 to 20)
#    0.000    2.500    1.250    2.625    0.000    5.750 
#    0.000    0.000    0.000    0.375    0.000    0.875 
#    0.000    5.000    0.000    0.000    0.000    0.125 
#
# Total GULP energy -792976.075179 kJ/mol
# GULP energy per Si atom -12390.251175 kJ/mol
# Density = 1.583191 g / cm^3
# Si number density = 15.868026 Si / 1000 Ang^3
#
#
#
# Elastic Constant Matrix: (Units=GPa)
#
#
# Indices 1 2 3 4 5 6 
#
# 1 41.5655 29.8659 32.6704 0.0000 0.0000 0.0000
# 2 29.8659 107.7342 59.5802 0.0000 0.0000 0.0000
# 3 32.6704 59.5802 127.2303 0.0000 0.0000 0.0000
# 4 0.0000 0.0000 0.0000 6.8528 0.0000 0.0000
# 5 0.0000 0.0000 0.0000 0.0000 18.8666 0.0000
# 6 0.0000 0.0000 0.0000 0.0000 0.0000 20.2473
#
#
#
# Elastic Compliance Matrix: (Units=1/GPa)
#
#
# Indices 1 2 3 4 5 6 
#
# 1 0.032767 -0.005979 -0.005614 0.000000 0.000000 0.000000
# 2 -0.005979 0.013617 -0.004841 0.000000 0.000000 0.000000
# 3 -0.005614 -0.004841 0.011569 0.000000 0.000000 0.000000
# 4 0.000000 0.000000 0.000000 0.145925 0.000000 0.000000
# 5 0.000000 0.000000 0.000000 0.000000 0.053004 0.000000
# 6 0.000000 0.000000 0.000000 0.000000 0.000000 0.049389
#
#
# Mechanical properties :
#
#
# Convention : Reuss Voigt Hill
#
# Bulk Modulus (GPa) = 39.86635 57.86254 48.86445
# Shear Modulus (GPa) = 14.38846 19.48759 16.93802
#
# Velocity S-wave (km/s) = 3.01451 3.50823 3.27070
# Velocity P-wave (km/s) = 6.10693 7.27697 6.71747
#
# Compressibility (1/GPa) = 0.02508381
#
# Stress axis : x y z
#
# Youngs Moduli (GPa) = 30.51843 73.43776 86.44141
#
# Poissons Ratio (x) = 0.43907 0.48530
# Poissons Ratio (y) = 0.18246 0.41850
# Poissons Ratio (z) = 0.17134 0.35554
#
# Static dielectric constant tensor:
#      x y z
#    x 2.793270 0.000000 0.000000 
#    y 0.000000 2.843990 0.000000 
#    z 0.000000 0.000000 3.475030 
# 
# 
# High freq. dielectric constant tensor:
#      x y z
#    x 1.604940 0.000000 0.000000 
#    y 0.000000 1.589090 0.000000 
#    z 0.000000 0.000000 1.606410 
# 
# From -- ./inp_files/21808.got.cif
#   From: 2010.03.12/outbox.cif.g09.slc.cpg/sg59_11_cif.got.tgz:21808.got - 2010.04.16 16:29:54.
