data_PCOD8239943
_publ_section_title
;
Structure prediction by ZEFSAII (Michael W. Deem and Ramdas Pophale) SiO2 
 PCOD8239943
Probable space group: P M M N
;
_chemical_formula_sum "Si O2"
_cell_formula_units_Z 64
_cell_length_a 14.761079
_cell_length_b 22.794778
_cell_length_c 9.956341
_cell_angle_alpha 90.000000
_cell_angle_beta 90.000000
_cell_angle_gamma 90.000000
_cell_volume 3350.065004
_symmetry_space_group_name_H-M "P M M N"
_symmetry_group_IT_number 59
_space_group.IT_coordinate_system_code '2'
_symmetry_cell_setting 'orthorhombic'
loop_
_space_group_symop_operation_xyz
x,y,z
1/2-x,1/2-y,z
1/2+x,-y,-z
-x,1/2+y,-z
-x,-y,-z
1/2+x,1/2+y,-z
1/2-x,y,z
x,1/2-y,z
loop_
_atom_site_type_symbol
_atom_site_label
_atom_site_fract_x
_atom_site_fract_y
_atom_site_fract_z
Si Si1 0.848556 0.888354 0.981489
Si Si2 0.974666 0.317011 0.719199
Si Si3 0.857953 0.076590 0.669588
Si Si4 0.019784 0.683814 0.964882
Si Si5 0.856492 0.485989 0.395398
Si Si6 0.595978 0.489092 0.930807
Si Si7 0.646261 0.890233 0.292728
Si Si8 0.649202 0.408218 0.158008
O O1 0.750000 0.860913 0.953240
O O2 0.859601 0.906719 0.136439
O O3 0.919686 0.840069 0.934752
O O4 0.859108 0.948355 0.897506
O O5 0.962019 0.250000 0.669974
O O6 0.898772 0.358051 0.649276
O O7 0.076642 0.337083 0.678136
O O8 0.958220 0.321602 0.878268
O O9 0.750000 0.080352 0.693327
O O10 0.911181 0.046869 0.792772
O O11 0.882770 0.036840 0.541827
O O12 0.023912 0.750000 0.914167
O O13 0.090939 0.648495 0.876702
O O14 0.750000 0.486048 0.369685
O O15 0.889271 0.553070 0.375704
O O16 0.897773 0.442124 0.283218
O O17 0.500000 0.500000 0.000000
O O18 0.656986 0.451634 0.031717
O O19 0.750000 0.872049 0.331520
O O20 0.750000 0.386204 0.194242
#
# Coordination Sequence:
#
# PCOD8239943 Si02
#       8
#     8   8   8   8   8   8   8   8
#     4  10  18  31  54  80 110 147 182 224 284 339
#     4  10  21  35  52  79 110 148 193 231 274 333
#     4  11  23  38  56  85 118 149 184 232 286 339
#     4  10  21  35  52  78 111 145 190 238 273 323
#     4   9  20  36  56  84 115 144 183 230 286 344
#     4  12  20  34  56  84 114 142 179 226 280 336
#     4   9  17  33  55  81 112 145 181 230 283 335
#     4  11  20  35  58  81 108 145 182 225 278 334
#
# _framework density 19.104106000000002
#
# number of rings (size 3 to 8) (size 9 to 14) (size 15 to 20)
#    0.000    1.750    3.750    1.875    0.000    1.500 
#    0.000    4.375    0.000    2.250    0.000    0.000 
#    0.000    5.000    0.000    0.000    0.000    0.000 
#
# Total GULP energy -793541.272164 kJ/mol
# GULP energy per Si atom -12399.082378 kJ/mol
# Density = 1.906062 g / cm^3
# Si number density = 19.104106 Si / 1000 Ang^3
#
#
#
# Elastic Constant Matrix: (Units=GPa)
#
#
# Indices 1 2 3 4 5 6 
#
# 1 88.7183 38.1083 25.9947 0.0000 0.0000 0.0000
# 2 38.1083 116.2345 38.4680 0.0000 0.0000 0.0000
# 3 25.9947 38.4680 77.6823 0.0000 0.0000 0.0000
# 4 0.0000 0.0000 0.0000 22.3264 0.0000 0.0000
# 5 0.0000 0.0000 0.0000 0.0000 17.5795 0.0000
# 6 0.0000 0.0000 0.0000 0.0000 0.0000 18.1361
#
#
#
# Elastic Compliance Matrix: (Units=1/GPa)
#
#
# Indices 1 2 3 4 5 6 
#
# 1 0.013612 -0.003534 -0.002805 0.000000 0.000000 0.000000
# 2 -0.003534 0.011207 -0.004367 0.000000 0.000000 0.000000
# 3 -0.002805 -0.004367 0.015974 0.000000 0.000000 0.000000
# 4 0.000000 0.000000 0.000000 0.044790 0.000000 0.000000
# 5 0.000000 0.000000 0.000000 0.000000 0.056884 0.000000
# 6 0.000000 0.000000 0.000000 0.000000 0.000000 0.055139
#
#
# Mechanical properties :
#
#
# Convention : Reuss Voigt Hill
#
# Bulk Modulus (GPa) = 51.59780 54.19746 52.89763
# Shear Modulus (GPa) = 22.17504 23.61268 22.89386
#
# Velocity S-wave (km/s) = 3.41067 3.51949 3.46551
# Velocity P-wave (km/s) = 6.52515 6.70424 6.61530
#
# Compressibility (1/GPa) = 0.01938067
#
# Stress axis : x y z
#
# Youngs Moduli (GPa) = 73.46686 89.22667 62.60169
#
# Poissons Ratio (x) = 0.31537 0.17557
# Poissons Ratio (y) = 0.25967 0.27339
# Poissons Ratio (z) = 0.20604 0.38966
#
# Static dielectric constant tensor:
#      x y z
#    x 3.536530 0.000000 0.000000 
#    y 0.000000 3.527870 0.000000 
#    z 0.000000 0.000000 3.232930 
# 
# 
# High freq. dielectric constant tensor:
#      x y z
#    x 1.750870 0.000000 0.000000 
#    y 0.000000 1.735870 0.000000 
#    z 0.000000 0.000000 1.707650 
# 
# From -- ./inp_files/9624.got.cif
#   From: 2010.03.12/outbox.cif.g09.slc.cpg/sg59_5_cif.got.tgz:9624.got - 2010.04.16 16:29:54.
