data_PCOD8239762
_publ_section_title
;
Structure prediction by ZEFSAII (Michael W. Deem and Ramdas Pophale) SiO2 
 PCOD8239762
Probable space group: P M M N
;
_chemical_formula_sum "Si O2"
_cell_formula_units_Z 48
_cell_length_a 8.927380
_cell_length_b 15.425679
_cell_length_c 19.344562
_cell_angle_alpha 90.000000
_cell_angle_beta 90.000000
_cell_angle_gamma 90.000000
_cell_volume 2663.957008
_symmetry_space_group_name_H-M "P M M N"
_symmetry_group_IT_number 59
_space_group.IT_coordinate_system_code '2'
_symmetry_cell_setting 'orthorhombic'
loop_
_space_group_symop_operation_xyz
x,y,z
1/2-x,1/2-y,z
1/2+x,-y,-z
-x,1/2+y,-z
-x,-y,-z
1/2+x,1/2+y,-z
1/2-x,y,z
x,1/2-y,z
loop_
_atom_site_type_symbol
_atom_site_label
_atom_site_fract_x
_atom_site_fract_y
_atom_site_fract_z
Si Si1 0.927772 0.345707 0.425365
Si Si2 0.072557 0.495663 0.667019
Si Si3 0.425519 0.750000 0.793169
Si Si4 0.922417 0.349858 0.581951
Si Si5 0.927880 0.925677 0.790285
Si Si6 0.080660 0.250000 0.066747
Si Si7 0.919512 0.562452 0.947991
O O1 0.750000 0.345426 0.424204
O O2 0.985049 0.250000 0.400735
O O3 0.989930 0.422491 0.377219
O O4 0.980803 0.363224 0.503751
O O5 0.250000 0.498778 0.676138
O O6 0.026641 0.406350 0.631429
O O7 0.993576 0.498415 0.742163
O O8 0.250000 0.750000 0.775760
O O9 0.500371 0.663836 0.761540
O O10 0.454717 0.750000 0.874904
O O11 0.750000 0.379520 0.589252
O O12 0.939938 0.250000 0.604130
O O13 0.750000 0.920444 0.785367
O O14 0.980681 0.943131 0.869355
O O15 0.250000 0.250000 0.100514
O O16 0.062239 0.161504 0.023068
O O17 0.750000 0.531759 0.948016
O O18 0.000000 0.500000 0.000000
#
# Coordination Sequence:
#
# PCOD8239762 Si02
#       7
#     8   8   4   8   8   4   8
#     4   8  16  31  50  75 106 137 171 211 260 315
#     4  11  21  31  51  80 107 135 173 224 268 303
#     4  10  18  30  50  76 104 134 169 210 253 302
#     4   9  18  35  56  72  95 139 182 215 264 322
#     4  10  21  36  51  73 108 145 176 207 258 324
#     4   8  16  32  50  74 106 140 165 194 251 316
#     4   9  18  33  55  77 103 136 172 211 253 303
#
# _framework density 18.018308999999999
#
# number of rings (size 3 to 8) (size 9 to 14) (size 15 to 20)
#    0.000    2.667    0.000    4.250    1.167    3.667 
#    0.000    0.833    1.833    2.000    0.000    0.000 
#    0.000    0.000    0.000    0.000    0.000    0.000 
#
# Total GULP energy -594939.139752 kJ/mol
# GULP energy per Si atom -12394.565411 kJ/mol
# Density = 1.797730 g / cm^3
# Si number density = 18.018309 Si / 1000 Ang^3
#
#
#
# Elastic Constant Matrix: (Units=GPa)
#
#
# Indices 1 2 3 4 5 6 
#
# 1 65.6046 34.9493 34.7466 0.0000 0.0000 0.0000
# 2 34.9493 101.4355 59.5997 0.0000 0.0000 0.0000
# 3 34.7466 59.5997 86.1234 0.0000 0.0000 0.0000
# 4 0.0000 0.0000 0.0000 31.0970 0.0000 0.0000
# 5 0.0000 0.0000 0.0000 0.0000 25.2704 0.0000
# 6 0.0000 0.0000 0.0000 0.0000 0.0000 31.1963
#
#
#
# Elastic Compliance Matrix: (Units=1/GPa)
#
#
# Indices 1 2 3 4 5 6 
#
# 1 0.020157 -0.003651 -0.005605 0.000000 0.000000 0.000000
# 2 -0.003651 0.017275 -0.010482 0.000000 0.000000 0.000000
# 3 -0.005605 -0.010482 0.021126 0.000000 0.000000 0.000000
# 4 0.000000 0.000000 0.000000 0.032157 0.000000 0.000000
# 5 0.000000 0.000000 0.000000 0.000000 0.039572 0.000000
# 6 0.000000 0.000000 0.000000 0.000000 0.000000 0.032055
#
#
# Mechanical properties :
#
#
# Convention : Reuss Voigt Hill
#
# Bulk Modulus (GPa) = 52.40733 56.86163 54.63448
# Shear Modulus (GPa) = 24.01759 25.77061 24.89410
#
# Velocity S-wave (km/s) = 3.65493 3.78596 3.72102
# Velocity P-wave (km/s) = 6.85274 7.12303 6.98919
#
# Compressibility (1/GPa) = 0.01908130
#
# Stress axis : x y z
#
# Youngs Moduli (GPa) = 49.61083 57.88628 47.33409
#
# Poissons Ratio (x) = 0.21137 0.26533
# Poissons Ratio (y) = 0.18115 0.49614
# Poissons Ratio (z) = 0.27809 0.60675
#
# Static dielectric constant tensor:
#      x y z
#    x 3.129120 0.000000 0.000000 
#    y 0.000000 3.459230 0.000000 
#    z 0.000000 0.000000 3.216090 
# 
# 
# High freq. dielectric constant tensor:
#      x y z
#    x 1.684240 0.000000 0.000000 
#    y 0.000000 1.696920 0.000000 
#    z 0.000000 0.000000 1.677620 
# 
# From -- ./inp_files/25606.got.cif
#   From: 2010.03.12/outbox.cif.g09.slc.cpg/sg59_13_cif.got.tgz:25606.got - 2010.04.16 16:29:54.
