data_PCOD8239526
_publ_section_title
;
Structure prediction by ZEFSAII (Michael W. Deem and Ramdas Pophale) SiO2 
 PCOD8239526
Probable space group: P M M N
;
_chemical_formula_sum "Si O2"
_cell_formula_units_Z 64
_cell_length_a 8.873390
_cell_length_b 21.591736
_cell_length_c 19.232050
_cell_angle_alpha 90.000000
_cell_angle_beta 90.000000
_cell_angle_gamma 90.000000
_cell_volume 3684.704891
_symmetry_space_group_name_H-M "P M M N"
_symmetry_group_IT_number 59
_space_group.IT_coordinate_system_code '2'
_symmetry_cell_setting 'orthorhombic'
loop_
_space_group_symop_operation_xyz
x,y,z
1/2-x,1/2-y,z
1/2+x,-y,-z
-x,1/2+y,-z
-x,-y,-z
1/2+x,1/2+y,-z
1/2-x,y,z
x,1/2-y,z
loop_
_atom_site_type_symbol
_atom_site_label
_atom_site_fract_x
_atom_site_fract_y
_atom_site_fract_z
Si Si1 0.422895 0.556271 0.962549
Si Si2 0.919912 0.680855 0.200375
Si Si3 0.427611 0.679410 0.471451
Si Si4 0.423226 0.604348 0.101445
Si Si5 0.573654 0.876132 0.343834
Si Si6 0.427211 0.989653 0.823095
Si Si7 0.422658 0.001364 0.322174
Si Si8 0.923619 0.559456 0.536325
O O1 0.250000 0.538243 0.958387
O O2 0.473405 0.563471 0.881396
O O3 0.500000 0.500000 0.000000
O O4 0.452303 0.612098 0.017505
O O5 0.750000 0.668354 0.175356
O O6 0.940665 0.750000 0.227404
O O7 0.964582 0.637061 0.263990
O O8 0.031892 0.669460 0.135670
O O9 0.250000 0.669086 0.474209
O O10 0.468241 0.750000 0.496065
O O11 0.484982 0.671594 0.392615
O O12 0.503664 0.625781 0.517759
O O13 0.250000 0.587056 0.115286
O O14 0.526865 0.554438 0.141488
O O15 0.750000 0.870083 0.359901
O O16 0.517341 0.945580 0.356149
O O17 0.250000 0.990815 0.805880
O O18 0.512755 0.975117 0.751559
O O19 0.250000 0.980518 0.311263
O O20 0.435214 0.055309 0.379714
O O21 0.750000 0.560130 0.511983
O O22 0.000000 0.500000 0.500000
#
# Coordination Sequence:
#
# PCOD8239526 Si02
#       8
#     8   8   8   8   8   8   8   8
#     4   8  16  28  43  66  93 122 158 196 237 288
#     4  10  21  34  46  65  96 134 176 215 250 299
#     4  11  24  40  58  81 109 140 179 226 270 319
#     4  10  18  29  46  67  94 128 165 208 252 294
#     4  11  21  34  54  75 101 141 181 217 258 311
#     4  10  18  30  48  70  98 131 164 200 248 307
#     4  11  22  34  51  78 108 137 172 217 265 313
#     4  11  23  38  58  80 108 142 179 223 271 325
#
# _framework density 17.369098000000001
#
# number of rings (size 3 to 8) (size 9 to 14) (size 15 to 20)
#    0.000    1.750    2.500    2.625    0.000    4.750 
#    0.000    0.000    0.000    0.000    0.000    0.875 
#    0.000    1.000    0.000    0.000    0.000    0.000 
#
# Total GULP energy -792891.718656 kJ/mol
# GULP energy per Si atom -12388.933104 kJ/mol
# Density = 1.732957 g / cm^3
# Si number density = 17.369098 Si / 1000 Ang^3
#
#
#
# Elastic Constant Matrix: (Units=GPa)
#
#
# Indices 1 2 3 4 5 6 
#
# 1 80.3382 42.1392 47.6021 0.0000 0.0000 0.0000
# 2 42.1392 80.0803 44.2366 0.0000 0.0000 0.0000
# 3 47.6021 44.2366 112.4053 0.0000 0.0000 0.0000
# 4 0.0000 0.0000 0.0000 22.3918 0.0000 0.0000
# 5 0.0000 0.0000 0.0000 0.0000 27.3284 0.0000
# 6 0.0000 0.0000 0.0000 0.0000 0.0000 23.3220
#
#
#
# Elastic Compliance Matrix: (Units=1/GPa)
#
#
# Indices 1 2 3 4 5 6 
#
# 1 0.019441 -0.007260 -0.005376 0.000000 0.000000 0.000000
# 2 -0.007260 0.018668 -0.004272 0.000000 0.000000 0.000000
# 3 -0.005376 -0.004272 0.012854 0.000000 0.000000 0.000000
# 4 0.000000 0.000000 0.000000 0.044659 0.000000 0.000000
# 5 0.000000 0.000000 0.000000 0.000000 0.036592 0.000000
# 6 0.000000 0.000000 0.000000 0.000000 0.000000 0.042878
#
#
# Mechanical properties :
#
#
# Convention : Reuss Voigt Hill
#
# Bulk Modulus (GPa) = 58.32021 60.08662 59.20342
# Shear Modulus (GPa) = 23.29660 23.86482 23.58071
#
# Velocity S-wave (km/s) = 3.66630 3.71075 3.68859
# Velocity P-wave (km/s) = 7.18138 7.28207 7.23190
#
# Compressibility (1/GPa) = 0.01714671
#
# Stress axis : x y z
#
# Youngs Moduli (GPa) = 51.43821 53.56806 77.79649
#
# Poissons Ratio (x) = 0.38893 0.41820
# Poissons Ratio (y) = 0.37347 0.33234
# Poissons Ratio (z) = 0.27651 0.22884
#
# Static dielectric constant tensor:
#      x y z
#    x 3.216700 0.000000 0.000000 
#    y 0.000000 3.094480 0.000000 
#    z 0.000000 0.000000 3.717000 
# 
# 
# High freq. dielectric constant tensor:
#      x y z
#    x 1.685920 0.000000 0.000000 
#    y 0.000000 1.626070 0.000000 
#    z 0.000000 0.000000 1.680200 
# 
# From -- ./inp_files/29739.got.cif
#   From: 2010.03.12/outbox.cif.g09.slc.cpg/sg59_15_cif.got.tgz:29739.got - 2010.04.16 16:29:54.
