data_PCOD8239014
_publ_section_title
;
Structure prediction by ZEFSAII (Michael W. Deem and Ramdas Pophale) SiO2 
 PCOD8239014
Probable space group: P N N M
;
_chemical_formula_sum "Si O2"
_cell_formula_units_Z 48
_cell_length_a 12.000000
_cell_length_b 24.000000
_cell_length_c 9.000000
_cell_angle_alpha 90.000000
_cell_angle_beta 90.000000
_cell_angle_gamma 90.000000
_cell_volume 2592.000000
_symmetry_space_group_name_H-M "P N N M"
_symmetry_group_IT_number 58
_symmetry_cell_setting 'orthorhombic'
loop_
_space_group_symop_operation_xyz
x,y,z
-x,-y,z
1/2+x,1/2-y,1/2-z
1/2-x,1/2+y,1/2-z
-x,-y,-z
x,y,-z
1/2-x,1/2+y,1/2+z
1/2+x,1/2-y,1/2+z
loop_
_atom_site_type_symbol
_atom_site_label
_atom_site_fract_x
_atom_site_fract_y
_atom_site_fract_z
Si Si1 0.383308 0.784034 0.825801
Si Si2 0.342187 0.655547 0.823096
Si Si3 0.516289 0.567370 0.321561
Si Si4 0.758552 0.119186 0.674805
Si Si5 0.103141 0.650563 0.672860
Si Si6 0.530681 0.063586 0.334115
O O1 0.381435 0.718510 0.781967
O O2 0.288750 0.821449 0.740349
O O3 0.509905 0.802798 0.785467
O O4 0.359306 0.792607 0.000000
O O5 0.415822 0.606569 0.743719
O O6 0.214229 0.654453 0.770449
O O7 0.348557 0.645244 0.000000
O O8 0.500000 0.500000 0.281381
O O9 0.517592 0.573512 0.500000
O O10 0.631682 0.593571 0.255980
O O11 0.786779 0.128350 0.500000
O O12 0.661756 0.073294 0.698118
O O13 0.135814 0.653192 0.500000
O O14 0.045023 0.592185 0.709954
O O15 0.503478 0.086691 0.500000
O O16 0.500000 0.000000 0.322845
#
# Coordination Sequence:
#
# PCOD8239014 Si02
#       6
#     8   8   8   8   8   8
#     4   9  21  41  63  91 124 160 200 250 309 368
#     4  11  24  41  64  92 122 161 207 254 309 369
#     4  11  26  45  63  89 126 168 213 258 312 373
#     4  10  21  38  63  92 123 161 204 253 305 364
#     4  10  21  38  59  88 123 156 198 249 304 363
#     4   9  19  36  59  88 118 154 199 246 297 354
#
# _framework density 18.518519000000001
#
# number of rings (size 3 to 8) (size 9 to 14) (size 15 to 20)
#    0.000    2.000    0.000    2.000    4.667    4.333 
#    0.000    0.000    0.000    0.000    0.000    0.000 
#    0.000    0.000    0.000    0.000    0.000    0.000 
#
# Total GULP energy -594727.093016 kJ/mol
# GULP energy per Si atom -12390.147771 kJ/mol
# Density = 1.847637 g / cm^3
# Si number density = 18.518519 Si / 1000 Ang^3
#
#
#
# Elastic Constant Matrix: (Units=GPa)
#
#
# Indices 1 2 3 4 5 6 
#
# 1 154.1077 68.8517 54.1871 0.0000 0.0000 0.0000
# 2 68.8517 152.6069 54.2809 0.0000 0.0000 0.0000
# 3 54.1871 54.2809 113.7607 0.0000 0.0000 0.0000
# 4 0.0000 0.0000 0.0000 36.9660 0.0000 0.0000
# 5 0.0000 0.0000 0.0000 0.0000 43.9334 0.0000
# 6 0.0000 0.0000 0.0000 0.0000 0.0000 33.9295
#
#
#
# Elastic Compliance Matrix: (Units=1/GPa)
#
#
# Indices 1 2 3 4 5 6 
#
# 1 0.008795 -0.002984 -0.002765 0.000000 0.000000 0.000000
# 2 -0.002984 0.008905 -0.002827 0.000000 0.000000 0.000000
# 3 -0.002765 -0.002827 0.011457 0.000000 0.000000 0.000000
# 4 0.000000 0.000000 0.000000 0.027052 0.000000 0.000000
# 5 0.000000 0.000000 0.000000 0.000000 0.022762 0.000000
# 6 0.000000 0.000000 0.000000 0.000000 0.000000 0.029473
#
#
# Mechanical properties :
#
#
# Convention : Reuss Voigt Hill
#
# Bulk Modulus (GPa) = 83.31745 86.12384 84.72065
# Shear Modulus (GPa) = 38.58110 39.17615 38.87863
#
# Velocity S-wave (km/s) = 4.56936 4.60446 4.58694
# Velocity P-wave (km/s) = 8.53978 8.65309 8.59662
#
# Compressibility (1/GPa) = 0.01200229
#
# Stress axis : x y z
#
# Youngs Moduli (GPa) = 113.70676 112.29739 87.28591
#
# Poissons Ratio (x) = 0.33513 0.24135
# Poissons Ratio (y) = 0.33934 0.24680
# Poissons Ratio (z) = 0.31441 0.31752
#
# Static dielectric constant tensor:
#      x y z
#    x 3.751490 0.000000 0.000000 
#    y 0.000000 3.862070 0.000000 
#    z 0.000000 0.000000 3.778700 
# 
# 
# High freq. dielectric constant tensor:
#      x y z
#    x 1.746980 0.000000 0.000000 
#    y 0.000000 1.744110 0.000000 
#    z 0.000000 0.000000 1.742730 
# 
# From -- ./inp_files/4191.got.cif
#   From: 2010.06.25/outbox.ucp.g09.slc.cvg/sg58_3_cif.got.tgz:4191.got - 2010.06.28 15:54:47.
