data_PCOD8239789
_publ_section_title
;
Structure prediction by ZEFSAII (Michael W. Deem and Ramdas Pophale) SiO2 
 PCOD8239789
Probable space group: P M M N
;
_chemical_formula_sum "Si O2"
_cell_formula_units_Z 64
_cell_length_a 9.070335
_cell_length_b 19.295217
_cell_length_c 20.160541
_cell_angle_alpha 90.000000
_cell_angle_beta 90.000000
_cell_angle_gamma 90.000000
_cell_volume 3528.378578
_symmetry_space_group_name_H-M "P M M N"
_symmetry_group_IT_number 59
_space_group.IT_coordinate_system_code '2'
_symmetry_cell_setting 'orthorhombic'
loop_
_space_group_symop_operation_xyz
x,y,z
1/2-x,1/2-y,z
1/2+x,-y,-z
-x,1/2+y,-z
-x,-y,-z
1/2+x,1/2+y,-z
1/2-x,y,z
x,1/2-y,z
loop_
_atom_site_type_symbol
_atom_site_label
_atom_site_fract_x
_atom_site_fract_y
_atom_site_fract_z
Si Si1 0.922730 0.921066 0.289989
Si Si2 0.575937 0.454808 0.842444
Si Si3 0.079474 0.571091 0.513796
Si Si4 0.422794 0.669822 0.396451
Si Si5 0.580358 0.828249 0.764796
Si Si6 0.077050 0.600100 0.875394
Si Si7 0.581696 0.430910 0.984153
Si Si8 0.080530 0.925307 0.663837
O O1 0.750000 0.909100 0.280373
O O2 0.000520 0.916179 0.218652
O O3 0.987591 0.859909 0.334558
O O4 0.957225 0.994101 0.325205
O O5 0.750000 0.462899 0.829108
O O6 0.505277 0.530355 0.852344
O O7 0.543417 0.407124 0.908749
O O8 0.250000 0.555133 0.504254
O O9 0.026583 0.630938 0.463654
O O10 0.046418 0.595950 0.588390
O O11 0.000000 0.500000 0.500000
O O12 0.250000 0.659255 0.382884
O O13 0.463524 0.750000 0.405410
O O14 0.750000 0.844747 0.779803
O O15 0.557845 0.750000 0.739774
O O16 0.487948 0.837412 0.832429
O O17 0.525072 0.879575 0.708425
O O18 0.250000 0.590365 0.860607
O O19 0.048485 0.620289 0.953541
O O20 0.750000 0.452537 0.985522
O O21 0.500000 0.500000 0.000000
O O22 0.250000 0.910270 0.682954
#
# Coordination Sequence:
#
# PCOD8239789 Si02
#       8
#     8   8   8   8   8   8   8   8
#     4  11  21  34  55  84 114 145 183 226 272 327
#     4  10  18  30  51  79 109 142 178 224 274 320
#     4  10  20  36  59  85 111 142 181 224 270 324
#     4  10  22  39  59  84 112 145 184 224 272 330
#     4  11  24  38  52  75 108 147 190 231 275 331
#     4  10  18  31  51  75 105 140 179 225 274 328
#     4   8  16  28  45  73 105 134 171 217 268 320
#     4  10  21  36  56  82 110 142 182 227 274 327
#
# _framework density 18.138642999999998
#
# number of rings (size 3 to 8) (size 9 to 14) (size 15 to 20)
#    0.000    2.000    2.500    1.500    0.000    3.750 
#    0.000    1.250    0.000    0.750    0.000    1.750 
#    0.000    0.000    0.000    0.000    0.000    0.000 
#
# Total GULP energy -793277.863097 kJ/mol
# GULP energy per Si atom -12394.966611 kJ/mol
# Density = 1.809736 g / cm^3
# Si number density = 18.138643 Si / 1000 Ang^3
#
#
#
# Elastic Constant Matrix: (Units=GPa)
#
#
# Indices 1 2 3 4 5 6 
#
# 1 84.2551 47.3010 62.3997 0.0000 0.0000 0.0000
# 2 47.3010 89.7802 55.5763 0.0000 0.0000 0.0000
# 3 62.3997 55.5763 154.5310 0.0000 0.0000 0.0000
# 4 0.0000 0.0000 0.0000 21.5130 0.0000 0.0000
# 5 0.0000 0.0000 0.0000 0.0000 28.1564 0.0000
# 6 0.0000 0.0000 0.0000 0.0000 0.0000 23.3590
#
#
#
# Elastic Compliance Matrix: (Units=1/GPa)
#
#
# Indices 1 2 3 4 5 6 
#
# 1 0.019919 -0.007095 -0.005492 0.000000 0.000000 0.000000
# 2 -0.007095 0.016855 -0.003197 0.000000 0.000000 0.000000
# 3 -0.005492 -0.003197 0.009839 0.000000 0.000000 0.000000
# 4 0.000000 0.000000 0.000000 0.046484 0.000000 0.000000
# 5 0.000000 0.000000 0.000000 0.000000 0.035516 0.000000
# 6 0.000000 0.000000 0.000000 0.000000 0.000000 0.042810
#
#
# Mechanical properties :
#
#
# Convention : Reuss Voigt Hill
#
# Bulk Modulus (GPa) = 66.46422 73.23558 69.84990
# Shear Modulus (GPa) = 24.03793 25.49162 24.76478
#
# Velocity S-wave (km/s) = 3.64432 3.75290 3.69901
# Velocity P-wave (km/s) = 7.37767 7.69689 7.53897
#
# Compressibility (1/GPa) = 0.01504569
#
# Stress axis : x y z
#
# Youngs Moduli (GPa) = 50.20350 59.32848 101.64142
#
# Poissons Ratio (x) = 0.42093 0.55818
# Poissons Ratio (y) = 0.35619 0.32495
# Poissons Ratio (z) = 0.27570 0.18967
#
# Static dielectric constant tensor:
#      x y z
#    x 3.384200 0.000000 0.000000 
#    y 0.000000 2.771620 0.000000 
#    z 0.000000 0.000000 4.115790 
# 
# 
# High freq. dielectric constant tensor:
#      x y z
#    x 1.711550 0.000000 0.000000 
#    y 0.000000 1.661630 0.000000 
#    z 0.000000 0.000000 1.724960 
# 
# From -- ./inp_files/29413.got.cif
#   From: 2010.03.12/outbox.cif.g09.slc.cpg/sg59_15_cif.got.tgz:29413.got - 2010.04.16 16:29:54.
