data_PCOD8239327
_publ_section_title
;
Structure prediction by ZEFSAII (Michael W. Deem and Ramdas Pophale) SiO2 
 PCOD8239327
Probable space group: P M M N
;
_chemical_formula_sum "Si O2"
_cell_formula_units_Z 64
_cell_length_a 26.868146
_cell_length_b 8.621343
_cell_length_c 17.109319
_cell_angle_alpha 90.000000
_cell_angle_beta 90.000000
_cell_angle_gamma 90.000000
_cell_volume 3963.194140
_symmetry_space_group_name_H-M "P M M N"
_symmetry_group_IT_number 59
_space_group.IT_coordinate_system_code '2'
_symmetry_cell_setting 'orthorhombic'
loop_
_space_group_symop_operation_xyz
x,y,z
1/2-x,1/2-y,z
1/2+x,-y,-z
-x,1/2+y,-z
-x,-y,-z
1/2+x,1/2+y,-z
1/2-x,y,z
x,1/2-y,z
loop_
_atom_site_type_symbol
_atom_site_label
_atom_site_fract_x
_atom_site_fract_y
_atom_site_fract_z
Si Si1 0.043249 0.930268 0.901799
Si Si2 0.116782 0.069461 0.786032
Si Si3 0.462259 0.068455 0.320754
Si Si4 0.552191 0.068863 0.523876
Si Si5 0.111875 0.431970 0.027337
Si Si6 0.923878 0.070719 0.356406
Si Si7 0.694987 0.566906 0.090034
Si Si8 0.056072 0.568868 0.157169
O O1 0.048146 0.750000 0.923033
O O2 0.072496 0.968029 0.822309
O O3 0.986352 0.972310 0.886942
O O4 0.064541 0.032548 0.972359
O O5 0.105705 0.250000 0.800367
O O6 0.168840 0.022703 0.827366
O O7 0.116031 0.028770 0.693832
O O8 0.456384 0.250000 0.306708
O O9 0.519710 0.020384 0.334325
O O10 0.429901 0.017147 0.397035
O O11 0.439141 0.979324 0.247173
O O12 0.546704 0.250000 0.541323
O O13 0.587758 0.039744 0.448473
O O14 0.500000 0.000000 0.500000
O O15 0.114876 0.250000 0.043747
O O16 0.106387 0.523046 0.109696
O O17 0.161518 0.492835 0.982604
O O18 0.916313 0.250000 0.336470
O O19 0.750000 0.490304 0.087008
O O20 0.699699 0.750000 0.083817
O O21 0.045111 0.750000 0.151364
#
# Coordination Sequence:
#
# PCOD8239327 Si02
#       8
#     8   8   8   8   8   8   8   8
#     4  11  20  31  44  60  88 119 150 186 223 263
#     4  10  18  27  45  69  89 116 153 187 224 267
#     4  10  19  30  43  61  86 120 155 189 226 260
#     4   9  17  28  41  58  83 118 156 189 220 257
#     4  10  20  33  48  66  86 112 148 185 225 271
#     4   9  17  28  42  60  88 120 151 186 221 258
#     4   8  16  32  51  69  89 113 144 185 229 271
#     4  12  22  31  44  62  88 120 153 187 223 264
#
# _framework density 16.148589999999999
#
# number of rings (size 3 to 8) (size 9 to 14) (size 15 to 20)
#    0.000    2.125    1.250    5.625    0.000    2.500 
#    0.000    0.000    0.000   13.500    0.000    0.000 
#    0.000    1.000    0.000    9.750    0.000    2.750 
#
# Total GULP energy -793288.456794 kJ/mol
# GULP energy per Si atom -12395.132137 kJ/mol
# Density = 1.611184 g / cm^3
# Si number density = 16.148590 Si / 1000 Ang^3
#
#
#
# Elastic Constant Matrix: (Units=GPa)
#
#
# Indices 1 2 3 4 5 6 
#
# 1 62.3167 18.7021 44.8258 0.0000 0.0000 0.0000
# 2 18.7021 58.1115 26.3613 0.0000 0.0000 0.0000
# 3 44.8258 26.3613 125.0653 0.0000 0.0000 0.0000
# 4 0.0000 0.0000 0.0000 31.1579 0.0000 0.0000
# 5 0.0000 0.0000 0.0000 0.0000 12.9158 0.0000
# 6 0.0000 0.0000 0.0000 0.0000 0.0000 10.2996
#
#
#
# Elastic Compliance Matrix: (Units=1/GPa)
#
#
# Indices 1 2 3 4 5 6 
#
# 1 0.022411 -0.003946 -0.007201 0.000000 0.000000 0.000000
# 2 -0.003946 0.019722 -0.002743 0.000000 0.000000 0.000000
# 3 -0.007201 -0.002743 0.011155 0.000000 0.000000 0.000000
# 4 0.000000 0.000000 0.000000 0.032095 0.000000 0.000000
# 5 0.000000 0.000000 0.000000 0.000000 0.077425 0.000000
# 6 0.000000 0.000000 0.000000 0.000000 0.000000 0.097091
#
#
# Mechanical properties :
#
#
# Convention : Reuss Voigt Hill
#
# Bulk Modulus (GPa) = 39.20167 47.25243 43.22705
# Shear Modulus (GPa) = 16.88156 21.24828 19.06492
#
# Velocity S-wave (km/s) = 3.23676 3.63133 3.43970
# Velocity P-wave (km/s) = 6.18846 6.84884 6.52701
#
# Compressibility (1/GPa) = 0.02550912
#
# Stress axis : x y z
#
# Youngs Moduli (GPa) = 44.62093 50.70364 89.64713
#
# Poissons Ratio (x) = 0.20008 0.64553
# Poissons Ratio (y) = 0.17608 0.24588
# Poissons Ratio (z) = 0.32131 0.13907
#
# Static dielectric constant tensor:
#      x y z
#    x 2.826710 0.000000 0.000000 
#    y 0.000000 3.023200 0.000000 
#    z 0.000000 0.000000 3.510920 
# 
# 
# High freq. dielectric constant tensor:
#      x y z
#    x 1.552430 0.000000 0.000000 
#    y 0.000000 1.625670 0.000000 
#    z 0.000000 0.000000 1.632850 
# 
# From -- ./inp_files/28535.got.cif
#   From: 2010.03.12/outbox.cif.g09.slc.cpg/sg59_15_cif.got.tgz:28535.got - 2010.04.16 16:29:54.
