data_PCOD8239028
_publ_section_title
;
Structure prediction by ZEFSAII (Michael W. Deem and Ramdas Pophale) SiO2 
 PCOD8239028
Probable space group: P M M N
;
_chemical_formula_sum "Si O2"
_cell_formula_units_Z 44
_cell_length_a 18.435793
_cell_length_b 12.316462
_cell_length_c 9.786033
_cell_angle_alpha 90.000000
_cell_angle_beta 90.000000
_cell_angle_gamma 90.000000
_cell_volume 2222.053291
_symmetry_space_group_name_H-M "P M M N"
_symmetry_group_IT_number 59
_space_group.IT_coordinate_system_code '2'
_symmetry_cell_setting 'orthorhombic'
loop_
_space_group_symop_operation_xyz
x,y,z
1/2-x,1/2-y,z
1/2+x,-y,-z
-x,1/2+y,-z
-x,-y,-z
1/2+x,1/2+y,-z
1/2-x,y,z
x,1/2-y,z
loop_
_atom_site_type_symbol
_atom_site_label
_atom_site_fract_x
_atom_site_fract_y
_atom_site_fract_z
Si Si1 0.334295 0.376241 0.664246
Si Si2 0.891991 0.013625 0.090518
Si Si3 0.250000 0.629954 0.326451
Si Si4 0.750000 0.636161 0.827819
Si Si5 0.041203 0.120215 0.148611
Si Si6 0.636429 0.949750 0.631178
Si Si7 0.750000 0.423303 0.977070
O O1 0.250000 0.410285 0.660540
O O2 0.343773 0.250000 0.696802
O O3 0.377636 0.444086 0.775116
O O4 0.371124 0.403445 0.519774
O O5 0.823955 0.095235 0.061476
O O6 0.905404 0.929697 0.966428
O O7 0.958697 0.094358 0.111235
O O8 0.250000 0.750000 0.392681
O O9 0.323372 0.567351 0.371650
O O10 0.250000 0.644177 0.162603
O O11 0.750000 0.750000 0.905762
O O12 0.818274 0.630596 0.727397
O O13 0.750000 0.551586 0.948870
O O14 0.051242 0.250000 0.158542
O O15 0.058439 0.056158 0.292289
#
# Coordination Sequence:
#
# PCOD8239028 Si02
#       7
#     8   8   4   4   8   8   4
#     4  11  21  35  62  94 126 156 192 256 316 355
#     4  11  23  39  58  90 127 155 206 251 308 366
#     4  10  20  37  60  90 122 164 206 250 303 361
#     4  10  16  27  55  87 113 146 190 239 295 351
#     4  11  23  41  62  84 121 166 207 252 305 363
#     4  10  20  37  59  91 119 155 204 254 291 368
#     4  10  20  36  55  87 117 154 200 257 292 360
#
# _framework density 19.801506
#
# number of rings (size 3 to 8) (size 9 to 14) (size 15 to 20)
#    0.000    1.636    6.364    2.182    0.000    2.182 
#    0.000    1.818    0.000    0.000    0.000    0.000 
#    0.000    0.000    0.000    0.000    0.000    0.000 
#
# Total GULP energy -545340.168477 kJ/mol
# GULP energy per Si atom -12394.094738 kJ/mol
# Density = 1.975644 g / cm^3
# Si number density = 19.801506 Si / 1000 Ang^3
#
#
#
# Elastic Constant Matrix: (Units=GPa)
#
#
# Indices 1 2 3 4 5 6 
#
# 1 91.7373 7.2664 21.5754 0.0000 0.0000 0.0000
# 2 7.2664 87.9810 -7.7290 0.0000 0.0000 0.0000
# 3 21.5754 -7.7290 76.0703 0.0000 0.0000 0.0000
# 4 0.0000 0.0000 0.0000 3.8949 0.0000 0.0000
# 5 0.0000 0.0000 0.0000 0.0000 23.3099 0.0000
# 6 0.0000 0.0000 0.0000 0.0000 0.0000 12.5956
#
#
#
# Elastic Compliance Matrix: (Units=1/GPa)
#
#
# Indices 1 2 3 4 5 6 
#
# 1 0.011821 -0.001282 -0.003483 0.000000 0.000000 0.000000
# 2 -0.001282 0.011608 0.001543 0.000000 0.000000 0.000000
# 3 -0.003483 0.001543 0.014290 0.000000 0.000000 0.000000
# 4 0.000000 0.000000 0.000000 0.256744 0.000000 0.000000
# 5 0.000000 0.000000 0.000000 0.000000 0.042900 0.000000
# 6 0.000000 0.000000 0.000000 0.000000 0.000000 0.079393
#
#
# Mechanical properties :
#
#
# Convention : Reuss Voigt Hill
#
# Bulk Modulus (GPa) = 31.97482 33.11270 32.54376
# Shear Modulus (GPa) = 11.53066 23.60514 17.56790
#
# Velocity S-wave (km/s) = 2.41573 3.45641 2.98182
# Velocity P-wave (km/s) = 4.89528 5.71731 5.32219
#
# Compressibility (1/GPa) = 0.03127461
#
# Stress axis : x y z
#
# Youngs Moduli (GPa) = 84.59191 86.15080 69.97692
#
# Poissons Ratio (x) = 0.11047 0.24374
# Poissons Ratio (y) = 0.10848 -0.10798
# Poissons Ratio (z) = 0.29465 -0.13294
#
# Static dielectric constant tensor:
#      x y z
#    x 3.858040 0.000000 0.000000 
#    y 0.000000 3.369240 0.000000 
#    z 0.000000 0.000000 3.561390 
# 
# 
# High freq. dielectric constant tensor:
#      x y z
#    x 1.771520 0.000000 0.000000 
#    y 0.000000 1.755250 0.000000 
#    z 0.000000 0.000000 1.768720 
# 
# From -- ./inp_files/10230.got.cif
#   From: 2010.03.12/outbox.cif.g09.slc.cpg/sg59_6_cif.got.tgz:10230.got - 2010.04.16 16:29:54.
