data_PCOD8239089
_publ_section_title
;
Structure prediction by ZEFSAII (Michael W. Deem and Ramdas Pophale) SiO2 
 PCOD8239089
Probable space group: P M M N
;
_chemical_formula_sum "Si O2"
_cell_formula_units_Z 64
_cell_length_a 8.931756
_cell_length_b 30.032233
_cell_length_c 14.901793
_cell_angle_alpha 90.000000
_cell_angle_beta 90.000000
_cell_angle_gamma 90.000000
_cell_volume 3997.265557
_symmetry_space_group_name_H-M "P M M N"
_symmetry_group_IT_number 59
_space_group.IT_coordinate_system_code '2'
_symmetry_cell_setting 'orthorhombic'
loop_
_space_group_symop_operation_xyz
x,y,z
1/2-x,1/2-y,z
1/2+x,-y,-z
-x,1/2+y,-z
-x,-y,-z
1/2+x,1/2+y,-z
1/2-x,y,z
x,1/2-y,z
loop_
_atom_site_type_symbol
_atom_site_label
_atom_site_fract_x
_atom_site_fract_y
_atom_site_fract_z
Si Si1 0.075784 0.615814 0.692905
Si Si2 0.427686 0.893719 0.036623
Si Si3 0.572665 0.462194 0.815410
Si Si4 0.924249 0.053765 0.137803
Si Si5 0.922520 0.528676 0.368416
Si Si6 0.077459 0.058261 0.439443
Si Si7 0.073731 0.701344 0.789255
Si Si8 0.928371 0.298446 0.009215
O O1 0.250000 0.618412 0.667148
O O2 0.046556 0.580128 0.770799
O O3 0.009007 0.663281 0.724634
O O4 0.980464 0.603845 0.604500
O O5 0.250000 0.892861 0.031922
O O6 0.483212 0.921187 0.122901
O O7 0.487354 0.842293 0.044112
O O8 0.486576 0.917358 0.945681
O O9 0.750000 0.465129 0.812221
O O10 0.512196 0.507581 0.857965
O O11 0.512626 0.452366 0.715842
O O12 0.750000 0.042927 0.124826
O O13 0.750000 0.524159 0.340400
O O14 0.945352 0.561504 0.453202
O O15 0.978072 0.480175 0.395973
O O16 0.250000 0.049010 0.415833
O O17 0.250000 0.693632 0.796049
O O18 0.034573 0.750000 0.749041
O O19 0.008912 0.697034 0.889567
O O20 0.750000 0.298377 0.010451
O O21 0.982875 0.250000 0.969437
#
# Coordination Sequence:
#
# PCOD8239089 Si02
#       8
#     8   8   8   8   8   8   8   8
#     4  10  17  26  45  69  93 122 149 180 219 262
#     4   9  17  28  40  61  92 123 153 185 221 261
#     4  11  21  30  43  63  91 123 155 190 221 255
#     4  10  18  29  43  61  91 126 156 182 213 258
#     4  10  20  34  48  63  85 114 148 186 225 265
#     4  10  20  32  48  67  87 111 144 186 227 269
#     4   8  13  22  39  65  93 119 149 181 215 260
#     4   8  12  21  39  61  86 115 146 181 220 260
#
# _framework density 16.010946000000001
#
# number of rings (size 3 to 8) (size 9 to 14) (size 15 to 20)
#    0.000    2.500    2.500    2.250    0.000    1.500 
#    0.000    0.625    0.000    0.375    0.000    0.875 
#    0.000    9.500    0.000    0.000    0.000    0.000 
#
# Total GULP energy -793188.760733 kJ/mol
# GULP energy per Si atom -12393.574386 kJ/mol
# Density = 1.597450 g / cm^3
# Si number density = 16.010946 Si / 1000 Ang^3
#
#
#
# Elastic Constant Matrix: (Units=GPa)
#
#
# Indices 1 2 3 4 5 6 
#
# 1 39.5627 29.5300 25.6925 0.0000 0.0000 0.0000
# 2 29.5300 135.6301 53.9236 0.0000 0.0000 0.0000
# 3 25.6925 53.9236 82.3042 0.0000 0.0000 0.0000
# 4 0.0000 0.0000 0.0000 23.3745 0.0000 0.0000
# 5 0.0000 0.0000 0.0000 0.0000 18.4010 0.0000
# 6 0.0000 0.0000 0.0000 0.0000 0.0000 15.0202
#
#
#
# Elastic Compliance Matrix: (Units=1/GPa)
#
#
# Indices 1 2 3 4 5 6 
#
# 1 0.033406 -0.004229 -0.007658 0.000000 0.000000 0.000000
# 2 -0.004229 0.010505 -0.005563 0.000000 0.000000 0.000000
# 3 -0.007658 -0.005563 0.018185 0.000000 0.000000 0.000000
# 4 0.000000 0.000000 0.000000 0.042782 0.000000 0.000000
# 5 0.000000 0.000000 0.000000 0.000000 0.054345 0.000000
# 6 0.000000 0.000000 0.000000 0.000000 0.000000 0.066577
#
#
# Mechanical properties :
#
#
# Convention : Reuss Voigt Hill
#
# Bulk Modulus (GPa) = 36.76747 52.86549 44.81648
# Shear Modulus (GPa) = 18.53474 21.24920 19.89197
#
# Velocity S-wave (km/s) = 3.40609 3.64698 3.52859
# Velocity P-wave (km/s) = 6.20342 7.12909 6.68230
#
# Compressibility (1/GPa) = 0.02719796
#
# Stress axis : x y z
#
# Youngs Moduli (GPa) = 29.93504 95.18978 54.99028
#
# Poissons Ratio (x) = 0.40254 0.42109
# Poissons Ratio (y) = 0.12659 0.30590
# Poissons Ratio (z) = 0.22923 0.52952
#
# Static dielectric constant tensor:
#      x y z
#    x 2.744560 0.000000 0.000000 
#    y 0.000000 3.299620 0.000000 
#    z 0.000000 0.000000 3.081670 
# 
# 
# High freq. dielectric constant tensor:
#      x y z
#    x 1.586600 0.000000 0.000000 
#    y 0.000000 1.609100 0.000000 
#    z 0.000000 0.000000 1.598130 
# 
# From -- ./inp_files/21903.got.cif
#   From: 2010.03.12/outbox.cif.g09.slc.cpg/sg59_11_cif.got.tgz:21903.got - 2010.04.16 16:29:54.
