data_PCOD8239699
_publ_section_title
;
Structure prediction by ZEFSAII (Michael W. Deem and Ramdas Pophale) SiO2 
 PCOD8239699
Probable space group: P M M N
;
_chemical_formula_sum "Si O2"
_cell_formula_units_Z 56
_cell_length_a 9.294066
_cell_length_b 24.481028
_cell_length_c 14.018623
_cell_angle_alpha 90.000000
_cell_angle_beta 90.000000
_cell_angle_gamma 90.000000
_cell_volume 3189.633319
_symmetry_space_group_name_H-M "P M M N"
_symmetry_group_IT_number 59
_space_group.IT_coordinate_system_code '2'
_symmetry_cell_setting 'orthorhombic'
loop_
_space_group_symop_operation_xyz
x,y,z
1/2-x,1/2-y,z
1/2+x,-y,-z
-x,1/2+y,-z
-x,-y,-z
1/2+x,1/2+y,-z
1/2-x,y,z
x,1/2-y,z
loop_
_atom_site_type_symbol
_atom_site_label
_atom_site_fract_x
_atom_site_fract_y
_atom_site_fract_z
Si Si1 0.919607 0.090917 0.968977
Si Si2 0.581267 0.812179 0.496094
Si Si3 0.420891 0.310335 0.287751
Si Si4 0.920139 0.374406 0.662546
Si Si5 0.419204 0.089396 0.164531
Si Si6 0.580323 0.309543 0.846184
Si Si7 0.917778 0.471574 0.785610
O O1 0.750000 0.084564 0.988215
O O2 0.003778 0.079634 0.065166
O O3 0.961447 0.151856 0.934389
O O4 0.978040 0.049112 0.887979
O O5 0.750000 0.823152 0.486803
O O6 0.544586 0.750000 0.464504
O O7 0.527968 0.821294 0.604452
O O8 0.498776 0.856867 0.433738
O O9 0.250000 0.312029 0.285522
O O10 0.474370 0.250000 0.253997
O O11 0.483114 0.357482 0.218527
O O12 0.750000 0.371767 0.644303
O O13 0.972692 0.333674 0.745732
O O14 0.972650 0.435359 0.695644
O O15 0.250000 0.095486 0.145773
O O16 0.451267 0.035629 0.229366
O O17 0.750000 0.304830 0.840499
O O18 0.509332 0.250000 0.862324
O O19 0.750000 0.458674 0.792343
#
# Coordination Sequence:
#
# PCOD8239699 Si02
#       7
#     8   8   8   8   8   8   8
#     4   9  17  29  44  63  89 116 143 179 220 260
#     4   9  17  30  47  66  89 116 145 179 221 264
#     4   8  16  31  48  65  87 117 151 183 217 263
#     4   9  16  28  47  68  89 114 147 182 214 258
#     4  10  18  30  49  66  83 115 155 186 215 256
#     4   8  14  25  41  61  86 116 144 169 209 267
#     4   8  16  30  46  66  91 118 146 178 219 266
#
# _framework density 17.556877
#
# number of rings (size 3 to 8) (size 9 to 14) (size 15 to 20)
#    0.000    3.286    0.000    3.429    0.000    1.429 
#    0.000    5.000    0.000    1.714    0.000    0.000 
#    0.000    0.000    0.000    0.000    0.000    0.000 
#
# Total GULP energy -693913.720635 kJ/mol
# GULP energy per Si atom -12391.316440 kJ/mol
# Density = 1.751692 g / cm^3
# Si number density = 17.556877 Si / 1000 Ang^3
#
#
#
# Elastic Constant Matrix: (Units=GPa)
#
#
# Indices 1 2 3 4 5 6 
#
# 1 24.7382 22.8717 21.0543 0.0000 0.0000 0.0000
# 2 22.8717 133.3940 49.1441 0.0000 0.0000 0.0000
# 3 21.0543 49.1441 76.2837 0.0000 0.0000 0.0000
# 4 0.0000 0.0000 0.0000 26.5851 0.0000 0.0000
# 5 0.0000 0.0000 0.0000 0.0000 23.3186 0.0000
# 6 0.0000 0.0000 0.0000 0.0000 0.0000 15.4061
#
#
#
# Elastic Compliance Matrix: (Units=1/GPa)
#
#
# Indices 1 2 3 4 5 6 
#
# 1 0.055323 -0.005062 -0.012008 0.000000 0.000000 0.000000
# 2 -0.005062 0.010293 -0.005234 0.000000 0.000000 0.000000
# 3 -0.012008 -0.005234 0.019795 0.000000 0.000000 0.000000
# 4 0.000000 0.000000 0.000000 0.037615 0.000000 0.000000
# 5 0.000000 0.000000 0.000000 0.000000 0.042884 0.000000
# 6 0.000000 0.000000 0.000000 0.000000 0.000000 0.064909
#
#
# Mechanical properties :
#
#
# Convention : Reuss Voigt Hill
#
# Bulk Modulus (GPa) = 24.50784 46.72846 35.61815
# Shear Modulus (GPa) = 17.29934 22.48501 19.89217
#
# Velocity S-wave (km/s) = 3.14240 3.58256 3.36968
# Velocity P-wave (km/s) = 5.21111 6.61712 5.95575
#
# Compressibility (1/GPa) = 0.04080327
#
# Stress axis : x y z
#
# Youngs Moduli (GPa) = 18.07557 97.15660 50.51772
#
# Poissons Ratio (x) = 0.49178 0.60664
# Poissons Ratio (y) = 0.09149 0.26440
# Poissons Ratio (z) = 0.21706 0.50850
#
# Static dielectric constant tensor:
#      x y z
#    x 2.725790 0.000000 0.000000 
#    y 0.000000 3.843990 0.000000 
#    z 0.000000 0.000000 3.156360 
# 
# 
# High freq. dielectric constant tensor:
#      x y z
#    x 1.628700 0.000000 0.000000 
#    y 0.000000 1.690500 0.000000 
#    z 0.000000 0.000000 1.667210 
# 
# From -- ./inp_files/16179.got.cif
#   From: 2010.03.12/outbox.cif.g09.slc.cpg/sg59_9_cif.got.tgz:16179.got - 2010.04.16 16:29:54.
