data_PCOD8239162
_publ_section_title
;
Structure prediction by ZEFSAII (Michael W. Deem and Ramdas Pophale) SiO2 
 PCOD8239162
Probable space group: P M M N
;
_chemical_formula_sum "Si O2"
_cell_formula_units_Z 56
_cell_length_a 21.704310
_cell_length_b 9.086963
_cell_length_c 16.592604
_cell_angle_alpha 90.000000
_cell_angle_beta 90.000000
_cell_angle_gamma 90.000000
_cell_volume 3272.497262
_symmetry_space_group_name_H-M "P M M N"
_symmetry_group_IT_number 59
_space_group.IT_coordinate_system_code '2'
_symmetry_cell_setting 'orthorhombic'
loop_
_space_group_symop_operation_xyz
x,y,z
1/2-x,1/2-y,z
1/2+x,-y,-z
-x,1/2+y,-z
-x,-y,-z
1/2+x,1/2+y,-z
1/2-x,y,z
x,1/2-y,z
loop_
_atom_site_type_symbol
_atom_site_label
_atom_site_fract_x
_atom_site_fract_y
_atom_site_fract_z
Si Si1 0.506496 0.419481 0.788342
Si Si2 0.970445 0.578533 0.624546
Si Si3 0.617954 0.421156 0.200144
Si Si4 0.586435 0.419808 0.485013
Si Si5 0.057401 0.579631 0.041954
Si Si6 0.317371 0.576252 0.641539
Si Si7 0.318217 0.920963 0.963615
O O1 0.495239 0.250000 0.766247
O O2 0.533629 0.500552 0.710505
O O3 0.443419 0.490067 0.820148
O O4 0.554811 0.436631 0.861441
O O5 0.960177 0.750000 0.638491
O O6 0.917637 0.516936 0.565420
O O7 0.035083 0.542440 0.581893
O O8 0.599859 0.250000 0.209199
O O9 0.645061 0.487517 0.282850
O O10 0.668287 0.445836 0.130814
O O11 0.581700 0.250000 0.510498
O O12 0.650767 0.460749 0.443331
O O13 0.053481 0.750000 0.014937
O O14 0.124017 0.512135 0.014422
O O15 0.000000 0.500000 0.000000
O O16 0.250000 0.503796 0.639295
O O17 0.312961 0.750000 0.654088
O O18 0.250000 0.991116 0.983038
O O19 0.314112 0.750000 0.984220
#
# Coordination Sequence:
#
# PCOD8239162 Si02
#       7
#     8   8   8   8   8   8   8
#     4  11  21  31  47  73 104 134 163 206 254 296
#     4  10  19  32  50  71  94 127 163 201 246 291
#     4  10  17  29  49  74 101 132 167 200 241 299
#     4   9  17  30  48  72  97 123 158 199 241 288
#     4  10  20  33  51  75 102 132 168 210 257 303
#     4   9  16  27  46  73 102 129 160 198 240 289
#     4   9  17  30  51  76 100 130 171 215 253 296
#
# _framework density 17.112314000000001
#
# number of rings (size 3 to 8) (size 9 to 14) (size 15 to 20)
#    0.000    2.286    2.857    1.286    0.000    2.857 
#    0.000    0.000    0.000    5.143    0.000    4.000 
#    0.000    0.000    0.000    0.000    0.000    0.000 
#
# Total GULP energy -694176.106865 kJ/mol
# GULP energy per Si atom -12396.001908 kJ/mol
# Density = 1.707337 g / cm^3
# Si number density = 17.112314 Si / 1000 Ang^3
#
#
#
# Elastic Constant Matrix: (Units=GPa)
#
#
# Indices 1 2 3 4 5 6 
#
# 1 117.0026 28.2151 53.5538 0.0000 0.0000 0.0000
# 2 28.2151 56.9248 40.7046 0.0000 0.0000 0.0000
# 3 53.5538 40.7046 100.3245 0.0000 0.0000 0.0000
# 4 0.0000 0.0000 0.0000 23.3672 0.0000 0.0000
# 5 0.0000 0.0000 0.0000 0.0000 18.9182 0.0000
# 6 0.0000 0.0000 0.0000 0.0000 0.0000 15.8781
#
#
#
# Elastic Compliance Matrix: (Units=1/GPa)
#
#
# Indices 1 2 3 4 5 6 
#
# 1 0.011445 -0.001837 -0.005364 0.000000 0.000000 0.000000
# 2 -0.001837 0.025041 -0.009179 0.000000 0.000000 0.000000
# 3 -0.005364 -0.009179 0.016555 0.000000 0.000000 0.000000
# 4 0.000000 0.000000 0.000000 0.042795 0.000000 0.000000
# 5 0.000000 0.000000 0.000000 0.000000 0.052859 0.000000
# 6 0.000000 0.000000 0.000000 0.000000 0.000000 0.062980
#
#
# Mechanical properties :
#
#
# Convention : Reuss Voigt Hill
#
# Bulk Modulus (GPa) = 49.30803 57.68876 53.49839
# Shear Modulus (GPa) = 19.90468 21.75126 20.82797
#
# Velocity S-wave (km/s) = 3.41424 3.56910 3.49253
# Velocity P-wave (km/s) = 6.66480 7.12528 6.89889
#
# Compressibility (1/GPa) = 0.02028067
#
# Stress axis : x y z
#
# Youngs Moduli (GPa) = 87.37404 39.93385 60.40349
#
# Poissons Ratio (x) = 0.07337 0.32401
# Poissons Ratio (y) = 0.16052 0.55446
# Poissons Ratio (z) = 0.46868 0.36657
#
# Static dielectric constant tensor:
#      x y z
#    x 3.342220 0.000000 0.000000 
#    y 0.000000 2.991000 0.000000 
#    z 0.000000 0.000000 3.240970 
# 
# 
# High freq. dielectric constant tensor:
#      x y z
#    x 1.646020 0.000000 0.000000 
#    y 0.000000 1.631870 0.000000 
#    z 0.000000 0.000000 1.662450 
# 
# From -- ./inp_files/26127.got.cif
#   From: 2010.03.12/outbox.cif.g09.slc.cpg/sg59_14_cif.got.tgz:26127.got - 2010.04.16 16:29:54.
