data_PCOD8239744
_publ_section_title
;
Structure prediction by ZEFSAII (Michael W. Deem and Ramdas Pophale) SiO2 
 PCOD8239744
Probable space group: P M M N
;
_chemical_formula_sum "Si O2"
_cell_formula_units_Z 48
_cell_length_a 8.744345
_cell_length_b 30.245381
_cell_length_c 10.263674
_cell_angle_alpha 90.000000
_cell_angle_beta 90.000000
_cell_angle_gamma 90.000000
_cell_volume 2714.495918
_symmetry_space_group_name_H-M "P M M N"
_symmetry_group_IT_number 59
_space_group.IT_coordinate_system_code '2'
_symmetry_cell_setting 'orthorhombic'
loop_
_space_group_symop_operation_xyz
x,y,z
1/2-x,1/2-y,z
1/2+x,-y,-z
-x,1/2+y,-z
-x,-y,-z
1/2+x,1/2+y,-z
1/2-x,y,z
x,1/2-y,z
loop_
_atom_site_type_symbol
_atom_site_label
_atom_site_fract_x
_atom_site_fract_y
_atom_site_fract_z
Si Si1 0.570489 0.023108 0.875835
Si Si2 0.570259 0.528728 0.614663
Si Si3 0.429725 0.887171 0.515012
Si Si4 0.933171 0.891160 0.231087
Si Si5 0.421302 0.296594 0.785695
Si Si6 0.578565 0.798285 0.523833
O O1 0.750000 0.029200 0.893790
O O2 0.494093 0.071182 0.863819
O O3 0.529643 0.993842 0.750954
O O4 0.500000 0.000000 0.000000
O O5 0.500000 0.500000 0.500000
O O6 0.750000 0.532924 0.592431
O O7 0.494398 0.577201 0.617042
O O8 0.250000 0.892143 0.500793
O O9 0.503714 0.898291 0.375859
O O10 0.470254 0.838336 0.570331
O O11 0.750000 0.891370 0.237911
O O12 0.994295 0.843690 0.171466
O O13 0.250000 0.294267 0.840973
O O14 0.505061 0.250000 0.829700
O O15 0.417837 0.298118 0.630760
O O16 0.750000 0.806467 0.577242
O O17 0.518681 0.750000 0.573604
#
# Coordination Sequence:
#
# PCOD8239744 Si02
#       6
#     8   8   8   8   8   8
#     4  11  24  39  55  76 103 136 175 218 266 320
#     4  11  22  36  55  77 102 135 175 216 259 311
#     4  11  20  29  46  74 105 136 172 214 261 311
#     4  10  18  30  50  72 100 137 173 213 258 304
#     4   7  11  21  39  65  94 125 162 201 244 295
#     4   8  14  26  43  64  95 134 171 208 255 309
#
# _framework density 17.682839999999999
#
# number of rings (size 3 to 8) (size 9 to 14) (size 15 to 20)
#    0.000    2.333    1.667    5.000    0.000    2.333 
#    0.000    0.000    0.000    1.500    0.000    1.167 
#    0.000    4.000    0.000    0.000    0.000    0.000 
#
# Total GULP energy -594692.906005 kJ/mol
# GULP energy per Si atom -12389.435542 kJ/mol
# Density = 1.764259 g / cm^3
# Si number density = 17.682840 Si / 1000 Ang^3
#
#
#
# Elastic Constant Matrix: (Units=GPa)
#
#
# Indices 1 2 3 4 5 6 
#
# 1 88.6579 62.9989 38.4642 0.0000 0.0000 0.0000
# 2 62.9989 202.1456 52.4604 0.0000 0.0000 0.0000
# 3 38.4642 52.4604 58.3534 0.0000 0.0000 0.0000
# 4 0.0000 0.0000 0.0000 14.7586 0.0000 0.0000
# 5 0.0000 0.0000 0.0000 0.0000 18.3011 0.0000
# 6 0.0000 0.0000 0.0000 0.0000 0.0000 30.5062
#
#
#
# Elastic Compliance Matrix: (Units=1/GPa)
#
#
# Indices 1 2 3 4 5 6 
#
# 1 0.017214 -0.003156 -0.008509 0.000000 0.000000 0.000000
# 2 -0.003156 0.007031 -0.004240 0.000000 0.000000 0.000000
# 3 -0.008509 -0.004240 0.026558 0.000000 0.000000 0.000000
# 4 0.000000 0.000000 0.000000 0.067757 0.000000 0.000000
# 5 0.000000 0.000000 0.000000 0.000000 0.054642 0.000000
# 6 0.000000 0.000000 0.000000 0.000000 0.000000 0.032780
#
#
# Mechanical properties :
#
#
# Convention : Reuss Voigt Hill
#
# Bulk Modulus (GPa) = 52.65613 73.00043 62.82828
# Shear Modulus (GPa) = 20.48137 25.72872 23.10504
#
# Velocity S-wave (km/s) = 3.40702 3.81860 3.61866
# Velocity P-wave (km/s) = 6.73200 7.79840 7.28474
#
# Compressibility (1/GPa) = 0.01899114
#
# Stress axis : x y z
#
# Youngs Moduli (GPa) = 58.09261 142.22486 37.65352
#
# Poissons Ratio (x) = 0.44893 0.32039
# Poissons Ratio (y) = 0.18337 0.15967
# Poissons Ratio (z) = 0.49431 0.60309
#
# Static dielectric constant tensor:
#      x y z
#    x 3.232120 0.000000 0.000000 
#    y 0.000000 4.377410 0.000000 
#    z 0.000000 0.000000 2.856120 
# 
# 
# High freq. dielectric constant tensor:
#      x y z
#    x 1.674400 0.000000 0.000000 
#    y 0.000000 1.719600 0.000000 
#    z 0.000000 0.000000 1.612150 
# 
# From -- ./inp_files/14692.got.cif
#   From: 2010.03.12/outbox.cif.g09.slc.cpg/sg59_8_cif.got.tgz:14692.got - 2010.04.16 16:29:54.
