data_PCOD8239539
_publ_section_title
;
Structure prediction by ZEFSAII (Michael W. Deem and Ramdas Pophale) SiO2 
 PCOD8239539
Probable space group: P M M N
;
_chemical_formula_sum "Si O2"
_cell_formula_units_Z 56
_cell_length_a 20.903271
_cell_length_b 17.245854
_cell_length_c 9.314930
_cell_angle_alpha 90.000000
_cell_angle_beta 90.000000
_cell_angle_gamma 90.000000
_cell_volume 3357.983453
_symmetry_space_group_name_H-M "P M M N"
_symmetry_group_IT_number 59
_space_group.IT_coordinate_system_code '2'
_symmetry_cell_setting 'orthorhombic'
loop_
_space_group_symop_operation_xyz
x,y,z
1/2-x,1/2-y,z
1/2+x,-y,-z
-x,1/2+y,-z
-x,-y,-z
1/2+x,1/2+y,-z
1/2-x,y,z
x,1/2-y,z
loop_
_atom_site_type_symbol
_atom_site_label
_atom_site_fract_x
_atom_site_fract_y
_atom_site_fract_z
Si Si1 0.980507 0.089820 0.184898
Si Si2 0.972587 0.836706 0.397598
Si Si3 0.597129 0.162515 0.423977
Si Si4 0.598468 0.907692 0.646600
Si Si5 0.174719 0.986833 0.555178
Si Si6 0.597192 0.839955 0.937939
Si Si7 0.404337 0.055305 0.810819
O O1 0.933628 0.148829 0.267367
O O2 0.031553 0.053232 0.299938
O O3 0.939397 0.019403 0.117922
O O4 0.020667 0.138676 0.066451
O O5 0.965657 0.750000 0.337337
O O6 0.919758 0.846265 0.523255
O O7 0.958688 0.895343 0.269201
O O8 0.044013 0.851546 0.454202
O O9 0.624101 0.250000 0.430101
O O10 0.655132 0.103236 0.449769
O O11 0.646652 0.971948 0.586638
O O12 0.629214 0.861971 0.783816
O O13 0.250000 0.994374 0.551674
O O14 0.149627 0.027734 0.699770
O O15 0.608126 0.750000 0.972586
O O16 0.628041 0.892569 0.064311
#
# Coordination Sequence:
#
# PCOD8239539 Si02
#       7
#     8   8   8   8   8   8   8
#     4   8  16  28  47  72  99 125 144 185 236 292
#     4   9  15  26  46  72 101 123 143 184 239 286
#     4   9  16  28  49  75  99 122 152 189 233 284
#     4   8  17  29  48  66  91 123 160 187 226 278
#     4  10  20  34  48  66  92 128 167 199 229 267
#     4  10  18  29  48  73  96 120 149 190 238 285
#     4  10  18  29  46  72 100 124 155 190 236 287
#
# _framework density 16.676674999999999
#
# number of rings (size 3 to 8) (size 9 to 14) (size 15 to 20)
#    0.857    2.000    0.000    2.571    0.000    3.714 
#    0.000    0.714    0.000   16.286    0.000    0.000 
#    0.000    2.571    0.000    0.000    0.000    0.000 
#
# Total GULP energy -693815.178405 kJ/mol
# GULP energy per Si atom -12389.556757 kJ/mol
# Density = 1.663872 g / cm^3
# Si number density = 16.676675 Si / 1000 Ang^3
#
#
#
# Elastic Constant Matrix: (Units=GPa)
#
#
# Indices 1 2 3 4 5 6 
#
# 1 61.4895 36.2621 9.8892 0.0000 0.0000 0.0000
# 2 36.2621 108.7747 33.4590 0.0000 0.0000 0.0000
# 3 9.8892 33.4590 64.6446 0.0000 0.0000 0.0000
# 4 0.0000 0.0000 0.0000 20.7114 0.0000 0.0000
# 5 0.0000 0.0000 0.0000 0.0000 10.5956 0.0000
# 6 0.0000 0.0000 0.0000 0.0000 0.0000 13.1537
#
#
#
# Elastic Compliance Matrix: (Units=1/GPa)
#
#
# Indices 1 2 3 4 5 6 
#
# 1 0.020255 -0.006897 0.000471 0.000000 0.000000 0.000000
# 2 -0.006897 0.013283 -0.005820 0.000000 0.000000 0.000000
# 3 0.000471 -0.005820 0.018409 0.000000 0.000000 0.000000
# 4 0.000000 0.000000 0.000000 0.048283 0.000000 0.000000
# 5 0.000000 0.000000 0.000000 0.000000 0.094379 0.000000
# 6 0.000000 0.000000 0.000000 0.000000 0.000000 0.076024
#
#
# Mechanical properties :
#
#
# Convention : Reuss Voigt Hill
#
# Bulk Modulus (GPa) = 36.42273 43.79215 40.10744
# Shear Modulus (GPa) = 16.43247 19.24538 17.83893
#
# Velocity S-wave (km/s) = 3.14244 3.40079 3.27416
# Velocity P-wave (km/s) = 5.92069 6.46042 6.19643
#
# Compressibility (1/GPa) = 0.02745539
#
# Stress axis : x y z
#
# Youngs Moduli (GPa) = 49.37144 75.28521 54.32027
#
# Poissons Ratio (x) = 0.51926 -0.02561
# Poissons Ratio (y) = 0.34053 0.31614
# Poissons Ratio (z) = -0.02327 0.43815
#
# Static dielectric constant tensor:
#      x y z
#    x 2.641530 0.000000 0.000000 
#    y 0.000000 3.134710 0.000000 
#    z 0.000000 0.000000 3.035530 
# 
# 
# High freq. dielectric constant tensor:
#      x y z
#    x 1.589570 0.000000 0.000000 
#    y 0.000000 1.648770 0.000000 
#    z 0.000000 0.000000 1.632940 
# 
# From -- ./inp_files/11551.got.cif
#   From: 2010.03.12/outbox.cif.g09.slc.cpg/sg59_6_cif.got.tgz:11551.got - 2010.04.16 16:29:54.
