data_PCOD8239545
_publ_section_title
;
Structure prediction by ZEFSAII (Michael W. Deem and Ramdas Pophale) SiO2 
 PCOD8239545
Probable space group: P M M N
;
_chemical_formula_sum "Si O2"
_cell_formula_units_Z 64
_cell_length_a 20.358670
_cell_length_b 9.147862
_cell_length_c 20.457234
_cell_angle_alpha 90.000000
_cell_angle_beta 90.000000
_cell_angle_gamma 90.000000
_cell_volume 3809.920558
_symmetry_space_group_name_H-M "P M M N"
_symmetry_group_IT_number 59
_space_group.IT_coordinate_system_code '2'
_symmetry_cell_setting 'orthorhombic'
loop_
_space_group_symop_operation_xyz
x,y,z
1/2-x,1/2-y,z
1/2+x,-y,-z
-x,1/2+y,-z
-x,-y,-z
1/2+x,1/2+y,-z
1/2-x,y,z
x,1/2-y,z
loop_
_atom_site_type_symbol
_atom_site_label
_atom_site_fract_x
_atom_site_fract_y
_atom_site_fract_z
Si Si1 0.416652 0.416386 0.686045
Si Si2 0.324003 0.582787 0.934449
Si Si3 0.032072 0.078257 0.159427
Si Si4 0.070580 0.914129 0.425345
Si Si5 0.061789 0.577128 0.033512
Si Si6 0.451608 0.417976 0.303769
Si Si7 0.416115 0.087645 0.547039
Si Si8 0.894054 0.918271 0.172793
O O1 0.446321 0.250000 0.682998
O O2 0.473107 0.535127 0.693101
O O3 0.378981 0.445399 0.616590
O O4 0.371481 0.431212 0.750713
O O5 0.250000 0.554970 0.959318
O O6 0.334426 0.750000 0.912934
O O7 0.336075 0.482132 0.871241
O O8 0.373096 0.540969 0.992623
O O9 0.025114 0.250000 0.143132
O O10 0.070369 0.054968 0.228516
O O11 0.074037 0.994793 0.104441
O O12 0.959730 0.009421 0.159478
O O13 0.095374 0.750000 0.419783
O O14 0.992987 0.930020 0.435971
O O15 0.091049 0.993383 0.357422
O O16 0.106884 0.982053 0.488819
O O17 0.049028 0.750000 0.039515
O O18 0.000000 0.500000 0.000000
O O19 0.446072 0.250000 0.323525
O O20 0.400806 0.250000 0.521936
O O21 0.907455 0.750000 0.154079
#
# Coordination Sequence:
#
# PCOD8239545 Si02
#       8
#     8   8   8   8   8   8   8   8
#     4   8  15  25  36  53  76 103 138 180 221 259
#     4  10  22  38  52  68  94 126 156 188 233 287
#     4  10  19  30  45  66  91 117 150 190 232 278
#     4   9  15  21  30  45  69 101 138 178 216 257
#     4  11  21  33  52  73  94 120 153 194 236 282
#     4   9  16  24  35  52  75 106 141 177 218 264
#     4   8  13  21  31  44  67 100 137 174 212 257
#     4  10  18  29  47  68  89 115 150 192 233 273
#
# _framework density 16.798249999999999
#
# number of rings (size 3 to 8) (size 9 to 14) (size 15 to 20)
#    0.000    2.625    1.250    2.625    0.000    5.750 
#    0.000    0.000    0.000    0.000    0.000    0.000 
#    0.000    0.000    0.000    1.125    0.000   20.750 
#
# Total GULP energy -792991.772837 kJ/mol
# GULP energy per Si atom -12390.496451 kJ/mol
# Density = 1.676002 g / cm^3
# Si number density = 16.798250 Si / 1000 Ang^3
#
#
#
# Elastic Constant Matrix: (Units=GPa)
#
#
# Indices 1 2 3 4 5 6 
#
# 1 44.4329 25.4625 36.9396 0.0000 0.0000 0.0000
# 2 25.4625 117.9843 82.8979 0.0000 0.0000 0.0000
# 3 36.9396 82.8979 161.3033 0.0000 0.0000 0.0000
# 4 0.0000 0.0000 0.0000 33.3608 0.0000 0.0000
# 5 0.0000 0.0000 0.0000 0.0000 9.4223 0.0000
# 6 0.0000 0.0000 0.0000 0.0000 0.0000 11.0370
#
#
#
# Elastic Compliance Matrix: (Units=1/GPa)
#
#
# Indices 1 2 3 4 5 6 
#
# 1 0.028235 -0.002427 -0.005219 0.000000 0.000000 0.000000
# 2 -0.002427 0.013474 -0.006369 0.000000 0.000000 0.000000
# 3 -0.005219 -0.006369 0.010668 0.000000 0.000000 0.000000
# 4 0.000000 0.000000 0.000000 0.029975 0.000000 0.000000
# 5 0.000000 0.000000 0.000000 0.000000 0.106131 0.000000
# 6 0.000000 0.000000 0.000000 0.000000 0.000000 0.090604
#
#
# Mechanical properties :
#
#
# Convention : Reuss Voigt Hill
#
# Bulk Modulus (GPa) = 41.07076 68.25785 54.66431
# Shear Modulus (GPa) = 15.86124 22.65872 19.25998
#
# Velocity S-wave (km/s) = 3.07615 3.67669 3.38974
# Velocity P-wave (km/s) = 6.09257 7.66460 6.92335
#
# Compressibility (1/GPa) = 0.02434822
#
# Stress axis : x y z
#
# Youngs Moduli (GPa) = 35.41673 74.21433 93.73839
#
# Poissons Ratio (x) = 0.18008 0.48922
# Poissons Ratio (y) = 0.08594 0.59704
# Poissons Ratio (z) = 0.18484 0.47269
#
# Static dielectric constant tensor:
#      x y z
#    x 2.455320 0.000000 0.000000 
#    y 0.000000 3.299680 0.000000 
#    z 0.000000 0.000000 3.825240 
# 
# 
# High freq. dielectric constant tensor:
#      x y z
#    x 1.550110 0.000000 0.000000 
#    y 0.000000 1.663280 0.000000 
#    z 0.000000 0.000000 1.675250 
# 
# From -- ./inp_files/30909.got.cif
#   From: 2010.03.12/outbox.cif.g09.slc.cpg/sg59_16_cif.got.tgz:30909.got - 2010.04.16 16:29:54.
