data_PCOD8239781
_publ_section_title
;
Structure prediction by ZEFSAII (Michael W. Deem and Ramdas Pophale) SiO2 
 PCOD8239781
Probable space group: P M M N
;
_chemical_formula_sum "Si O2"
_cell_formula_units_Z 56
_cell_length_a 18.265192
_cell_length_b 9.348226
_cell_length_c 18.784594
_cell_angle_alpha 90.000000
_cell_angle_beta 90.000000
_cell_angle_gamma 90.000000
_cell_volume 3207.415753
_symmetry_space_group_name_H-M "P M M N"
_symmetry_group_IT_number 59
_space_group.IT_coordinate_system_code '2'
_symmetry_cell_setting 'orthorhombic'
loop_
_space_group_symop_operation_xyz
x,y,z
1/2-x,1/2-y,z
1/2+x,-y,-z
-x,1/2+y,-z
-x,-y,-z
1/2+x,1/2+y,-z
1/2-x,y,z
x,1/2-y,z
loop_
_atom_site_type_symbol
_atom_site_label
_atom_site_fract_x
_atom_site_fract_y
_atom_site_fract_z
Si Si1 0.406527 0.583055 0.063059
Si Si2 0.536281 0.586500 0.715791
Si Si3 0.168191 0.583971 0.649925
Si Si4 0.026394 0.586131 0.567316
Si Si5 0.424341 0.087000 0.928021
Si Si6 0.597585 0.584028 0.230235
Si Si7 0.332928 0.413964 0.186981
O O1 0.389457 0.750000 0.059887
O O2 0.490292 0.548758 0.082733
O O3 0.354624 0.513778 0.121680
O O4 0.387478 0.515731 0.986126
O O5 0.512780 0.750000 0.732361
O O6 0.531366 0.559574 0.631108
O O7 0.482212 0.481331 0.756722
O O8 0.618011 0.554154 0.743199
O O9 0.250000 0.556457 0.619888
O O10 0.155514 0.750000 0.668531
O O11 0.107680 0.534912 0.592095
O O12 0.158552 0.495652 0.722790
O O13 0.029053 0.750000 0.544024
O O14 0.000000 0.500000 0.500000
O O15 0.416732 0.250000 0.954640
O O16 0.383016 0.064507 0.853016
O O17 0.595656 0.750000 0.251547
O O18 0.250000 0.447680 0.209558
O O19 0.342576 0.250000 0.162357
#
# Coordination Sequence:
#
# PCOD8239781 Si02
#       7
#     8   8   8   8   8   8   8
#     4  10  19  31  48  71  98 130 171 215 259 306
#     4   9  18  33  52  73 100 134 173 208 248 304
#     4   9  19  36  55  76 105 139 172 206 251 308
#     4   9  18  33  54  80 105 133 167 205 246 292
#     4   9  18  31  47  71 100 130 166 211 260 307
#     4  10  18  30  51  78 104 128 165 214 259 301
#     4  10  20  34  52  72  98 135 175 217 264 308
#
# _framework density 17.459537999999998
#
# number of rings (size 3 to 8) (size 9 to 14) (size 15 to 20)
#    0.000    2.571    1.429    1.714    0.000    4.571 
#    0.000    1.429    0.000    1.714    0.000    0.000 
#    0.000    0.000    0.000    0.000    0.000    0.000 
#
# Total GULP energy -694332.624881 kJ/mol
# GULP energy per Si atom -12398.796873 kJ/mol
# Density = 1.741980 g / cm^3
# Si number density = 17.459538 Si / 1000 Ang^3
#
#
#
# Elastic Constant Matrix: (Units=GPa)
#
#
# Indices 1 2 3 4 5 6 
#
# 1 109.5403 42.7384 59.6547 0.0000 0.0000 0.0000
# 2 42.7384 80.2628 57.3812 0.0000 0.0000 0.0000
# 3 59.6547 57.3812 117.5805 0.0000 0.0000 0.0000
# 4 0.0000 0.0000 0.0000 33.0651 0.0000 0.0000
# 5 0.0000 0.0000 0.0000 0.0000 21.7635 0.0000
# 6 0.0000 0.0000 0.0000 0.0000 0.0000 21.1539
#
#
#
# Elastic Compliance Matrix: (Units=1/GPa)
#
#
# Indices 1 2 3 4 5 6 
#
# 1 0.013206 -0.003443 -0.005020 0.000000 0.000000 0.000000
# 2 -0.003443 0.020033 -0.008029 0.000000 0.000000 0.000000
# 3 -0.005020 -0.008029 0.014970 0.000000 0.000000 0.000000
# 4 0.000000 0.000000 0.000000 0.030243 0.000000 0.000000
# 5 0.000000 0.000000 0.000000 0.000000 0.045948 0.000000
# 6 0.000000 0.000000 0.000000 0.000000 0.000000 0.047273
#
#
# Mechanical properties :
#
#
# Convention : Reuss Voigt Hill
#
# Bulk Modulus (GPa) = 65.68502 69.65914 67.67208
# Shear Modulus (GPa) = 23.83976 25.03712 24.43844
#
# Velocity S-wave (km/s) = 3.69918 3.79094 3.74534
# Velocity P-wave (km/s) = 7.47985 7.69062 7.58597
#
# Compressibility (1/GPa) = 0.01522417
#
# Stress axis : x y z
#
# Youngs Moduli (GPa) = 75.72161 49.91777 66.79977
#
# Poissons Ratio (x) = 0.17188 0.33532
# Poissons Ratio (y) = 0.26074 0.53636
# Poissons Ratio (z) = 0.38011 0.40081
#
# Static dielectric constant tensor:
#      x y z
#    x 3.203890 0.000000 0.000000 
#    y 0.000000 3.270430 0.000000 
#    z 0.000000 0.000000 3.156630 
# 
# 
# High freq. dielectric constant tensor:
#      x y z
#    x 1.655070 0.000000 0.000000 
#    y 0.000000 1.678870 0.000000 
#    z 0.000000 0.000000 1.665260 
# 
# From -- ./inp_files/30560.got.cif
#   From: 2010.03.12/outbox.cif.g09.slc.cpg/sg59_16_cif.got.tgz:30560.got - 2010.04.16 16:29:54.
