data_PCOD8239058
_publ_section_title
;
Structure prediction by ZEFSAII (Michael W. Deem and Ramdas Pophale) SiO2 
 PCOD8239058
Probable space group: P M M N
;
_chemical_formula_sum "Si O2"
_cell_formula_units_Z 56
_cell_length_a 9.303170
_cell_length_b 14.053078
_cell_length_c 26.716641
_cell_angle_alpha 90.000000
_cell_angle_beta 90.000000
_cell_angle_gamma 90.000000
_cell_volume 3492.884851
_symmetry_space_group_name_H-M "P M M N"
_symmetry_group_IT_number 59
_space_group.IT_coordinate_system_code '2'
_symmetry_cell_setting 'orthorhombic'
loop_
_space_group_symop_operation_xyz
x,y,z
1/2-x,1/2-y,z
1/2+x,-y,-z
-x,1/2+y,-z
-x,-y,-z
1/2+x,1/2+y,-z
1/2-x,y,z
x,1/2-y,z
loop_
_atom_site_type_symbol
_atom_site_label
_atom_site_fract_x
_atom_site_fract_y
_atom_site_fract_z
Si Si1 0.420540 0.853944 0.427708
Si Si2 0.079440 0.461300 0.376373
Si Si3 0.417188 0.857691 0.015623
Si Si4 0.909768 0.362382 0.462008
Si Si5 0.918714 0.956804 0.928394
Si Si6 0.920803 0.642745 0.720325
Si Si7 0.079353 0.143138 0.169621
O O1 0.250000 0.845441 0.429396
O O2 0.486594 0.750000 0.414509
O O3 0.470194 0.890267 0.482725
O O4 0.469838 0.929611 0.385669
O O5 0.250000 0.450718 0.378002
O O6 0.017842 0.427398 0.322536
O O7 0.019154 0.396500 0.420263
O O8 0.250000 0.865099 0.001863
O O9 0.457234 0.750000 0.032614
O O10 0.505273 0.885429 0.966621
O O11 0.455560 0.932438 0.060073
O O12 0.750000 0.405779 0.453019
O O13 0.900033 0.250000 0.459345
O O14 0.750000 0.937377 0.933350
O O15 0.975268 0.930654 0.872723
O O16 0.750000 0.639847 0.719911
O O17 0.973763 0.750000 0.708937
O O18 0.977358 0.610667 0.775407
O O19 0.250000 0.144259 0.170654
O O20 0.023593 0.250000 0.157559
#
# Coordination Sequence:
#
# PCOD8239058 Si02
#       7
#     8   8   8   8   8   8   8
#     4   8  15  27  40  55  77 104 130 155 189 232
#     4  10  17  25  42  62  77  98 129 163 193 224
#     4   9  17  27  38  57  86 110 125 155 205 239
#     4   9  17  28  40  55  79 107 127 148 188 239
#     4   9  16  26  42  60  76 103 142 167 180 221
#     4   8  14  23  35  56  82  99 117 156 204 233
#     4   8  13  22  37  56  77 100 127 160 193 224
#
# _framework density 16.032592000000001
#
# number of rings (size 3 to 8) (size 9 to 14) (size 15 to 20)
#    0.000    3.286    0.000    3.000    0.000    1.714 
#    0.000    0.000    0.000    3.000    0.000   10.000 
#    0.000    0.000    0.000    3.286    0.000    4.714 
#
# Total GULP energy -693840.647086 kJ/mol
# GULP energy per Si atom -12390.011555 kJ/mol
# Density = 1.599610 g / cm^3
# Si number density = 16.032592 Si / 1000 Ang^3
#
#
#
# Elastic Constant Matrix: (Units=GPa)
#
#
# Indices 1 2 3 4 5 6 
#
# 1 14.2290 16.6937 18.0514 0.0000 0.0000 0.0000
# 2 16.6937 102.1921 87.9992 0.0000 0.0000 0.0000
# 3 18.0514 87.9992 151.9842 0.0000 0.0000 0.0000
# 4 0.0000 0.0000 0.0000 29.1938 0.0000 0.0000
# 5 0.0000 0.0000 0.0000 0.0000 15.3320 0.0000
# 6 0.0000 0.0000 0.0000 0.0000 0.0000 13.3526
#
#
#
# Elastic Compliance Matrix: (Units=1/GPa)
#
#
# Indices 1 2 3 4 5 6 
#
# 1 0.088303 -0.010757 -0.004260 0.000000 0.000000 0.000000
# 2 -0.010757 0.020826 -0.010781 0.000000 0.000000 0.000000
# 3 -0.004260 -0.010781 0.013328 0.000000 0.000000 0.000000
# 4 0.000000 0.000000 0.000000 0.034254 0.000000 0.000000
# 5 0.000000 0.000000 0.000000 0.000000 0.065223 0.000000
# 6 0.000000 0.000000 0.000000 0.000000 0.000000 0.074892
#
#
# Mechanical properties :
#
#
# Convention : Reuss Voigt Hill
#
# Bulk Modulus (GPa) = 14.11184 57.09933 35.60559
# Shear Modulus (GPa) = 13.43937 21.28640 17.36289
#
# Velocity S-wave (km/s) = 2.89840 3.64771 3.29443
# Velocity P-wave (km/s) = 4.47460 7.30978 6.06032
#
# Compressibility (1/GPa) = 0.07086247
#
# Stress axis : x y z
#
# Youngs Moduli (GPa) = 11.32461 48.01647 75.03186
#
# Poissons Ratio (x) = 0.51650 0.31962
# Poissons Ratio (y) = 0.12182 0.80890
# Poissons Ratio (z) = 0.04824 0.51766
#
# Static dielectric constant tensor:
#      x y z
#    x 2.716640 0.000000 0.000000 
#    y 0.000000 3.268720 0.000000 
#    z 0.000000 0.000000 3.361730 
# 
# 
# High freq. dielectric constant tensor:
#      x y z
#    x 1.573370 0.000000 0.000000 
#    y 0.000000 1.612920 0.000000 
#    z 0.000000 0.000000 1.608980 
# 
# From -- ./inp_files/32660.got.cif
#   From: 2010.03.12/outbox.cif.g09.slc.cpg/sg59_17_cif.got.tgz:32660.got - 2010.04.16 16:29:54.
