data_PCOD8239164
_publ_section_title
;
Structure prediction by ZEFSAII (Michael W. Deem and Ramdas Pophale) SiO2 
 PCOD8239164
Probable space group: P M M N
;
_chemical_formula_sum "Si O2"
_cell_formula_units_Z 64
_cell_length_a 23.276249
_cell_length_b 9.068719
_cell_length_c 18.884642
_cell_angle_alpha 90.000000
_cell_angle_beta 90.000000
_cell_angle_gamma 90.000000
_cell_volume 3986.279038
_symmetry_space_group_name_H-M "P M M N"
_symmetry_group_IT_number 59
_space_group.IT_coordinate_system_code '2'
_symmetry_cell_setting 'orthorhombic'
loop_
_space_group_symop_operation_xyz
x,y,z
1/2-x,1/2-y,z
1/2+x,-y,-z
-x,1/2+y,-z
-x,-y,-z
1/2+x,1/2+y,-z
1/2-x,y,z
x,1/2-y,z
loop_
_atom_site_type_symbol
_atom_site_label
_atom_site_fract_x
_atom_site_fract_y
_atom_site_fract_z
Si Si1 0.315358 0.924581 0.897243
Si Si2 0.911874 0.578893 0.027008
Si Si3 0.974099 0.077531 0.603368
Si Si4 0.502179 0.420692 0.259354
Si Si5 0.316476 0.577612 0.604191
Si Si6 0.587932 0.922876 0.481346
Si Si7 0.987524 0.918692 0.897897
Si Si8 0.367174 0.924465 0.751174
O O1 0.250000 0.974369 0.907985
O O2 0.321967 0.750000 0.900485
O O3 0.337549 0.988233 0.821891
O O4 0.352255 0.994563 0.960732
O O5 0.902101 0.750000 0.041123
O O6 0.959761 0.522574 0.081664
O O7 0.932180 0.547200 0.946436
O O8 0.961259 0.250000 0.602360
O O9 0.037636 0.040017 0.574511
O O10 0.926234 0.997640 0.556189
O O11 0.968568 0.016425 0.682820
O O12 0.501012 0.250000 0.282651
O O13 0.470803 0.445214 0.183926
O O14 0.567383 0.479023 0.253227
O O15 0.250000 0.545699 0.589480
O O16 0.331312 0.750000 0.597250
O O17 0.352570 0.488776 0.546392
O O18 0.332369 0.519461 0.682636
O O19 0.594785 0.750000 0.493437
O O20 0.008390 0.750000 0.908879
O O21 0.364572 0.750000 0.755461
#
# Coordination Sequence:
#
# PCOD8239164 Si02
#       8
#     8   8   8   8   8   8   8   8
#     4  10  19  32  49  67  92 130 171 202 233 280
#     4  10  19  30  46  68  95 124 159 203 243 278
#     4  10  20  32  48  70  96 122 155 197 242 284
#     4  10  17  29  50  70  93 126 160 193 234 286
#     4  10  19  31  48  69  94 126 163 198 232 271
#     4  10  20  33  48  67  93 126 160 194 233 280
#     4   9  18  32  48  67  93 127 161 194 238 291
#     4   9  16  28  46  67  93 127 165 197 224 270
#
# _framework density 16.055071999999999
#
# number of rings (size 3 to 8) (size 9 to 14) (size 15 to 20)
#    0.000    2.250    2.500    1.500    0.000    4.000 
#    0.000    0.625    0.000    1.500    0.000    0.875 
#    0.000    5.000    0.000    0.000    0.000    0.000 
#
# Total GULP energy -793700.072361 kJ/mol
# GULP energy per Si atom -12401.563631 kJ/mol
# Density = 1.601853 g / cm^3
# Si number density = 16.055072 Si / 1000 Ang^3
#
#
#
# Elastic Constant Matrix: (Units=GPa)
#
#
# Indices 1 2 3 4 5 6 
#
# 1 92.1093 40.5124 60.4776 0.0000 0.0000 0.0000
# 2 40.5124 58.2178 46.3034 0.0000 0.0000 0.0000
# 3 60.4776 46.3034 115.8753 0.0000 0.0000 0.0000
# 4 0.0000 0.0000 0.0000 26.2183 0.0000 0.0000
# 5 0.0000 0.0000 0.0000 0.0000 26.1500 0.0000
# 6 0.0000 0.0000 0.0000 0.0000 0.0000 24.7578
#
#
#
# Elastic Compliance Matrix: (Units=1/GPa)
#
#
# Indices 1 2 3 4 5 6 
#
# 1 0.018581 -0.007648 -0.006642 0.000000 0.000000 0.000000
# 2 -0.007648 0.028327 -0.007328 0.000000 0.000000 0.000000
# 3 -0.006642 -0.007328 0.015025 0.000000 0.000000 0.000000
# 4 0.000000 0.000000 0.000000 0.038141 0.000000 0.000000
# 5 0.000000 0.000000 0.000000 0.000000 0.038241 0.000000
# 6 0.000000 0.000000 0.000000 0.000000 0.000000 0.040391
#
#
# Mechanical properties :
#
#
# Convention : Reuss Voigt Hill
#
# Bulk Modulus (GPa) = 53.48174 62.30990 57.89582
# Shear Modulus (GPa) = 21.91308 23.35249 22.63279
#
# Velocity S-wave (km/s) = 3.69842 3.81796 3.75867
# Velocity P-wave (km/s) = 7.18481 7.63742 7.41457
#
# Compressibility (1/GPa) = 0.01869797
#
# Stress axis : x y z
#
# Youngs Moduli (GPa) = 53.81738 35.30217 66.55667
#
# Poissons Ratio (x) = 0.26998 0.44207
# Poissons Ratio (y) = 0.41157 0.48772
# Poissons Ratio (z) = 0.35746 0.25869
#
# Static dielectric constant tensor:
#      x y z
#    x 2.876360 0.000000 0.000000 
#    y 0.000000 2.926280 0.000000 
#    z 0.000000 0.000000 3.100230 
# 
# 
# High freq. dielectric constant tensor:
#      x y z
#    x 1.590130 0.000000 0.000000 
#    y 0.000000 1.610410 0.000000 
#    z 0.000000 0.000000 1.613570 
# 
# From -- ./inp_files/31090.got.cif
#   From: 2010.03.12/outbox.cif.g09.slc.cpg/sg59_16_cif.got.tgz:31090.got - 2010.04.16 16:29:54.
