data_PCOD8239556
_publ_section_title
;
Structure prediction by ZEFSAII (Michael W. Deem and Ramdas Pophale) SiO2 
 PCOD8239556
Probable space group: P M M N
;
_chemical_formula_sum "Si O2"
_cell_formula_units_Z 40
_cell_length_a 23.101437
_cell_length_b 13.239427
_cell_length_c 6.529197
_cell_angle_alpha 90.000000
_cell_angle_beta 90.000000
_cell_angle_gamma 90.000000
_cell_volume 1996.953523
_symmetry_space_group_name_H-M "P M M N"
_symmetry_group_IT_number 59
_space_group.IT_coordinate_system_code '2'
_symmetry_cell_setting 'orthorhombic'
loop_
_space_group_symop_operation_xyz
x,y,z
1/2-x,1/2-y,z
1/2+x,-y,-z
-x,1/2+y,-z
-x,-y,-z
1/2+x,1/2+y,-z
1/2-x,y,z
x,1/2-y,z
loop_
_atom_site_type_symbol
_atom_site_label
_atom_site_fract_x
_atom_site_fract_y
_atom_site_fract_z
Si Si1 0.384694 0.973367 0.931646
Si Si2 0.576921 0.945826 0.674810
Si Si3 0.814493 0.139859 0.731704
Si Si4 0.455620 0.632903 0.587005
Si Si5 0.815645 0.538570 0.437530
O O1 0.429588 0.909543 0.797953
O O2 0.338507 0.035677 0.795186
O O3 0.351914 0.899075 0.081595
O O4 0.419007 0.052940 0.077574
O O5 0.525177 0.874963 0.600744
O O6 0.567630 0.062822 0.598122
O O7 0.637232 0.901324 0.577943
O O8 0.750000 0.142761 0.820162
O O9 0.836689 0.250000 0.666051
O O10 0.816335 0.075178 0.524094
O O11 0.439199 0.750000 0.549870
O O12 0.750000 0.584593 0.447789
#
# Coordination Sequence:
#
# PCOD8239556 Si02
#       5
#     8   8   8   8   8
#     4  10  18  29  47  69  96 126 160 201 244 289
#     4   9  20  35  50  74 102 126 162 204 239 287
#     4   9  17  27  39  61  94 128 162 198 237 290
#     4  10  20  34  52  73  99 131 163 198 243 291
#     4   9  18  31  47  67  93 128 164 198 241 289
#
# _framework density 20.030512999999999
#
# number of rings (size 3 to 8) (size 9 to 14) (size 15 to 20)
#    0.000    2.600    0.000    1.800    0.000    9.600 
#    0.000    2.000    0.000    0.600    0.000    0.000 
#    0.000    0.000    0.000    0.000    0.000    0.000 
#
# Total GULP energy -495637.962315 kJ/mol
# GULP energy per Si atom -12390.949058 kJ/mol
# Density = 1.998492 g / cm^3
# Si number density = 20.030513 Si / 1000 Ang^3
#
#
#
# Elastic Constant Matrix: (Units=GPa)
#
#
# Indices 1 2 3 4 5 6 
#
# 1 131.8783 1.6763 35.0941 0.0000 0.0000 0.0000
# 2 1.6763 18.8602 6.4294 0.0000 0.0000 0.0000
# 3 35.0941 6.4294 118.1315 0.0000 0.0000 0.0000
# 4 0.0000 0.0000 0.0000 7.3831 0.0000 0.0000
# 5 0.0000 0.0000 0.0000 0.0000 31.7284 0.0000
# 6 0.0000 0.0000 0.0000 0.0000 0.0000 9.7504
#
#
#
# Elastic Compliance Matrix: (Units=1/GPa)
#
#
# Indices 1 2 3 4 5 6 
#
# 1 0.008234 0.000104 -0.002452 0.000000 0.000000 0.000000
# 2 0.000104 0.054025 -0.002971 0.000000 0.000000 0.000000
# 3 -0.002452 -0.002971 0.009355 0.000000 0.000000 0.000000
# 4 0.000000 0.000000 0.000000 0.135445 0.000000 0.000000
# 5 0.000000 0.000000 0.000000 0.000000 0.031518 0.000000
# 6 0.000000 0.000000 0.000000 0.000000 0.000000 0.102559
#
#
# Mechanical properties :
#
#
# Convention : Reuss Voigt Hill
#
# Bulk Modulus (GPa) = 16.39983 39.47440 27.93712
# Shear Modulus (GPa) = 13.43725 24.81706 19.12716
#
# Velocity S-wave (km/s) = 2.59287 3.52371 3.09350
# Velocity P-wave (km/s) = 4.14357 6.02539 5.17080
#
# Compressibility (1/GPa) = 0.06097624
#
# Stress axis : x y z
#
# Youngs Moduli (GPa) = 121.44968 18.50986 106.89230
#
# Poissons Ratio (x) = -0.00192 0.26207
# Poissons Ratio (y) = -0.01263 0.31760
# Poissons Ratio (z) = 0.29776 0.05500
#
# Static dielectric constant tensor:
#      x y z
#    x 4.237990 0.000000 0.000000 
#    y 0.000000 3.100070 0.000000 
#    z 0.000000 0.000000 3.710790 
# 
# 
# High freq. dielectric constant tensor:
#      x y z
#    x 1.814070 0.000000 0.000000 
#    y 0.000000 1.715710 0.000000 
#    z 0.000000 0.000000 1.783510 
# 
# From -- ./inp_files/2075.got.cif
#   From: 2010.03.12/outbox.cif.g09.slc.cpg/sg59_2_cif.got.tgz:2075.got - 2010.04.16 16:29:54.
