data_PCOD8239508
_publ_section_title
;
Structure prediction by ZEFSAII (Michael W. Deem and Ramdas Pophale) SiO2 
 PCOD8239508
Probable space group: P M M N
;
_chemical_formula_sum "Si O2"
_cell_formula_units_Z 64
_cell_length_a 9.193748
_cell_length_b 28.362768
_cell_length_c 15.614566
_cell_angle_alpha 90.000000
_cell_angle_beta 90.000000
_cell_angle_gamma 90.000000
_cell_volume 4071.656441
_symmetry_space_group_name_H-M "P M M N"
_symmetry_group_IT_number 59
_space_group.IT_coordinate_system_code '2'
_symmetry_cell_setting 'orthorhombic'
loop_
_space_group_symop_operation_xyz
x,y,z
1/2-x,1/2-y,z
1/2+x,-y,-z
-x,1/2+y,-z
-x,-y,-z
1/2+x,1/2+y,-z
1/2-x,y,z
x,1/2-y,z
loop_
_atom_site_type_symbol
_atom_site_label
_atom_site_fract_x
_atom_site_fract_y
_atom_site_fract_z
Si Si1 0.580056 0.305041 0.335282
Si Si2 0.578260 0.362289 0.835742
Si Si3 0.419989 0.853816 0.834003
Si Si4 0.580251 0.195609 0.669378
Si Si5 0.076645 0.697105 0.002096
Si Si6 0.586100 0.806029 0.497526
Si Si7 0.082596 0.552001 0.917577
Si Si8 0.919341 0.945862 0.092681
O O1 0.750000 0.314614 0.349884
O O2 0.549752 0.250000 0.318760
O O3 0.514510 0.333921 0.254481
O O4 0.496942 0.324554 0.418518
O O5 0.750000 0.370227 0.839233
O O6 0.531254 0.335233 0.750164
O O7 0.499599 0.413007 0.838071
O O8 0.521162 0.332000 0.916162
O O9 0.250000 0.842842 0.831467
O O10 0.486547 0.826481 0.915768
O O11 0.451971 0.909714 0.843656
O O12 0.750000 0.190177 0.649779
O O13 0.541416 0.250000 0.689032
O O14 0.494185 0.175611 0.587528
O O15 0.250000 0.697199 0.001472
O O16 0.015374 0.750000 0.008717
O O17 0.750000 0.825641 0.498244
O O18 0.582611 0.750000 0.497647
O O19 0.250000 0.556960 0.948333
O O20 0.052315 0.500125 0.879845
O O21 0.982821 0.563239 0.998584
O O22 0.750000 0.933602 0.091230
#
# Coordination Sequence:
#
# PCOD8239508 Si02
#       8
#     8   8   8   8   8   8   8   8
#     4   9  16  26  43  67  90 112 143 182 217 254
#     4  10  18  29  45  65  90 118 147 181 222 262
#     4   9  15  25  43  66  88 112 145 184 221 254
#     4   9  17  29  46  68  90 114 149 189 221 254
#     4   9  15  23  39  63  88 115 148 180 208 247
#     4   9  17  29  44  62  87 120 149 176 217 263
#     4   9  17  31  47  63  84 114 151 190 227 260
#     4  10  19  29  44  64  87 115 150 188 224 263
#
# _framework density 15.718418
#
# number of rings (size 3 to 8) (size 9 to 14) (size 15 to 20)
#    0.000    2.750    1.250    1.500    0.000    5.500 
#    0.000    0.625    0.000    1.125    0.000    0.875 
#    0.000    0.000    0.000    0.000    0.000    0.000 
#
# Total GULP energy -793478.639019 kJ/mol
# GULP energy per Si atom -12398.103735 kJ/mol
# Density = 1.568264 g / cm^3
# Si number density = 15.718418 Si / 1000 Ang^3
#
#
#
# Elastic Constant Matrix: (Units=GPa)
#
#
# Indices 1 2 3 4 5 6 
#
# 1 50.0794 33.5621 47.8356 0.0000 0.0000 0.0000
# 2 33.5621 94.1260 61.3421 0.0000 0.0000 0.0000
# 3 47.8356 61.3421 144.0657 0.0000 0.0000 0.0000
# 4 0.0000 0.0000 0.0000 14.7665 0.0000 0.0000
# 5 0.0000 0.0000 0.0000 0.0000 14.1717 0.0000
# 6 0.0000 0.0000 0.0000 0.0000 0.0000 18.7675
#
#
#
# Elastic Compliance Matrix: (Units=1/GPa)
#
#
# Indices 1 2 3 4 5 6 
#
# 1 0.031609 -0.006133 -0.007884 0.000000 0.000000 0.000000
# 2 -0.006133 0.015894 -0.004731 0.000000 0.000000 0.000000
# 3 -0.007884 -0.004731 0.011574 0.000000 0.000000 0.000000
# 4 0.000000 0.000000 0.000000 0.067721 0.000000 0.000000
# 5 0.000000 0.000000 0.000000 0.000000 0.070563 0.000000
# 6 0.000000 0.000000 0.000000 0.000000 0.000000 0.053284
#
#
# Mechanical properties :
#
#
# Convention : Reuss Voigt Hill
#
# Bulk Modulus (GPa) = 46.33769 63.75007 55.04388
# Shear Modulus (GPa) = 16.92994 19.24323 18.08659
#
# Velocity S-wave (km/s) = 3.28544 3.50272 3.39582
# Velocity P-wave (km/s) = 6.62843 7.55012 7.10424
#
# Compressibility (1/GPa) = 0.02158070
#
# Stress axis : x y z
#
# Youngs Moduli (GPa) = 31.63626 62.91626 86.40218
#
# Poissons Ratio (x) = 0.38584 0.68123
# Poissons Ratio (y) = 0.19401 0.40880
# Poissons Ratio (z) = 0.24943 0.29768
#
# Static dielectric constant tensor:
#      x y z
#    x 2.821700 0.000000 0.000000 
#    y 0.000000 2.991780 0.000000 
#    z 0.000000 0.000000 3.031330 
# 
# 
# High freq. dielectric constant tensor:
#      x y z
#    x 1.581580 0.000000 0.000000 
#    y 0.000000 1.586830 0.000000 
#    z 0.000000 0.000000 1.593450 
# 
# From -- ./inp_files/21958.got.cif
#   From: 2010.03.12/outbox.cif.g09.slc.cpg/sg59_11_cif.got.tgz:21958.got - 2010.04.16 16:29:54.
