data_PCOD8239378
_publ_section_title
;
Structure prediction by ZEFSAII (Michael W. Deem and Ramdas Pophale) SiO2 
 PCOD8239378
Probable space group: P M M N
;
_chemical_formula_sum "Si O2"
_cell_formula_units_Z 64
_cell_length_a 8.943553
_cell_length_b 23.309134
_cell_length_c 17.385935
_cell_angle_alpha 90.000000
_cell_angle_beta 90.000000
_cell_angle_gamma 90.000000
_cell_volume 3624.384589
_symmetry_space_group_name_H-M "P M M N"
_symmetry_group_IT_number 59
_space_group.IT_coordinate_system_code '2'
_symmetry_cell_setting 'orthorhombic'
loop_
_space_group_symop_operation_xyz
x,y,z
1/2-x,1/2-y,z
1/2+x,-y,-z
-x,1/2+y,-z
-x,-y,-z
1/2+x,1/2+y,-z
1/2-x,y,z
x,1/2-y,z
loop_
_atom_site_type_symbol
_atom_site_label
_atom_site_fract_x
_atom_site_fract_y
_atom_site_fract_z
Si Si1 0.073174 0.687591 0.717409
Si Si2 0.574556 0.184724 0.456838
Si Si3 0.572119 0.000727 0.917112
Si Si4 0.586427 0.397321 0.816106
Si Si5 0.574846 0.687204 0.276574
Si Si6 0.573029 0.890773 0.417636
Si Si7 0.082463 0.982396 0.325782
Si Si8 0.072026 0.931301 0.782232
O O1 0.250000 0.690204 0.714333
O O2 0.012513 0.750000 0.747266
O O3 0.017824 0.677154 0.630426
O O4 0.023429 0.635463 0.772730
O O5 0.750000 0.172267 0.465684
O O6 0.538371 0.250000 0.484612
O O7 0.484824 0.136463 0.503546
O O8 0.750000 0.991142 0.919692
O O9 0.501890 0.952666 0.861400
O O10 0.529842 0.063986 0.886496
O O11 0.500000 0.000000 0.000000
O O12 0.750000 0.372071 0.834008
O O13 0.476063 0.344424 0.801592
O O14 0.592935 0.436845 0.741704
O O15 0.750000 0.692158 0.273761
O O16 0.500724 0.750000 0.279513
O O17 0.521938 0.653243 0.351492
O O18 0.750000 0.899380 0.420914
O O19 0.498382 0.952802 0.399388
O O20 0.250000 0.002433 0.349486
O O21 0.986848 0.035803 0.293747
O O22 0.250000 0.939497 0.787088
#
# Coordination Sequence:
#
# PCOD8239378 Si02
#       8
#     8   8   8   8   8   8   8   8
#     4   8  16  32  53  75  98 127 165 206 246 293
#     4   9  17  30  47  66  91 126 167 210 256 301
#     4  10  20  34  53  78 104 126 152 188 232 281
#     4   8  16  29  44  64  90 119 151 187 223 265
#     4   9  17  27  40  61  90 124 158 191 230 275
#     4  10  18  28  43  65  94 126 165 212 257 296
#     4   9  17  30  46  66  95 128 162 200 244 293
#     4  10  18  31  54  79 101 127 161 199 242 292
#
# _framework density 17.658169999999998
#
# number of rings (size 3 to 8) (size 9 to 14) (size 15 to 20)
#    0.000    2.875    0.000    3.375    0.000    5.000 
#    0.000    1.875    0.000    3.750    0.000    1.750 
#    0.000    0.000    0.000    0.000    0.000    0.000 
#
# Total GULP energy -793130.642754 kJ/mol
# GULP energy per Si atom -12392.666293 kJ/mol
# Density = 1.761798 g / cm^3
# Si number density = 17.658170 Si / 1000 Ang^3
#
#
#
# Elastic Constant Matrix: (Units=GPa)
#
#
# Indices 1 2 3 4 5 6 
#
# 1 64.8826 37.9974 28.2258 0.0000 0.0000 0.0000
# 2 37.9974 108.4087 47.9734 0.0000 0.0000 0.0000
# 3 28.2258 47.9734 74.0917 0.0000 0.0000 0.0000
# 4 0.0000 0.0000 0.0000 21.7498 0.0000 0.0000
# 5 0.0000 0.0000 0.0000 0.0000 22.4193 0.0000
# 6 0.0000 0.0000 0.0000 0.0000 0.0000 22.5337
#
#
#
# Elastic Compliance Matrix: (Units=1/GPa)
#
#
# Indices 1 2 3 4 5 6 
#
# 1 0.020366 -0.005193 -0.004396 0.000000 0.000000 0.000000
# 2 -0.005193 0.014253 -0.007250 0.000000 0.000000 0.000000
# 3 -0.004396 -0.007250 0.019866 0.000000 0.000000 0.000000
# 4 0.000000 0.000000 0.000000 0.045978 0.000000 0.000000
# 5 0.000000 0.000000 0.000000 0.000000 0.044604 0.000000
# 6 0.000000 0.000000 0.000000 0.000000 0.000000 0.044378
#
#
# Mechanical properties :
#
#
# Convention : Reuss Voigt Hill
#
# Bulk Modulus (GPa) = 48.06280 52.86402 50.46341
# Shear Modulus (GPa) = 21.73352 22.21964 21.97658
#
# Velocity S-wave (km/s) = 3.51207 3.55113 3.53165
# Velocity P-wave (km/s) = 6.61239 6.84225 6.72830
#
# Compressibility (1/GPa) = 0.02080611
#
# Stress axis : x y z
#
# Youngs Moduli (GPa) = 49.10125 70.16114 50.33709
#
# Poissons Ratio (x) = 0.36434 0.22130
# Poissons Ratio (y) = 0.25498 0.36496
# Poissons Ratio (z) = 0.21586 0.50869
#
# Static dielectric constant tensor:
#      x y z
#    x 3.250320 0.000000 0.000000 
#    y 0.000000 3.959240 0.000000 
#    z 0.000000 0.000000 3.126130 
# 
# 
# High freq. dielectric constant tensor:
#      x y z
#    x 1.678210 0.000000 0.000000 
#    y 0.000000 1.680690 0.000000 
#    z 0.000000 0.000000 1.652270 
# 
# From -- ./inp_files/26564.got.cif
#   From: 2010.03.12/outbox.cif.g09.slc.cpg/sg59_14_cif.got.tgz:26564.got - 2010.04.16 16:29:54.
