data_PCOD8239088
_publ_section_title
;
Structure prediction by ZEFSAII (Michael W. Deem and Ramdas Pophale) SiO2 
 PCOD8239088
Probable space group: P M M N
;
_chemical_formula_sum "Si O2"
_cell_formula_units_Z 64
_cell_length_a 29.614432
_cell_length_b 9.186133
_cell_length_c 14.989914
_cell_angle_alpha 90.000000
_cell_angle_beta 90.000000
_cell_angle_gamma 90.000000
_cell_volume 4077.887849
_symmetry_space_group_name_H-M "P M M N"
_symmetry_group_IT_number 59
_space_group.IT_coordinate_system_code '2'
_symmetry_cell_setting 'orthorhombic'
loop_
_space_group_symop_operation_xyz
x,y,z
1/2-x,1/2-y,z
1/2+x,-y,-z
-x,1/2+y,-z
-x,-y,-z
1/2+x,1/2+y,-z
1/2-x,y,z
x,1/2-y,z
loop_
_atom_site_type_symbol
_atom_site_label
_atom_site_fract_x
_atom_site_fract_y
_atom_site_fract_z
Si Si1 0.956200 0.919983 0.828519
Si Si2 0.027753 0.080949 0.369135
Si Si3 0.610064 0.077051 0.958391
Si Si4 0.387991 0.419023 0.716265
Si Si5 0.201773 0.422178 0.795564
Si Si6 0.698818 0.579494 0.999790
Si Si7 0.443607 0.083980 0.555240
Si Si8 0.558442 0.081173 0.136924
O O1 0.943194 0.750000 0.834945
O O2 0.955207 0.978044 0.725945
O O3 0.005013 0.948166 0.873687
O O4 0.918966 0.015596 0.877264
O O5 0.018171 0.250000 0.356107
O O6 0.063485 0.048117 0.449837
O O7 0.980799 0.013584 0.398307
O O8 0.612457 0.250000 0.951459
O O9 0.585542 0.026276 0.049858
O O10 0.660695 0.012709 0.948468
O O11 0.389071 0.250000 0.743013
O O12 0.338580 0.486864 0.735678
O O13 0.397608 0.441914 0.610871
O O14 0.425505 0.496072 0.776012
O O15 0.250000 0.487059 0.762836
O O16 0.203729 0.250000 0.787321
O O17 0.193689 0.466174 0.897507
O O18 0.750000 0.541876 0.966697
O O19 0.689271 0.750000 0.985631
O O20 0.460094 0.250000 0.564771
O O21 0.567968 0.250000 0.153710
#
# Coordination Sequence:
#
# PCOD8239088 Si02
#       8
#     8   8   8   8   8   8   8   8
#     4  10  20  33  47  60  85 127 164 189 222 271
#     4   9  17  30  45  62  87 118 149 184 225 268
#     4  11  22  32  45  67  93 119 151 196 234 264
#     4  10  17  26  45  68  90 117 148 185 222 264
#     4   8  14  25  42  64  88 115 146 177 212 261
#     4   9  17  31  50  68  88 117 152 185 220 272
#     4   9  17  27  43  68  90 111 145 185 227 266
#     4  10  20  32  43  62  91 123 156 185 221 270
#
# _framework density 15.694399000000001
#
# number of rings (size 3 to 8) (size 9 to 14) (size 15 to 20)
#    0.000    2.500    2.500    1.500    0.000    1.750 
#    0.000    0.000    0.000    0.375    0.000    0.875 
#    0.000    5.000    0.000    0.000    0.000    0.125 
#
# Total GULP energy -793134.588915 kJ/mol
# GULP energy per Si atom -12392.727952 kJ/mol
# Density = 1.565868 g / cm^3
# Si number density = 15.694399 Si / 1000 Ang^3
#
#
#
# Elastic Constant Matrix: (Units=GPa)
#
#
# Indices 1 2 3 4 5 6 
#
# 1 110.0693 33.0458 48.4240 0.0000 0.0000 0.0000
# 2 33.0458 35.7785 27.8429 0.0000 0.0000 0.0000
# 3 48.4240 27.8429 90.4011 0.0000 0.0000 0.0000
# 4 0.0000 0.0000 0.0000 16.8269 0.0000 0.0000
# 5 0.0000 0.0000 0.0000 0.0000 20.5930 0.0000
# 6 0.0000 0.0000 0.0000 0.0000 0.0000 20.2069
#
#
#
# Elastic Compliance Matrix: (Units=1/GPa)
#
#
# Indices 1 2 3 4 5 6 
#
# 1 0.013880 -0.009251 -0.004586 0.000000 0.000000 0.000000
# 2 -0.009251 0.042927 -0.008266 0.000000 0.000000 0.000000
# 3 -0.004586 -0.008266 0.016064 0.000000 0.000000 0.000000
# 4 0.000000 0.000000 0.000000 0.059429 0.000000 0.000000
# 5 0.000000 0.000000 0.000000 0.000000 0.048560 0.000000
# 6 0.000000 0.000000 0.000000 0.000000 0.000000 0.049488
#
#
# Mechanical properties :
#
#
# Convention : Reuss Voigt Hill
#
# Bulk Modulus (GPa) = 34.88505 50.54160 42.71332
# Shear Modulus (GPa) = 17.59893 19.98776 18.79335
#
# Velocity S-wave (km/s) = 3.35229 3.57257 3.46418
# Velocity P-wave (km/s) = 6.10408 7.02077 6.57841
#
# Compressibility (1/GPa) = 0.02866558
#
# Stress axis : x y z
#
# Youngs Moduli (GPa) = 72.04547 23.29548 62.25151
#
# Poissons Ratio (x) = 0.21552 0.28546
# Poissons Ratio (y) = 0.66652 0.51454
# Poissons Ratio (z) = 0.33037 0.19255
#
# Static dielectric constant tensor:
#      x y z
#    x 3.540400 0.000000 0.000000 
#    y 0.000000 2.873880 0.000000 
#    z 0.000000 0.000000 3.089580 
# 
# 
# High freq. dielectric constant tensor:
#      x y z
#    x 1.591120 0.000000 0.000000 
#    y 0.000000 1.591550 0.000000 
#    z 0.000000 0.000000 1.587320 
# 
# From -- ./inp_files/25123.got.cif
#   From: 2010.03.12/outbox.cif.g09.slc.cpg/sg59_13_cif.got.tgz:25123.got - 2010.04.16 16:29:54.
