data_PCOD8239819
_publ_section_title
;
Structure prediction by ZEFSAII (Michael W. Deem and Ramdas Pophale) SiO2 
 PCOD8239819
Probable space group: P M M N
;
_chemical_formula_sum "Si O2"
_cell_formula_units_Z 64
_cell_length_a 23.309814
_cell_length_b 8.909014
_cell_length_c 18.872089
_cell_angle_alpha 90.000000
_cell_angle_beta 90.000000
_cell_angle_gamma 90.000000
_cell_volume 3919.118774
_symmetry_space_group_name_H-M "P M M N"
_symmetry_group_IT_number 59
_space_group.IT_coordinate_system_code '2'
_symmetry_cell_setting 'orthorhombic'
loop_
_space_group_symop_operation_xyz
x,y,z
1/2-x,1/2-y,z
1/2+x,-y,-z
-x,1/2+y,-z
-x,-y,-z
1/2+x,1/2+y,-z
1/2-x,y,z
x,1/2-y,z
loop_
_atom_site_type_symbol
_atom_site_label
_atom_site_fract_x
_atom_site_fract_y
_atom_site_fract_z
Si Si1 0.914585 0.075447 0.014404
Si Si2 0.686333 0.071863 0.112210
Si Si3 0.502209 0.927212 0.251460
Si Si4 0.374773 0.574831 0.746738
Si Si5 0.815678 0.423958 0.401111
Si Si6 0.475824 0.424160 0.108147
Si Si7 0.083643 0.423937 0.529394
Si Si8 0.518136 0.923851 0.609581
O O1 0.914934 0.250000 0.993944
O O2 0.925554 0.980379 0.943774
O O3 0.853925 0.022282 0.046800
O O4 0.962578 0.041720 0.073501
O O5 0.750000 0.004248 0.100697
O O6 0.689105 0.250000 0.115947
O O7 0.660584 0.012737 0.186112
O O8 0.501388 0.750000 0.249516
O O9 0.566816 0.984153 0.258945
O O10 0.471227 0.987986 0.181511
O O11 0.466320 0.985560 0.319337
O O12 0.390147 0.750000 0.755876
O O13 0.336087 0.543732 0.678518
O O14 0.750000 0.474723 0.407722
O O15 0.823371 0.250000 0.420353
O O16 0.851572 0.522380 0.457159
O O17 0.466927 0.250000 0.123361
O O18 0.075821 0.250000 0.549442
O O19 0.042517 0.521294 0.579049
O O20 0.068659 0.451813 0.447046
O O21 0.510918 0.750000 0.628650
#
# Coordination Sequence:
#
# PCOD8239819 Si02
#       8
#     8   8   8   8   8   8   8   8
#     4   9  17  30  47  71  96 123 162 203 241 284
#     4   9  16  28  48  71  96 129 168 203 235 278
#     4  12  22  31  48  74 100 128 163 202 248 293
#     4  10  18  31  47  68  99 135 172 202 233 279
#     4  10  20  32  49  72 100 138 176 205 237 284
#     4  10  19  32  49  68  94 129 162 198 246 292
#     4  10  20  33  50  73  97 127 164 207 251 289
#     4  10  20  34  51  70  97 129 163 201 248 303
#
# _framework density 16.330200999999999
#
# number of rings (size 3 to 8) (size 9 to 14) (size 15 to 20)
#    0.000    2.000    2.500    2.625    0.000    3.750 
#    0.000    0.000    0.000    2.250    0.000    0.875 
#    0.000    5.000    0.000    0.000    0.000    0.000 
#
# Total GULP energy -793737.821833 kJ/mol
# GULP energy per Si atom -12402.153466 kJ/mol
# Density = 1.629303 g / cm^3
# Si number density = 16.330201 Si / 1000 Ang^3
#
#
#
# Elastic Constant Matrix: (Units=GPa)
#
#
# Indices 1 2 3 4 5 6 
#
# 1 84.9508 34.1658 54.7153 0.0000 0.0000 0.0000
# 2 34.1658 83.5498 59.6383 0.0000 0.0000 0.0000
# 3 54.7153 59.6383 118.8642 0.0000 0.0000 0.0000
# 4 0.0000 0.0000 0.0000 26.2682 0.0000 0.0000
# 5 0.0000 0.0000 0.0000 0.0000 23.1233 0.0000
# 6 0.0000 0.0000 0.0000 0.0000 0.0000 19.1358
#
#
#
# Elastic Compliance Matrix: (Units=1/GPa)
#
#
# Indices 1 2 3 4 5 6 
#
# 1 0.016971 -0.002124 -0.006746 0.000000 0.000000 0.000000
# 2 -0.002124 0.018913 -0.008511 0.000000 0.000000 0.000000
# 3 -0.006746 -0.008511 0.015789 0.000000 0.000000 0.000000
# 4 0.000000 0.000000 0.000000 0.038069 0.000000 0.000000
# 5 0.000000 0.000000 0.000000 0.000000 0.043246 0.000000
# 6 0.000000 0.000000 0.000000 0.000000 0.000000 0.052258
#
#
# Mechanical properties :
#
#
# Convention : Reuss Voigt Hill
#
# Bulk Modulus (GPa) = 59.14058 64.93372 62.03715
# Shear Modulus (GPa) = 22.15854 22.96183 22.56019
#
# Velocity S-wave (km/s) = 3.68762 3.75386 3.72089
# Velocity P-wave (km/s) = 7.37736 7.65754 7.51876
#
# Compressibility (1/GPa) = 0.01690886
#
# Stress axis : x y z
#
# Youngs Moduli (GPa) = 58.92406 52.87313 63.33599
#
# Poissons Ratio (x) = 0.11233 0.42727
# Poissons Ratio (y) = 0.12518 0.53908
# Poissons Ratio (z) = 0.39751 0.45003
#
# Static dielectric constant tensor:
#      x y z
#    x 3.037080 0.000000 0.000000 
#    y 0.000000 3.015060 0.000000 
#    z 0.000000 0.000000 3.220750 
# 
# 
# High freq. dielectric constant tensor:
#      x y z
#    x 1.600940 0.000000 0.000000 
#    y 0.000000 1.623990 0.000000 
#    z 0.000000 0.000000 1.628130 
# 
# From -- ./inp_files/28464.got.cif
#   From: 2010.03.12/outbox.cif.g09.slc.cpg/sg59_15_cif.got.tgz:28464.got - 2010.04.16 16:29:54.
