data_PCOD8239847
_publ_section_title
;
Structure prediction by ZEFSAII (Michael W. Deem and Ramdas Pophale) SiO2 
 PCOD8239847
Probable space group: P M M N
;
_chemical_formula_sum "Si O2"
_cell_formula_units_Z 64
_cell_length_a 8.679062
_cell_length_b 14.743918
_cell_length_c 26.361505
_cell_angle_alpha 90.000000
_cell_angle_beta 90.000000
_cell_angle_gamma 90.000000
_cell_volume 3373.307241
_symmetry_space_group_name_H-M "P M M N"
_symmetry_group_IT_number 59
_space_group.IT_coordinate_system_code '2'
_symmetry_cell_setting 'orthorhombic'
loop_
_space_group_symop_operation_xyz
x,y,z
1/2-x,1/2-y,z
1/2+x,-y,-z
-x,1/2+y,-z
-x,-y,-z
1/2+x,1/2+y,-z
1/2-x,y,z
x,1/2-y,z
loop_
_atom_site_type_symbol
_atom_site_label
_atom_site_fract_x
_atom_site_fract_y
_atom_site_fract_z
Si Si1 0.431734 0.499930 0.709570
Si Si2 0.423541 0.851993 0.111784
Si Si3 0.932445 0.354967 0.371272
Si Si4 0.931393 0.502055 0.177880
Si Si5 0.932442 0.098164 0.998069
Si Si6 0.932659 0.499370 0.555670
Si Si7 0.432970 0.145098 0.629155
Si Si8 0.431706 0.651842 0.893846
O O1 0.250000 0.496288 0.714492
O O2 0.480613 0.592259 0.680367
O O3 0.506086 0.500392 0.765821
O O4 0.486500 0.409314 0.679726
O O5 0.250000 0.892085 0.113809
O O6 0.425487 0.750000 0.131173
O O7 0.533369 0.904011 0.150380
O O8 0.488275 0.855033 0.054044
O O9 0.750000 0.359720 0.379464
O O10 0.988490 0.250000 0.368732
O O11 0.011789 0.408070 0.417370
O O12 0.750000 0.488849 0.182447
O O13 0.006488 0.422515 0.143417
O O14 0.750000 0.096701 0.999245
O O15 0.996061 0.147887 0.048492
O O16 0.000000 0.000000 0.000000
O O17 0.750000 0.498305 0.554326
O O18 0.000000 0.500000 0.500000
O O19 0.991392 0.406943 0.581979
O O20 0.250000 0.140479 0.622548
O O21 0.489237 0.250000 0.631878
O O22 0.250000 0.635440 0.895826
O O23 0.473094 0.750000 0.871123
#
# Coordination Sequence:
#
# PCOD8239847 Si02
#       8
#     8   8   8   8   8   8   8   8
#     4   8  16  31  52  79 107 133 167 214 265 309
#     4  10  21  35  50  69  97 134 170 205 253 312
#     4   9  18  35  58  81 107 141 180 220 263 312
#     4  10  19  32  52  78 104 130 166 213 258 302
#     4  10  18  31  51  70  93 126 164 205 252 306
#     4  11  22  36  55  81 115 148 180 219 261 308
#     4   9  18  35  57  78 104 141 183 223 265 312
#     4   9  17  29  47  72  99 126 159 201 251 305
#
# _framework density 18.972477999999999
#
# number of rings (size 3 to 8) (size 9 to 14) (size 15 to 20)
#    0.000    2.500    1.250    2.250    0.000    3.750 
#    0.000    6.250    0.000    2.250    0.000    0.000 
#    0.000    0.000    0.000    0.000    0.000    0.000 
#
# Total GULP energy -793199.983638 kJ/mol
# GULP energy per Si atom -12393.749744 kJ/mol
# Density = 1.892930 g / cm^3
# Si number density = 18.972478 Si / 1000 Ang^3
#
#
#
# Elastic Constant Matrix: (Units=GPa)
#
#
# Indices 1 2 3 4 5 6 
#
# 1 26.3857 23.2850 28.3859 0.0000 0.0000 0.0000
# 2 23.2850 159.0007 78.3702 0.0000 0.0000 0.0000
# 3 28.3859 78.3702 178.5259 0.0000 0.0000 0.0000
# 4 0.0000 0.0000 0.0000 8.2498 0.0000 0.0000
# 5 0.0000 0.0000 0.0000 0.0000 19.2058 0.0000
# 6 0.0000 0.0000 0.0000 0.0000 0.0000 22.9349
#
#
#
# Elastic Compliance Matrix: (Units=1/GPa)
#
#
# Indices 1 2 3 4 5 6 
#
# 1 0.047774 -0.004150 -0.005774 0.000000 0.000000 0.000000
# 2 -0.004150 0.008386 -0.003022 0.000000 0.000000 0.000000
# 3 -0.005774 -0.003022 0.007846 0.000000 0.000000 0.000000
# 4 0.000000 0.000000 0.000000 0.121214 0.000000 0.000000
# 5 0.000000 0.000000 0.000000 0.000000 0.052068 0.000000
# 6 0.000000 0.000000 0.000000 0.000000 0.000000 0.043602
#
#
# Mechanical properties :
#
#
# Convention : Reuss Voigt Hill
#
# Bulk Modulus (GPa) = 26.23700 69.33272 47.78486
# Shear Modulus (GPa) = 15.65010 25.66952 20.65981
#
# Velocity S-wave (km/s) = 2.87520 3.68229 3.30348
# Velocity P-wave (km/s) = 4.98812 7.39609 6.30807
#
# Compressibility (1/GPa) = 0.03811411
#
# Stress axis : x y z
#
# Youngs Moduli (GPa) = 20.93195 119.24080 127.45378
#
# Poissons Ratio (x) = 0.49488 0.73595
# Poissons Ratio (y) = 0.08687 0.38512
# Poissons Ratio (z) = 0.12087 0.36030
#
# Static dielectric constant tensor:
#      x y z
#    x 3.007740 0.000000 0.000000 
#    y 0.000000 3.589270 0.000000 
#    z 0.000000 0.000000 3.930240 
# 
# 
# High freq. dielectric constant tensor:
#      x y z
#    x 1.698100 0.000000 0.000000 
#    y 0.000000 1.744220 0.000000 
#    z 0.000000 0.000000 1.742710 
# 
# From -- ./inp_files/31587.got.cif
#   From: 2010.03.12/outbox.cif.g09.slc.cpg/sg59_16_cif.got.tgz:31587.got - 2010.04.16 16:29:54.
