data_PCOD8239534
_publ_section_title
;
Structure prediction by ZEFSAII (Michael W. Deem and Ramdas Pophale) SiO2 
 PCOD8239534
Probable space group: P M M N
;
_chemical_formula_sum "Si O2"
_cell_formula_units_Z 64
_cell_length_a 22.987214
_cell_length_b 8.936961
_cell_length_c 17.143428
_cell_angle_alpha 90.000000
_cell_angle_beta 90.000000
_cell_angle_gamma 90.000000
_cell_volume 3521.874446
_symmetry_space_group_name_H-M "P M M N"
_symmetry_group_IT_number 59
_space_group.IT_coordinate_system_code '2'
_symmetry_cell_setting 'orthorhombic'
loop_
_space_group_symop_operation_xyz
x,y,z
1/2-x,1/2-y,z
1/2+x,-y,-z
-x,1/2+y,-z
-x,-y,-z
1/2+x,1/2+y,-z
1/2-x,y,z
x,1/2-y,z
loop_
_atom_site_type_symbol
_atom_site_label
_atom_site_fract_x
_atom_site_fract_y
_atom_site_fract_z
Si Si1 0.424099 0.427355 0.723021
Si Si2 0.684688 0.078482 0.773666
Si Si3 0.315841 0.924450 0.782227
Si Si4 0.402599 0.083620 0.320176
Si Si5 0.485811 0.081164 0.172590
Si Si6 0.492625 0.574709 0.417285
Si Si7 0.106447 0.924055 0.077171
Si Si8 0.315931 0.426202 0.948675
O O1 0.419870 0.250000 0.730936
O O2 0.360108 0.501324 0.720153
O O3 0.457551 0.490060 0.799405
O O4 0.456582 0.474063 0.642969
O O5 0.750000 0.026737 0.789219
O O6 0.679988 0.250000 0.748007
O O7 0.650709 0.049258 0.852814
O O8 0.660275 0.980729 0.702282
O O9 0.250000 0.948090 0.751330
O O10 0.330022 0.750000 0.792483
O O11 0.324890 0.006831 0.863649
O O12 0.396015 0.250000 0.354712
O O13 0.440925 0.083561 0.243000
O O14 0.430526 0.977357 0.384880
O O15 0.503724 0.250000 0.148715
O O16 0.455558 0.000042 0.098520
O O17 0.500000 0.500000 0.500000
O O18 0.491854 0.750000 0.428802
O O19 0.095601 0.750000 0.060127
O O20 0.135180 0.000228 0.002482
O O21 0.250000 0.462034 0.978085
O O22 0.326777 0.250000 0.945548
#
# Coordination Sequence:
#
# PCOD8239534 Si02
#       8
#     8   8   8   8   8   8   8   8
#     4  10  20  35  56  81 107 135 167 204 250 302
#     4   9  17  28  43  65  95 133 173 209 247 292
#     4  10  21  37  57  79 102 132 171 212 255 304
#     4   9  17  29  46  69  98 130 164 202 241 285
#     4   9  17  30  48  71 100 134 170 208 252 301
#     4  10  20  34  55  82 108 132 159 195 240 292
#     4  10  18  29  46  69  99 134 174 219 264 308
#     4  10  20  33  49  70  98 133 174 221 269 312
#
# _framework density 18.172139999999999
#
# number of rings (size 3 to 8) (size 9 to 14) (size 15 to 20)
#    0.000    2.375    0.000    3.000    0.000    7.250 
#    0.000    0.625    0.000    0.750    0.000    3.500 
#    0.000    0.000    0.000    0.000    0.000    0.000 
#
# Total GULP energy -793552.165766 kJ/mol
# GULP energy per Si atom -12399.252590 kJ/mol
# Density = 1.813078 g / cm^3
# Si number density = 18.172140 Si / 1000 Ang^3
#
#
#
# Elastic Constant Matrix: (Units=GPa)
#
#
# Indices 1 2 3 4 5 6 
#
# 1 79.2031 35.0943 28.0992 0.0000 0.0000 0.0000
# 2 35.0943 94.6293 38.4955 0.0000 0.0000 0.0000
# 3 28.0992 38.4955 62.5490 0.0000 0.0000 0.0000
# 4 0.0000 0.0000 0.0000 30.2880 0.0000 0.0000
# 5 0.0000 0.0000 0.0000 0.0000 23.7333 0.0000
# 6 0.0000 0.0000 0.0000 0.0000 0.0000 32.7909
#
#
#
# Elastic Compliance Matrix: (Units=1/GPa)
#
#
# Indices 1 2 3 4 5 6 
#
# 1 0.016100 -0.004040 -0.004746 0.000000 0.000000 0.000000
# 2 -0.004040 0.015111 -0.007485 0.000000 0.000000 0.000000
# 3 -0.004746 -0.007485 0.022726 0.000000 0.000000 0.000000
# 4 0.000000 0.000000 0.000000 0.033016 0.000000 0.000000
# 5 0.000000 0.000000 0.000000 0.000000 0.042135 0.000000
# 6 0.000000 0.000000 0.000000 0.000000 0.000000 0.030496
#
#
# Mechanical properties :
#
#
# Convention : Reuss Voigt Hill
#
# Bulk Modulus (GPa) = 46.74111 48.86216 47.80163
# Shear Modulus (GPa) = 25.09313 26.34193 25.71753
#
# Velocity S-wave (km/s) = 3.72002 3.81146 3.76602
# Velocity P-wave (km/s) = 6.65045 6.80562 6.72849
#
# Compressibility (1/GPa) = 0.02139444
#
# Stress axis : x y z
#
# Youngs Moduli (GPa) = 62.11307 66.17818 44.00207
#
# Poissons Ratio (x) = 0.26736 0.20884
# Poissons Ratio (y) = 0.25094 0.32935
# Poissons Ratio (z) = 0.29480 0.49534
#
# Static dielectric constant tensor:
#      x y z
#    x 3.194250 0.000000 0.000000 
#    y 0.000000 3.545780 0.000000 
#    z 0.000000 0.000000 3.171420 
# 
# 
# High freq. dielectric constant tensor:
#      x y z
#    x 1.701900 0.000000 0.000000 
#    y 0.000000 1.721140 0.000000 
#    z 0.000000 0.000000 1.670270 
# 
# From -- ./inp_files/24661.got.cif
#   From: 2010.03.12/outbox.cif.g09.slc.cpg/sg59_13_cif.got.tgz:24661.got - 2010.04.16 16:29:54.
