data_PCOD8239072
_publ_section_title
;
Structure prediction by ZEFSAII (Michael W. Deem and Ramdas Pophale) SiO2 
 PCOD8239072
Probable space group: P M M N
;
_chemical_formula_sum "Si O2"
_cell_formula_units_Z 48
_cell_length_a 21.912941
_cell_length_b 8.710618
_cell_length_c 15.290207
_cell_angle_alpha 90.000000
_cell_angle_beta 90.000000
_cell_angle_gamma 90.000000
_cell_volume 2918.522211
_symmetry_space_group_name_H-M "P M M N"
_symmetry_group_IT_number 59
_space_group.IT_coordinate_system_code '2'
_symmetry_cell_setting 'orthorhombic'
loop_
_space_group_symop_operation_xyz
x,y,z
1/2-x,1/2-y,z
1/2+x,-y,-z
-x,1/2+y,-z
-x,-y,-z
1/2+x,1/2+y,-z
1/2-x,y,z
x,1/2-y,z
loop_
_atom_site_type_symbol
_atom_site_label
_atom_site_fract_x
_atom_site_fract_y
_atom_site_fract_z
Si Si1 0.536534 0.071818 0.381655
Si Si2 0.433699 0.431931 0.980266
Si Si3 0.317952 0.932415 0.304752
Si Si4 0.962759 0.429004 0.188189
Si Si5 0.593552 0.068118 0.848857
Si Si6 0.586699 0.430557 0.559694
O O1 0.520680 0.250000 0.394801
O O2 0.564554 0.041598 0.285421
O O3 0.584303 0.018071 0.457334
O O4 0.473950 0.980674 0.390296
O O5 0.433022 0.250000 0.984657
O O6 0.389146 0.501444 0.054721
O O7 0.500000 0.500000 0.000000
O O8 0.417580 0.488607 0.881841
O O9 0.250000 0.004001 0.304544
O O10 0.314136 0.750000 0.308868
O O11 0.352628 0.982384 0.216370
O O12 0.354275 0.998356 0.389781
O O13 0.966125 0.250000 0.165571
O O14 0.030701 0.496369 0.185191
O O15 0.585695 0.250000 0.853928
O O16 0.590216 0.250000 0.567985
#
# Coordination Sequence:
#
# PCOD8239072 Si02
#       6
#     8   8   8   8   8   8
#     4   9  17  26  41  63  88 114 141 176 219 260
#     4  10  18  27  40  59  84 112 141 171 209 254
#     4   9  17  28  44  65  87 114 148 181 214 256
#     4  10  17  26  40  61  88 114 141 172 213 260
#     4  10  17  27  42  60  84 113 143 175 212 253
#     4   9  16  28  43  61  85 114 145 177 214 258
#
# _framework density 16.446680000000001
#
# number of rings (size 3 to 8) (size 9 to 14) (size 15 to 20)
#    0.000    2.500    1.667    4.500    0.000    0.667 
#    0.000    0.000    0.000    4.500    0.000    1.167 
#    0.000    6.667    0.000    0.000    0.000    0.000 
#
# Total GULP energy -594748.731965 kJ/mol
# GULP energy per Si atom -12390.598583 kJ/mol
# Density = 1.640925 g / cm^3
# Si number density = 16.446680 Si / 1000 Ang^3
#
#
#
# Elastic Constant Matrix: (Units=GPa)
#
#
# Indices 1 2 3 4 5 6 
#
# 1 75.5197 15.4361 60.3798 0.0000 0.0000 0.0000
# 2 15.4361 56.9238 35.3332 0.0000 0.0000 0.0000
# 3 60.3798 35.3332 170.2677 0.0000 0.0000 0.0000
# 4 0.0000 0.0000 0.0000 20.9842 0.0000 0.0000
# 5 0.0000 0.0000 0.0000 0.0000 20.3404 0.0000
# 6 0.0000 0.0000 0.0000 0.0000 0.0000 10.5629
#
#
#
# Elastic Compliance Matrix: (Units=1/GPa)
#
#
# Indices 1 2 3 4 5 6 
#
# 1 0.018540 -0.001087 -0.006349 0.000000 0.000000 0.000000
# 2 -0.001087 0.020228 -0.003812 0.000000 0.000000 0.000000
# 3 -0.006349 -0.003812 0.008916 0.000000 0.000000 0.000000
# 4 0.000000 0.000000 0.000000 0.047655 0.000000 0.000000
# 5 0.000000 0.000000 0.000000 0.000000 0.049163 0.000000
# 6 0.000000 0.000000 0.000000 0.000000 0.000000 0.094671
#
#
# Mechanical properties :
#
#
# Convention : Reuss Voigt Hill
#
# Bulk Modulus (GPa) = 39.70153 58.33438 49.01795
# Shear Modulus (GPa) = 18.51408 23.14832 20.83120
#
# Velocity S-wave (km/s) = 3.35879 3.75571 3.56278
# Velocity P-wave (km/s) = 6.26370 7.37244 6.84057
#
# Compressibility (1/GPa) = 0.02518795
#
# Stress axis : x y z
#
# Youngs Moduli (GPa) = 53.93772 49.43548 112.16140
#
# Poissons Ratio (x) = 0.05371 0.71212
# Poissons Ratio (y) = 0.05861 0.42760
# Poissons Ratio (z) = 0.34245 0.18847
#
# Static dielectric constant tensor:
#      x y z
#    x 2.857490 0.000000 0.000000 
#    y 0.000000 3.037650 0.000000 
#    z 0.000000 0.000000 3.999350 
# 
# 
# High freq. dielectric constant tensor:
#      x y z
#    x 1.563260 0.000000 0.000000 
#    y 0.000000 1.628810 0.000000 
#    z 0.000000 0.000000 1.659890 
# 
# From -- ./inp_files/28005.got.cif
#   From: 2010.03.12/outbox.cif.g09.slc.cpg/sg59_15_cif.got.tgz:28005.got - 2010.04.16 16:29:54.
