data_PCOD8239231
_publ_section_title
;
Structure prediction by ZEFSAII (Michael W. Deem and Ramdas Pophale) SiO2 
 PCOD8239231
Probable space group: P M M N
;
_chemical_formula_sum "Si O2"
_cell_formula_units_Z 48
_cell_length_a 20.571744
_cell_length_b 9.251230
_cell_length_c 15.129363
_cell_angle_alpha 90.000000
_cell_angle_beta 90.000000
_cell_angle_gamma 90.000000
_cell_volume 2879.328610
_symmetry_space_group_name_H-M "P M M N"
_symmetry_group_IT_number 59
_space_group.IT_coordinate_system_code '2'
_symmetry_cell_setting 'orthorhombic'
loop_
_space_group_symop_operation_xyz
x,y,z
1/2-x,1/2-y,z
1/2+x,-y,-z
-x,1/2+y,-z
-x,-y,-z
1/2+x,1/2+y,-z
1/2-x,y,z
x,1/2-y,z
loop_
_atom_site_type_symbol
_atom_site_label
_atom_site_fract_x
_atom_site_fract_y
_atom_site_fract_z
Si Si1 0.097883 0.581157 0.749260
Si Si2 0.034309 0.917348 0.267452
Si Si3 0.178544 0.920059 0.582876
Si Si4 0.065361 0.412123 0.102774
Si Si5 0.937732 0.082797 0.535292
Si Si6 0.086381 0.910485 0.941324
O O1 0.077366 0.750000 0.743943
O O2 0.155923 0.543296 0.682588
O O3 0.121598 0.544303 0.849388
O O4 0.036346 0.486729 0.721328
O O5 0.026167 0.750000 0.241112
O O6 0.071882 0.936086 0.359891
O O7 0.076791 0.996138 0.191881
O O8 0.250000 0.990254 0.567939
O O9 0.183820 0.750000 0.569904
O O10 0.126729 0.981490 0.512033
O O11 0.091289 0.250000 0.117279
O O12 0.989853 0.414147 0.079578
O O13 0.104985 0.481668 0.020697
O O14 0.947535 0.250000 0.509403
O O15 0.000000 0.000000 0.500000
O O16 0.107466 0.750000 0.970886
#
# Coordination Sequence:
#
# PCOD8239231 Si02
#       6
#     8   8   8   8   8   8
#     4   9  16  27  44  64  87 118 151 182 222 271
#     4  10  18  26  40  64  91 118 148 186 230 271
#     4   9  17  30  48  69  93 121 155 193 231 278
#     4   9  16  25  38  58  85 117 147 179 220 266
#     4  10  19  30  47  69  92 121 156 193 235 278
#     4   8  14  23  36  57  85 114 142 176 217 262
#
# _framework density 16.670553999999999
#
# number of rings (size 3 to 8) (size 9 to 14) (size 15 to 20)
#    0.000    2.833    1.667    2.000    0.000    4.667 
#    0.000    0.000    0.000    2.000    0.000    1.167 
#    0.000    9.333    0.000    0.000    0.000    0.000 
#
# Total GULP energy -594933.500455 kJ/mol
# GULP energy per Si atom -12394.447926 kJ/mol
# Density = 1.663261 g / cm^3
# Si number density = 16.670554 Si / 1000 Ang^3
#
#
#
# Elastic Constant Matrix: (Units=GPa)
#
#
# Indices 1 2 3 4 5 6 
#
# 1 76.6455 28.9938 56.1570 0.0000 0.0000 0.0000
# 2 28.9938 80.6421 56.0662 0.0000 0.0000 0.0000
# 3 56.1570 56.0662 137.0808 0.0000 0.0000 0.0000
# 4 0.0000 0.0000 0.0000 25.2270 0.0000 0.0000
# 5 0.0000 0.0000 0.0000 0.0000 14.4237 0.0000
# 6 0.0000 0.0000 0.0000 0.0000 0.0000 10.1863
#
#
#
# Elastic Compliance Matrix: (Units=1/GPa)
#
#
# Indices 1 2 3 4 5 6 
#
# 1 0.018864 -0.001970 -0.006922 0.000000 0.000000 0.000000
# 2 -0.001970 0.017533 -0.006364 0.000000 0.000000 0.000000
# 3 -0.006922 -0.006364 0.012734 0.000000 0.000000 0.000000
# 4 0.000000 0.000000 0.000000 0.039640 0.000000 0.000000
# 5 0.000000 0.000000 0.000000 0.000000 0.069330 0.000000
# 6 0.000000 0.000000 0.000000 0.000000 0.000000 0.098171
#
#
# Mechanical properties :
#
#
# Convention : Reuss Voigt Hill
#
# Bulk Modulus (GPa) = 53.70924 64.08916 58.89920
# Shear Modulus (GPa) = 17.06536 20.17749 18.62142
#
# Velocity S-wave (km/s) = 3.20298 3.48281 3.34582
# Velocity P-wave (km/s) = 6.77987 7.39603 7.09464
#
# Compressibility (1/GPa) = 0.01861877
#
# Stress axis : x y z
#
# Youngs Moduli (GPa) = 53.01092 57.03407 78.53102
#
# Poissons Ratio (x) = 0.11233 0.54362
# Poissons Ratio (y) = 0.10441 0.49980
# Poissons Ratio (z) = 0.36696 0.36298
#
# Static dielectric constant tensor:
#      x y z
#    x 2.815430 0.000000 0.000000 
#    y 0.000000 3.132680 0.000000 
#    z 0.000000 0.000000 3.525430 
# 
# 
# High freq. dielectric constant tensor:
#      x y z
#    x 1.575520 0.000000 0.000000 
#    y 0.000000 1.632000 0.000000 
#    z 0.000000 0.000000 1.662170 
# 
# From -- ./inp_files/20776.got.cif
#   From: 2010.03.12/outbox.cif.g09.slc.cpg/sg59_11_cif.got.tgz:20776.got - 2010.04.16 16:29:54.
