data_PCOD8239074
_publ_section_title
;
Structure prediction by ZEFSAII (Michael W. Deem and Ramdas Pophale) SiO2 
 PCOD8239074
Probable space group: P M M N
;
_chemical_formula_sum "Si O2"
_cell_formula_units_Z 64
_cell_length_a 8.971374
_cell_length_b 22.691215
_cell_length_c 20.281520
_cell_angle_alpha 90.000000
_cell_angle_beta 90.000000
_cell_angle_gamma 90.000000
_cell_volume 4128.736939
_symmetry_space_group_name_H-M "P M M N"
_symmetry_group_IT_number 59
_space_group.IT_coordinate_system_code '2'
_symmetry_cell_setting 'orthorhombic'
loop_
_space_group_symop_operation_xyz
x,y,z
1/2-x,1/2-y,z
1/2+x,-y,-z
-x,1/2+y,-z
-x,-y,-z
1/2+x,1/2+y,-z
1/2-x,y,z
x,1/2-y,z
loop_
_atom_site_type_symbol
_atom_site_label
_atom_site_fract_x
_atom_site_fract_y
_atom_site_fract_z
Si Si1 0.420537 0.442025 0.478590
Si Si2 0.576759 0.473974 0.209620
Si Si3 0.925768 0.601144 0.387173
Si Si4 0.423564 0.108639 0.826486
Si Si5 0.581865 0.081726 0.955450
Si Si6 0.074492 0.479621 0.342188
Si Si7 0.422342 0.819329 0.286140
Si Si8 0.418119 0.445316 0.081265
O O1 0.500000 0.500000 0.500000
O O2 0.250000 0.458253 0.485365
O O3 0.458137 0.391759 0.533327
O O4 0.456933 0.431165 0.400988
O O5 0.750000 0.458673 0.213033
O O6 0.548090 0.543342 0.200945
O O7 0.496687 0.452669 0.276352
O O8 0.506028 0.437307 0.149595
O O9 0.750000 0.599969 0.371194
O O10 0.996860 0.541488 0.358879
O O11 0.000032 0.656845 0.352305
O O12 0.250000 0.123110 0.831489
O O13 0.494483 0.116741 0.898666
O O14 0.500959 0.154568 0.778393
O O15 0.750000 0.105995 0.960011
O O16 0.581968 0.013005 0.939479
O O17 0.499936 0.092949 0.025011
O O18 0.250000 0.490417 0.331700
O O19 0.250000 0.837737 0.286302
O O20 0.444554 0.750000 0.285147
O O21 0.250000 0.421892 0.089647
#
# Coordination Sequence:
#
# PCOD8239074 Si02
#       8
#     8   8   8   8   8   8   8   8
#     4   8  16  27  40  59  80 103 133 167 204 247
#     4  10  18  26  38  58  83 110 140 173 206 243
#     4  10  18  30  45  60  79 104 136 174 212 253
#     4  10  19  30  44  59  77 104 138 175 212 251
#     4   9  16  26  40  56  77 103 134 170 205 242
#     4  10  17  26  41  60  83 110 138 169 206 249
#     4  11  23  35  46  61  81 106 140 181 222 260
#     4   9  16  25  37  55  78 106 138 169 201 239
#
# _framework density 15.501109
#
# number of rings (size 3 to 8) (size 9 to 14) (size 15 to 20)
#    0.000    2.375    1.250    2.625    0.000    6.000 
#    0.000    0.000    0.000    0.000    0.000    0.000 
#    0.000    0.000    0.000    1.125    0.000   19.500 
#
# Total GULP energy -793177.021702 kJ/mol
# GULP energy per Si atom -12393.390964 kJ/mol
# Density = 1.546583 g / cm^3
# Si number density = 15.501109 Si / 1000 Ang^3
#
#
#
# Elastic Constant Matrix: (Units=GPa)
#
#
# Indices 1 2 3 4 5 6 
#
# 1 124.5811 28.9649 80.7821 0.0000 0.0000 0.0000
# 2 28.9649 26.9277 36.3343 0.0000 0.0000 0.0000
# 3 80.7821 36.3343 163.1643 0.0000 0.0000 0.0000
# 4 0.0000 0.0000 0.0000 12.8181 0.0000 0.0000
# 5 0.0000 0.0000 0.0000 0.0000 30.1942 0.0000
# 6 0.0000 0.0000 0.0000 0.0000 0.0000 13.4428
#
#
#
# Elastic Compliance Matrix: (Units=1/GPa)
#
#
# Indices 1 2 3 4 5 6 
#
# 1 0.012789 -0.007452 -0.004672 0.000000 0.000000 0.000000
# 2 -0.007452 0.057430 -0.009099 0.000000 0.000000 0.000000
# 3 -0.004672 -0.009099 0.010468 0.000000 0.000000 0.000000
# 4 0.000000 0.000000 0.000000 0.078015 0.000000 0.000000
# 5 0.000000 0.000000 0.000000 0.000000 0.033119 0.000000
# 6 0.000000 0.000000 0.000000 0.000000 0.000000 0.074389
#
#
# Mechanical properties :
#
#
# Convention : Reuss Voigt Hill
#
# Bulk Modulus (GPa) = 26.15052 67.42618 46.78835
# Shear Modulus (GPa) = 15.55668 22.53050 19.04359
#
# Velocity S-wave (km/s) = 3.17138 3.81658 3.50884
# Velocity P-wave (km/s) = 5.50608 7.93813 6.83121
#
# Compressibility (1/GPa) = 0.03824016
#
# Stress axis : x y z
#
# Youngs Moduli (GPa) = 78.19068 17.41236 95.52572
#
# Poissons Ratio (x) = 0.12976 0.44634
# Poissons Ratio (y) = 0.58269 0.86922
# Poissons Ratio (z) = 0.36534 0.15844
#
# Static dielectric constant tensor:
#      x y z
#    x 3.143870 0.000000 0.000000 
#    y 0.000000 2.369100 0.000000 
#    z 0.000000 0.000000 3.489250 
# 
# 
# High freq. dielectric constant tensor:
#      x y z
#    x 1.618340 0.000000 0.000000 
#    y 0.000000 1.506880 0.000000 
#    z 0.000000 0.000000 1.615740 
# 
# From -- ./inp_files/29736.got.cif
#   From: 2010.03.12/outbox.cif.g09.slc.cpg/sg59_15_cif.got.tgz:29736.got - 2010.04.16 16:29:54.
