data_PCOD8239123
_publ_section_title
;
Structure prediction by ZEFSAII (Michael W. Deem and Ramdas Pophale) SiO2 
 PCOD8239123
Probable space group: P M M N
;
_chemical_formula_sum "Si O2"
_cell_formula_units_Z 64
_cell_length_a 14.714671
_cell_length_b 18.955797
_cell_length_c 12.243066
_cell_angle_alpha 90.000000
_cell_angle_beta 90.000000
_cell_angle_gamma 90.000000
_cell_volume 3414.937787
_symmetry_space_group_name_H-M "P M M N"
_symmetry_group_IT_number 59
_space_group.IT_coordinate_system_code '2'
_symmetry_cell_setting 'orthorhombic'
loop_
_space_group_symop_operation_xyz
x,y,z
1/2-x,1/2-y,z
1/2+x,-y,-z
-x,1/2+y,-z
-x,-y,-z
1/2+x,1/2+y,-z
1/2-x,y,z
x,1/2-y,z
loop_
_atom_site_type_symbol
_atom_site_label
_atom_site_fract_x
_atom_site_fract_y
_atom_site_fract_z
Si Si1 0.642302 0.084864 0.127004
Si Si2 0.978150 0.333198 0.958659
Si Si3 0.851074 0.923855 0.104147
Si Si4 0.346638 0.920019 0.455112
Si Si5 0.423453 0.829859 0.279819
Si Si6 0.090366 0.089594 0.657944
Si Si7 0.035570 0.931103 0.654626
Si Si8 0.652144 0.582330 0.578713
O O1 0.750000 0.102551 0.133446
O O2 0.596692 0.094483 0.245472
O O3 0.626542 0.006068 0.080381
O O4 0.588937 0.140363 0.052528
O O5 0.999371 0.250000 0.973010
O O6 0.074262 0.375410 0.956503
O O7 0.922985 0.348689 0.848056
O O8 0.750000 0.905012 0.059413
O O9 0.846258 0.913711 0.235290
O O10 0.250000 0.904773 0.512783
O O11 0.350321 0.875273 0.344234
O O12 0.423885 0.900681 0.541941
O O13 0.349832 0.999226 0.416131
O O14 0.397503 0.750000 0.300342
O O15 0.522815 0.845277 0.328001
O O16 0.146409 0.105226 0.548390
O O17 0.033242 0.016451 0.648125
O O18 0.933719 0.896405 0.655820
O O19 0.750000 0.611315 0.623434
#
# Coordination Sequence:
#
# PCOD8239123 Si02
#       8
#     8   8   8   8   8   8   8   8
#     4  10  21  37  58  81 106 143 189 234 275 321
#     4  10  22  38  57  78 108 148 184 223 274 334
#     4   9  18  33  57  87 112 139 181 232 278 319
#     4  10  18  30  49  78 108 136 169 208 261 318
#     4  10  19  32  50  73 105 143 173 207 260 315
#     4   9  15  30  50  77 111 142 172 215 261 317
#     4  10  17  32  54  77 106 137 172 226 272 309
#     4  10  17  27  51  81 107 140 173 207 263 323
#
# _framework density 18.741188999999999
#
# number of rings (size 3 to 8) (size 9 to 14) (size 15 to 20)
#    0.000    2.250    2.500    1.875    0.000    4.250 
#    0.000    2.500    0.000    2.625    0.000    0.000 
#    0.000    0.000    0.000    0.000    0.000    0.000 
#
# Total GULP energy -792987.113592 kJ/mol
# GULP energy per Si atom -12390.423650 kJ/mol
# Density = 1.869853 g / cm^3
# Si number density = 18.741189 Si / 1000 Ang^3
#
#
#
# Elastic Constant Matrix: (Units=GPa)
#
#
# Indices 1 2 3 4 5 6 
#
# 1 138.9533 19.2233 38.7177 0.0000 0.0000 0.0000
# 2 19.2233 35.1259 28.7912 0.0000 0.0000 0.0000
# 3 38.7177 28.7912 71.3593 0.0000 0.0000 0.0000
# 4 0.0000 0.0000 0.0000 21.4259 0.0000 0.0000
# 5 0.0000 0.0000 0.0000 0.0000 24.8124 0.0000
# 6 0.0000 0.0000 0.0000 0.0000 0.0000 7.9551
#
#
#
# Elastic Compliance Matrix: (Units=1/GPa)
#
#
# Indices 1 2 3 4 5 6 
#
# 1 0.008518 -0.001305 -0.004095 0.000000 0.000000 0.000000
# 2 -0.001305 0.042736 -0.016534 0.000000 0.000000 0.000000
# 3 -0.004095 -0.016534 0.022907 0.000000 0.000000 0.000000
# 4 0.000000 0.000000 0.000000 0.046673 0.000000 0.000000
# 5 0.000000 0.000000 0.000000 0.000000 0.040302 0.000000
# 6 0.000000 0.000000 0.000000 0.000000 0.000000 0.125706
#
#
# Mechanical properties :
#
#
# Convention : Reuss Voigt Hill
#
# Bulk Modulus (GPa) = 33.01279 46.54475 39.77877
# Shear Modulus (GPa) = 14.67100 21.41908 18.04504
#
# Velocity S-wave (km/s) = 2.80093 3.38433 3.10636
# Velocity P-wave (km/s) = 5.30223 6.33727 5.84272
#
# Compressibility (1/GPa) = 0.03029129
#
# Stress axis : x y z
#
# Youngs Moduli (GPa) = 117.39422 23.39956 43.65537
#
# Poissons Ratio (x) = 0.03054 0.17878
# Poissons Ratio (y) = 0.15321 0.72182
# Poissons Ratio (z) = 0.48076 0.38690
#
# Static dielectric constant tensor:
#      x y z
#    x 3.704840 0.000000 0.000000 
#    y 0.000000 3.152380 0.000000 
#    z 0.000000 0.000000 3.341320 
# 
# 
# High freq. dielectric constant tensor:
#      x y z
#    x 1.740250 0.000000 0.000000 
#    y 0.000000 1.688910 0.000000 
#    z 0.000000 0.000000 1.712840 
# 
# From -- ./inp_files/17261.got.cif
#   From: 2010.03.12/outbox.cif.g09.slc.cpg/sg59_9_cif.got.tgz:17261.got - 2010.04.16 16:29:54.
