data_PCOD8239817
_publ_section_title
;
Structure prediction by ZEFSAII (Michael W. Deem and Ramdas Pophale) SiO2 
 PCOD8239817
Probable space group: P M M N
;
_chemical_formula_sum "Si O2"
_cell_formula_units_Z 48
_cell_length_a 8.920664
_cell_length_b 21.024677
_cell_length_c 15.272082
_cell_angle_alpha 90.000000
_cell_angle_beta 90.000000
_cell_angle_gamma 90.000000
_cell_volume 2864.341277
_symmetry_space_group_name_H-M "P M M N"
_symmetry_group_IT_number 59
_space_group.IT_coordinate_system_code '2'
_symmetry_cell_setting 'orthorhombic'
loop_
_space_group_symop_operation_xyz
x,y,z
1/2-x,1/2-y,z
1/2+x,-y,-z
-x,1/2+y,-z
-x,-y,-z
1/2+x,1/2+y,-z
1/2-x,y,z
x,1/2-y,z
loop_
_atom_site_type_symbol
_atom_site_label
_atom_site_fract_x
_atom_site_fract_y
_atom_site_fract_z
Si Si1 0.574958 0.535489 0.300511
Si Si2 0.074024 0.432294 0.514211
Si Si3 0.922671 0.824068 0.802452
Si Si4 0.077650 0.447538 0.888712
Si Si5 0.072171 0.604138 0.649795
Si Si6 0.421568 0.592063 0.944451
O O1 0.750000 0.524772 0.285896
O O2 0.544101 0.583329 0.382433
O O3 0.513154 0.565132 0.209669
O O4 0.510233 0.464699 0.318411
O O5 0.250000 0.435668 0.494830
O O6 0.000000 0.500000 0.500000
O O7 0.996342 0.382432 0.447664
O O8 0.750000 0.841920 0.787257
O O9 0.945590 0.750000 0.819375
O O10 0.015327 0.842639 0.716174
O O11 0.981380 0.859670 0.888001
O O12 0.250000 0.426483 0.899744
O O13 0.058680 0.522253 0.905242
O O14 0.979267 0.406356 0.955581
O O15 0.250000 0.607147 0.643272
O O16 0.250000 0.614325 0.942235
#
# Coordination Sequence:
#
# PCOD8239817 Si02
#       6
#     8   8   8   8   8   8
#     4   8  14  26  44  67  95 126 156 187 227 279
#     4   9  16  26  42  66  95 127 159 191 230 275
#     4  11  23  36  50  69  93 125 165 205 244 290
#     4   9  16  29  47  68  97 129 158 193 237 287
#     4  10  18  31  47  66  94 126 160 197 238 286
#     4  10  19  31  47  69  95 125 160 199 241 288
#
# _framework density 16.757778999999999
#
# number of rings (size 3 to 8) (size 9 to 14) (size 15 to 20)
#    0.000    2.500    1.667    3.000    0.000    2.000 
#    0.000    1.667    0.000    0.000    0.000    1.167 
#    0.000    9.333    0.000    0.000    0.000    0.000 
#
# Total GULP energy -594889.845720 kJ/mol
# GULP energy per Si atom -12393.538452 kJ/mol
# Density = 1.671964 g / cm^3
# Si number density = 16.757779 Si / 1000 Ang^3
#
#
#
# Elastic Constant Matrix: (Units=GPa)
#
#
# Indices 1 2 3 4 5 6 
#
# 1 85.2999 27.0394 51.8755 0.0000 0.0000 0.0000
# 2 27.0394 35.7614 30.3095 0.0000 0.0000 0.0000
# 3 51.8755 30.3095 160.0582 0.0000 0.0000 0.0000
# 4 0.0000 0.0000 0.0000 15.0753 0.0000 0.0000
# 5 0.0000 0.0000 0.0000 0.0000 28.9226 0.0000
# 6 0.0000 0.0000 0.0000 0.0000 0.0000 18.0376
#
#
#
# Elastic Compliance Matrix: (Units=1/GPa)
#
#
# Indices 1 2 3 4 5 6 
#
# 1 0.017061 -0.009783 -0.003677 0.000000 0.000000 0.000000
# 2 -0.009783 0.038919 -0.004199 0.000000 0.000000 0.000000
# 3 -0.003677 -0.004199 0.008235 0.000000 0.000000 0.000000
# 4 0.000000 0.000000 0.000000 0.066334 0.000000 0.000000
# 5 0.000000 0.000000 0.000000 0.000000 0.034575 0.000000
# 6 0.000000 0.000000 0.000000 0.000000 0.000000 0.055440
#
#
# Mechanical properties :
#
#
# Convention : Reuss Voigt Hill
#
# Bulk Modulus (GPa) = 34.60698 55.50760 45.05729
# Shear Modulus (GPa) = 18.83140 23.86676 21.34908
#
# Velocity S-wave (km/s) = 3.35586 3.77798 3.57316
# Velocity P-wave (km/s) = 5.97594 7.22677 6.63092
#
# Compressibility (1/GPa) = 0.02889590
#
# Stress axis : x y z
#
# Youngs Moduli (GPa) = 58.61434 25.69415 121.43928
#
# Poissons Ratio (x) = 0.25138 0.44651
# Poissons Ratio (y) = 0.57345 0.50994
# Poissons Ratio (z) = 0.21551 0.10789
#
# Static dielectric constant tensor:
#      x y z
#    x 3.196800 0.000000 0.000000 
#    y 0.000000 2.657790 0.000000 
#    z 0.000000 0.000000 3.773550 
# 
# 
# High freq. dielectric constant tensor:
#      x y z
#    x 1.647040 0.000000 0.000000 
#    y 0.000000 1.577160 0.000000 
#    z 0.000000 0.000000 1.668970 
# 
# From -- ./inp_files/20428.got.cif
#   From: 2010.03.12/outbox.cif.g09.slc.cpg/sg59_11_cif.got.tgz:20428.got - 2010.04.16 16:29:54.
