data_PCOD8239446
_publ_section_title
;
Structure prediction by ZEFSAII (Michael W. Deem and Ramdas Pophale) SiO2 
 PCOD8239446
Probable space group: P M M N
;
_chemical_formula_sum "Si O2"
_cell_formula_units_Z 64
_cell_length_a 9.432292
_cell_length_b 23.159435
_cell_length_c 16.306271
_cell_angle_alpha 90.000000
_cell_angle_beta 90.000000
_cell_angle_gamma 90.000000
_cell_volume 3562.048700
_symmetry_space_group_name_H-M "P M M N"
_symmetry_group_IT_number 59
_space_group.IT_coordinate_system_code '2'
_symmetry_cell_setting 'orthorhombic'
loop_
_space_group_symop_operation_xyz
x,y,z
1/2-x,1/2-y,z
1/2+x,-y,-z
-x,1/2+y,-z
-x,-y,-z
1/2+x,1/2+y,-z
1/2-x,y,z
x,1/2-y,z
loop_
_atom_site_type_symbol
_atom_site_label
_atom_site_fract_x
_atom_site_fract_y
_atom_site_fract_z
Si Si1 0.594846 0.314388 0.333725
Si Si2 0.913511 0.401269 0.722958
Si Si3 0.584657 0.880418 0.541035
Si Si4 0.909361 0.438525 0.905694
Si Si5 0.085596 0.022832 0.339207
Si Si6 0.082397 0.182509 0.620978
Si Si7 0.590735 0.091146 0.207209
Si Si8 0.910335 0.926675 0.942761
O O1 0.750000 0.319829 0.376727
O O2 0.555378 0.250000 0.310763
O O3 0.474398 0.336953 0.392640
O O4 0.597984 0.346915 0.248267
O O5 0.750000 0.382714 0.720196
O O6 0.956894 0.422357 0.813775
O O7 0.941183 0.453954 0.658084
O O8 0.006418 0.345069 0.700319
O O9 0.750000 0.870909 0.538225
O O10 0.547722 0.946133 0.572661
O O11 0.526198 0.858921 0.453180
O O12 0.750000 0.415626 0.923083
O O13 0.913590 0.506621 0.918479
O O14 0.021453 0.411489 0.969080
O O15 0.250000 0.035479 0.316466
O O16 0.988056 0.046641 0.266926
O O17 0.250000 0.178019 0.633332
O O18 0.038304 0.250000 0.608674
O O19 0.750000 0.067273 0.188963
O O20 0.505814 0.104381 0.124676
O O21 0.750000 0.902870 0.942669
#
# Coordination Sequence:
#
# PCOD8239446 Si02
#       8
#     8   8   8   8   8   8   8   8
#     4   9  18  31  47  70 100 133 170 211 251 292
#     4  10  20  35  54  76 104 134 167 210 257 307
#     4   9  18  33  54  75 100 133 168 208 257 307
#     4   9  18  32  49  73 103 131 161 201 248 301
#     4   9  17  32  51  75 105 134 163 204 257 308
#     4  10  22  38  53  73 101 134 176 221 258 296
#     4  10  18  28  46  72 103 137 169 204 246 299
#     4  10  18  30  49  74 104 135 165 200 245 299
#
# _framework density 17.967189999999999
#
# number of rings (size 3 to 8) (size 9 to 14) (size 15 to 20)
#    0.000    2.500    1.250    1.125    0.000    4.000 
#    0.000    0.000    0.000    0.750    0.000    1.750 
#    0.000    0.000    0.000    0.000    0.000    0.000 
#
# Total GULP energy -793058.152597 kJ/mol
# GULP energy per Si atom -12391.533634 kJ/mol
# Density = 1.792630 g / cm^3
# Si number density = 17.967190 Si / 1000 Ang^3
#
#
#
# Elastic Constant Matrix: (Units=GPa)
#
#
# Indices 1 2 3 4 5 6 
#
# 1 55.8696 31.0132 42.1050 0.0000 0.0000 0.0000
# 2 31.0132 70.8631 38.5698 0.0000 0.0000 0.0000
# 3 42.1050 38.5698 95.9046 0.0000 0.0000 0.0000
# 4 0.0000 0.0000 0.0000 13.7465 0.0000 0.0000
# 5 0.0000 0.0000 0.0000 0.0000 29.2807 0.0000
# 6 0.0000 0.0000 0.0000 0.0000 0.0000 22.8634
#
#
#
# Elastic Compliance Matrix: (Units=1/GPa)
#
#
# Indices 1 2 3 4 5 6 
#
# 1 0.029583 -0.007525 -0.009962 0.000000 0.000000 0.000000
# 2 -0.007525 0.019981 -0.004732 0.000000 0.000000 0.000000
# 3 -0.009962 -0.004732 0.016703 0.000000 0.000000 0.000000
# 4 0.000000 0.000000 0.000000 0.072746 0.000000 0.000000
# 5 0.000000 0.000000 0.000000 0.000000 0.034152 0.000000
# 6 0.000000 0.000000 0.000000 0.000000 0.000000 0.043738
#
#
# Mechanical properties :
#
#
# Convention : Reuss Voigt Hill
#
# Bulk Modulus (GPa) = 45.80796 49.55705 47.68250
# Shear Modulus (GPa) = 18.61381 20.57472 19.59427
#
# Velocity S-wave (km/s) = 3.22217 3.38764 3.30594
# Velocity P-wave (km/s) = 6.27645 6.55312 6.41628
#
# Compressibility (1/GPa) = 0.02183027
#
# Stress axis : x y z
#
# Youngs Moduli (GPa) = 33.80265 50.04861 59.86786
#
# Poissons Ratio (x) = 0.37663 0.59638
# Poissons Ratio (y) = 0.25437 0.28328
# Poissons Ratio (z) = 0.33673 0.23682
#
# Static dielectric constant tensor:
#      x y z
#    x 3.451970 0.000000 0.000000 
#    y 0.000000 3.171690 0.000000 
#    z 0.000000 0.000000 3.345340 
# 
# 
# High freq. dielectric constant tensor:
#      x y z
#    x 1.702250 0.000000 0.000000 
#    y 0.000000 1.666540 0.000000 
#    z 0.000000 0.000000 1.688180 
# 
# From -- ./inp_files/21633.got.cif
#   From: 2010.03.12/outbox.cif.g09.slc.cpg/sg59_11_cif.got.tgz:21633.got - 2010.04.16 16:29:54.
