data_PCOD8239167
_publ_section_title
;
Structure prediction by ZEFSAII (Michael W. Deem and Ramdas Pophale) SiO2 
 PCOD8239167
Probable space group: P M M N
;
_chemical_formula_sum "Si O2"
_cell_formula_units_Z 64
_cell_length_a 19.286862
_cell_length_b 19.980743
_cell_length_c 9.198804
_cell_angle_alpha 90.000000
_cell_angle_beta 90.000000
_cell_angle_gamma 90.000000
_cell_volume 3544.904765
_symmetry_space_group_name_H-M "P M M N"
_symmetry_group_IT_number 59
_space_group.IT_coordinate_system_code '2'
_symmetry_cell_setting 'orthorhombic'
loop_
_space_group_symop_operation_xyz
x,y,z
1/2-x,1/2-y,z
1/2+x,-y,-z
-x,1/2+y,-z
-x,-y,-z
1/2+x,1/2+y,-z
1/2-x,y,z
x,1/2-y,z
loop_
_atom_site_type_symbol
_atom_site_label
_atom_site_fract_x
_atom_site_fract_y
_atom_site_fract_z
Si Si1 0.946806 0.175415 0.134928
Si Si2 0.087072 0.975943 0.376472
Si Si3 0.493848 0.898129 0.603597
Si Si4 0.076025 0.932207 0.076590
Si Si5 0.890142 0.823681 0.916813
Si Si6 0.370844 0.173889 0.408725
Si Si7 0.587357 0.942295 0.114735
Si Si8 0.827298 0.556026 0.406455
O O1 0.915458 0.250000 0.154537
O O2 0.938260 0.129506 0.278996
O O3 0.028060 0.178852 0.106417
O O4 0.907793 0.138898 0.000564
O O5 0.045655 0.918041 0.458575
O O6 0.116544 0.942544 0.228603
O O7 0.150385 0.000938 0.475039
O O8 0.036315 0.037909 0.332963
O O9 0.547819 0.839922 0.561313
O O10 0.994890 0.933574 0.117918
O O11 0.103011 0.989411 0.968883
O O12 0.865066 0.750000 0.971485
O O13 0.854053 0.840485 0.761853
O O14 0.873005 0.880682 0.034599
O O15 0.353926 0.250000 0.449093
O O16 0.325207 0.127854 0.514020
O O17 0.617104 0.946311 0.277114
O O18 0.750000 0.539791 0.349520
#
# Coordination Sequence:
#
# PCOD8239167 Si02
#       8
#     8   8   8   8   8   8   8   8
#     4   9  16  26  42  70 106 130 146 181 243 315
#     4  10  18  30  48  70  94 123 165 210 253 298
#     4   9  15  27  49  73  97 125 157 203 258 302
#     4  10  17  29  51  73  95 122 157 206 266 314
#     4   8  15  28  46  68  94 127 163 199 243 290
#     4   9  17  31  50  71  99 135 172 207 244 289
#     4  10  18  30  49  72  96 126 163 209 262 309
#     4  11  23  35  46  65  98 138 178 214 246 295
#
# _framework density 18.054082999999999
#
# number of rings (size 3 to 8) (size 9 to 14) (size 15 to 20)
#    0.000    2.500    0.000    7.875    0.000    0.750 
#    0.000    6.250    0.000    0.750    0.000    0.000 
#    0.000   22.000    0.000    0.000    0.000    0.000 
#
# Total GULP energy -793195.109358 kJ/mol
# GULP energy per Si atom -12393.673584 kJ/mol
# Density = 1.801299 g / cm^3
# Si number density = 18.054083 Si / 1000 Ang^3
#
#
#
# Elastic Constant Matrix: (Units=GPa)
#
#
# Indices 1 2 3 4 5 6 
#
# 1 31.4904 16.9115 17.8240 0.0000 0.0000 0.0000
# 2 16.9115 97.1956 56.9430 0.0000 0.0000 0.0000
# 3 17.8240 56.9430 107.2783 0.0000 0.0000 0.0000
# 4 0.0000 0.0000 0.0000 32.8895 0.0000 0.0000
# 5 0.0000 0.0000 0.0000 0.0000 8.7352 0.0000
# 6 0.0000 0.0000 0.0000 0.0000 0.0000 7.7758
#
#
#
# Elastic Compliance Matrix: (Units=1/GPa)
#
#
# Indices 1 2 3 4 5 6 
#
# 1 0.036101 -0.004016 -0.003866 0.000000 0.000000 0.000000
# 2 -0.004016 0.015379 -0.007496 0.000000 0.000000 0.000000
# 3 -0.003866 -0.007496 0.013943 0.000000 0.000000 0.000000
# 4 0.000000 0.000000 0.000000 0.030405 0.000000 0.000000
# 5 0.000000 0.000000 0.000000 0.000000 0.114479 0.000000
# 6 0.000000 0.000000 0.000000 0.000000 0.000000 0.128604
#
#
# Mechanical properties :
#
#
# Convention : Reuss Voigt Hill
#
# Bulk Modulus (GPa) = 28.84680 46.59126 37.71903
# Shear Modulus (GPa) = 13.11571 19.49916 16.30743
#
# Velocity S-wave (km/s) = 2.69823 3.28996 3.00868
# Velocity P-wave (km/s) = 5.07148 6.34778 5.74518
#
# Compressibility (1/GPa) = 0.03466590
#
# Stress axis : x y z
#
# Youngs Moduli (GPa) = 27.70006 65.02460 71.72251
#
# Poissons Ratio (x) = 0.26116 0.27730
# Poissons Ratio (y) = 0.11125 0.53761
# Poissons Ratio (z) = 0.10710 0.48741
#
# Static dielectric constant tensor:
#      x y z
#    x 2.724580 0.000000 0.000000 
#    y 0.000000 3.628540 0.000000 
#    z 0.000000 0.000000 3.460290 
# 
# 
# High freq. dielectric constant tensor:
#      x y z
#    x 1.624340 0.000000 0.000000 
#    y 0.000000 1.700350 0.000000 
#    z 0.000000 0.000000 1.707040 
# 
# From -- ./inp_files/11723.got.cif
#   From: 2010.03.12/outbox.cif.g09.slc.cpg/sg59_6_cif.got.tgz:11723.got - 2010.04.16 16:29:54.
