data_PCOD8239708
_publ_section_title
;
Structure prediction by ZEFSAII (Michael W. Deem and Ramdas Pophale) SiO2 
 PCOD8239708
Probable space group: P M M N
;
_chemical_formula_sum "Si O2"
_cell_formula_units_Z 64
_cell_length_a 9.288397
_cell_length_b 29.079081
_cell_length_c 14.758313
_cell_angle_alpha 90.000000
_cell_angle_beta 90.000000
_cell_angle_gamma 90.000000
_cell_volume 3986.191544
_symmetry_space_group_name_H-M "P M M N"
_symmetry_group_IT_number 59
_space_group.IT_coordinate_system_code '2'
_symmetry_cell_setting 'orthorhombic'
loop_
_space_group_symop_operation_xyz
x,y,z
1/2-x,1/2-y,z
1/2+x,-y,-z
-x,1/2+y,-z
-x,-y,-z
1/2+x,1/2+y,-z
1/2-x,y,z
x,1/2-y,z
loop_
_atom_site_type_symbol
_atom_site_label
_atom_site_fract_x
_atom_site_fract_y
_atom_site_fract_z
Si Si1 0.920252 0.053517 0.631711
Si Si2 0.083847 0.879977 0.208459
Si Si3 0.580082 0.801492 0.498055
Si Si4 0.417891 0.534874 0.688171
Si Si5 0.915029 0.388524 0.457544
Si Si6 0.083112 0.465122 0.126151
Si Si7 0.413745 0.563109 0.038459
Si Si8 0.086532 0.197902 0.708028
O O1 0.750000 0.042479 0.630558
O O2 0.968027 0.081122 0.721252
O O3 0.969296 0.082528 0.544319
O O4 0.007268 0.005957 0.631990
O O5 0.250000 0.870696 0.226034
O O6 0.052754 0.894913 0.105557
O O7 0.003320 0.832441 0.222881
O O8 0.750000 0.808046 0.506221
O O9 0.537716 0.750000 0.532330
O O10 0.502606 0.841107 0.555928
O O11 0.528643 0.807101 0.394277
O O12 0.250000 0.523036 0.702865
O O13 0.437018 0.581609 0.632129
O O14 0.495032 0.543745 0.783155
O O15 0.750000 0.374859 0.472475
O O16 0.250000 0.453237 0.142383
O O17 0.060189 0.517461 0.096905
O O18 0.020354 0.432733 0.046669
O O19 0.250000 0.564342 0.002550
O O20 0.250000 0.181046 0.711734
O O21 0.071885 0.250000 0.741536
#
# Coordination Sequence:
#
# PCOD8239708 Si02
#       8
#     8   8   8   8   8   8   8   8
#     4  10  19  33  47  66  98 132 167 202 231 275
#     4  10  18  30  49  71  97 128 161 197 236 281
#     4   9  18  32  49  70  95 124 161 203 244 285
#     4  11  22  33  47  69  97 131 168 204 240 282
#     4  10  21  34  48  69  97 130 167 202 239 283
#     4  10  19  33  50  69  93 124 159 198 239 281
#     4   9  18  32  48  69  95 122 155 197 238 278
#     4   9  18  31  46  68  98 127 158 198 239 283
#
# _framework density 16.055423999999999
#
# number of rings (size 3 to 8) (size 9 to 14) (size 15 to 20)
#    0.000    2.250    2.500    1.875    0.000    3.500 
#    0.000    1.250    0.000    0.000    0.000    0.875 
#    0.000    7.000    0.000    0.000    0.000    0.000 
#
# Total GULP energy -793644.597782 kJ/mol
# GULP energy per Si atom -12400.696840 kJ/mol
# Density = 1.601888 g / cm^3
# Si number density = 16.055424 Si / 1000 Ang^3
#
#
#
# Elastic Constant Matrix: (Units=GPa)
#
#
# Indices 1 2 3 4 5 6 
#
# 1 75.8249 50.5288 44.7074 0.0000 0.0000 0.0000
# 2 50.5288 90.7494 36.4936 0.0000 0.0000 0.0000
# 3 44.7074 36.4936 75.5384 0.0000 0.0000 0.0000
# 4 0.0000 0.0000 0.0000 18.5922 0.0000 0.0000
# 5 0.0000 0.0000 0.0000 0.0000 26.8119 0.0000
# 6 0.0000 0.0000 0.0000 0.0000 0.0000 31.2070
#
#
#
# Elastic Compliance Matrix: (Units=1/GPa)
#
#
# Indices 1 2 3 4 5 6 
#
# 1 0.026372 -0.010434 -0.010567 0.000000 0.000000 0.000000
# 2 -0.010434 0.017805 -0.002426 0.000000 0.000000 0.000000
# 3 -0.010567 -0.002426 0.020665 0.000000 0.000000 0.000000
# 4 0.000000 0.000000 0.000000 0.053786 0.000000 0.000000
# 5 0.000000 0.000000 0.000000 0.000000 0.037297 0.000000
# 6 0.000000 0.000000 0.000000 0.000000 0.000000 0.032044
#
#
# Mechanical properties :
#
#
# Convention : Reuss Voigt Hill
#
# Bulk Modulus (GPa) = 55.59916 56.17469 55.88693
# Shear Modulus (GPa) = 20.76237 22.68109 21.72173
#
# Velocity S-wave (km/s) = 3.59997 3.76263 3.68220
# Velocity P-wave (km/s) = 7.21002 7.34442 7.27753
#
# Compressibility (1/GPa) = 0.01798588
#
# Stress axis : x y z
#
# Youngs Moduli (GPa) = 37.91845 56.16451 48.39162
#
# Poissons Ratio (x) = 0.58605 0.51138
# Poissons Ratio (y) = 0.39566 0.11740
# Poissons Ratio (z) = 0.40070 0.13626
#
# Static dielectric constant tensor:
#      x y z
#    x 3.055480 0.000000 0.000000 
#    y 0.000000 2.914570 0.000000 
#    z 0.000000 0.000000 2.925460 
# 
# 
# High freq. dielectric constant tensor:
#      x y z
#    x 1.621350 0.000000 0.000000 
#    y 0.000000 1.600740 0.000000 
#    z 0.000000 0.000000 1.599740 
# 
# From -- ./inp_files/21932.got.cif
#   From: 2010.03.12/outbox.cif.g09.slc.cpg/sg59_11_cif.got.tgz:21932.got - 2010.04.16 16:29:54.
