data_PCOD8239513
_publ_section_title
;
Structure prediction by ZEFSAII (Michael W. Deem and Ramdas Pophale) SiO2 
 PCOD8239513
Probable space group: P M M N
;
_chemical_formula_sum "Si O2"
_cell_formula_units_Z 64
_cell_length_a 23.391782
_cell_length_b 9.390762
_cell_length_c 18.764952
_cell_angle_alpha 90.000000
_cell_angle_beta 90.000000
_cell_angle_gamma 90.000000
_cell_volume 4122.034284
_symmetry_space_group_name_H-M "P M M N"
_symmetry_group_IT_number 59
_space_group.IT_coordinate_system_code '2'
_symmetry_cell_setting 'orthorhombic'
loop_
_space_group_symop_operation_xyz
x,y,z
1/2-x,1/2-y,z
1/2+x,-y,-z
-x,1/2+y,-z
-x,-y,-z
1/2+x,1/2+y,-z
1/2-x,y,z
x,1/2-y,z
loop_
_atom_site_type_symbol
_atom_site_label
_atom_site_fract_x
_atom_site_fract_y
_atom_site_fract_z
Si Si1 0.973628 0.415636 0.605327
Si Si2 0.684931 0.586976 0.387136
Si Si3 0.583907 0.586413 0.487626
Si Si4 0.585790 0.084039 0.010073
Si Si5 0.637343 0.418335 0.256879
Si Si6 0.813923 0.419415 0.107560
Si Si7 0.505378 0.416485 0.260813
Si Si8 0.975749 0.914023 0.898185
O O1 0.959634 0.250000 0.614708
O O2 0.925304 0.485010 0.555264
O O3 0.035821 0.442491 0.571795
O O4 0.971059 0.491808 0.681590
O O5 0.750000 0.564556 0.412187
O O6 0.672790 0.750000 0.364857
O O7 0.644714 0.545139 0.453535
O O8 0.672731 0.488736 0.319939
O O9 0.581684 0.750000 0.513254
O O10 0.588468 0.250000 0.992554
O O11 0.645272 0.027745 0.043527
O O12 0.537005 0.048961 0.067819
O O13 0.574173 0.003743 0.936006
O O14 0.644808 0.250000 0.263181
O O15 0.663234 0.477170 0.183037
O O16 0.571358 0.463003 0.260667
O O17 0.750000 0.477045 0.093530
O O18 0.815560 0.250000 0.110253
O O19 0.499576 0.250000 0.279003
O O20 0.477501 0.452938 0.184823
O O21 0.960945 0.750000 0.909949
#
# Coordination Sequence:
#
# PCOD8239513 Si02
#       8
#     8   8   8   8   8   8   8   8
#     4  10  19  30  47  68  90 117 151 189 227 268
#     4  10  20  33  47  65  93 126 156 186 221 262
#     4   9  18  32  46  64  90 121 152 184 223 266
#     4   9  16  28  44  64  87 115 152 189 222 261
#     4  10  18  29  45  66  92 123 159 189 214 256
#     4   9  16  27  44  65  90 121 156 190 221 258
#     4  10  18  29  46  67  93 123 150 183 227 273
#     4   9  17  29  44  63  89 118 148 183 226 269
#
# _framework density 15.526315
#
# number of rings (size 3 to 8) (size 9 to 14) (size 15 to 20)
#    0.000    2.500    2.500    0.750    0.000    2.250 
#    0.000    0.625    0.000    1.125    0.000    0.875 
#    0.000    1.000    0.000    0.000    0.000    0.000 
#
# Total GULP energy -793647.596624 kJ/mol
# GULP energy per Si atom -12400.743697 kJ/mol
# Density = 1.549098 g / cm^3
# Si number density = 15.526315 Si / 1000 Ang^3
#
#
#
# Elastic Constant Matrix: (Units=GPa)
#
#
# Indices 1 2 3 4 5 6 
#
# 1 94.2501 35.3781 62.1747 0.0000 0.0000 0.0000
# 2 35.3781 51.3253 52.4847 0.0000 0.0000 0.0000
# 3 62.1747 52.4847 114.8480 0.0000 0.0000 0.0000
# 4 0.0000 0.0000 0.0000 29.2130 0.0000 0.0000
# 5 0.0000 0.0000 0.0000 0.0000 23.2355 0.0000
# 6 0.0000 0.0000 0.0000 0.0000 0.0000 15.1901
#
#
#
# Elastic Compliance Matrix: (Units=1/GPa)
#
#
# Indices 1 2 3 4 5 6 
#
# 1 0.017002 -0.004331 -0.007225 0.000000 0.000000 0.000000
# 2 -0.004331 0.037679 -0.014875 0.000000 0.000000 0.000000
# 3 -0.007225 -0.014875 0.019416 0.000000 0.000000 0.000000
# 4 0.000000 0.000000 0.000000 0.034231 0.000000 0.000000
# 5 0.000000 0.000000 0.000000 0.000000 0.043038 0.000000
# 6 0.000000 0.000000 0.000000 0.000000 0.000000 0.065832
#
#
# Mechanical properties :
#
#
# Convention : Reuss Voigt Hill
#
# Bulk Modulus (GPa) = 47.08929 62.27760 54.68345
# Shear Modulus (GPa) = 18.04150 20.88678 19.46414
#
# Velocity S-wave (km/s) = 3.41250 3.67174 3.54449
# Velocity P-wave (km/s) = 6.77654 7.62717 7.21440
#
# Compressibility (1/GPa) = 0.02123625
#
# Stress axis : x y z
#
# Youngs Moduli (GPa) = 58.81659 26.53964 51.50372
#
# Poissons Ratio (x) = 0.11495 0.37211
# Poissons Ratio (y) = 0.25474 0.76609
# Poissons Ratio (z) = 0.42495 0.39476
#
# Static dielectric constant tensor:
#      x y z
#    x 2.940070 0.000000 0.000000 
#    y 0.000000 2.862440 0.000000 
#    z 0.000000 0.000000 2.931110 
# 
# 
# High freq. dielectric constant tensor:
#      x y z
#    x 1.574740 0.000000 0.000000 
#    y 0.000000 1.585890 0.000000 
#    z 0.000000 0.000000 1.588380 
# 
# From -- ./inp_files/26498.got.cif
#   From: 2010.03.12/outbox.cif.g09.slc.cpg/sg59_14_cif.got.tgz:26498.got - 2010.04.16 16:29:54.
