data_PCOD8239098
_publ_section_title
;
Structure prediction by ZEFSAII (Michael W. Deem and Ramdas Pophale) SiO2 
 PCOD8239098
Probable space group: P M M N
;
_chemical_formula_sum "Si O2"
_cell_formula_units_Z 56
_cell_length_a 9.232089
_cell_length_b 21.946953
_cell_length_c 17.466241
_cell_angle_alpha 90.000000
_cell_angle_beta 90.000000
_cell_angle_gamma 90.000000
_cell_volume 3538.943788
_symmetry_space_group_name_H-M "P M M N"
_symmetry_group_IT_number 59
_space_group.IT_coordinate_system_code '2'
_symmetry_cell_setting 'orthorhombic'
loop_
_space_group_symop_operation_xyz
x,y,z
1/2-x,1/2-y,z
1/2+x,-y,-z
-x,1/2+y,-z
-x,-y,-z
1/2+x,1/2+y,-z
1/2-x,y,z
x,1/2-y,z
loop_
_atom_site_type_symbol
_atom_site_label
_atom_site_fract_x
_atom_site_fract_y
_atom_site_fract_z
Si Si1 0.919325 0.022291 0.267215
Si Si2 0.410148 0.583092 0.453328
Si Si3 0.921482 0.103685 0.713858
Si Si4 0.912196 0.557689 0.591559
Si Si5 0.081204 0.412520 0.962569
Si Si6 0.917815 0.820662 0.166267
Si Si7 0.584274 0.456419 0.097227
O O1 0.750000 0.011576 0.285540
O O2 0.940621 0.057278 0.186838
O O3 0.990520 0.064737 0.332401
O O4 0.997135 0.957385 0.260724
O O5 0.250000 0.602480 0.480734
O O6 0.453544 0.618681 0.375693
O O7 0.410857 0.512116 0.432895
O O8 0.520615 0.597682 0.522247
O O9 0.750000 0.095019 0.727378
O O10 0.983758 0.159805 0.762103
O O11 0.750000 0.581404 0.608002
O O12 0.250000 0.409531 0.978358
O O13 0.031057 0.356443 0.909625
O O14 0.034098 0.474410 0.919680
O O15 0.004970 0.408791 0.045532
O O16 0.750000 0.835536 0.184889
O O17 0.943159 0.750000 0.150216
O O18 0.750000 0.448162 0.074116
#
# Coordination Sequence:
#
# PCOD8239098 Si02
#       7
#     8   8   8   8   8   8   8
#     4  10  17  27  42  60  87 117 146 177 215 265
#     4   8  15  26  37  53  79 112 143 172 207 247
#     4  10  19  29  43  62  84 111 148 185 218 256
#     4   9  16  24  36  58  83 110 144 175 207 246
#     4   9  17  30  44  62  84 110 145 181 220 263
#     4  10  20  34  49  64  86 116 149 183 222 268
#     4   9  17  28  43  63  85 113 146 179 218 265
#
# _framework density 15.823930000000001
#
# number of rings (size 3 to 8) (size 9 to 14) (size 15 to 20)
#    0.000    2.714    1.429    2.143    0.000    6.000 
#    0.000    0.000    0.000    0.000    0.000    0.000 
#    0.000    1.143    0.000    8.571    0.000    4.857 
#
# Total GULP energy -694224.174485 kJ/mol
# GULP energy per Si atom -12396.860259 kJ/mol
# Density = 1.578791 g / cm^3
# Si number density = 15.823930 Si / 1000 Ang^3
#
#
#
# Elastic Constant Matrix: (Units=GPa)
#
#
# Indices 1 2 3 4 5 6 
#
# 1 95.3544 29.7867 69.9375 0.0000 0.0000 0.0000
# 2 29.7867 45.0348 41.7702 0.0000 0.0000 0.0000
# 3 69.9375 41.7702 130.6585 0.0000 0.0000 0.0000
# 4 0.0000 0.0000 0.0000 14.6335 0.0000 0.0000
# 5 0.0000 0.0000 0.0000 0.0000 33.4993 0.0000
# 6 0.0000 0.0000 0.0000 0.0000 0.0000 13.2927
#
#
#
# Elastic Compliance Matrix: (Units=1/GPa)
#
#
# Indices 1 2 3 4 5 6 
#
# 1 0.017801 -0.004174 -0.008194 0.000000 0.000000 0.000000
# 2 -0.004174 0.032543 -0.008170 0.000000 0.000000 0.000000
# 3 -0.008194 -0.008170 0.014651 0.000000 0.000000 0.000000
# 4 0.000000 0.000000 0.000000 0.068336 0.000000 0.000000
# 5 0.000000 0.000000 0.000000 0.000000 0.029851 0.000000
# 6 0.000000 0.000000 0.000000 0.000000 0.000000 0.075229
#
#
# Mechanical properties :
#
#
# Convention : Reuss Voigt Hill
#
# Bulk Modulus (GPa) = 41.80516 61.55962 51.68239
# Shear Modulus (GPa) = 17.39372 20.92198 19.15785
#
# Velocity S-wave (km/s) = 3.31902 3.64012 3.48327
# Velocity P-wave (km/s) = 6.41593 7.52692 6.99352
#
# Compressibility (1/GPa) = 0.02392049
#
# Stress axis : x y z
#
# Youngs Moduli (GPa) = 56.17725 30.72853 68.25370
#
# Poissons Ratio (x) = 0.12825 0.55926
# Poissons Ratio (y) = 0.23447 0.55760
# Poissons Ratio (z) = 0.46031 0.25104
#
# Static dielectric constant tensor:
#      x y z
#    x 3.143300 0.000000 0.000000 
#    y 0.000000 2.479890 0.000000 
#    z 0.000000 0.000000 3.263870 
# 
# 
# High freq. dielectric constant tensor:
#      x y z
#    x 1.618490 0.000000 0.000000 
#    y 0.000000 1.532460 0.000000 
#    z 0.000000 0.000000 1.619390 
# 
# From -- ./inp_files/26054.got.cif
#   From: 2010.03.12/outbox.cif.g09.slc.cpg/sg59_14_cif.got.tgz:26054.got - 2010.04.16 16:29:54.
