data_PCOD8239597
_publ_section_title
;
Structure prediction by ZEFSAII (Michael W. Deem and Ramdas Pophale) SiO2 
 PCOD8239597
Probable space group: P M M N
;
_chemical_formula_sum "Si O2"
_cell_formula_units_Z 48
_cell_length_a 8.919839
_cell_length_b 20.537105
_cell_length_c 14.981004
_cell_angle_alpha 90.000000
_cell_angle_beta 90.000000
_cell_angle_gamma 90.000000
_cell_volume 2744.335219
_symmetry_space_group_name_H-M "P M M N"
_symmetry_group_IT_number 59
_space_group.IT_coordinate_system_code '2'
_symmetry_cell_setting 'orthorhombic'
loop_
_space_group_symop_operation_xyz
x,y,z
1/2-x,1/2-y,z
1/2+x,-y,-z
-x,1/2+y,-z
-x,-y,-z
1/2+x,1/2+y,-z
1/2-x,y,z
x,1/2-y,z
loop_
_atom_site_type_symbol
_atom_site_label
_atom_site_fract_x
_atom_site_fract_y
_atom_site_fract_z
Si Si1 0.924618 0.040160 0.422468
Si Si2 0.579369 0.858958 0.804637
Si Si3 0.573661 0.447446 0.934018
Si Si4 0.423080 0.820737 0.633048
Si Si5 0.425849 0.989782 0.777041
Si Si6 0.919449 0.822024 0.000497
O O1 0.750000 0.033828 0.438002
O O2 0.973822 0.116931 0.426454
O O3 0.971440 0.008967 0.327416
O O4 0.000000 0.000000 0.500000
O O5 0.750000 0.881390 0.785773
O O6 0.520749 0.816335 0.722366
O O7 0.473630 0.921153 0.818774
O O8 0.568534 0.816763 0.893689
O O9 0.750000 0.458688 0.936875
O O10 0.513687 0.455319 0.832633
O O11 0.535625 0.373889 0.961072
O O12 0.500000 0.500000 0.000000
O O13 0.250000 0.832104 0.660430
O O14 0.442722 0.750000 0.583791
O O15 0.250000 0.000040 0.790099
O O16 0.750000 0.842438 0.027613
O O17 0.957743 0.750000 0.038355
#
# Coordination Sequence:
#
# PCOD8239597 Si02
#       6
#     8   8   8   8   8   8
#     4   9  19  34  54  79 105 134 170 213 263 315
#     4  10  18  29  48  75 105 137 171 208 256 313
#     4  12  23  35  54  78 105 141 183 222 261 310
#     4   9  18  32  49  71 103 139 171 207 256 313
#     4  10  20  35  54  77 104 137 177 220 264 312
#     4  10  21  35  50  72 106 144 180 221 267 313
#
# _framework density 17.490575
#
# number of rings (size 3 to 8) (size 9 to 14) (size 15 to 20)
#    0.000    2.000    1.667    4.000    0.000    5.333 
#    0.000    0.000    0.000    1.000    0.000    4.667 
#    0.000    0.000    0.000    0.000    0.000    0.000 
#
# Total GULP energy -594968.406695 kJ/mol
# GULP energy per Si atom -12395.175139 kJ/mol
# Density = 1.745077 g / cm^3
# Si number density = 17.490575 Si / 1000 Ang^3
#
#
#
# Elastic Constant Matrix: (Units=GPa)
#
#
# Indices 1 2 3 4 5 6 
#
# 1 89.2880 46.3464 45.5056 0.0000 0.0000 0.0000
# 2 46.3464 123.0641 61.1725 0.0000 0.0000 0.0000
# 3 45.5056 61.1725 84.9162 0.0000 0.0000 0.0000
# 4 0.0000 0.0000 0.0000 22.1761 0.0000 0.0000
# 5 0.0000 0.0000 0.0000 0.0000 28.4798 0.0000
# 6 0.0000 0.0000 0.0000 0.0000 0.0000 25.7715
#
#
#
# Elastic Compliance Matrix: (Units=1/GPa)
#
#
# Indices 1 2 3 4 5 6 
#
# 1 0.015981 -0.002744 -0.006587 0.000000 0.000000 0.000000
# 2 -0.002744 0.013130 -0.007988 0.000000 0.000000 0.000000
# 3 -0.006587 -0.007988 0.021061 0.000000 0.000000 0.000000
# 4 0.000000 0.000000 0.000000 0.045094 0.000000 0.000000
# 5 0.000000 0.000000 0.000000 0.000000 0.035113 0.000000
# 6 0.000000 0.000000 0.000000 0.000000 0.000000 0.038803
#
#
# Mechanical properties :
#
#
# Convention : Reuss Voigt Hill
#
# Bulk Modulus (GPa) = 64.37904 67.03526 65.70715
# Shear Modulus (GPa) = 23.92366 24.90173 24.41269
#
# Velocity S-wave (km/s) = 3.70239 3.77732 3.74004
# Velocity P-wave (km/s) = 7.42730 7.57851 7.50329
#
# Compressibility (1/GPa) = 0.01553301
#
# Stress axis : x y z
#
# Youngs Moduli (GPa) = 62.57273 76.16117 47.48126
#
# Poissons Ratio (x) = 0.20900 0.31278
# Poissons Ratio (y) = 0.17171 0.37929
# Poissons Ratio (z) = 0.41219 0.60838
#
# Static dielectric constant tensor:
#      x y z
#    x 3.331700 0.000000 0.000000 
#    y 0.000000 3.322570 0.000000 
#    z 0.000000 0.000000 3.135850 
# 
# 
# High freq. dielectric constant tensor:
#      x y z
#    x 1.682030 0.000000 0.000000 
#    y 0.000000 1.674770 0.000000 
#    z 0.000000 0.000000 1.641850 
# 
# From -- ./inp_files/20717.got.cif
#   From: 2010.03.12/outbox.cif.g09.slc.cpg/sg59_11_cif.got.tgz:20717.got - 2010.04.16 16:29:54.
