data_PCOD8239302
_publ_section_title
;
Structure prediction by ZEFSAII (Michael W. Deem and Ramdas Pophale) SiO2 
 PCOD8239302
Probable space group: P M M N
;
_chemical_formula_sum "Si O2"
_cell_formula_units_Z 64
_cell_length_a 13.803688
_cell_length_b 9.085924
_cell_length_c 31.633692
_cell_angle_alpha 90.000000
_cell_angle_beta 90.000000
_cell_angle_gamma 90.000000
_cell_volume 3967.474244
_symmetry_space_group_name_H-M "P M M N"
_symmetry_group_IT_number 59
_space_group.IT_coordinate_system_code '2'
_symmetry_cell_setting 'orthorhombic'
loop_
_space_group_symop_operation_xyz
x,y,z
1/2-x,1/2-y,z
1/2+x,-y,-z
-x,1/2+y,-z
-x,-y,-z
1/2+x,1/2+y,-z
1/2-x,y,z
x,1/2-y,z
loop_
_atom_site_type_symbol
_atom_site_label
_atom_site_fract_x
_atom_site_fract_y
_atom_site_fract_z
Si Si1 0.859637 0.918475 0.486591
Si Si2 0.856112 0.075107 0.062112
Si Si3 0.047855 0.579131 0.436950
Si Si4 0.635763 0.412394 0.969817
Si Si5 0.637720 0.576665 0.641321
Si Si6 0.136909 0.078259 0.191381
Si Si7 0.634990 0.415640 0.725572
Si Si8 0.456599 0.423760 0.105830
O O1 0.750000 0.949324 0.470652
O O2 0.870512 0.750000 0.502418
O O3 0.934887 0.948385 0.448504
O O4 0.882912 0.025095 0.525427
O O5 0.750000 0.007804 0.072826
O O6 0.848376 0.250000 0.060351
O O7 0.932284 0.025226 0.098050
O O8 0.895906 0.023215 0.015963
O O9 0.069688 0.750000 0.428708
O O10 0.070733 0.487613 0.395292
O O11 0.750000 0.397901 0.971630
O O12 0.590275 0.250000 0.961747
O O13 0.608590 0.520775 0.932403
O O14 0.750000 0.536267 0.632541
O O15 0.622984 0.750000 0.644143
O O16 0.599865 0.506413 0.684902
O O17 0.250000 0.047068 0.184068
O O18 0.117204 0.250000 0.198749
O O19 0.079986 0.014396 0.150723
O O20 0.095481 0.992897 0.232076
O O21 0.750000 0.416165 0.727006
O O22 0.594022 0.250000 0.722932
O O23 0.445415 0.250000 0.106292
#
# Coordination Sequence:
#
# PCOD8239302 Si02
#       8
#     8   8   8   8   8   8   8   8
#     4   9  18  32  46  61  88 125 158 188 226 266
#     4   8  15  28  43  59  81 109 141 176 212 247
#     4  10  19  29  44  67  91 117 154 194 224 256
#     4   9  17  28  41  58  83 113 140 169 208 250
#     4  10  19  30  45  65  91 121 147 175 217 263
#     4   9  17  28  40  58  86 112 132 161 206 257
#     4   9  17  29  45  64  85 110 140 172 207 252
#     4  10  18  27  43  64  83 108 142 175 206 245
#
# _framework density 16.131170000000001
#
# number of rings (size 3 to 8) (size 9 to 14) (size 15 to 20)
#    0.000    2.750    0.000    3.000    0.000    5.750 
#    0.000    1.250    0.000    1.125    0.000    0.875 
#    0.000    3.000    0.000    0.000    0.000    0.000 
#
# Total GULP energy -793373.196487 kJ/mol
# GULP energy per Si atom -12396.456195 kJ/mol
# Density = 1.609446 g / cm^3
# Si number density = 16.131170 Si / 1000 Ang^3
#
#
#
# Elastic Constant Matrix: (Units=GPa)
#
#
# Indices 1 2 3 4 5 6 
#
# 1 67.2641 29.6526 54.2489 0.0000 0.0000 0.0000
# 2 29.6526 60.8351 50.6273 0.0000 0.0000 0.0000
# 3 54.2489 50.6273 136.7989 0.0000 0.0000 0.0000
# 4 0.0000 0.0000 0.0000 28.0714 0.0000 0.0000
# 5 0.0000 0.0000 0.0000 0.0000 23.2023 0.0000
# 6 0.0000 0.0000 0.0000 0.0000 0.0000 15.3670
#
#
#
# Elastic Compliance Matrix: (Units=1/GPa)
#
#
# Indices 1 2 3 4 5 6 
#
# 1 0.022950 -0.005220 -0.007169 0.000000 0.000000 0.000000
# 2 -0.005220 0.024941 -0.007160 0.000000 0.000000 0.000000
# 3 -0.007169 -0.007160 0.012803 0.000000 0.000000 0.000000
# 4 0.000000 0.000000 0.000000 0.035623 0.000000 0.000000
# 5 0.000000 0.000000 0.000000 0.000000 0.043099 0.000000
# 6 0.000000 0.000000 0.000000 0.000000 0.000000 0.065074
#
#
# Mechanical properties :
#
#
# Convention : Reuss Voigt Hill
#
# Bulk Modulus (GPa) = 46.30731 59.32842 52.81786
# Shear Modulus (GPa) = 19.93713 22.01944 20.97828
#
# Velocity S-wave (km/s) = 3.51941 3.69863 3.61013
# Velocity P-wave (km/s) = 6.72934 7.42283 7.08458
#
# Compressibility (1/GPa) = 0.02159486
#
# Stress axis : x y z
#
# Youngs Moduli (GPa) = 43.57306 40.09434 78.10752
#
# Poissons Ratio (x) = 0.20930 0.55996
# Poissons Ratio (y) = 0.22746 0.55927
# Poissons Ratio (z) = 0.31238 0.28708
#
# Static dielectric constant tensor:
#      x y z
#    x 3.022790 0.000000 0.000000 
#    y 0.000000 3.043840 0.000000 
#    z 0.000000 0.000000 3.120530 
# 
# 
# High freq. dielectric constant tensor:
#      x y z
#    x 1.594090 0.000000 0.000000 
#    y 0.000000 1.616560 0.000000 
#    z 0.000000 0.000000 1.613400 
# 
# From -- ./inp_files/33325.got.cif
#   From: 2010.03.12/outbox.cif.g09.slc.cpg/sg59_17_cif.got.tgz:33325.got - 2010.04.16 16:29:54.
