data_PCOD8239919
_publ_section_title
;
Structure prediction by ZEFSAII (Michael W. Deem and Ramdas Pophale) SiO2 
 PCOD8239919
Probable space group: P M M N
;
_chemical_formula_sum "Si O2"
_cell_formula_units_Z 64
_cell_length_a 15.579522
_cell_length_b 9.035845
_cell_length_c 24.061797
_cell_angle_alpha 90.000000
_cell_angle_beta 90.000000
_cell_angle_gamma 90.000000
_cell_volume 3387.278923
_symmetry_space_group_name_H-M "P M M N"
_symmetry_group_IT_number 59
_space_group.IT_coordinate_system_code '2'
_symmetry_cell_setting 'orthorhombic'
loop_
_space_group_symop_operation_xyz
x,y,z
1/2-x,1/2-y,z
1/2+x,-y,-z
-x,1/2+y,-z
-x,-y,-z
1/2+x,1/2+y,-z
1/2-x,y,z
x,1/2-y,z
loop_
_atom_site_type_symbol
_atom_site_label
_atom_site_fract_x
_atom_site_fract_y
_atom_site_fract_z
Si Si1 0.502425 0.574067 0.312175
Si Si2 0.344035 0.925235 0.382376
Si Si3 0.409440 0.423410 0.001959
Si Si4 0.408481 0.575160 0.501781
Si Si5 0.843763 0.574476 0.115246
Si Si6 0.152473 0.422181 0.121832
Si Si7 0.502338 0.073686 0.813191
Si Si8 0.653457 0.920303 0.391246
O O1 0.499023 0.750000 0.311586
O O2 0.418122 0.507553 0.342811
O O3 0.505157 0.513171 0.249555
O O4 0.587583 0.520380 0.344588
O O5 0.250000 0.985078 0.363950
O O6 0.346679 0.750000 0.377142
O O7 0.359023 0.971376 0.446000
O O8 0.425866 0.250000 0.999361
O O9 0.355448 0.476209 0.948534
O O10 0.500000 0.500000 0.000000
O O11 0.359005 0.468868 0.057556
O O12 0.500000 0.500000 0.500000
O O13 0.420086 0.750000 0.506463
O O14 0.353980 0.517093 0.553498
O O15 0.750000 0.516503 0.135382
O O16 0.846326 0.750000 0.119618
O O17 0.920060 0.509344 0.153436
O O18 0.250000 0.457726 0.139406
O O19 0.130989 0.250000 0.129725
O O20 0.090232 0.516007 0.160648
O O21 0.504618 0.250000 0.815269
O O22 0.750000 0.936262 0.367623
O O23 0.632155 0.750000 0.406134
#
# Coordination Sequence:
#
# PCOD8239919 Si02
#       8
#     8   8   8   8   8   8   8   8
#     4   9  18  33  51  76 107 137 174 216 261 310
#     4   9  17  30  50  74 101 133 168 209 258 311
#     4  10  18  31  53  77 103 136 172 210 261 318
#     4  11  20  33  55  80 107 138 178 220 267 319
#     4   9  17  30  50  77 106 133 167 213 261 308
#     4  10  21  36  54  76 106 143 176 211 266 329
#     4  10  20  34  55  80 104 136 182 228 261 299
#     4  10  20  35  55  80 111 143 174 215 268 322
#
# _framework density 18.894221000000002
#
# number of rings (size 3 to 8) (size 9 to 14) (size 15 to 20)
#    0.000    2.250    2.500    1.125    0.000    3.500 
#    0.000    4.375    0.000    2.250    0.000    0.000 
#    0.000    0.000    0.000    0.000    0.000    0.000 
#
# Total GULP energy -793473.528632 kJ/mol
# GULP energy per Si atom -12398.023885 kJ/mol
# Density = 1.885122 g / cm^3
# Si number density = 18.894221 Si / 1000 Ang^3
#
#
#
# Elastic Constant Matrix: (Units=GPa)
#
#
# Indices 1 2 3 4 5 6 
#
# 1 166.1417 21.5094 75.4028 0.0000 0.0000 0.0000
# 2 21.5094 24.5054 24.7254 0.0000 0.0000 0.0000
# 3 75.4028 24.7254 155.2461 0.0000 0.0000 0.0000
# 4 0.0000 0.0000 0.0000 20.1624 0.0000 0.0000
# 5 0.0000 0.0000 0.0000 0.0000 16.7866 0.0000
# 6 0.0000 0.0000 0.0000 0.0000 0.0000 21.9910
#
#
#
# Elastic Compliance Matrix: (Units=1/GPa)
#
#
# Indices 1 2 3 4 5 6 
#
# 1 0.007992 -0.003691 -0.003294 0.000000 0.000000 0.000000
# 2 -0.003691 0.050325 -0.006222 0.000000 0.000000 0.000000
# 3 -0.003294 -0.006222 0.009032 0.000000 0.000000 0.000000
# 4 0.000000 0.000000 0.000000 0.049597 0.000000 0.000000
# 5 0.000000 0.000000 0.000000 0.000000 0.059571 0.000000
# 6 0.000000 0.000000 0.000000 0.000000 0.000000 0.045473
#
#
# Mechanical properties :
#
#
# Convention : Reuss Voigt Hill
#
# Bulk Modulus (GPa) = 24.42917 65.46317 44.94617
# Shear Modulus (GPa) = 19.08030 26.73838 22.90934
#
# Velocity S-wave (km/s) = 3.18126 3.76594 3.48588
# Velocity P-wave (km/s) = 5.14309 7.32340 6.32786
#
# Compressibility (1/GPa) = 0.04093467
#
# Stress axis : x y z
#
# Youngs Moduli (GPa) = 125.13045 19.87067 110.71649
#
# Poissons Ratio (x) = 0.07335 0.36466
# Poissons Ratio (y) = 0.46191 0.68890
# Poissons Ratio (z) = 0.41213 0.12364
#
# Static dielectric constant tensor:
#      x y z
#    x 3.842480 0.000000 0.000000 
#    y 0.000000 3.075560 0.000000 
#    z 0.000000 0.000000 3.745040 
# 
# 
# High freq. dielectric constant tensor:
#      x y z
#    x 1.752310 0.000000 0.000000 
#    y 0.000000 1.685290 0.000000 
#    z 0.000000 0.000000 1.734820 
# 
# From -- ./inp_files/31649.got.cif
#   From: 2010.03.12/outbox.cif.g09.slc.cpg/sg59_16_cif.got.tgz:31649.got - 2010.04.16 16:29:54.
