data_PCOD8239170
_publ_section_title
;
Structure prediction by ZEFSAII (Michael W. Deem and Ramdas Pophale) SiO2 
 PCOD8239170
Probable space group: P M M N
;
_chemical_formula_sum "Si O2"
_cell_formula_units_Z 48
_cell_length_a 13.947224
_cell_length_b 17.580512
_cell_length_c 11.836017
_cell_angle_alpha 90.000000
_cell_angle_beta 90.000000
_cell_angle_gamma 90.000000
_cell_volume 2902.183544
_symmetry_space_group_name_H-M "P M M N"
_symmetry_group_IT_number 59
_space_group.IT_coordinate_system_code '2'
_symmetry_cell_setting 'orthorhombic'
loop_
_space_group_symop_operation_xyz
x,y,z
1/2-x,1/2-y,z
1/2+x,-y,-z
-x,1/2+y,-z
-x,-y,-z
1/2+x,1/2+y,-z
1/2-x,y,z
x,1/2-y,z
loop_
_atom_site_type_symbol
_atom_site_label
_atom_site_fract_x
_atom_site_fract_y
_atom_site_fract_z
Si Si1 0.641658 0.467288 0.810651
Si Si2 0.364609 0.250000 0.691337
Si Si3 0.362646 0.250000 0.437907
Si Si4 0.139132 0.523944 0.928013
Si Si5 0.860064 0.631368 0.743096
Si Si6 0.461837 0.380018 0.831756
Si Si7 0.013085 0.667076 0.924097
O O1 0.750000 0.434359 0.801702
O O2 0.628593 0.540283 0.729558
O O3 0.565329 0.402502 0.776678
O O4 0.619485 0.493935 0.939865
O O5 0.250000 0.250000 0.700261
O O6 0.405605 0.250000 0.563552
O O7 0.404322 0.326364 0.747672
O O8 0.250000 0.250000 0.452094
O O9 0.395510 0.326162 0.370747
O O10 0.250000 0.532748 0.900993
O O11 0.097751 0.456872 0.851691
O O12 0.089520 0.602696 0.892115
O O13 0.750000 0.652562 0.768892
O O14 0.919125 0.661598 0.848292
O O15 0.478691 0.336189 0.947352
O O16 0.061090 0.750000 0.905251
#
# Coordination Sequence:
#
# PCOD8239170 Si02
#       7
#     8   4   4   8   8   8   8
#     4   9  17  30  51  77 103 131 163 205 250 294
#     4  11  24  37  50  70 101 137 169 207 253 305
#     4   9  20  35  49  72 101 129 164 213 260 297
#     4  10  19  31  48  73 110 145 166 195 244 303
#     4  10  17  29  52  75  99 126 161 210 257 293
#     4  11  19  34  50  76 108 133 169 201 248 309
#     4  11  19  30  49  79 106 129 167 207 249 301
#
# _framework density 16.539270999999999
#
# number of rings (size 3 to 8) (size 9 to 14) (size 15 to 20)
#    0.000    1.833    5.000    1.500    0.000    1.000 
#    0.000    1.250    0.000    0.000    0.000    1.167 
#    0.000    0.000    0.000    0.000    0.000    0.000 
#
# Total GULP energy -595099.638520 kJ/mol
# GULP energy per Si atom -12397.909136 kJ/mol
# Density = 1.650163 g / cm^3
# Si number density = 16.539271 Si / 1000 Ang^3
#
#
#
# Elastic Constant Matrix: (Units=GPa)
#
#
# Indices 1 2 3 4 5 6 
#
# 1 97.2402 60.8865 43.4190 0.0000 0.0000 0.0000
# 2 60.8865 130.3378 46.4783 0.0000 0.0000 0.0000
# 3 43.4190 46.4783 64.9814 0.0000 0.0000 0.0000
# 4 0.0000 0.0000 0.0000 -25.7610 0.0000 0.0000
# 5 0.0000 0.0000 0.0000 0.0000 12.8033 0.0000
# 6 0.0000 0.0000 0.0000 0.0000 0.0000 26.1778
#
#
#
# Elastic Compliance Matrix: (Units=1/GPa)
#
#
# Indices 1 2 3 4 5 6 
#
# 1 0.016931 -0.005202 -0.007592 0.000000 0.000000 0.000000
# 2 -0.005202 0.011897 -0.005034 0.000000 0.000000 0.000000
# 3 -0.007592 -0.005034 0.024063 0.000000 0.000000 0.000000
# 4 0.000000 0.000000 0.000000 -0.038818 0.000000 0.000000
# 5 0.000000 0.000000 0.000000 0.000000 0.078105 0.000000
# 6 0.000000 0.000000 0.000000 0.000000 0.000000 0.038200
#
#
# Mechanical properties :
#
#
# Convention : Reuss Voigt Hill
#
# Bulk Modulus (GPa) = 58.02185 66.01413 62.01799
# Shear Modulus (GPa) = 29.10722 12.09574 20.60148
#
# Velocity S-wave (km/s) = 4.19965 2.70725 3.53315
# Velocity P-wave (km/s) = 7.65986 7.05496 7.36363
#
# Compressibility (1/GPa) = 0.01723489
#
# Stress axis : x y z
#
# Youngs Moduli (GPa) = 59.06350 84.05139 41.55835
#
# Poissons Ratio (x) = 0.43722 0.31552
# Poissons Ratio (y) = 0.30724 0.20921
# Poissons Ratio (z) = 0.44842 0.42312
#
# Static dielectric constant tensor:
#      x y z
#    x 3.170680 0.000000 0.000000 
#    y 0.000000 3.242530 0.000000 
#    z 0.000000 0.000000 2.934760 
# 
# 
# High freq. dielectric constant tensor:
#      x y z
#    x 1.635370 0.000000 0.000000 
#    y 0.000000 1.645830 0.000000 
#    z 0.000000 0.000000 1.595650 
# 
# From -- ./inp_files/9061.got.cif
#   From: 2010.03.12/outbox.cif.g09.slc.cpg/sg59_5_cif.got.tgz:9061.got - 2010.04.16 16:29:54.
