data_PCOD8239688
_publ_section_title
;
Structure prediction by ZEFSAII (Michael W. Deem and Ramdas Pophale) SiO2 
 PCOD8239688
Probable space group: P M M N
;
_chemical_formula_sum "Si O2"
_cell_formula_units_Z 64
_cell_length_a 8.856255
_cell_length_b 19.981486
_cell_length_c 20.085424
_cell_angle_alpha 90.000000
_cell_angle_beta 90.000000
_cell_angle_gamma 90.000000
_cell_volume 3554.339434
_symmetry_space_group_name_H-M "P M M N"
_symmetry_group_IT_number 59
_space_group.IT_coordinate_system_code '2'
_symmetry_cell_setting 'orthorhombic'
loop_
_space_group_symop_operation_xyz
x,y,z
1/2-x,1/2-y,z
1/2+x,-y,-z
-x,1/2+y,-z
-x,-y,-z
1/2+x,1/2+y,-z
1/2-x,y,z
x,1/2-y,z
loop_
_atom_site_type_symbol
_atom_site_label
_atom_site_fract_x
_atom_site_fract_y
_atom_site_fract_z
Si Si1 0.570785 0.457424 0.156542
Si Si2 0.570723 0.675903 0.607787
Si Si3 0.571599 0.674560 0.457871
Si Si4 0.070709 0.058313 0.297973
Si Si5 0.425621 0.399148 0.888348
Si Si6 0.574434 0.674162 0.238016
Si Si7 0.426666 0.586192 0.346942
Si Si8 0.071481 0.067795 0.027121
O O1 0.750000 0.452394 0.159865
O O2 0.504352 0.433279 0.226240
O O3 0.504451 0.531529 0.140342
O O4 0.508848 0.410124 0.096073
O O5 0.750000 0.674015 0.607450
O O6 0.515185 0.750000 0.630336
O O7 0.513688 0.661169 0.532842
O O8 0.507897 0.619758 0.657722
O O9 0.750000 0.668256 0.453085
O O10 0.523408 0.750000 0.435392
O O11 0.502718 0.617264 0.411893
O O12 0.250000 0.060415 0.289106
O O13 0.020222 0.990110 0.335099
O O14 0.250000 0.414007 0.885692
O O15 0.469146 0.338381 0.839407
O O16 0.467021 0.381311 0.965366
O O17 0.750000 0.657431 0.251552
O O18 0.537617 0.750000 0.256023
O O19 0.470861 0.627638 0.282180
O O20 0.250000 0.590160 0.357864
O O21 0.250000 0.060684 0.039128
O O22 0.000000 0.000000 0.000000
#
# Coordination Sequence:
#
# PCOD8239688 Si02
#       8
#     8   8   8   8   8   8   8   8
#     4  10  18  30  48  71 100 131 163 202 249 298
#     4   8  16  34  58  78  95 121 164 211 252 300
#     4   9  18  34  55  74  94 129 173 209 241 289
#     4  10  20  33  51  76 103 130 161 206 257 302
#     4   8  15  28  45  67  93 122 161 206 243 279
#     4  10  19  32  50  69  94 134 178 211 241 287
#     4  11  22  32  45  72 107 134 160 202 253 301
#     4   9  16  27  45  69  97 127 163 206 249 297
#
# _framework density 18.006157999999999
#
# number of rings (size 3 to 8) (size 9 to 14) (size 15 to 20)
#    0.000    2.625    1.250    3.000    0.000    3.000 
#    0.000    1.250    0.000    1.875    0.000    3.500 
#    0.000    0.000    0.000    0.000    0.000    0.000 
#
# Total GULP energy -793035.657372 kJ/mol
# GULP energy per Si atom -12391.182146 kJ/mol
# Density = 1.796518 g / cm^3
# Si number density = 18.006158 Si / 1000 Ang^3
#
#
#
# Elastic Constant Matrix: (Units=GPa)
#
#
# Indices 1 2 3 4 5 6 
#
# 1 32.9047 19.5213 35.4026 0.0000 0.0000 0.0000
# 2 19.5213 90.2094 73.4053 0.0000 0.0000 0.0000
# 3 35.4026 73.4053 159.3698 0.0000 0.0000 0.0000
# 4 0.0000 0.0000 0.0000 17.6554 0.0000 0.0000
# 5 0.0000 0.0000 0.0000 0.0000 27.3569 0.0000
# 6 0.0000 0.0000 0.0000 0.0000 0.0000 16.1103
#
#
#
# Elastic Compliance Matrix: (Units=1/GPa)
#
#
# Indices 1 2 3 4 5 6 
#
# 1 0.040230 -0.002293 -0.007880 0.000000 0.000000 0.000000
# 2 -0.002293 0.017861 -0.007718 0.000000 0.000000 0.000000
# 3 -0.007880 -0.007718 0.011580 0.000000 0.000000 0.000000
# 4 0.000000 0.000000 0.000000 0.056640 0.000000 0.000000
# 5 0.000000 0.000000 0.000000 0.000000 0.036554 0.000000
# 6 0.000000 0.000000 0.000000 0.000000 0.000000 0.062072
#
#
# Mechanical properties :
#
#
# Convention : Reuss Voigt Hill
#
# Bulk Modulus (GPa) = 29.50815 59.90469 44.70642
# Shear Modulus (GPa) = 18.38127 22.50151 20.44139
#
# Velocity S-wave (km/s) = 3.19851 3.53888 3.37299
# Velocity P-wave (km/s) = 5.48307 7.07386 6.32865
#
# Compressibility (1/GPa) = 0.03388895
#
# Stress axis : x y z
#
# Youngs Moduli (GPa) = 24.85706 55.98640 86.35616
#
# Poissons Ratio (x) = 0.12839 0.68053
# Poissons Ratio (y) = 0.05700 0.66645
# Poissons Ratio (z) = 0.19589 0.43208
#
# Static dielectric constant tensor:
#      x y z
#    x 3.120970 0.000000 0.000000 
#    y 0.000000 3.190790 0.000000 
#    z 0.000000 0.000000 3.746210 
# 
# 
# High freq. dielectric constant tensor:
#      x y z
#    x 1.675080 0.000000 0.000000 
#    y 0.000000 1.665980 0.000000 
#    z 0.000000 0.000000 1.714120 
# 
# From -- ./inp_files/29748.got.cif
#   From: 2010.03.12/outbox.cif.g09.slc.cpg/sg59_15_cif.got.tgz:29748.got - 2010.04.16 16:29:54.
