data_PCOD8239932
_publ_section_title
;
Structure prediction by ZEFSAII (Michael W. Deem and Ramdas Pophale) SiO2 
 PCOD8239932
Probable space group: P M M N
;
_chemical_formula_sum "Si O2"
_cell_formula_units_Z 56
_cell_length_a 8.610093
_cell_length_b 14.255828
_cell_length_c 22.608876
_cell_angle_alpha 90.000000
_cell_angle_beta 90.000000
_cell_angle_gamma 90.000000
_cell_volume 2775.103986
_symmetry_space_group_name_H-M "P M M N"
_symmetry_group_IT_number 59
_space_group.IT_coordinate_system_code '2'
_symmetry_cell_setting 'orthorhombic'
loop_
_space_group_symop_operation_xyz
x,y,z
1/2-x,1/2-y,z
1/2+x,-y,-z
-x,1/2+y,-z
-x,-y,-z
1/2+x,1/2+y,-z
1/2-x,y,z
x,1/2-y,z
loop_
_atom_site_type_symbol
_atom_site_label
_atom_site_fract_x
_atom_site_fract_y
_atom_site_fract_z
Si Si1 0.066076 0.147803 0.096668
Si Si2 0.569598 0.045097 0.856226
Si Si3 0.928382 0.148119 0.405068
Si Si4 0.566536 0.598588 0.480447
Si Si5 0.573467 0.641206 0.035640
Si Si6 0.069190 0.358245 0.745564
Si Si7 0.068675 0.957090 0.364909
O O1 0.250000 0.153606 0.091403
O O2 0.002055 0.250000 0.118456
O O3 0.018927 0.065150 0.142093
O O4 0.005852 0.125558 0.030430
O O5 0.750000 0.056144 0.839022
O O6 0.541578 0.086434 0.921053
O O7 0.463225 0.099815 0.809938
O O8 0.750000 0.116318 0.408978
O O9 0.945281 0.250000 0.372654
O O10 0.993486 0.168112 0.471428
O O11 0.017794 0.066152 0.370245
O O12 0.500000 0.500000 0.500000
O O13 0.750000 0.605705 0.483568
O O14 0.512575 0.612672 0.412650
O O15 0.750000 0.603416 0.042211
O O16 0.569077 0.750000 0.052632
O O17 0.250000 0.367725 0.730804
O O18 0.015845 0.250000 0.743638
O O19 0.971488 0.419128 0.699445
O O20 0.250000 0.952864 0.376165
#
# Coordination Sequence:
#
# PCOD8239932 Si02
#       7
#     8   8   8   8   8   8   8
#     4   8  16  32  53  78 109 144 180 216 261 322
#     4  11  21  33  54  82 109 139 178 228 277 317
#     4  10  20  35  57  86 120 155 190 228 270 322
#     4  10  18  31  53  80 113 149 185 225 270 322
#     4   9  17  31  52  77 108 147 183 215 261 323
#     4  11  25  44  62  78 102 141 185 226 273 334
#     4  11  22  38  60  84 113 146 184 234 285 332
#
# _framework density 20.179424000000001
#
# number of rings (size 3 to 8) (size 9 to 14) (size 15 to 20)
#    0.000    2.000    0.000    7.286    0.000    4.857 
#    0.000    1.429    0.000    6.000    0.000    0.000 
#    0.000    0.000    0.000    0.000    0.000    0.000 
#
# Total GULP energy -694102.042429 kJ/mol
# GULP energy per Si atom -12394.679329 kJ/mol
# Density = 2.013349 g / cm^3
# Si number density = 20.179424 Si / 1000 Ang^3
#
#
#
# Elastic Constant Matrix: (Units=GPa)
#
#
# Indices 1 2 3 4 5 6 
#
# 1 89.7222 28.9251 18.7688 0.0000 0.0000 0.0000
# 2 28.9251 116.1949 46.5265 0.0000 0.0000 0.0000
# 3 18.7688 46.5265 64.1033 0.0000 0.0000 0.0000
# 4 0.0000 0.0000 0.0000 26.0656 0.0000 0.0000
# 5 0.0000 0.0000 0.0000 0.0000 30.5655 0.0000
# 6 0.0000 0.0000 0.0000 0.0000 0.0000 22.5021
#
#
#
# Elastic Compliance Matrix: (Units=1/GPa)
#
#
# Indices 1 2 3 4 5 6 
#
# 1 0.012287 -0.002281 -0.001942 0.000000 0.000000 0.000000
# 2 -0.002281 0.012556 -0.008445 0.000000 0.000000 0.000000
# 3 -0.001942 -0.008445 0.022298 0.000000 0.000000 0.000000
# 4 0.000000 0.000000 0.000000 0.038365 0.000000 0.000000
# 5 0.000000 0.000000 0.000000 0.000000 0.032717 0.000000
# 6 0.000000 0.000000 0.000000 0.000000 0.000000 0.044440
#
#
# Mechanical properties :
#
#
# Convention : Reuss Voigt Hill
#
# Bulk Modulus (GPa) = 45.86217 50.94013 48.40115
# Shear Modulus (GPa) = 25.60604 27.54666 26.57635
#
# Velocity S-wave (km/s) = 3.56605 3.69872 3.63299
# Velocity P-wave (km/s) = 6.30335 6.59841 6.45257
#
# Compressibility (1/GPa) = 0.02180446
#
# Stress axis : x y z
#
# Youngs Moduli (GPa) = 81.38590 79.64549 44.84738
#
# Poissons Ratio (x) = 0.18168 0.08709
# Poissons Ratio (y) = 0.18565 0.37874
# Poissons Ratio (z) = 0.15804 0.67261
#
# Static dielectric constant tensor:
#      x y z
#    x 3.518090 0.000000 0.000000 
#    y 0.000000 4.133490 0.000000 
#    z 0.000000 0.000000 3.716930 
# 
# 
# High freq. dielectric constant tensor:
#      x y z
#    x 1.781560 0.000000 0.000000 
#    y 0.000000 1.797340 0.000000 
#    z 0.000000 0.000000 1.766880 
# 
# From -- ./inp_files/29041.got.cif
#   From: 2010.03.12/outbox.cif.g09.slc.cpg/sg59_15_cif.got.tgz:29041.got - 2010.04.16 16:29:54.
