data_PCOD8239126
_publ_section_title
;
Structure prediction by ZEFSAII (Michael W. Deem and Ramdas Pophale) SiO2 
 PCOD8239126
Probable space group: P M M N
;
_chemical_formula_sum "Si O2"
_cell_formula_units_Z 64
_cell_length_a 16.266141
_cell_length_b 22.523196
_cell_length_c 9.594433
_cell_angle_alpha 90.000000
_cell_angle_beta 90.000000
_cell_angle_gamma 90.000000
_cell_volume 3515.069070
_symmetry_space_group_name_H-M "P M M N"
_symmetry_group_IT_number 59
_space_group.IT_coordinate_system_code '2'
_symmetry_cell_setting 'orthorhombic'
loop_
_space_group_symop_operation_xyz
x,y,z
1/2-x,1/2-y,z
1/2+x,-y,-z
-x,1/2+y,-z
-x,-y,-z
1/2+x,1/2+y,-z
1/2-x,y,z
x,1/2-y,z
loop_
_atom_site_type_symbol
_atom_site_label
_atom_site_fract_x
_atom_site_fract_y
_atom_site_fract_z
Si Si1 0.429169 0.991323 0.760105
Si Si2 0.543913 0.898069 0.870431
Si Si3 0.011624 0.118374 0.824240
Si Si4 0.341783 0.499594 0.474892
Si Si5 0.156053 0.128313 0.358739
Si Si6 0.658946 0.401752 0.756018
Si Si7 0.844503 0.680817 0.346143
Si Si8 0.160939 0.001063 0.025851
O O1 0.469769 0.926850 0.783411
O O2 0.405610 0.995333 0.599489
O O3 0.487758 0.047141 0.799214
O O4 0.350074 0.992599 0.860353
O O5 0.596406 0.853800 0.770348
O O6 0.596555 0.953793 0.915885
O O7 0.515219 0.864571 0.011302
O O8 0.091152 0.146648 0.750860
O O9 0.922523 0.141064 0.762175
O O10 0.250000 0.493967 0.536367
O O11 0.362048 0.440994 0.386588
O O12 0.349856 0.556290 0.377358
O O13 0.250000 0.139765 0.314298
O O14 0.133927 0.167330 0.493475
O O15 0.750000 0.369799 0.748920
O O16 0.653407 0.437747 0.899869
O O17 0.750000 0.660173 0.314298
O O18 0.854460 0.750000 0.317233
O O19 0.250000 0.028932 0.054632
#
# Coordination Sequence:
#
# PCOD8239126 Si02
#       8
#     8   8   8   8   8   8   8   8
#     4  11  19  28  43  74 110 138 177 212 249 309
#     4  11  20  30  45  78 107 139 177 212 248 316
#     4  11  20  34  54  76 106 143 179 215 270 313
#     4  10  19  29  44  71 105 145 182 210 250 307
#     4  10  19  33  50  70 100 139 177 215 261 311
#     4  10  19  32  48  74 111 145 173 209 253 310
#     4  10  23  41  59  79 102 131 176 232 279 315
#     4  10  17  28  42  61 105 147 171 203 243 291
#
# _framework density 18.207325000000001
#
# number of rings (size 3 to 8) (size 9 to 14) (size 15 to 20)
#    0.000    1.625    5.000    1.500    1.750    3.500 
#    0.000    0.625    0.000    1.875    0.000    0.000 
#    0.000    0.000    0.000    0.000    0.000    0.000 
#
# Total GULP energy -793077.852767 kJ/mol
# GULP energy per Si atom -12391.841449 kJ/mol
# Density = 1.816588 g / cm^3
# Si number density = 18.207325 Si / 1000 Ang^3
#
#
#
# Elastic Constant Matrix: (Units=GPa)
#
#
# Indices 1 2 3 4 5 6 
#
# 1 104.6365 11.8646 38.3856 0.0000 0.0000 0.0000
# 2 11.8646 21.7362 3.1463 0.0000 0.0000 0.0000
# 3 38.3856 3.1463 88.4239 0.0000 0.0000 0.0000
# 4 0.0000 0.0000 0.0000 6.3269 0.0000 0.0000
# 5 0.0000 0.0000 0.0000 0.0000 28.6019 0.0000
# 6 0.0000 0.0000 0.0000 0.0000 0.0000 14.3410
#
#
#
# Elastic Compliance Matrix: (Units=1/GPa)
#
#
# Indices 1 2 3 4 5 6 
#
# 1 0.012066 -0.005858 -0.005030 0.000000 0.000000 0.000000
# 2 -0.005858 0.049089 0.000796 0.000000 0.000000 0.000000
# 3 -0.005030 0.000796 0.013464 0.000000 0.000000 0.000000
# 4 0.000000 0.000000 0.000000 0.158056 0.000000 0.000000
# 5 0.000000 0.000000 0.000000 0.000000 0.034963 0.000000
# 6 0.000000 0.000000 0.000000 0.000000 0.000000 0.069730
#
#
# Mechanical properties :
#
#
# Convention : Reuss Voigt Hill
#
# Bulk Modulus (GPa) = 18.37011 35.73219 27.05115
# Shear Modulus (GPa) = 13.30861 20.61397 16.96129
#
# Velocity S-wave (km/s) = 2.70654 3.36844 3.05546
# Velocity P-wave (km/s) = 4.45853 5.89884 5.22851
#
# Compressibility (1/GPa) = 0.05443624
#
# Stress axis : x y z
#
# Youngs Moduli (GPa) = 82.87575 20.37132 74.27093
#
# Poissons Ratio (x) = 0.11934 0.37355
# Poissons Ratio (y) = 0.48551 -0.05915
# Poissons Ratio (z) = 0.41683 -0.01623
#
# Static dielectric constant tensor:
#      x y z
#    x 3.839820 0.000000 0.000000 
#    y 0.000000 2.750940 0.000000 
#    z 0.000000 0.000000 3.558170 
# 
# 
# High freq. dielectric constant tensor:
#      x y z
#    x 1.722400 0.000000 0.000000 
#    y 0.000000 1.623600 0.000000 
#    z 0.000000 0.000000 1.718230 
# 
# From -- ./inp_files/10816.got.cif
#   From: 2010.03.12/outbox.cif.g09.slc.cpg/sg59_6_cif.got.tgz:10816.got - 2010.04.16 16:29:54.
