data_PCOD8239285
_publ_section_title
;
Structure prediction by ZEFSAII (Michael W. Deem and Ramdas Pophale) SiO2 
 PCOD8239285
Probable space group: P M M N
;
_chemical_formula_sum "Si O2"
_cell_formula_units_Z 64
_cell_length_a 24.315031
_cell_length_b 9.048247
_cell_length_c 18.541849
_cell_angle_alpha 90.000000
_cell_angle_beta 90.000000
_cell_angle_gamma 90.000000
_cell_volume 4079.362648
_symmetry_space_group_name_H-M "P M M N"
_symmetry_group_IT_number 59
_space_group.IT_coordinate_system_code '2'
_symmetry_cell_setting 'orthorhombic'
loop_
_space_group_symop_operation_xyz
x,y,z
1/2-x,1/2-y,z
1/2+x,-y,-z
-x,1/2+y,-z
-x,-y,-z
1/2+x,1/2+y,-z
1/2-x,y,z
x,1/2-y,z
loop_
_atom_site_type_symbol
_atom_site_label
_atom_site_fract_x
_atom_site_fract_y
_atom_site_fract_z
Si Si1 0.312931 0.075538 0.431648
Si Si2 0.498423 0.578095 0.608220
Si Si3 0.421086 0.916564 0.035884
Si Si4 0.314444 0.916373 0.284686
Si Si5 0.994726 0.419689 0.228327
Si Si6 0.043797 0.415852 0.903923
Si Si7 0.615801 0.578930 0.829676
Si Si8 0.413748 0.922391 0.485775
O O1 0.250000 0.032554 0.451433
O O2 0.320761 0.250000 0.430072
O O3 0.330473 0.011747 0.354300
O O4 0.354546 0.003639 0.489564
O O5 0.515319 0.750000 0.604447
O O6 0.484641 0.529470 0.689590
O O7 0.549948 0.484593 0.579988
O O8 0.444284 0.545320 0.561074
O O9 0.398044 0.750000 0.031921
O O10 0.483031 0.916565 0.063976
O O11 0.384306 0.013461 0.089779
O O12 0.417383 0.988411 0.956460
O O13 0.250000 0.913246 0.273480
O O14 0.337622 0.750000 0.294066
O O15 0.338647 0.991605 0.214201
O O16 0.978255 0.250000 0.216710
O O17 0.058125 0.445855 0.209875
O O18 0.955850 0.515382 0.176172
O O19 0.067121 0.250000 0.899434
O O20 0.631802 0.750000 0.834189
O O21 0.404103 0.750000 0.472963
#
# Coordination Sequence:
#
# PCOD8239285 Si02
#       8
#     8   8   8   8   8   8   8   8
#     4  10  20  33  48  64  84 113 147 183 224 267
#     4   9  18  31  45  63  89 120 150 179 216 265
#     4   9  16  26  39  55  79 110 140 169 202 239
#     4  10  20  32  45  62  84 109 140 179 218 255
#     4   9  17  28  41  58  82 112 143 172 206 251
#     4   9  16  25  38  57  80 105 136 172 205 239
#     4  10  18  27  42  62  84 112 144 176 209 248
#     4  10  19  30  46  66  88 115 147 184 222 261
#
# _framework density 15.688724000000001
#
# number of rings (size 3 to 8) (size 9 to 14) (size 15 to 20)
#    0.000    2.500    0.000    3.000    0.000    7.000 
#    0.000    0.000    0.000    0.000    0.000    0.000 
#    0.000    1.000    0.000    5.250    0.000    5.000 
#
# Total GULP energy -793647.958801 kJ/mol
# GULP energy per Si atom -12400.749356 kJ/mol
# Density = 1.565302 g / cm^3
# Si number density = 15.688724 Si / 1000 Ang^3
#
#
#
# Elastic Constant Matrix: (Units=GPa)
#
#
# Indices 1 2 3 4 5 6 
#
# 1 48.4831 38.4001 31.4925 0.0000 0.0000 0.0000
# 2 38.4001 107.5232 50.7458 0.0000 0.0000 0.0000
# 3 31.4925 50.7458 110.0377 0.0000 0.0000 0.0000
# 4 0.0000 0.0000 0.0000 28.5756 0.0000 0.0000
# 5 0.0000 0.0000 0.0000 0.0000 20.2515 0.0000
# 6 0.0000 0.0000 0.0000 0.0000 0.0000 22.9226
#
#
#
# Elastic Compliance Matrix: (Units=1/GPa)
#
#
# Indices 1 2 3 4 5 6 
#
# 1 0.030588 -0.008682 -0.004750 0.000000 0.000000 0.000000
# 2 -0.008682 0.014352 -0.004134 0.000000 0.000000 0.000000
# 3 -0.004750 -0.004134 0.012354 0.000000 0.000000 0.000000
# 4 0.000000 0.000000 0.000000 0.034995 0.000000 0.000000
# 5 0.000000 0.000000 0.000000 0.000000 0.049379 0.000000
# 6 0.000000 0.000000 0.000000 0.000000 0.000000 0.043625
#
#
# Mechanical properties :
#
#
# Convention : Reuss Voigt Hill
#
# Bulk Modulus (GPa) = 45.12411 56.36896 50.74653
# Shear Modulus (GPa) = 21.94794 24.04365 22.99580
#
# Velocity S-wave (km/s) = 3.74433 3.91902 3.83267
# Velocity P-wave (km/s) = 6.89332 7.51571 7.21123
#
# Compressibility (1/GPa) = 0.02216110
#
# Stress axis : x y z
#
# Youngs Moduli (GPa) = 32.69284 69.67700 80.94724
#
# Poissons Ratio (x) = 0.60493 0.38452
# Poissons Ratio (y) = 0.28384 0.33463
# Poissons Ratio (z) = 0.15530 0.28804
#
# Static dielectric constant tensor:
#      x y z
#    x 2.697210 0.000000 0.000000 
#    y 0.000000 3.178630 0.000000 
#    z 0.000000 0.000000 3.018920 
# 
# 
# High freq. dielectric constant tensor:
#      x y z
#    x 1.556870 0.000000 0.000000 
#    y 0.000000 1.620680 0.000000 
#    z 0.000000 0.000000 1.595120 
# 
# From -- ./inp_files/26549.got.cif
#   From: 2010.03.12/outbox.cif.g09.slc.cpg/sg59_14_cif.got.tgz:26549.got - 2010.04.16 16:29:54.
