data_PCOD8239892
_publ_section_title
;
Structure prediction by ZEFSAII (Michael W. Deem and Ramdas Pophale) SiO2 
 PCOD8239892
Probable space group: P M M N
;
_chemical_formula_sum "Si O2"
_cell_formula_units_Z 64
_cell_length_a 17.354465
_cell_length_b 8.656330
_cell_length_c 23.122227
_cell_angle_alpha 90.000000
_cell_angle_beta 90.000000
_cell_angle_gamma 90.000000
_cell_volume 3473.559119
_symmetry_space_group_name_H-M "P M M N"
_symmetry_group_IT_number 59
_space_group.IT_coordinate_system_code '2'
_symmetry_cell_setting 'orthorhombic'
loop_
_space_group_symop_operation_xyz
x,y,z
1/2-x,1/2-y,z
1/2+x,-y,-z
-x,1/2+y,-z
-x,-y,-z
1/2+x,1/2+y,-z
1/2-x,y,z
x,1/2-y,z
loop_
_atom_site_type_symbol
_atom_site_label
_atom_site_fract_x
_atom_site_fract_y
_atom_site_fract_z
Si Si1 0.552910 0.068331 0.136953
Si Si2 0.161836 0.568080 0.439335
Si Si3 0.480222 0.568347 0.244965
Si Si4 0.339322 0.069320 0.949581
Si Si5 0.479072 0.068233 0.369062
Si Si6 0.334737 0.573295 0.174342
Si Si7 0.929217 0.566522 0.464481
Si Si8 0.403926 0.068813 0.068800
O O1 0.548400 0.250000 0.148641
O O2 0.486423 0.010987 0.092452
O O3 0.544497 0.980248 0.198005
O O4 0.633200 0.020943 0.107681
O O5 0.250000 0.528696 0.421416
O O6 0.148112 0.750000 0.441571
O O7 0.102208 0.498890 0.392563
O O8 0.147205 0.498320 0.503819
O O9 0.485637 0.750000 0.258218
O O10 0.491780 0.471312 0.302562
O O11 0.396601 0.516682 0.221158
O O12 0.250000 0.034523 0.958656
O O13 0.355367 0.250000 0.940704
O O14 0.384561 0.000453 0.005521
O O15 0.477503 0.250000 0.379287
O O16 0.555309 0.996421 0.399973
O O17 0.250000 0.549493 0.201467
O O18 0.351644 0.750000 0.158631
O O19 0.339145 0.479964 0.114694
O O20 0.927049 0.750000 0.464485
O O21 0.000000 0.500000 0.500000
O O22 0.401161 0.250000 0.062851
#
# Coordination Sequence:
#
# PCOD8239892 Si02
#       8
#     8   8   8   8   8   8   8   8
#     4  10  20  34  52  74  99 129 168 212 256 301
#     4  10  20  34  53  79 112 145 174 208 253 300
#     4  10  20  35  53  72  98 134 174 211 251 299
#     4  10  20  33  50  73 100 130 163 202 254 312
#     4  11  21  34  53  77 105 136 176 218 254 298
#     4   9  18  31  47  69  98 131 165 203 248 298
#     4  10  18  31  52  76 104 137 173 209 248 293
#     4   9  18  32  50  72  98 129 164 202 248 305
#
# _framework density 18.424906
#
# number of rings (size 3 to 8) (size 9 to 14) (size 15 to 20)
#    0.000    2.125    0.000    5.625    0.000    4.000 
#    0.000    1.250    0.000    0.750    0.000    0.000 
#    0.000    0.000    0.000    0.000    0.000    0.000 
#
# Total GULP energy -793449.260627 kJ/mol
# GULP energy per Si atom -12397.644697 kJ/mol
# Density = 1.838297 g / cm^3
# Si number density = 18.424906 Si / 1000 Ang^3
#
#
#
# Elastic Constant Matrix: (Units=GPa)
#
#
# Indices 1 2 3 4 5 6 
#
# 1 37.5658 26.1076 33.7043 0.0000 0.0000 0.0000
# 2 26.1076 83.5240 31.8372 0.0000 0.0000 0.0000
# 3 33.7043 31.8372 119.7132 0.0000 0.0000 0.0000
# 4 0.0000 0.0000 0.0000 32.2107 0.0000 0.0000
# 5 0.0000 0.0000 0.0000 0.0000 20.1407 0.0000
# 6 0.0000 0.0000 0.0000 0.0000 0.0000 24.2150
#
#
#
# Elastic Compliance Matrix: (Units=1/GPa)
#
#
# Indices 1 2 3 4 5 6 
#
# 1 0.041390 -0.009454 -0.009139 0.000000 0.000000 0.000000
# 2 -0.009454 0.015483 -0.001456 0.000000 0.000000 0.000000
# 3 -0.009139 -0.001456 0.011313 0.000000 0.000000 0.000000
# 4 0.000000 0.000000 0.000000 0.031046 0.000000 0.000000
# 5 0.000000 0.000000 0.000000 0.000000 0.049651 0.000000
# 6 0.000000 0.000000 0.000000 0.000000 0.000000 0.041297
#
#
# Mechanical properties :
#
#
# Convention : Reuss Voigt Hill
#
# Bulk Modulus (GPa) = 35.60154 47.12235 41.36195
# Shear Modulus (GPa) = 20.86475 25.25687 23.06081
#
# Velocity S-wave (km/s) = 3.36880 3.70645 3.54165
# Velocity P-wave (km/s) = 5.87335 6.62932 6.26275
#
# Compressibility (1/GPa) = 0.02808867
#
# Stress axis : x y z
#
# Youngs Moduli (GPa) = 24.16063 64.58862 88.39077
#
# Poissons Ratio (x) = 0.61062 0.80778
# Poissons Ratio (y) = 0.22841 0.12868
# Poissons Ratio (z) = 0.22080 0.09403
#
# Static dielectric constant tensor:
#      x y z
#    x 3.481480 0.000000 0.000000 
#    y 0.000000 3.377190 0.000000 
#    z 0.000000 0.000000 3.583110 
# 
# 
# High freq. dielectric constant tensor:
#      x y z
#    x 1.693570 0.000000 0.000000 
#    y 0.000000 1.721180 0.000000 
#    z 0.000000 0.000000 1.708250 
# 
# From -- ./inp_files/30789.got.cif
#   From: 2010.03.12/outbox.cif.g09.slc.cpg/sg59_16_cif.got.tgz:30789.got - 2010.04.16 16:29:54.
