data_PCOD8239739
_publ_section_title
;
Structure prediction by ZEFSAII (Michael W. Deem and Ramdas Pophale) SiO2 
 PCOD8239739
Probable space group: P M M N
;
_chemical_formula_sum "Si O2"
_cell_formula_units_Z 64
_cell_length_a 20.101344
_cell_length_b 9.571458
_cell_length_c 19.953769
_cell_angle_alpha 90.000000
_cell_angle_beta 90.000000
_cell_angle_gamma 90.000000
_cell_volume 3839.088591
_symmetry_space_group_name_H-M "P M M N"
_symmetry_group_IT_number 59
_space_group.IT_coordinate_system_code '2'
_symmetry_cell_setting 'orthorhombic'
loop_
_space_group_symop_operation_xyz
x,y,z
1/2-x,1/2-y,z
1/2+x,-y,-z
-x,1/2+y,-z
-x,-y,-z
1/2+x,1/2+y,-z
1/2-x,y,z
x,1/2-y,z
loop_
_atom_site_type_symbol
_atom_site_label
_atom_site_fract_x
_atom_site_fract_y
_atom_site_fract_z
Si Si1 0.914797 0.589054 0.838314
Si Si2 0.608322 0.588734 0.685984
Si Si3 0.326474 0.587331 0.062186
Si Si4 0.676363 0.416183 0.089438
Si Si5 0.961089 0.086147 0.330955
Si Si6 0.436726 0.586258 0.522966
Si Si7 0.825110 0.089512 0.580063
Si Si8 0.935473 0.415913 0.187212
O O1 0.909805 0.750000 0.860064
O O2 0.882535 0.567670 0.765226
O O3 0.874814 0.497652 0.890453
O O4 0.991622 0.539352 0.838586
O O5 0.617349 0.750000 0.665877
O O6 0.536412 0.528822 0.663091
O O7 0.663400 0.499962 0.646918
O O8 0.250000 0.556431 0.081152
O O9 0.342536 0.750000 0.070979
O O10 0.340693 0.537977 0.986201
O O11 0.750000 0.471157 0.109682
O O12 0.676158 0.250000 0.093077
O O13 0.621661 0.481940 0.139903
O O14 0.968942 0.250000 0.318966
O O15 0.921040 0.050377 0.398802
O O16 0.925201 0.027064 0.263796
O O17 0.500000 0.500000 0.500000
O O18 0.453053 0.750000 0.515011
O O19 0.372675 0.540365 0.480543
O O20 0.750000 0.066409 0.555107
O O21 0.838741 0.250000 0.598491
O O22 0.929412 0.250000 0.185418
#
# Coordination Sequence:
#
# PCOD8239739 Si02
#       8
#     8   8   8   8   8   8   8   8
#     4   9  18  30  46  69  94 119 150 192 234 269
#     4   9  17  31  48  65  87 118 156 190 222 268
#     4   9  18  31  45  63  90 123 155 188 226 271
#     4   8  14  26  44  65  90 121 155 186 222 275
#     4   8  14  26  45  67  88 112 147 188 226 263
#     4  10  18  30  50  70  90 121 157 190 225 272
#     4  10  21  33  44  66  99 126 149 187 237 277
#     4   8  14  26  44  67  93 117 145 189 235 267
#
# _framework density 16.670622999999999
#
# number of rings (size 3 to 8) (size 9 to 14) (size 15 to 20)
#    0.000    3.125    1.250    2.250    0.000    2.000 
#    0.000    3.125    0.000    3.750    0.000    0.000 
#    0.000    0.000    0.000    0.000    0.000    0.000 
#
# Total GULP energy -793208.068800 kJ/mol
# GULP energy per Si atom -12393.876075 kJ/mol
# Density = 1.663268 g / cm^3
# Si number density = 16.670623 Si / 1000 Ang^3
#
#
#
# Elastic Constant Matrix: (Units=GPa)
#
#
# Indices 1 2 3 4 5 6 
#
# 1 114.9450 39.0149 84.4624 0.0000 0.0000 0.0000
# 2 39.0149 34.3972 41.2483 0.0000 0.0000 0.0000
# 3 84.4624 41.2483 128.7987 0.0000 0.0000 0.0000
# 4 0.0000 0.0000 0.0000 19.4671 0.0000 0.0000
# 5 0.0000 0.0000 0.0000 0.0000 30.7612 0.0000
# 6 0.0000 0.0000 0.0000 0.0000 0.0000 18.6869
#
#
#
# Elastic Compliance Matrix: (Units=1/GPa)
#
#
# Indices 1 2 3 4 5 6 
#
# 1 0.018940 -0.010696 -0.008995 0.000000 0.000000 0.000000
# 2 -0.010696 0.053239 -0.010036 0.000000 0.000000 0.000000
# 3 -0.008995 -0.010036 0.016876 0.000000 0.000000 0.000000
# 4 0.000000 0.000000 0.000000 0.051369 0.000000 0.000000
# 5 0.000000 0.000000 0.000000 0.000000 0.032508 0.000000
# 6 0.000000 0.000000 0.000000 0.000000 0.000000 0.053513
#
#
# Mechanical properties :
#
#
# Convention : Reuss Voigt Hill
#
# Bulk Modulus (GPa) = 33.78150 67.51024 50.64587
# Shear Modulus (GPa) = 16.90528 21.34406 19.12467
#
# Velocity S-wave (km/s) = 3.18791 3.58207 3.39072
# Velocity P-wave (km/s) = 5.81880 7.59557 6.76576
#
# Compressibility (1/GPa) = 0.02960200
#
# Stress axis : x y z
#
# Youngs Moduli (GPa) = 52.79957 18.78326 59.25437
#
# Poissons Ratio (x) = 0.20091 0.53296
# Poissons Ratio (y) = 0.56475 0.59466
# Poissons Ratio (z) = 0.47491 0.18850
#
# Static dielectric constant tensor:
#      x y z
#    x 3.216710 0.000000 0.000000 
#    y 0.000000 2.748000 0.000000 
#    z 0.000000 0.000000 3.380500 
# 
# 
# High freq. dielectric constant tensor:
#      x y z
#    x 1.633280 0.000000 0.000000 
#    y 0.000000 1.600660 0.000000 
#    z 0.000000 0.000000 1.651560 
# 
# From -- ./inp_files/27222.got.cif
#   From: 2010.03.12/outbox.cif.g09.slc.cpg/sg59_14_cif.got.tgz:27222.got - 2010.04.16 16:29:54.
