data_PCOD8239795
_publ_section_title
;
Structure prediction by ZEFSAII (Michael W. Deem and Ramdas Pophale) SiO2 
 PCOD8239795
Probable space group: P M M N
;
_chemical_formula_sum "Si O2"
_cell_formula_units_Z 40
_cell_length_a 14.278829
_cell_length_b 20.354950
_cell_length_c 7.854647
_cell_angle_alpha 90.000000
_cell_angle_beta 90.000000
_cell_angle_gamma 90.000000
_cell_volume 2282.912702
_symmetry_space_group_name_H-M "P M M N"
_symmetry_group_IT_number 59
_space_group.IT_coordinate_system_code '2'
_symmetry_cell_setting 'orthorhombic'
loop_
_space_group_symop_operation_xyz
x,y,z
1/2-x,1/2-y,z
1/2+x,-y,-z
-x,1/2+y,-z
-x,-y,-z
1/2+x,1/2+y,-z
1/2-x,y,z
x,1/2-y,z
loop_
_atom_site_type_symbol
_atom_site_label
_atom_site_fract_x
_atom_site_fract_y
_atom_site_fract_z
Si Si1 0.990078 0.086827 0.176201
Si Si2 0.646274 0.582119 0.371578
Si Si3 0.464549 0.938369 0.189422
Si Si4 0.643067 0.064101 0.480205
Si Si5 0.643652 0.826377 0.684589
O O1 0.070172 0.142277 0.183956
O O2 0.915008 0.096975 0.326775
O O3 0.041993 0.017004 0.186658
O O4 0.936092 0.091588 0.994168
O O5 0.750000 0.585336 0.289999
O O6 0.571379 0.585143 0.220893
O O7 0.632644 0.514511 0.475507
O O8 0.629146 0.641716 0.499682
O O9 0.397114 0.911305 0.338264
O O10 0.750000 0.087287 0.463772
O O11 0.750000 0.838613 0.749218
O O12 0.621445 0.750000 0.666740
#
# Coordination Sequence:
#
# PCOD8239795 Si02
#       5
#     8   8   8   8   8
#     4  10  19  32  50  76 104 134 171 209 256 309
#     4   9  16  30  49  73 104 133 166 207 252 303
#     4  10  18  30  52  76 102 133 167 212 265 304
#     4  10  18  31  51  75 104 131 162 213 264 301
#     4  10  19  32  52  75 104 142 173 200 245 305
#
# _framework density 17.521474999999999
#
# number of rings (size 3 to 8) (size 9 to 14) (size 15 to 20)
#    0.000    2.200    4.000    1.200    0.000    1.600 
#    0.000    5.000    0.000    3.000    0.000    0.000 
#    0.000    0.000    0.000    0.000    0.000    0.000 
#
# Total GULP energy -495909.135334 kJ/mol
# GULP energy per Si atom -12397.728383 kJ/mol
# Density = 1.748160 g / cm^3
# Si number density = 17.521475 Si / 1000 Ang^3
#
#
#
# Elastic Constant Matrix: (Units=GPa)
#
#
# Indices 1 2 3 4 5 6 
#
# 1 107.7400 44.5233 58.1552 0.0000 0.0000 0.0000
# 2 44.5233 62.8132 23.2760 0.0000 0.0000 0.0000
# 3 58.1552 23.2760 129.4725 0.0000 0.0000 0.0000
# 4 0.0000 0.0000 0.0000 12.3131 0.0000 0.0000
# 5 0.0000 0.0000 0.0000 0.0000 14.7801 0.0000
# 6 0.0000 0.0000 0.0000 0.0000 0.0000 22.9562
#
#
#
# Elastic Compliance Matrix: (Units=1/GPa)
#
#
# Indices 1 2 3 4 5 6 
#
# 1 0.016176 -0.009399 -0.005576 0.000000 0.000000 0.000000
# 2 -0.009399 0.022518 0.000174 0.000000 0.000000 0.000000
# 3 -0.005576 0.000174 0.010197 0.000000 0.000000 0.000000
# 4 0.000000 0.000000 0.000000 0.081215 0.000000 0.000000
# 5 0.000000 0.000000 0.000000 0.000000 0.067659 0.000000
# 6 0.000000 0.000000 0.000000 0.000000 0.000000 0.043561
#
#
# Mechanical properties :
#
#
# Convention : Reuss Voigt Hill
#
# Bulk Modulus (GPa) = 51.84631 61.32608 56.58619
# Shear Modulus (GPa) = 18.02727 21.61461 19.82094
#
# Velocity S-wave (km/s) = 3.21108 3.51608 3.36704
# Velocity P-wave (km/s) = 6.58805 7.18055 6.89067
#
# Compressibility (1/GPa) = 0.01928778
#
# Stress axis : x y z
#
# Youngs Moduli (GPa) = 61.82165 44.40820 98.06900
#
# Poissons Ratio (x) = 0.41741 0.54681
# Poissons Ratio (y) = 0.58109 -0.01703
# Poissons Ratio (z) = 0.34470 -0.00771
#
# Static dielectric constant tensor:
#      x y z
#    x 3.384980 0.000000 0.000000 
#    y 0.000000 2.917520 0.000000 
#    z 0.000000 0.000000 3.222300 
# 
# 
# High freq. dielectric constant tensor:
#      x y z
#    x 1.678160 0.000000 0.000000 
#    y 0.000000 1.628580 0.000000 
#    z 0.000000 0.000000 1.673590 
# 
# From -- ./inp_files/8799.got.cif
#   From: 2010.03.12/outbox.cif.g09.slc.cpg/sg59_5_cif.got.tgz:8799.got - 2010.04.16 16:29:54.
