data_PCOD8239555
_publ_section_title
;
Structure prediction by ZEFSAII (Michael W. Deem and Ramdas Pophale) SiO2 
 PCOD8239555
Probable space group: P M M N
;
_chemical_formula_sum "Si O2"
_cell_formula_units_Z 40
_cell_length_a 23.227416
_cell_length_b 13.440652
_cell_length_c 7.773599
_cell_angle_alpha 90.000000
_cell_angle_beta 90.000000
_cell_angle_gamma 90.000000
_cell_volume 2426.852429
_symmetry_space_group_name_H-M "P M M N"
_symmetry_group_IT_number 59
_space_group.IT_coordinate_system_code '2'
_symmetry_cell_setting 'orthorhombic'
loop_
_space_group_symop_operation_xyz
x,y,z
1/2-x,1/2-y,z
1/2+x,-y,-z
-x,1/2+y,-z
-x,-y,-z
1/2+x,1/2+y,-z
1/2-x,y,z
x,1/2-y,z
loop_
_atom_site_type_symbol
_atom_site_label
_atom_site_fract_x
_atom_site_fract_y
_atom_site_fract_z
Si Si1 0.929567 0.633468 0.018215
Si Si2 0.429300 0.051398 0.338527
Si Si3 0.000968 0.863418 0.358255
Si Si4 0.185457 0.133709 0.442246
Si Si5 0.312265 0.131873 0.834710
O O1 0.926797 0.750000 0.981513
O O2 0.954465 0.580155 0.848817
O O3 0.969313 0.609999 0.180845
O O4 0.865269 0.589993 0.054453
O O5 0.457264 0.121450 0.483854
O O6 0.360555 0.068968 0.335455
O O7 0.444200 0.936194 0.377265
O O8 0.023089 0.750000 0.359422
O O9 0.250000 0.113423 0.371333
O O10 0.170341 0.250000 0.421839
O O11 0.180886 0.097638 0.638300
O O12 0.250000 0.094531 0.906745
O O13 0.313930 0.250000 0.837367
#
# Coordination Sequence:
#
# PCOD8239555 Si02
#       5
#     8   8   8   8   8
#     4  10  18  29  47  69  96 125 157 192 231 279
#     4  11  20  31  51  72  93 125 163 191 230 285
#     4  10  21  35  47  66  98 128 157 198 236 269
#     4   9  16  28  47  71  98 123 149 187 236 285
#     4   8  14  25  42  65  96 127 147 178 233 283
#
# _framework density 16.482254000000001
#
# number of rings (size 3 to 8) (size 9 to 14) (size 15 to 20)
#    0.000    2.400    2.000    3.600    0.000    0.800 
#    0.000    2.000    0.000    0.600    0.000    0.000 
#    0.000    0.000    0.000    0.000    0.000    0.000 
#
# Total GULP energy -495793.964919 kJ/mol
# GULP energy per Si atom -12394.849123 kJ/mol
# Density = 1.644474 g / cm^3
# Si number density = 16.482254 Si / 1000 Ang^3
#
#
#
# Elastic Constant Matrix: (Units=GPa)
#
#
# Indices 1 2 3 4 5 6 
#
# 1 89.9883 48.4003 23.6779 0.0000 0.0000 0.0000
# 2 48.4003 66.2583 26.6774 0.0000 0.0000 0.0000
# 3 23.6779 26.6774 92.6209 0.0000 0.0000 0.0000
# 4 0.0000 0.0000 0.0000 16.2888 0.0000 0.0000
# 5 0.0000 0.0000 0.0000 0.0000 9.6741 0.0000
# 6 0.0000 0.0000 0.0000 0.0000 0.0000 21.8329
#
#
#
# Elastic Compliance Matrix: (Units=1/GPa)
#
#
# Indices 1 2 3 4 5 6 
#
# 1 0.018376 -0.013045 -0.000940 0.000000 0.000000 0.000000
# 2 -0.013045 0.026332 -0.004250 0.000000 0.000000 0.000000
# 3 -0.000940 -0.004250 0.012261 0.000000 0.000000 0.000000
# 4 0.000000 0.000000 0.000000 0.061392 0.000000 0.000000
# 5 0.000000 0.000000 0.000000 0.000000 0.103369 0.000000
# 6 0.000000 0.000000 0.000000 0.000000 0.000000 0.045802
#
#
# Mechanical properties :
#
#
# Convention : Reuss Voigt Hill
#
# Bulk Modulus (GPa) = 48.78066 49.59760 49.18913
# Shear Modulus (GPa) = 16.08566 19.56663 17.82615
#
# Velocity S-wave (km/s) = 3.12739 3.44922 3.29224
# Velocity P-wave (km/s) = 6.53459 6.78378 6.66035
#
# Compressibility (1/GPa) = 0.02049993
#
# Stress axis : x y z
#
# Youngs Moduli (GPa) = 54.41850 37.97610 81.55844
#
# Poissons Ratio (x) = 0.49539 0.07671
# Poissons Ratio (y) = 0.70987 0.34660
# Poissons Ratio (z) = 0.05118 0.16139
#
# Static dielectric constant tensor:
#      x y z
#    x 3.247870 0.000000 0.000000 
#    y 0.000000 2.690040 0.000000 
#    z 0.000000 0.000000 3.196950 
# 
# 
# High freq. dielectric constant tensor:
#      x y z
#    x 1.630270 0.000000 0.000000 
#    y 0.000000 1.579510 0.000000 
#    z 0.000000 0.000000 1.647380 
# 
# From -- ./inp_files/7646.got.cif
#   From: 2010.03.12/outbox.cif.g09.slc.cpg/sg59_4_cif.got.tgz:7646.got - 2010.04.16 16:29:54.
