data_PCOD8239488
_publ_section_title
;
Structure prediction by ZEFSAII (Michael W. Deem and Ramdas Pophale) SiO2 
 PCOD8239488
Probable space group: P M M N
;
_chemical_formula_sum "Si O2"
_cell_formula_units_Z 56
_cell_length_a 9.025279
_cell_length_b 22.283151
_cell_length_c 17.578631
_cell_angle_alpha 90.000000
_cell_angle_beta 90.000000
_cell_angle_gamma 90.000000
_cell_volume 3535.267569
_symmetry_space_group_name_H-M "P M M N"
_symmetry_group_IT_number 59
_space_group.IT_coordinate_system_code '2'
_symmetry_cell_setting 'orthorhombic'
loop_
_space_group_symop_operation_xyz
x,y,z
1/2-x,1/2-y,z
1/2+x,-y,-z
-x,1/2+y,-z
-x,-y,-z
1/2+x,1/2+y,-z
1/2-x,y,z
x,1/2-y,z
loop_
_atom_site_type_symbol
_atom_site_label
_atom_site_fract_x
_atom_site_fract_y
_atom_site_fract_z
Si Si1 0.077921 0.413654 0.964682
Si Si2 0.415532 0.556520 0.593513
Si Si3 0.425925 0.026258 0.259963
Si Si4 0.924679 0.599180 0.288038
Si Si5 0.421738 0.541721 0.892362
Si Si6 0.085841 0.418121 0.547276
Si Si7 0.425555 0.183357 0.845497
O O1 0.250000 0.407773 0.986792
O O2 0.051369 0.472568 0.914068
O O3 0.019453 0.357137 0.915871
O O4 0.981804 0.415343 0.041079
O O5 0.250000 0.578772 0.611761
O O6 0.516324 0.564826 0.668126
O O7 0.477662 0.596099 0.523100
O O8 0.416697 0.487752 0.568942
O O9 0.250000 0.026846 0.259880
O O10 0.483609 0.958514 0.262931
O O11 0.487589 0.057089 0.183670
O O12 0.750000 0.583458 0.279022
O O13 0.961062 0.617298 0.375705
O O14 0.973901 0.654238 0.234795
O O15 0.250000 0.555629 0.878653
O O16 0.250000 0.398945 0.521478
O O17 0.250000 0.186797 0.848310
O O18 0.495255 0.250000 0.851666
#
# Coordination Sequence:
#
# PCOD8239488 Si02
#       7
#     8   8   8   8   8   8   8
#     4   9  17  29  44  63  85 110 145 182 218 261
#     4   9  16  25  37  54  80 110 140 171 206 247
#     4  11  19  26  40  61  85 112 144 177 215 261
#     4   9  16  28  42  59  83 113 147 180 214 252
#     4  10  18  29  44  61  85 114 144 180 220 264
#     4   8  14  23  36  53  78 109 141 173 203 241
#     4   9  16  28  47  67  87 113 147 185 221 256
#
# _framework density 15.840384999999999
#
# number of rings (size 3 to 8) (size 9 to 14) (size 15 to 20)
#    0.000    2.714    1.429    3.000    0.000    4.000 
#    0.000    0.000    0.000    1.714    0.000    0.000 
#    0.000    1.143    0.000    9.714    0.000    2.857 
#
# Total GULP energy -694175.932790 kJ/mol
# GULP energy per Si atom -12395.998800 kJ/mol
# Density = 1.580433 g / cm^3
# Si number density = 15.840385 Si / 1000 Ang^3
#
#
#
# Elastic Constant Matrix: (Units=GPa)
#
#
# Indices 1 2 3 4 5 6 
#
# 1 92.7832 20.2919 66.5164 0.0000 0.0000 0.0000
# 2 20.2919 55.2211 47.8701 0.0000 0.0000 0.0000
# 3 66.5164 47.8701 149.4969 0.0000 0.0000 0.0000
# 4 0.0000 0.0000 0.0000 14.8670 0.0000 0.0000
# 5 0.0000 0.0000 0.0000 0.0000 30.4718 0.0000
# 6 0.0000 0.0000 0.0000 0.0000 0.0000 8.9586
#
#
#
# Elastic Compliance Matrix: (Units=1/GPa)
#
#
# Indices 1 2 3 4 5 6 
#
# 1 0.015832 0.000400 -0.007172 0.000000 0.000000 0.000000
# 2 0.000400 0.025077 -0.008208 0.000000 0.000000 0.000000
# 3 -0.007172 -0.008208 0.012509 0.000000 0.000000 0.000000
# 4 0.000000 0.000000 0.000000 0.067263 0.000000 0.000000
# 5 0.000000 0.000000 0.000000 0.000000 0.032817 0.000000
# 6 0.000000 0.000000 0.000000 0.000000 0.000000 0.111624
#
#
# Mechanical properties :
#
#
# Convention : Reuss Voigt Hill
#
# Bulk Modulus (GPa) = 42.63067 62.98420 52.80743
# Shear Modulus (GPa) = 16.50698 21.71435 19.11066
#
# Velocity S-wave (km/s) = 3.23163 3.70648 3.47717
# Velocity P-wave (km/s) = 6.39497 7.62663 7.03779
#
# Compressibility (1/GPa) = 0.02345729
#
# Stress axis : x y z
#
# Youngs Moduli (GPa) = 63.16233 39.87664 79.94547
#
# Poissons Ratio (x) = -0.01594 0.57339
# Poissons Ratio (y) = -0.02525 0.65618
# Poissons Ratio (z) = 0.45302 0.32730
#
# Static dielectric constant tensor:
#      x y z
#    x 2.975960 0.000000 0.000000 
#    y 0.000000 2.651120 0.000000 
#    z 0.000000 0.000000 3.325810 
# 
# 
# High freq. dielectric constant tensor:
#      x y z
#    x 1.602340 0.000000 0.000000 
#    y 0.000000 1.534270 0.000000 
#    z 0.000000 0.000000 1.626490 
# 
# From -- ./inp_files/26387.got.cif
#   From: 2010.03.12/outbox.cif.g09.slc.cpg/sg59_14_cif.got.tgz:26387.got - 2010.04.16 16:29:54.
