data_PCOD8239680
_publ_section_title
;
Structure prediction by ZEFSAII (Michael W. Deem and Ramdas Pophale) SiO2 
 PCOD8239680
Probable space group: P M M N
;
_chemical_formula_sum "Si O2"
_cell_formula_units_Z 64
_cell_length_a 19.711006
_cell_length_b 9.704367
_cell_length_c 19.195284
_cell_angle_alpha 90.000000
_cell_angle_beta 90.000000
_cell_angle_gamma 90.000000
_cell_volume 3671.728364
_symmetry_space_group_name_H-M "P M M N"
_symmetry_group_IT_number 59
_space_group.IT_coordinate_system_code '2'
_symmetry_cell_setting 'orthorhombic'
loop_
_space_group_symop_operation_xyz
x,y,z
1/2-x,1/2-y,z
1/2+x,-y,-z
-x,1/2+y,-z
-x,-y,-z
1/2+x,1/2+y,-z
1/2-x,y,z
x,1/2-y,z
loop_
_atom_site_type_symbol
_atom_site_label
_atom_site_fract_x
_atom_site_fract_y
_atom_site_fract_z
Si Si1 0.934324 0.094424 0.067305
Si Si2 0.408876 0.089678 0.055657
Si Si3 0.953125 0.586931 0.551592
Si Si4 0.327200 0.085888 0.191008
Si Si5 0.323450 0.411892 0.529471
Si Si6 0.556236 0.912856 0.709261
Si Si7 0.170134 0.404319 0.681682
Si Si8 0.082804 0.592394 0.775749
O O1 0.925871 0.250000 0.039794
O O2 0.901905 0.075503 0.142890
O O3 0.013618 0.058437 0.076011
O O4 0.893684 0.995178 0.014734
O O5 0.396379 0.250000 0.040207
O O6 0.359731 0.037505 0.117559
O O7 0.970010 0.750000 0.544400
O O8 0.876197 0.552032 0.530396
O O9 0.957457 0.532276 0.630891
O O10 0.000000 0.500000 0.500000
O O11 0.250000 0.028842 0.198452
O O12 0.326956 0.250000 0.192613
O O13 0.374477 0.029511 0.254692
O O14 0.250000 0.475692 0.508890
O O15 0.314904 0.250000 0.539034
O O16 0.348073 0.466077 0.605170
O O17 0.563452 0.750000 0.705540
O O18 0.492940 0.958636 0.756662
O O19 0.250000 0.403604 0.692429
O O20 0.140716 0.250000 0.691096
O O21 0.138539 0.502457 0.738476
O O22 0.090943 0.750000 0.751636
#
# Coordination Sequence:
#
# PCOD8239680 Si02
#       8
#     8   8   8   8   8   8   8   8
#     4   9  17  29  47  68  93 124 154 190 235 278
#     4   9  16  29  48  70  94 120 156 197 233 275
#     4  10  19  30  48  72  98 126 157 198 243 284
#     4   9  16  28  48  73 101 130 160 199 245 286
#     4   8  15  29  47  66  90 122 158 194 234 281
#     4   9  17  29  45  70 100 127 158 197 239 281
#     4   9  18  32  48  66  91 122 156 197 241 282
#     4  10  18  30  48  69  97 128 156 192 235 282
#
# _framework density 17.430484
#
# number of rings (size 3 to 8) (size 9 to 14) (size 15 to 20)
#    0.000    2.875    1.250    1.500    0.000    1.250 
#    0.000    3.125    0.000    4.500    0.000    0.000 
#    0.000    0.000    0.000    0.000    0.000    0.000 
#
# Total GULP energy -793197.400605 kJ/mol
# GULP energy per Si atom -12393.709384 kJ/mol
# Density = 1.739081 g / cm^3
# Si number density = 17.430484 Si / 1000 Ang^3
#
#
#
# Elastic Constant Matrix: (Units=GPa)
#
#
# Indices 1 2 3 4 5 6 
#
# 1 60.9545 23.3888 47.9799 0.0000 0.0000 0.0000
# 2 23.3888 38.5743 37.7821 0.0000 0.0000 0.0000
# 3 47.9799 37.7821 119.1004 0.0000 0.0000 0.0000
# 4 0.0000 0.0000 0.0000 22.9466 0.0000 0.0000
# 5 0.0000 0.0000 0.0000 0.0000 25.1523 0.0000
# 6 0.0000 0.0000 0.0000 0.0000 0.0000 18.8672
#
#
#
# Elastic Compliance Matrix: (Units=1/GPa)
#
#
# Indices 1 2 3 4 5 6 
#
# 1 0.025565 -0.007854 -0.007807 0.000000 0.000000 0.000000
# 2 -0.007854 0.040023 -0.009532 0.000000 0.000000 0.000000
# 3 -0.007807 -0.009532 0.014566 0.000000 0.000000 0.000000
# 4 0.000000 0.000000 0.000000 0.043579 0.000000 0.000000
# 5 0.000000 0.000000 0.000000 0.000000 0.039758 0.000000
# 6 0.000000 0.000000 0.000000 0.000000 0.000000 0.053002
#
#
# Mechanical properties :
#
#
# Convention : Reuss Voigt Hill
#
# Bulk Modulus (GPa) = 33.59560 48.54787 41.07173
# Shear Modulus (GPa) = 18.06351 20.69178 19.37765
#
# Velocity S-wave (km/s) = 3.22268 3.44917 3.33785
# Velocity P-wave (km/s) = 5.75877 6.61628 6.20236
#
# Compressibility (1/GPa) = 0.02976580
#
# Stress axis : x y z
#
# Youngs Moduli (GPa) = 39.11641 24.98592 68.65535
#
# Poissons Ratio (x) = 0.19623 0.53602
# Poissons Ratio (y) = 0.30720 0.65446
# Poissons Ratio (z) = 0.30540 0.23818
#
# Static dielectric constant tensor:
#      x y z
#    x -9.450200 0.000000 0.000000 
#    y 0.000000 2.913610 0.000000 
#    z 0.000000 0.000000 3.431940 
# 
# 
# High freq. dielectric constant tensor:
#      x y z
#    x 1.666130 0.000000 0.000000 
#    y 0.000000 1.627640 0.000000 
#    z 0.000000 0.000000 1.682470 
# 
# From -- ./inp_files/27973.got.cif
#   From: 2010.03.12/outbox.cif.g09.slc.cpg/sg59_14_cif.got.tgz:27973.got - 2010.04.16 16:29:54.
