data_PCOD8239222
_publ_section_title
;
Structure prediction by ZEFSAII (Michael W. Deem and Ramdas Pophale) SiO2 
 PCOD8239222
Probable space group: P M M N
;
_chemical_formula_sum "Si O2"
_cell_formula_units_Z 64
_cell_length_a 9.117893
_cell_length_b 22.002886
_cell_length_c 20.125415
_cell_angle_alpha 90.000000
_cell_angle_beta 90.000000
_cell_angle_gamma 90.000000
_cell_volume 4037.559957
_symmetry_space_group_name_H-M "P M M N"
_symmetry_group_IT_number 59
_space_group.IT_coordinate_system_code '2'
_symmetry_cell_setting 'orthorhombic'
loop_
_space_group_symop_operation_xyz
x,y,z
1/2-x,1/2-y,z
1/2+x,-y,-z
-x,1/2+y,-z
-x,-y,-z
1/2+x,1/2+y,-z
1/2-x,y,z
x,1/2-y,z
loop_
_atom_site_type_symbol
_atom_site_label
_atom_site_fract_x
_atom_site_fract_y
_atom_site_fract_z
Si Si1 0.077930 0.064014 0.993763
Si Si2 0.581694 0.320446 0.359978
Si Si3 0.419504 0.585981 0.529248
Si Si4 0.922043 0.612581 0.754369
Si Si5 0.421086 0.457816 0.592820
Si Si6 0.920604 0.026350 0.725124
Si Si7 0.087369 0.453138 0.850441
Si Si8 0.416251 0.905351 0.884011
O O1 0.250000 0.057193 0.010366
O O2 0.055081 0.086579 0.917211
O O3 0.002078 0.109506 0.046927
O O4 0.000000 0.000000 0.000000
O O5 0.750000 0.335485 0.340799
O O6 0.557552 0.250000 0.374802
O O7 0.538008 0.355680 0.427104
O O8 0.477807 0.340097 0.300051
O O9 0.250000 0.585566 0.508323
O O10 0.458688 0.526610 0.572200
O O11 0.515138 0.588079 0.462328
O O12 0.750000 0.620815 0.765223
O O13 0.960810 0.544720 0.730193
O O14 0.002690 0.628397 0.823398
O O15 0.250000 0.445880 0.600056
O O16 0.496364 0.444209 0.663055
O O17 0.750000 0.037484 0.715598
O O18 0.972044 0.061012 0.792139
O O19 0.250000 0.438433 0.823325
O O20 0.078586 0.523140 0.871389
O O21 0.250000 0.881187 0.889374
#
# Coordination Sequence:
#
# PCOD8239222 Si02
#       8
#     8   8   8   8   8   8   8   8
#     4   9  15  23  34  50  73 103 138 173 207 243
#     4  10  20  34  50  65  84 112 143 177 219 264
#     4   9  18  31  45  63  84 107 137 175 214 259
#     4  10  19  29  42  60  82 107 140 179 216 256
#     4  10  18  28  45  63  83 110 138 175 217 258
#     4  10  18  26  39  59  82 109 140 176 213 253
#     4   8  15  24  34  50  75 106 137 169 205 246
#     4   9  16  25  38  53  73 103 138 176 211 245
#
# _framework density 15.851157000000001
#
# number of rings (size 3 to 8) (size 9 to 14) (size 15 to 20)
#    0.000    2.625    1.250    2.625    0.000    5.750 
#    0.000    0.000    0.000    0.000    0.000    0.000 
#    0.000    0.000    0.000    1.125    0.000   18.375 
#
# Total GULP energy -793415.431543 kJ/mol
# GULP energy per Si atom -12397.116118 kJ/mol
# Density = 1.581508 g / cm^3
# Si number density = 15.851157 Si / 1000 Ang^3
#
#
#
# Elastic Constant Matrix: (Units=GPa)
#
#
# Indices 1 2 3 4 5 6 
#
# 1 99.4750 21.9374 72.9175 0.0000 0.0000 0.0000
# 2 21.9374 33.9229 31.7559 0.0000 0.0000 0.0000
# 3 72.9175 31.7559 141.0341 0.0000 0.0000 0.0000
# 4 0.0000 0.0000 0.0000 10.7644 0.0000 0.0000
# 5 0.0000 0.0000 0.0000 0.0000 36.7115 0.0000
# 6 0.0000 0.0000 0.0000 0.0000 0.0000 11.4477
#
#
#
# Elastic Compliance Matrix: (Units=1/GPa)
#
#
# Indices 1 2 3 4 5 6 
#
# 1 0.016491 -0.003400 -0.007761 0.000000 0.000000 0.000000
# 2 -0.003400 0.038052 -0.006810 0.000000 0.000000 0.000000
# 3 -0.007761 -0.006810 0.012637 0.000000 0.000000 0.000000
# 4 0.000000 0.000000 0.000000 0.092899 0.000000 0.000000
# 5 0.000000 0.000000 0.000000 0.000000 0.027239 0.000000
# 6 0.000000 0.000000 0.000000 0.000000 0.000000 0.087354
#
#
# Mechanical properties :
#
#
# Convention : Reuss Voigt Hill
#
# Bulk Modulus (GPa) = 32.01180 58.62817 45.31999
# Shear Modulus (GPa) = 15.57501 21.63948 18.60725
#
# Velocity S-wave (km/s) = 3.13801 3.69882 3.42990
# Velocity P-wave (km/s) = 5.77655 7.43698 6.65873
#
# Compressibility (1/GPa) = 0.03123848
#
# Stress axis : x y z
#
# Youngs Moduli (GPa) = 60.63747 26.27958 79.13580
#
# Poissons Ratio (x) = 0.08934 0.61417
# Poissons Ratio (y) = 0.20614 0.53895
# Poissons Ratio (z) = 0.47060 0.17897
#
# Static dielectric constant tensor:
#      x y z
#    x 3.120550 0.000000 0.000000 
#    y 0.000000 2.420660 0.000000 
#    z 0.000000 0.000000 3.411600 
# 
# 
# High freq. dielectric constant tensor:
#      x y z
#    x 1.623220 0.000000 0.000000 
#    y 0.000000 1.523230 0.000000 
#    z 0.000000 0.000000 1.625140 
# 
# From -- ./inp_files/26465.got.cif
#   From: 2010.03.12/outbox.cif.g09.slc.cpg/sg59_14_cif.got.tgz:26465.got - 2010.04.16 16:29:54.
