data_PCOD8239553
_publ_section_title
;
Structure prediction by ZEFSAII (Michael W. Deem and Ramdas Pophale) SiO2 
 PCOD8239553
Probable space group: P M M N
;
_chemical_formula_sum "Si O2"
_cell_formula_units_Z 48
_cell_length_a 8.690313
_cell_length_b 20.980626
_cell_length_c 14.284049
_cell_angle_alpha 90.000000
_cell_angle_beta 90.000000
_cell_angle_gamma 90.000000
_cell_volume 2604.385041
_symmetry_space_group_name_H-M "P M M N"
_symmetry_group_IT_number 59
_space_group.IT_coordinate_system_code '2'
_symmetry_cell_setting 'orthorhombic'
loop_
_space_group_symop_operation_xyz
x,y,z
1/2-x,1/2-y,z
1/2+x,-y,-z
-x,1/2+y,-z
-x,-y,-z
1/2+x,1/2+y,-z
1/2-x,y,z
x,1/2-y,z
loop_
_atom_site_type_symbol
_atom_site_label
_atom_site_fract_x
_atom_site_fract_y
_atom_site_fract_z
Si Si1 0.068244 0.064659 0.956486
Si Si2 0.429350 0.323288 0.494685
Si Si3 0.569961 0.104205 0.131620
Si Si4 0.931293 0.021452 0.783405
Si Si5 0.918757 0.323972 0.307424
Si Si6 0.569352 0.051895 0.571301
O O1 0.250000 0.061176 0.943953
O O2 0.987591 0.077550 0.855238
O O3 0.021305 0.117438 0.034255
O O4 0.000000 0.000000 0.000000
O O5 0.250000 0.328199 0.513983
O O6 0.486366 0.250000 0.514414
O O7 0.462485 0.344908 0.387828
O O8 0.514196 0.375174 0.558385
O O9 0.750000 0.105045 0.108587
O O10 0.519000 0.158447 0.204857
O O11 0.526503 0.039163 0.183355
O O12 0.750000 0.010081 0.793810
O O13 0.978702 0.035556 0.677173
O O14 0.750000 0.356156 0.324915
O O15 0.897543 0.250000 0.311482
O O16 0.750000 0.049519 0.557229
O O17 0.500000 0.000000 0.500000
#
# Coordination Sequence:
#
# PCOD8239553 Si02
#       6
#     8   8   8   8   8   8
#     4  10  18  29  47  69  94 125 158 193 238 293
#     4  10  21  36  54  76 104 139 176 214 257 308
#     4  10  18  29  48  72  99 129 160 198 245 294
#     4  10  20  33  48  70  99 128 162 202 246 295
#     4   9  18  32  50  72  98 130 167 204 244 294
#     4  11  23  36  54  79 107 138 172 217 265 308
#
# _framework density 18.430454999999998
#
# number of rings (size 3 to 8) (size 9 to 14) (size 15 to 20)
#    0.000    2.000    0.000    6.500    0.000    7.667 
#    0.000    0.000    0.000    1.000    0.000    2.333 
#    0.000    0.000    0.000    0.000    0.000    0.000 
#
# Total GULP energy -594758.663466 kJ/mol
# GULP energy per Si atom -12390.805489 kJ/mol
# Density = 1.838851 g / cm^3
# Si number density = 18.430455 Si / 1000 Ang^3
#
#
#
# Elastic Constant Matrix: (Units=GPa)
#
#
# Indices 1 2 3 4 5 6 
#
# 1 71.2773 25.6825 49.0565 0.0000 0.0000 0.0000
# 2 25.6825 38.3840 31.4503 0.0000 0.0000 0.0000
# 3 49.0565 31.4503 147.4192 0.0000 0.0000 0.0000
# 4 0.0000 0.0000 0.0000 28.6728 0.0000 0.0000
# 5 0.0000 0.0000 0.0000 0.0000 31.5588 0.0000
# 6 0.0000 0.0000 0.0000 0.0000 0.0000 22.7692
#
#
#
# Elastic Compliance Matrix: (Units=1/GPa)
#
#
# Indices 1 2 3 4 5 6 
#
# 1 0.020990 -0.010084 -0.004833 0.000000 0.000000 0.000000
# 2 -0.010084 0.036416 -0.004413 0.000000 0.000000 0.000000
# 3 -0.004833 -0.004413 0.009333 0.000000 0.000000 0.000000
# 4 0.000000 0.000000 0.000000 0.034876 0.000000 0.000000
# 5 0.000000 0.000000 0.000000 0.000000 0.031687 0.000000
# 6 0.000000 0.000000 0.000000 0.000000 0.000000 0.043919
#
#
# Mechanical properties :
#
#
# Convention : Reuss Voigt Hill
#
# Bulk Modulus (GPa) = 35.61563 52.16212 43.88888
# Shear Modulus (GPa) = 22.19845 26.65957 24.42901
#
# Velocity S-wave (km/s) = 3.47428 3.80741 3.64465
# Velocity P-wave (km/s) = 5.95486 6.90594 6.44796
#
# Compressibility (1/GPa) = 0.02807756
#
# Stress axis : x y z
#
# Youngs Moduli (GPa) = 47.64245 27.46081 107.14286
#
# Poissons Ratio (x) = 0.27691 0.51787
# Poissons Ratio (y) = 0.48041 0.47286
# Poissons Ratio (z) = 0.23028 0.12119
#
# Static dielectric constant tensor:
#      x y z
#    x 3.608080 0.000000 0.000000 
#    y 0.000000 3.407840 0.000000 
#    z 0.000000 0.000000 5.554670 
# 
# 
# High freq. dielectric constant tensor:
#      x y z
#    x 1.726260 0.000000 0.000000 
#    y 0.000000 1.675840 0.000000 
#    z 0.000000 0.000000 1.726120 
# 
# From -- ./inp_files/20729.got.cif
#   From: 2010.03.12/outbox.cif.g09.slc.cpg/sg59_11_cif.got.tgz:20729.got - 2010.04.16 16:29:54.
