data_PCOD8239109
_publ_section_title
;
Structure prediction by ZEFSAII (Michael W. Deem and Ramdas Pophale) SiO2 
 PCOD8239109
Probable space group: P M M N
;
_chemical_formula_sum "Si O2"
_cell_formula_units_Z 64
_cell_length_a 19.812958
_cell_length_b 21.428528
_cell_length_c 10.314756
_cell_angle_alpha 90.000000
_cell_angle_beta 90.000000
_cell_angle_gamma 90.000000
_cell_volume 4379.258855
_symmetry_space_group_name_H-M "P M M N"
_symmetry_group_IT_number 59
_space_group.IT_coordinate_system_code '2'
_symmetry_cell_setting 'orthorhombic'
loop_
_space_group_symop_operation_xyz
x,y,z
1/2-x,1/2-y,z
1/2+x,-y,-z
-x,1/2+y,-z
-x,-y,-z
1/2+x,1/2+y,-z
1/2-x,y,z
x,1/2-y,z
loop_
_atom_site_type_symbol
_atom_site_label
_atom_site_fract_x
_atom_site_fract_y
_atom_site_fract_z
Si Si1 0.673561 0.082673 0.999195
Si Si2 0.675757 0.506354 0.751769
Si Si3 0.406037 0.521688 0.765792
Si Si4 0.482897 0.079906 0.884175
Si Si5 0.954667 0.546599 0.847440
Si Si6 0.412229 0.821833 0.145061
Si Si7 0.326721 0.681151 0.401931
Si Si8 0.826504 0.057127 0.479025
O O1 0.750000 0.103112 0.033809
O O2 0.629498 0.144552 0.969696
O O3 0.675029 0.038798 0.874270
O O4 0.643851 0.047608 0.124735
O O5 0.750000 0.538719 0.741779
O O6 0.615029 0.556760 0.767717
O O7 0.659479 0.468621 0.621943
O O8 0.423423 0.448090 0.792548
O O9 0.477280 0.560255 0.764521
O O10 0.374647 0.524581 0.623963
O O11 0.515092 0.144341 0.833853
O O12 0.542353 0.026768 0.895492
O O13 0.452766 0.091470 0.027731
O O14 0.424046 0.750000 0.105896
O O15 0.373608 0.828115 0.279153
O O16 0.250000 0.670828 0.352576
O O17 0.336480 0.750000 0.462538
O O18 0.343043 0.631167 0.514384
O O19 0.750000 0.044784 0.435096
#
# Coordination Sequence:
#
# PCOD8239109 Si02
#       8
#     8   8   8   8   8   8   8   8
#     4  11  17  28  45  66  89 121 156 183 216 263
#     4  10  17  27  44  65  88 112 146 188 222 262
#     4  10  18  29  46  62  90 121 147 183 235 280
#     4   9  15  29  43  63  87 113 147 189 229 273
#     4   9  14  29  48  57  85 117 148 178 229 272
#     4  11  18  28  45  65  88 120 160 195 218 251
#     4   9  17  29  43  57  83 126 165 189 213 253
#     4  10  19  29  41  66  95 116 149 191 226 258
#
# _framework density 14.614343999999999
#
# number of rings (size 3 to 8) (size 9 to 14) (size 15 to 20)
#    0.750    1.375    5.000    0.750    0.000    1.250 
#    0.000    0.625    0.000    1.500    0.000    0.000 
#    0.000    4.500    0.000    2.750    0.000    0.250 
#
# Total GULP energy -792889.317291 kJ/mol
# GULP energy per Si atom -12388.895583 kJ/mol
# Density = 1.458108 g / cm^3
# Si number density = 14.614344 Si / 1000 Ang^3
#
#
#
# Elastic Constant Matrix: (Units=GPa)
#
#
# Indices 1 2 3 4 5 6 
#
# 1 93.8691 37.3265 44.0014 0.0000 0.0000 0.0000
# 2 37.3265 54.4310 17.6785 0.0000 0.0000 0.0000
# 3 44.0014 17.6785 64.0481 0.0000 0.0000 0.0000
# 4 0.0000 0.0000 0.0000 11.1168 0.0000 0.0000
# 5 0.0000 0.0000 0.0000 0.0000 26.1414 0.0000
# 6 0.0000 0.0000 0.0000 0.0000 0.0000 21.0794
#
#
#
# Elastic Compliance Matrix: (Units=1/GPa)
#
#
# Indices 1 2 3 4 5 6 
#
# 1 0.019668 -0.009995 -0.010753 0.000000 0.000000 0.000000
# 2 -0.009995 0.025260 -0.000106 0.000000 0.000000 0.000000
# 3 -0.010753 -0.000106 0.023030 0.000000 0.000000 0.000000
# 4 0.000000 0.000000 0.000000 0.089954 0.000000 0.000000
# 5 0.000000 0.000000 0.000000 0.000000 0.038253 0.000000
# 6 0.000000 0.000000 0.000000 0.000000 0.000000 0.047440
#
#
# Mechanical properties :
#
#
# Convention : Reuss Voigt Hill
#
# Bulk Modulus (GPa) = 38.09458 45.59566 41.84512
# Shear Modulus (GPa) = 17.00310 19.22365 18.11337
#
# Velocity S-wave (km/s) = 3.41464 3.63077 3.52437
# Velocity P-wave (km/s) = 6.45519 6.98882 6.72730
#
# Compressibility (1/GPa) = 0.02625045
#
# Stress axis : x y z
#
# Youngs Moduli (GPa) = 50.84326 39.58762 43.42147
#
# Poissons Ratio (x) = 0.39568 0.46693
# Poissons Ratio (y) = 0.50818 0.00459
# Poissons Ratio (z) = 0.54674 0.00418
#
# Static dielectric constant tensor:
#      x y z
#    x 3.061730 0.000000 0.000000 
#    y 0.000000 2.608560 0.000000 
#    z 0.000000 0.000000 2.645050 
# 
# 
# High freq. dielectric constant tensor:
#      x y z
#    x 1.563160 0.000000 0.000000 
#    y 0.000000 1.508610 0.000000 
#    z 0.000000 0.000000 1.546660 
# 
# From -- ./inp_files/12313.got.cif
#   From: 2010.03.12/outbox.cif.g09.slc.cpg/sg59_7_cif.got.tgz:12313.got - 2010.04.16 16:29:54.
