data_PCOD8239693
_publ_section_title
;
Structure prediction by ZEFSAII (Michael W. Deem and Ramdas Pophale) SiO2 
 PCOD8239693
Probable space group: P M M N
;
_chemical_formula_sum "Si O2"
_cell_formula_units_Z 64
_cell_length_a 8.965859
_cell_length_b 20.597905
_cell_length_c 20.519336
_cell_angle_alpha 90.000000
_cell_angle_beta 90.000000
_cell_angle_gamma 90.000000
_cell_volume 3789.468127
_symmetry_space_group_name_H-M "P M M N"
_symmetry_group_IT_number 59
_space_group.IT_coordinate_system_code '2'
_symmetry_cell_setting 'orthorhombic'
loop_
_space_group_symop_operation_xyz
x,y,z
1/2-x,1/2-y,z
1/2+x,-y,-z
-x,1/2+y,-z
-x,-y,-z
1/2+x,1/2+y,-z
1/2-x,y,z
x,1/2-y,z
loop_
_atom_site_type_symbol
_atom_site_label
_atom_site_fract_x
_atom_site_fract_y
_atom_site_fract_z
Si Si1 0.582400 0.991105 0.808182
Si Si2 0.926744 0.321458 0.481673
Si Si3 0.427740 0.550113 0.449432
Si Si4 0.572382 0.037729 0.059184
Si Si5 0.079799 0.008703 0.680528
Si Si6 0.081704 0.855861 0.659112
Si Si7 0.923031 0.319809 0.088139
Si Si8 0.913652 0.659034 0.782641
O O1 0.750000 0.020074 0.818022
O O2 0.495496 0.028139 0.749931
O O3 0.488784 0.995385 0.874979
O O4 0.594923 0.917700 0.786388
O O5 0.750000 0.323625 0.476551
O O6 0.981736 0.250000 0.505123
O O7 0.979312 0.377131 0.531178
O O8 0.991679 0.336651 0.409859
O O9 0.500000 0.500000 0.500000
O O10 0.250000 0.540835 0.451803
O O11 0.486349 0.542281 0.376492
O O12 0.750000 0.030327 0.057393
O O13 0.521061 0.114091 0.052554
O O14 0.500000 0.000000 0.000000
O O15 0.250000 0.034179 0.680769
O O16 0.076301 0.932665 0.667708
O O17 0.250000 0.830270 0.663766
O O18 0.990011 0.819830 0.715372
O O19 0.750000 0.329605 0.100694
O O20 0.953610 0.250000 0.050733
O O21 0.995731 0.311652 0.158089
O O22 0.750000 0.689803 0.784632
#
# Coordination Sequence:
#
# PCOD8239693 Si02
#       8
#     8   8   8   8   8   8   8   8
#     4   9  17  30  47  71 100 129 160 198 240 285
#     4   9  18  32  47  64  88 120 160 202 243 293
#     4  11  20  32  50  72  93 121 161 205 251 295
#     4  10  19  32  51  75 103 135 167 203 242 287
#     4  10  18  30  48  72  97 124 159 202 246 288
#     4   9  16  28  44  63  88 122 161 194 230 278
#     4   9  18  32  48  66  91 128 170 202 230 274
#     4   9  17  27  41  64  93 123 156 196 237 273
#
# _framework density 16.888914
#
# number of rings (size 3 to 8) (size 9 to 14) (size 15 to 20)
#    0.000    2.500    1.250    1.875    0.000    4.750 
#    0.000    1.250    0.000    3.000    0.000    0.875 
#    0.000    7.000    0.000    0.000    0.000    0.000 
#
# Total GULP energy -793047.455465 kJ/mol
# GULP energy per Si atom -12391.366492 kJ/mol
# Density = 1.685047 g / cm^3
# Si number density = 16.888914 Si / 1000 Ang^3
#
#
#
# Elastic Constant Matrix: (Units=GPa)
#
#
# Indices 1 2 3 4 5 6 
#
# 1 60.2451 35.1844 46.2284 0.0000 0.0000 0.0000
# 2 35.1844 83.2096 55.9017 0.0000 0.0000 0.0000
# 3 46.2284 55.9017 122.5598 0.0000 0.0000 0.0000
# 4 0.0000 0.0000 0.0000 10.3281 0.0000 0.0000
# 5 0.0000 0.0000 0.0000 0.0000 30.8052 0.0000
# 6 0.0000 0.0000 0.0000 0.0000 0.0000 9.0651
#
#
#
# Elastic Compliance Matrix: (Units=1/GPa)
#
#
# Indices 1 2 3 4 5 6 
#
# 1 0.025404 -0.006206 -0.006751 0.000000 0.000000 0.000000
# 2 -0.006206 0.018844 -0.006254 0.000000 0.000000 0.000000
# 3 -0.006751 -0.006254 0.013558 0.000000 0.000000 0.000000
# 4 0.000000 0.000000 0.000000 0.096823 0.000000 0.000000
# 5 0.000000 0.000000 0.000000 0.000000 0.032462 0.000000
# 6 0.000000 0.000000 0.000000 0.000000 0.000000 0.110313
#
#
# Mechanical properties :
#
#
# Convention : Reuss Voigt Hill
#
# Bulk Modulus (GPa) = 51.59181 60.07149 55.83165
# Shear Modulus (GPa) = 14.60757 18.61968 16.61363
#
# Velocity S-wave (km/s) = 2.94414 3.32396 3.13980
# Velocity P-wave (km/s) = 6.49395 7.09771 6.80253
#
# Compressibility (1/GPa) = 0.01938292
#
# Stress axis : x y z
#
# Youngs Moduli (GPa) = 39.36383 53.06841 73.75489
#
# Poissons Ratio (x) = 0.32935 0.49795
# Poissons Ratio (y) = 0.24430 0.46126
# Poissons Ratio (z) = 0.26576 0.33189
#
# Static dielectric constant tensor:
#      x y z
#    x 3.309630 0.000000 0.000000 
#    y 0.000000 3.288200 0.000000 
#    z 0.000000 0.000000 3.131240 
# 
# 
# High freq. dielectric constant tensor:
#      x y z
#    x 1.653320 0.000000 0.000000 
#    y 0.000000 1.627080 0.000000 
#    z 0.000000 0.000000 1.634380 
# 
# From -- ./inp_files/29776.got.cif
#   From: 2010.03.12/outbox.cif.g09.slc.cpg/sg59_15_cif.got.tgz:29776.got - 2010.04.16 16:29:54.
