data_PCOD8239761
_publ_section_title
;
Structure prediction by ZEFSAII (Michael W. Deem and Ramdas Pophale) SiO2 
 PCOD8239761
Probable space group: P M M N
;
_chemical_formula_sum "Si O2"
_cell_formula_units_Z 48
_cell_length_a 9.282535
_cell_length_b 10.360776
_cell_length_c 27.884726
_cell_angle_alpha 90.000000
_cell_angle_beta 90.000000
_cell_angle_gamma 90.000000
_cell_volume 2681.793051
_symmetry_space_group_name_H-M "P M M N"
_symmetry_group_IT_number 59
_space_group.IT_coordinate_system_code '2'
_symmetry_cell_setting 'orthorhombic'
loop_
_space_group_symop_operation_xyz
x,y,z
1/2-x,1/2-y,z
1/2+x,-y,-z
-x,1/2+y,-z
-x,-y,-z
1/2+x,1/2+y,-z
1/2-x,y,z
x,1/2-y,z
loop_
_atom_site_type_symbol
_atom_site_label
_atom_site_fract_x
_atom_site_fract_y
_atom_site_fract_z
Si Si1 0.920696 0.750000 0.108731
Si Si2 0.079166 0.502297 0.728093
Si Si3 0.921259 0.250000 0.213875
Si Si4 0.420657 0.750000 0.893139
Si Si5 0.082902 0.102183 0.358081
Si Si6 0.421301 0.250000 0.783454
Si Si7 0.421131 0.001077 0.949757
Si Si8 0.081261 0.103173 0.467953
O O1 0.750000 0.750000 0.112226
O O2 0.985355 0.750000 0.162581
O O3 0.974230 0.624284 0.080388
O O4 0.250000 0.502285 0.722137
O O5 0.023120 0.623439 0.758870
O O6 0.023288 0.375180 0.755128
O O7 0.010090 0.507767 0.675336
O O8 0.750000 0.250000 0.211640
O O9 0.986532 0.250000 0.160309
O O10 0.250000 0.750000 0.889548
O O11 0.474292 0.876036 0.920948
O O12 0.250000 0.077374 0.347896
O O13 0.041916 0.250000 0.346708
O O14 0.044905 0.070399 0.412940
O O15 0.250000 0.250000 0.786234
O O16 0.250000 0.002095 0.957977
O O17 0.500000 0.000000 0.000000
O O18 0.250000 0.089928 0.477603
O O19 0.031701 0.250000 0.479971
O O20 0.000000 0.000000 0.500000
#
# Coordination Sequence:
#
# PCOD8239761 Si02
#       8
#     4   8   4   4   8   4   8   8
#     4   9  17  31  50  70  94 129 163 192 241 301
#     4  10  18  30  50  76 100 126 164 208 251 291
#     4   9  16  27  48  74  95 117 160 210 238 279
#     4   9  17  29  46  70  94 119 155 198 239 279
#     4   9  18  34  54  74 102 138 171 205 250 304
#     4   9  18  31  48  72 103 131 160 206 254 293
#     4  10  19  31  49  70  93 123 158 195 239 289
#     4   9  19  36  56  79 106 139 178 219 263 309
#
# _framework density 17.898472999999999
#
# number of rings (size 3 to 8) (size 9 to 14) (size 15 to 20)
#    0.000    2.667    0.833    2.500    0.000    5.000 
#    1.500    2.083    0.000    6.000    0.000    0.000 
#    0.000    0.000    0.000    0.000    0.000    0.000 
#
# Total GULP energy -595178.206105 kJ/mol
# GULP energy per Si atom -12399.545961 kJ/mol
# Density = 1.785773 g / cm^3
# Si number density = 17.898473 Si / 1000 Ang^3
#
#
#
# Elastic Constant Matrix: (Units=GPa)
#
#
# Indices 1 2 3 4 5 6 
#
# 1 29.8717 34.7671 45.9120 0.0000 0.0000 0.0000
# 2 34.7671 167.9274 96.4585 0.0000 0.0000 0.0000
# 3 45.9120 96.4585 163.1918 0.0000 0.0000 0.0000
# 4 0.0000 0.0000 0.0000 37.4230 0.0000 0.0000
# 5 0.0000 0.0000 0.0000 0.0000 30.9493 0.0000
# 6 0.0000 0.0000 0.0000 0.0000 0.0000 16.3287
#
#
#
# Elastic Compliance Matrix: (Units=1/GPa)
#
#
# Indices 1 2 3 4 5 6 
#
# 1 0.060864 -0.004187 -0.014649 0.000000 0.000000 0.000000
# 2 -0.004187 0.009304 -0.004321 0.000000 0.000000 0.000000
# 3 -0.014649 -0.004321 0.012803 0.000000 0.000000 0.000000
# 4 0.000000 0.000000 0.000000 0.026722 0.000000 0.000000
# 5 0.000000 0.000000 0.000000 0.000000 0.032311 0.000000
# 6 0.000000 0.000000 0.000000 0.000000 0.000000 0.061242
#
#
# Mechanical properties :
#
#
# Convention : Reuss Voigt Hill
#
# Bulk Modulus (GPa) = 27.27953 79.47401 53.37677
# Shear Modulus (GPa) = 19.10010 29.19709 24.14859
#
# Velocity S-wave (km/s) = 3.27025 4.04327 3.67713
# Velocity P-wave (km/s) = 5.43449 8.14226 6.92207
#
# Compressibility (1/GPa) = 0.03665752
#
# Stress axis : x y z
#
# Youngs Moduli (GPa) = 16.43007 107.47984 78.10500
#
# Poissons Ratio (x) = 0.45000 1.14413
# Poissons Ratio (y) = 0.06879 0.33753
# Poissons Ratio (z) = 0.24068 0.46447
#
# Static dielectric constant tensor:
#      x y z
#    x 2.803220 0.000000 0.000000 
#    y 0.000000 3.284730 0.000000 
#    z 0.000000 0.000000 3.438540 
# 
# 
# High freq. dielectric constant tensor:
#      x y z
#    x 1.648270 0.000000 0.000000 
#    y 0.000000 1.699390 0.000000 
#    z 0.000000 0.000000 1.706350 
# 
# From -- ./inp_files/33107.got.cif
#   From: 2010.03.12/outbox.cif.g09.slc.cpg/sg59_17_cif.got.tgz:33107.got - 2010.04.16 16:29:54.
