data_PCOD8239343
_publ_section_title
;
Structure prediction by ZEFSAII (Michael W. Deem and Ramdas Pophale) SiO2 
 PCOD8239343
Probable space group: P M M N
;
_chemical_formula_sum "Si O2"
_cell_formula_units_Z 64
_cell_length_a 26.024923
_cell_length_b 9.131503
_cell_length_c 18.441176
_cell_angle_alpha 90.000000
_cell_angle_beta 90.000000
_cell_angle_gamma 90.000000
_cell_volume 4382.483928
_symmetry_space_group_name_H-M "P M M N"
_symmetry_group_IT_number 59
_space_group.IT_coordinate_system_code '2'
_symmetry_cell_setting 'orthorhombic'
loop_
_space_group_symop_operation_xyz
x,y,z
1/2-x,1/2-y,z
1/2+x,-y,-z
-x,1/2+y,-z
-x,-y,-z
1/2+x,1/2+y,-z
1/2-x,y,z
x,1/2-y,z
loop_
_atom_site_type_symbol
_atom_site_label
_atom_site_fract_x
_atom_site_fract_y
_atom_site_fract_z
Si Si1 0.499976 0.922701 0.330962
Si Si2 0.393974 0.076090 0.919165
Si Si3 0.105095 0.083444 0.589252
Si Si4 0.492065 0.419486 0.829780
Si Si5 0.190050 0.581782 0.832224
Si Si6 0.048932 0.921377 0.032916
Si Si7 0.043277 0.419428 0.455142
Si Si8 0.192797 0.922755 0.668224
O O1 0.489310 0.750000 0.334664
O O2 0.555051 0.964202 0.364999
O O3 0.498309 0.988489 0.249407
O O4 0.454461 0.003702 0.376175
O O5 0.394221 0.250000 0.928998
O O6 0.440411 0.017901 0.867677
O O7 0.340283 0.023864 0.886407
O O8 0.401073 0.000737 0.998794
O O9 0.118600 0.250000 0.608307
O O10 0.095447 0.064294 0.502544
O O11 0.153457 0.986495 0.610370
O O12 0.480909 0.250000 0.817239
O O13 0.542889 0.443252 0.879923
O O14 0.250000 0.562123 0.848820
O O15 0.173465 0.750000 0.844572
O O16 0.177516 0.532059 0.750073
O O17 0.049100 0.750000 0.013012
O O18 0.000000 0.000000 0.000000
O O19 0.028563 0.250000 0.445939
O O20 0.000000 0.500000 0.500000
O O21 0.250000 0.981858 0.650492
O O22 0.192181 0.750000 0.661582
#
# Coordination Sequence:
#
# PCOD8239343 Si02
#       8
#     8   8   8   8   8   8   8   8
#     4   9  16  27  41  58  80 105 134 165 196 231
#     4  10  18  28  42  59  80 108 140 170 200 235
#     4   9  17  27  40  57  79 107 135 163 196 235
#     4   8  15  26  40  58  81 107 133 163 197 233
#     4   9  18  31  43  57  80 107 134 168 207 240
#     4   9  16  27  41  58  81 108 136 166 200 237
#     4   9  17  28  39  55  78 103 132 164 197 233
#     4   9  18  30  42  58  80 104 133 169 203 235
#
# _framework density 14.603591
#
# number of rings (size 3 to 8) (size 9 to 14) (size 15 to 20)
#    0.000    3.000    0.000    4.125    0.000    4.500 
#    0.000    5.000    0.000    0.000    0.000    0.000 
#    0.000    1.000    0.000    9.000    0.000    5.750 
#
# Total GULP energy -793066.531411 kJ/mol
# GULP energy per Si atom -12391.664553 kJ/mol
# Density = 1.457035 g / cm^3
# Si number density = 14.603591 Si / 1000 Ang^3
#
#
#
# Elastic Constant Matrix: (Units=GPa)
#
#
# Indices 1 2 3 4 5 6 
#
# 1 58.2026 30.4233 40.2756 0.0000 0.0000 0.0000
# 2 30.4233 60.2862 36.2638 0.0000 0.0000 0.0000
# 3 40.2756 36.2638 97.5390 0.0000 0.0000 0.0000
# 4 0.0000 0.0000 0.0000 21.8024 0.0000 0.0000
# 5 0.0000 0.0000 0.0000 0.0000 22.2843 0.0000
# 6 0.0000 0.0000 0.0000 0.0000 0.0000 23.3851
#
#
#
# Elastic Compliance Matrix: (Units=1/GPa)
#
#
# Indices 1 2 3 4 5 6 
#
# 1 0.027418 -0.009050 -0.007957 0.000000 0.000000 0.000000
# 2 -0.009050 0.024353 -0.005317 0.000000 0.000000 0.000000
# 3 -0.007957 -0.005317 0.015515 0.000000 0.000000 0.000000
# 4 0.000000 0.000000 0.000000 0.045867 0.000000 0.000000
# 5 0.000000 0.000000 0.000000 0.000000 0.044875 0.000000
# 6 0.000000 0.000000 0.000000 0.000000 0.000000 0.042762
#
#
# Mechanical properties :
#
#
# Convention : Reuss Voigt Hill
#
# Bulk Modulus (GPa) = 44.17428 47.77256 45.97342
# Shear Modulus (GPa) = 19.76417 20.76538 20.26477
#
# Velocity S-wave (km/s) = 3.68282 3.77495 3.72917
# Velocity P-wave (km/s) = 6.95692 7.19612 7.07754
#
# Compressibility (1/GPa) = 0.02263761
#
# Stress axis : x y z
#
# Youngs Moduli (GPa) = 36.47246 41.06238 64.45549
#
# Poissons Ratio (x) = 0.37163 0.51284
# Poissons Ratio (y) = 0.33009 0.34272
# Poissons Ratio (z) = 0.29020 0.21834
#
# Static dielectric constant tensor:
#      x y z
#    x 2.734190 0.000000 0.000000 
#    y 0.000000 2.851140 0.000000 
#    z 0.000000 0.000000 3.339670 
# 
# 
# High freq. dielectric constant tensor:
#      x y z
#    x 1.519880 0.000000 0.000000 
#    y 0.000000 1.559360 0.000000 
#    z 0.000000 0.000000 1.552300 
# 
# From -- ./inp_files/28519.got.cif
#   From: 2010.03.12/outbox.cif.g09.slc.cpg/sg59_15_cif.got.tgz:28519.got - 2010.04.16 16:29:54.
