data_PCOD8239844
_publ_section_title
;
Structure prediction by ZEFSAII (Michael W. Deem and Ramdas Pophale) SiO2 
 PCOD8239844
Probable space group: P M M N
;
_chemical_formula_sum "Si O2"
_cell_formula_units_Z 64
_cell_length_a 17.308230
_cell_length_b 14.270060
_cell_length_c 14.443967
_cell_angle_alpha 90.000000
_cell_angle_beta 90.000000
_cell_angle_gamma 90.000000
_cell_volume 3567.507907
_symmetry_space_group_name_H-M "P M M N"
_symmetry_group_IT_number 59
_space_group.IT_coordinate_system_code '2'
_symmetry_cell_setting 'orthorhombic'
loop_
_space_group_symop_operation_xyz
x,y,z
1/2-x,1/2-y,z
1/2+x,-y,-z
-x,1/2+y,-z
-x,-y,-z
1/2+x,1/2+y,-z
1/2-x,y,z
x,1/2-y,z
loop_
_atom_site_type_symbol
_atom_site_label
_atom_site_fract_x
_atom_site_fract_y
_atom_site_fract_z
Si Si1 0.476209 0.642711 0.624994
Si Si2 0.662638 0.356712 0.853291
Si Si3 0.163051 0.996425 0.646823
Si Si4 0.487992 0.142163 0.170999
Si Si5 0.437674 0.359167 0.556397
Si Si6 0.520506 0.355676 0.740231
Si Si7 0.098723 0.017010 0.837623
Si Si8 0.087062 0.016884 0.033422
O O1 0.453127 0.750000 0.607266
O O2 0.395614 0.587963 0.628731
O O3 0.526697 0.631111 0.718500
O O4 0.528785 0.604970 0.541081
O O5 0.750000 0.385011 0.827874
O O6 0.658145 0.250000 0.890797
O O7 0.611888 0.366711 0.759486
O O8 0.629691 0.423735 0.932604
O O9 0.250000 0.965954 0.621705
O O10 0.139862 0.084636 0.582667
O O11 0.161193 0.026220 0.755738
O O12 0.495912 0.250000 0.141528
O O13 0.416105 0.096267 0.113848
O O14 0.569422 0.090638 0.150132
O O15 0.416111 0.250000 0.552747
O O16 0.502434 0.382903 0.634298
O O17 0.492007 0.250000 0.759698
O O18 0.477184 0.422920 0.811823
O O19 0.131457 0.050021 0.938366
O O20 0.000000 0.000000 0.000000
#
# Coordination Sequence:
#
# PCOD8239844 Si02
#       8
#     8   8   8   8   8   8   8   8
#     4   9  18  34  54  76 104 140 178 213 253 306
#     4  10  20  33  50  74 104 132 162 212 271 313
#     4  10  20  33  51  78 110 137 166 215 269 316
#     4   9  17  29  49  74  96 126 173 216 243 283
#     4   9  18  33  56  77  98 135 179 219 254 306
#     4   9  16  30  51  75  98 125 169 214 257 305
#     4   9  18  32  48  72 101 134 173 206 252 306
#     4  10  18  31  50  74 100 136 178 211 247 303
#
# _framework density 17.939693999999999
#
# number of rings (size 3 to 8) (size 9 to 14) (size 15 to 20)
#    0.000    2.625    2.500    0.375    0.000    3.500 
#    0.000    0.625    0.000    2.625    0.000    3.500 
#    0.000    0.000    0.000    0.000    0.000    0.000 
#
# Total GULP energy -793082.853146 kJ/mol
# GULP energy per Si atom -12391.919580 kJ/mol
# Density = 1.789886 g / cm^3
# Si number density = 17.939694 Si / 1000 Ang^3
#
#
#
# Elastic Constant Matrix: (Units=GPa)
#
#
# Indices 1 2 3 4 5 6 
#
# 1 73.4911 37.6440 36.2786 0.0000 0.0000 0.0000
# 2 37.6440 84.4648 45.6504 0.0000 0.0000 0.0000
# 3 36.2786 45.6504 126.1071 0.0000 0.0000 0.0000
# 4 0.0000 0.0000 0.0000 24.1341 0.0000 0.0000
# 5 0.0000 0.0000 0.0000 0.0000 14.2278 0.0000
# 6 0.0000 0.0000 0.0000 0.0000 0.0000 19.3768
#
#
#
# Elastic Compliance Matrix: (Units=1/GPa)
#
#
# Indices 1 2 3 4 5 6 
#
# 1 0.018446 -0.006655 -0.002898 0.000000 0.000000 0.000000
# 2 -0.006655 0.017120 -0.004283 0.000000 0.000000 0.000000
# 3 -0.002898 -0.004283 0.010314 0.000000 0.000000 0.000000
# 4 0.000000 0.000000 0.000000 0.041435 0.000000 0.000000
# 5 0.000000 0.000000 0.000000 0.000000 0.070285 0.000000
# 6 0.000000 0.000000 0.000000 0.000000 0.000000 0.051608
#
#
# Mechanical properties :
#
#
# Convention : Reuss Voigt Hill
#
# Bulk Modulus (GPa) = 54.91754 58.13433 56.52593
# Shear Modulus (GPa) = 20.58048 22.51375 21.54711
#
# Velocity S-wave (km/s) = 3.39071 3.54640 3.46943
# Velocity P-wave (km/s) = 6.78292 7.01748 6.90120
#
# Compressibility (1/GPa) = 0.01820912
#
# Stress axis : x y z
#
# Youngs Moduli (GPa) = 54.21134 58.41124 96.95824
#
# Poissons Ratio (x) = 0.38873 0.28094
# Poissons Ratio (y) = 0.36078 0.41526
# Poissons Ratio (z) = 0.15708 0.25017
#
# Static dielectric constant tensor:
#      x y z
#    x 2.944730 0.000000 0.000000 
#    y 0.000000 3.433870 0.000000 
#    z 0.000000 0.000000 3.781900 
# 
# 
# High freq. dielectric constant tensor:
#      x y z
#    x 1.645190 0.000000 0.000000 
#    y 0.000000 1.699370 0.000000 
#    z 0.000000 0.000000 1.705490 
# 
# From -- ./inp_files/24011.got.cif
#   From: 2010.03.12/outbox.cif.g09.slc.cpg/sg59_13_cif.got.tgz:24011.got - 2010.04.16 16:29:54.
