data_PCOD8239323
_publ_section_title
;
Structure prediction by ZEFSAII (Michael W. Deem and Ramdas Pophale) SiO2 
 PCOD8239323
Probable space group: P M M N
;
_chemical_formula_sum "Si O2"
_cell_formula_units_Z 56
_cell_length_a 14.018719
_cell_length_b 26.470623
_cell_length_c 9.449862
_cell_angle_alpha 90.000000
_cell_angle_beta 90.000000
_cell_angle_gamma 90.000000
_cell_volume 3506.694722
_symmetry_space_group_name_H-M "P M M N"
_symmetry_group_IT_number 59
_space_group.IT_coordinate_system_code '2'
_symmetry_cell_setting 'orthorhombic'
loop_
_space_group_symop_operation_xyz
x,y,z
1/2-x,1/2-y,z
1/2+x,-y,-z
-x,1/2+y,-z
-x,-y,-z
1/2+x,1/2+y,-z
1/2-x,y,z
x,1/2-y,z
loop_
_atom_site_type_symbol
_atom_site_label
_atom_site_fract_x
_atom_site_fract_y
_atom_site_fract_z
Si Si1 0.142310 0.522421 0.537065
Si Si2 0.139160 0.461401 0.006983
Si Si3 0.856605 0.441031 0.148884
Si Si4 0.537362 0.888509 0.800888
Si Si5 0.139222 0.192470 0.015564
Si Si6 0.540537 0.581072 0.490095
Si Si7 0.359814 0.118712 0.772378
O O1 0.250000 0.533226 0.481525
O O2 0.137516 0.527575 0.705917
O O3 0.113542 0.465535 0.498677
O O4 0.067983 0.561530 0.465392
O O5 0.250000 0.454791 0.038554
O O6 0.113315 0.519816 0.975881
O O7 0.111050 0.427704 0.872175
O O8 0.085283 0.440770 0.145038
O O9 0.750000 0.420415 0.123107
O O10 0.926220 0.392822 0.152691
O O11 0.547817 0.885881 0.632413
O O12 0.581003 0.838116 0.866475
O O13 0.250000 0.187577 0.056222
O O14 0.103874 0.250000 0.017403
O O15 0.121997 0.170457 0.858668
O O16 0.571014 0.618077 0.363085
O O17 0.250000 0.114596 0.722706
#
# Coordination Sequence:
#
# PCOD8239323 Si02
#       7
#     8   8   8   8   8   8   8
#     4   9  17  28  41  61  96 133 155 176 211 258
#     4   9  16  27  42  62  91 127 155 178 214 262
#     4   9  16  28  44  63  91 129 162 181 204 255
#     4  10  19  28  45  69  93 117 148 191 233 265
#     4   9  19  36  53  67  86 115 148 185 236 286
#     4  10  18  27  44  68  91 121 156 186 217 255
#     4   9  16  28  48  65  85 120 157 183 211 264
#
# _framework density 15.969453
#
# number of rings (size 3 to 8) (size 9 to 14) (size 15 to 20)
#    0.000    2.714    1.429    2.143    0.000    2.286 
#    0.000    0.714    0.000    2.143    0.000    0.000 
#    0.000    1.143    0.000    0.000    0.000    0.000 
#
# Total GULP energy -694246.234534 kJ/mol
# GULP energy per Si atom -12397.254188 kJ/mol
# Density = 1.593311 g / cm^3
# Si number density = 15.969453 Si / 1000 Ang^3
#
#
#
# Elastic Constant Matrix: (Units=GPa)
#
#
# Indices 1 2 3 4 5 6 
#
# 1 86.6986 43.8381 38.6709 0.0000 0.0000 0.0000
# 2 43.8381 83.6672 36.1302 0.0000 0.0000 0.0000
# 3 38.6709 36.1302 63.1031 0.0000 0.0000 0.0000
# 4 0.0000 0.0000 0.0000 16.2861 0.0000 0.0000
# 5 0.0000 0.0000 0.0000 0.0000 21.3356 0.0000
# 6 0.0000 0.0000 0.0000 0.0000 0.0000 19.8917
#
#
#
# Elastic Compliance Matrix: (Units=1/GPa)
#
#
# Indices 1 2 3 4 5 6 
#
# 1 0.018010 -0.006204 -0.007484 0.000000 0.000000 0.000000
# 2 -0.006204 0.018015 -0.006513 0.000000 0.000000 0.000000
# 3 -0.007484 -0.006513 0.024163 0.000000 0.000000 0.000000
# 4 0.000000 0.000000 0.000000 0.061402 0.000000 0.000000
# 5 0.000000 0.000000 0.000000 0.000000 0.046870 0.000000
# 6 0.000000 0.000000 0.000000 0.000000 0.000000 0.050272
#
#
# Mechanical properties :
#
#
# Convention : Reuss Voigt Hill
#
# Bulk Modulus (GPa) = 50.54387 52.30527 51.42457
# Shear Modulus (GPa) = 18.81612 19.15798 18.98705
#
# Velocity S-wave (km/s) = 3.43630 3.46737 3.45187
# Velocity P-wave (km/s) = 6.88936 6.98961 6.93967
#
# Compressibility (1/GPa) = 0.01978479
#
# Stress axis : x y z
#
# Youngs Moduli (GPa) = 55.52571 55.50837 41.38634
#
# Poissons Ratio (x) = 0.34439 0.30975
# Poissons Ratio (y) = 0.34450 0.26954
# Poissons Ratio (z) = 0.41558 0.36151
#
# Static dielectric constant tensor:
#      x y z
#    x 3.205280 0.000000 0.000000 
#    y 0.000000 2.755080 0.000000 
#    z 0.000000 0.000000 2.944530 
# 
# 
# High freq. dielectric constant tensor:
#      x y z
#    x 1.617050 0.000000 0.000000 
#    y 0.000000 1.568110 0.000000 
#    z 0.000000 0.000000 1.606260 
# 
# From -- ./inp_files/9726.got.cif
#   From: 2010.03.12/outbox.cif.g09.slc.cpg/sg59_5_cif.got.tgz:9726.got - 2010.04.16 16:29:54.
