data_PCOD8239617
_publ_section_title
;
Structure prediction by ZEFSAII (Michael W. Deem and Ramdas Pophale) SiO2 
 PCOD8239617
Probable space group: P M M N
;
_chemical_formula_sum "Si O2"
_cell_formula_units_Z 64
_cell_length_a 24.176073
_cell_length_b 8.727710
_cell_length_c 16.470265
_cell_angle_alpha 90.000000
_cell_angle_beta 90.000000
_cell_angle_gamma 90.000000
_cell_volume 3475.254805
_symmetry_space_group_name_H-M "P M M N"
_symmetry_group_IT_number 59
_space_group.IT_coordinate_system_code '2'
_symmetry_cell_setting 'orthorhombic'
loop_
_space_group_symop_operation_xyz
x,y,z
1/2-x,1/2-y,z
1/2+x,-y,-z
-x,1/2+y,-z
-x,-y,-z
1/2+x,1/2+y,-z
1/2-x,y,z
x,1/2-y,z
loop_
_atom_site_type_symbol
_atom_site_label
_atom_site_fract_x
_atom_site_fract_y
_atom_site_fract_z
Si Si1 0.415397 0.430975 0.709204
Si Si2 0.687275 0.926259 0.755813
Si Si3 0.313324 0.928970 0.793339
Si Si4 0.399588 0.074432 0.367540
Si Si5 0.477521 0.068132 0.225363
Si Si6 0.443398 0.431480 0.530596
Si Si7 0.110784 0.928560 0.117814
Si Si8 0.311455 0.567972 0.977255
O O1 0.421412 0.250000 0.712225
O O2 0.353823 0.477495 0.734997
O O3 0.460363 0.503232 0.770774
O O4 0.425184 0.496771 0.618036
O O5 0.750000 0.975574 0.750684
O O6 0.678736 0.750000 0.784868
O O7 0.662239 0.947899 0.665770
O O8 0.657427 0.042828 0.815171
O O9 0.250000 0.963543 0.767855
O O10 0.326447 0.750000 0.784902
O O11 0.323684 0.984852 0.885541
O O12 0.417411 0.250000 0.371504
O O13 0.443877 0.001519 0.303706
O O14 0.401090 0.011274 0.459715
O O15 0.479380 0.250000 0.222781
O O16 0.446177 0.013682 0.142774
O O17 0.500000 0.500000 0.500000
O O18 0.447741 0.250000 0.537412
O O19 0.097419 0.750000 0.110783
O O20 0.138532 0.993241 0.034384
O O21 0.250000 0.506471 0.003925
O O22 0.309619 0.750000 0.982073
#
# Coordination Sequence:
#
# PCOD8239617 Si02
#       8
#     8   8   8   8   8   8   8   8
#     4  11  22  34  53  82 110 133 167 218 270 310
#     4   9  17  29  45  67  99 138 175 204 239 300
#     4   9  19  38  61  79  99 135 180 216 253 309
#     4   8  15  29  47  68  95 129 167 206 243 287
#     4  10  19  33  52  73 103 141 176 206 247 312
#     4  10  19  32  51  76 103 131 169 211 254 304
#     4  10  18  29  49  77 107 132 165 216 268 307
#     4   8  15  30  53  78 101 131 174 219 260 307
#
# _framework density 18.415917
#
# number of rings (size 3 to 8) (size 9 to 14) (size 15 to 20)
#    0.000    2.625    1.250    3.000    0.000    1.500 
#    0.000    2.500    0.000    3.750    0.000    0.000 
#    0.000    0.000    0.000    0.000    0.000    0.000 
#
# Total GULP energy -793066.298151 kJ/mol
# GULP energy per Si atom -12391.660909 kJ/mol
# Density = 1.837400 g / cm^3
# Si number density = 18.415917 Si / 1000 Ang^3
#
#
#
# Elastic Constant Matrix: (Units=GPa)
#
#
# Indices 1 2 3 4 5 6 
#
# 1 99.7098 24.1275 48.8833 0.0000 0.0000 0.0000
# 2 24.1275 41.9023 21.7584 0.0000 0.0000 0.0000
# 3 48.8833 21.7584 100.9735 0.0000 0.0000 0.0000
# 4 0.0000 0.0000 0.0000 18.8099 0.0000 0.0000
# 5 0.0000 0.0000 0.0000 0.0000 30.3329 0.0000
# 6 0.0000 0.0000 0.0000 0.0000 0.0000 28.0693
#
#
#
# Elastic Compliance Matrix: (Units=1/GPa)
#
#
# Indices 1 2 3 4 5 6 
#
# 1 0.014069 -0.005139 -0.005704 0.000000 0.000000 0.000000
# 2 -0.005139 0.028749 -0.003707 0.000000 0.000000 0.000000
# 3 -0.005704 -0.003707 0.013464 0.000000 0.000000 0.000000
# 4 0.000000 0.000000 0.000000 0.053163 0.000000 0.000000
# 5 0.000000 0.000000 0.000000 0.000000 0.032968 0.000000
# 6 0.000000 0.000000 0.000000 0.000000 0.000000 0.035626
#
#
# Mechanical properties :
#
#
# Convention : Reuss Voigt Hill
#
# Bulk Modulus (GPa) = 36.78912 48.01375 42.40143
# Shear Modulus (GPa) = 23.12682 25.29685 24.21183
#
# Velocity S-wave (km/s) = 3.54758 3.71029 3.62984
# Velocity P-wave (km/s) = 6.06635 6.66959 6.37511
#
# Compressibility (1/GPa) = 0.02718195
#
# Stress axis : x y z
#
# Youngs Moduli (GPa) = 71.07868 34.78359 74.27414
#
# Poissons Ratio (x) = 0.17876 0.42363
# Poissons Ratio (y) = 0.36529 0.27534
# Poissons Ratio (z) = 0.40540 0.12894
#
# Static dielectric constant tensor:
#      x y z
#    x 3.467890 0.000000 0.000000 
#    y 0.000000 3.105190 0.000000 
#    z 0.000000 0.000000 3.549070 
# 
# 
# High freq. dielectric constant tensor:
#      x y z
#    x 1.707930 0.000000 0.000000 
#    y 0.000000 1.689870 0.000000 
#    z 0.000000 0.000000 1.707990 
# 
# From -- ./inp_files/24660.got.cif
#   From: 2010.03.12/outbox.cif.g09.slc.cpg/sg59_13_cif.got.tgz:24660.got - 2010.04.16 16:29:54.
