data_PCOD8239477
_publ_section_title
;
Structure prediction by ZEFSAII (Michael W. Deem and Ramdas Pophale) SiO2 
 PCOD8239477
Probable space group: P M M N
;
_chemical_formula_sum "Si O2"
_cell_formula_units_Z 64
_cell_length_a 16.765815
_cell_length_b 25.699129
_cell_length_c 10.003837
_cell_angle_alpha 90.000000
_cell_angle_beta 90.000000
_cell_angle_gamma 90.000000
_cell_volume 4310.321661
_symmetry_space_group_name_H-M "P M M N"
_symmetry_group_IT_number 59
_space_group.IT_coordinate_system_code '2'
_symmetry_cell_setting 'orthorhombic'
loop_
_space_group_symop_operation_xyz
x,y,z
1/2-x,1/2-y,z
1/2+x,-y,-z
-x,1/2+y,-z
-x,-y,-z
1/2+x,1/2+y,-z
1/2-x,y,z
x,1/2-y,z
loop_
_atom_site_type_symbol
_atom_site_label
_atom_site_fract_x
_atom_site_fract_y
_atom_site_fract_z
Si Si1 0.657794 0.123032 0.997966
Si Si2 0.155914 0.504560 0.672618
Si Si3 0.938688 0.955221 0.541720
Si Si4 0.911128 0.485895 0.042651
Si Si5 0.582504 0.110553 0.438517
Si Si6 0.661082 0.112775 0.707780
Si Si7 0.161816 0.492321 0.225725
Si Si8 0.658320 0.189991 0.246741
O O1 0.750000 0.103126 0.997884
O O2 0.601868 0.076220 0.048432
O O3 0.646282 0.172300 0.093560
O O4 0.633802 0.139884 0.846997
O O5 0.250000 0.503412 0.697800
O O6 0.131464 0.458251 0.569505
O O7 0.109611 0.492545 0.810515
O O8 0.133190 0.560615 0.610600
O O9 0.902921 0.960757 0.689723
O O10 0.987961 0.901503 0.550512
O O11 0.000000 0.000000 0.500000
O O12 0.854522 0.512465 0.932198
O O13 0.000000 0.500000 0.000000
O O14 0.606145 0.129906 0.585950
O O15 0.598058 0.158143 0.339476
O O16 0.750000 0.130281 0.670481
O O17 0.655222 0.051345 0.727518
O O18 0.250000 0.470119 0.254145
O O19 0.750000 0.180290 0.291105
O O20 0.634869 0.250000 0.256666
#
# Coordination Sequence:
#
# PCOD8239477 Si02
#       8
#     8   8   8   8   8   8   8   8
#     4   9  18  31  45  62  88 123 157 188 232 276
#     4  11  19  29  44  64  94 131 160 187 225 280
#     4  10  19  28  41  64  91 123 158 189 227 271
#     4  11  20  27  43  66  93 123 161 196 224 272
#     4  11  19  29  45  66  93 118 159 196 233 271
#     4   9  16  26  43  61  85 119 148 179 223 273
#     4  10  18  29  40  59  91 126 157 185 218 268
#     4  10  20  34  51  68  87 118 162 205 237 271
#
# _framework density 14.848079
#
# number of rings (size 3 to 8) (size 9 to 14) (size 15 to 20)
#    0.000    1.875    3.750    4.875    1.750    0.000 
#    0.000    0.625    0.000    2.250    0.000    0.000 
#    0.000    2.000    0.000    0.250    0.000    0.000 
#
# Total GULP energy -793331.253914 kJ/mol
# GULP energy per Si atom -12395.800842 kJ/mol
# Density = 1.481428 g / cm^3
# Si number density = 14.848079 Si / 1000 Ang^3
#
#
#
# Elastic Constant Matrix: (Units=GPa)
#
#
# Indices 1 2 3 4 5 6 
#
# 1 67.7093 32.4710 28.3571 0.0000 0.0000 0.0000
# 2 32.4710 58.4952 37.2067 0.0000 0.0000 0.0000
# 3 28.3571 37.2067 114.1615 0.0000 0.0000 0.0000
# 4 0.0000 0.0000 0.0000 14.9186 0.0000 0.0000
# 5 0.0000 0.0000 0.0000 0.0000 28.4671 0.0000
# 6 0.0000 0.0000 0.0000 0.0000 0.0000 13.1125
#
#
#
# Elastic Compliance Matrix: (Units=1/GPa)
#
#
# Indices 1 2 3 4 5 6 
#
# 1 0.020396 -0.010218 -0.001736 0.000000 0.000000 0.000000
# 2 -0.010218 0.026685 -0.006159 0.000000 0.000000 0.000000
# 3 -0.001736 -0.006159 0.011198 0.000000 0.000000 0.000000
# 4 0.000000 0.000000 0.000000 0.067030 0.000000 0.000000
# 5 0.000000 0.000000 0.000000 0.000000 0.035128 0.000000
# 6 0.000000 0.000000 0.000000 0.000000 0.000000 0.076263
#
#
# Mechanical properties :
#
#
# Convention : Reuss Voigt Hill
#
# Bulk Modulus (GPa) = 45.34447 48.49284 46.91865
# Shear Modulus (GPa) = 17.83949 20.78841 19.31395
#
# Velocity S-wave (km/s) = 3.46998 3.74582 3.61053
# Velocity P-wave (km/s) = 6.83078 7.17206 7.00350
#
# Compressibility (1/GPa) = 0.02205341
#
# Stress axis : x y z
#
# Youngs Moduli (GPa) = 49.02874 37.47459 89.30123
#
# Poissons Ratio (x) = 0.38290 0.15505
# Poissons Ratio (y) = 0.50096 0.55000
# Poissons Ratio (z) = 0.08513 0.23080
#
# Static dielectric constant tensor:
#      x y z
#    x 3.021100 0.000000 0.000000 
#    y 0.000000 2.470340 0.000000 
#    z 0.000000 0.000000 3.284860 
# 
# 
# High freq. dielectric constant tensor:
#      x y z
#    x 1.558890 0.000000 0.000000 
#    y 0.000000 1.500600 0.000000 
#    z 0.000000 0.000000 1.595630 
# 
# From -- ./inp_files/10829.got.cif
#   From: 2010.03.12/outbox.cif.g09.slc.cpg/sg59_6_cif.got.tgz:10829.got - 2010.04.16 16:29:54.
