data_PCOD8239095
_publ_section_title
;
Structure prediction by ZEFSAII (Michael W. Deem and Ramdas Pophale) SiO2 
 PCOD8239095
Probable space group: P M M N
;
_chemical_formula_sum "Si O2"
_cell_formula_units_Z 56
_cell_length_a 9.069021
_cell_length_b 21.966886
_cell_length_c 17.644795
_cell_angle_alpha 90.000000
_cell_angle_beta 90.000000
_cell_angle_gamma 90.000000
_cell_volume 3515.163425
_symmetry_space_group_name_H-M "P M M N"
_symmetry_group_IT_number 59
_space_group.IT_coordinate_system_code '2'
_symmetry_cell_setting 'orthorhombic'
loop_
_space_group_symop_operation_xyz
x,y,z
1/2-x,1/2-y,z
1/2+x,-y,-z
-x,1/2+y,-z
-x,-y,-z
1/2+x,1/2+y,-z
1/2-x,y,z
x,1/2-y,z
loop_
_atom_site_type_symbol
_atom_site_label
_atom_site_fract_x
_atom_site_fract_y
_atom_site_fract_z
Si Si1 0.075389 0.026899 0.253469
Si Si2 0.414613 0.582243 0.444426
Si Si3 0.075579 0.097639 0.703599
Si Si4 0.913297 0.560952 0.585123
Si Si5 0.078758 0.412996 0.961021
Si Si6 0.924461 0.817710 0.161271
Si Si7 0.579280 0.454194 0.104061
O O1 0.250000 0.016395 0.245395
O O2 0.039809 0.069082 0.326969
O O3 0.009867 0.061144 0.180571
O O4 0.997614 0.962072 0.261551
O O5 0.250000 0.609054 0.439811
O O6 0.514325 0.613615 0.379872
O O7 0.414710 0.510548 0.431489
O O8 0.478280 0.596600 0.528238
O O9 0.250000 0.086758 0.699336
O O10 0.032019 0.153517 0.757975
O O11 0.750000 0.587229 0.571398
O O12 0.250000 0.404848 0.981930
O O13 0.017018 0.358818 0.908178
O O14 0.053748 0.475422 0.915888
O O15 0.984489 0.411622 0.037788
O O16 0.750000 0.815120 0.154936
O O17 0.993167 0.750000 0.155661
O O18 0.750000 0.438738 0.116121
#
# Coordination Sequence:
#
# PCOD8239095 Si02
#       7
#     8   8   8   8   8   8   8
#     4  10  18  27  41  61  86 114 143 177 215 257
#     4   9  16  25  37  55  79 110 142 172 206 244
#     4  10  17  27  42  60  82 111 146 180 216 255
#     4   8  15  25  36  54  79 109 141 170 203 242
#     4   9  17  30  44  62  84 111 145 180 221 261
#     4   9  17  30  47  65  85 111 148 188 221 256
#     4  10  18  28  43  64  86 113 145 178 218 265
#
# _framework density 15.93098
#
# number of rings (size 3 to 8) (size 9 to 14) (size 15 to 20)
#    0.000    2.714    1.429    2.571    0.000    4.571 
#    0.000    0.000    0.000    3.857    0.000    0.000 
#    0.000    1.143    0.000   13.143    0.000    4.000 
#
# Total GULP energy -694194.745826 kJ/mol
# GULP energy per Si atom -12396.334747 kJ/mol
# Density = 1.589472 g / cm^3
# Si number density = 15.930980 Si / 1000 Ang^3
#
#
#
# Elastic Constant Matrix: (Units=GPa)
#
#
# Indices 1 2 3 4 5 6 
#
# 1 92.3686 22.9033 70.2845 0.0000 0.0000 0.0000
# 2 22.9033 50.7116 41.2373 0.0000 0.0000 0.0000
# 3 70.2845 41.2373 158.8269 0.0000 0.0000 0.0000
# 4 0.0000 0.0000 0.0000 13.8718 0.0000 0.0000
# 5 0.0000 0.0000 0.0000 0.0000 31.1199 0.0000
# 6 0.0000 0.0000 0.0000 0.0000 0.0000 8.8005
#
#
#
# Elastic Compliance Matrix: (Units=1/GPa)
#
#
# Indices 1 2 3 4 5 6 
#
# 1 0.016468 -0.001916 -0.006790 0.000000 0.000000 0.000000
# 2 -0.001916 0.025220 -0.005700 0.000000 0.000000 0.000000
# 3 -0.006790 -0.005700 0.010781 0.000000 0.000000 0.000000
# 4 0.000000 0.000000 0.000000 0.072089 0.000000 0.000000
# 5 0.000000 0.000000 0.000000 0.000000 0.032134 0.000000
# 6 0.000000 0.000000 0.000000 0.000000 0.000000 0.113630
#
#
# Mechanical properties :
#
#
# Convention : Reuss Voigt Hill
#
# Bulk Modulus (GPa) = 42.27202 63.41747 52.84475
# Shear Modulus (GPa) = 16.28563 21.92389 19.10476
#
# Velocity S-wave (km/s) = 3.20075 3.71371 3.46673
# Velocity P-wave (km/s) = 6.34443 7.63433 7.01907
#
# Compressibility (1/GPa) = 0.02365631
#
# Stress axis : x y z
#
# Youngs Moduli (GPa) = 60.72444 39.65124 92.75758
#
# Poissons Ratio (x) = 0.07598 0.62981
# Poissons Ratio (y) = 0.11636 0.52872
# Poissons Ratio (z) = 0.41231 0.22601
#
# Static dielectric constant tensor:
#      x y z
#    x 3.064550 0.000000 0.000000 
#    y 0.000000 2.614200 0.000000 
#    z 0.000000 0.000000 3.351930 
# 
# 
# High freq. dielectric constant tensor:
#      x y z
#    x 1.613720 0.000000 0.000000 
#    y 0.000000 1.536700 0.000000 
#    z 0.000000 0.000000 1.629940 
# 
# From -- ./inp_files/26121.got.cif
#   From: 2010.03.12/outbox.cif.g09.slc.cpg/sg59_14_cif.got.tgz:26121.got - 2010.04.16 16:29:54.
