data_PCOD8239288
_publ_section_title
;
Structure prediction by ZEFSAII (Michael W. Deem and Ramdas Pophale) SiO2 
 PCOD8239288
Probable space group: P M M N
;
_chemical_formula_sum "Si O2"
_cell_formula_units_Z 64
_cell_length_a 9.248294
_cell_length_b 28.975800
_cell_length_c 15.524644
_cell_angle_alpha 90.000000
_cell_angle_beta 90.000000
_cell_angle_gamma 90.000000
_cell_volume 4160.243136
_symmetry_space_group_name_H-M "P M M N"
_symmetry_group_IT_number 59
_space_group.IT_coordinate_system_code '2'
_symmetry_cell_setting 'orthorhombic'
loop_
_space_group_symop_operation_xyz
x,y,z
1/2-x,1/2-y,z
1/2+x,-y,-z
-x,1/2+y,-z
-x,-y,-z
1/2+x,1/2+y,-z
1/2-x,y,z
x,1/2-y,z
loop_
_atom_site_type_symbol
_atom_site_label
_atom_site_fract_x
_atom_site_fract_y
_atom_site_fract_z
Si Si1 0.921722 0.300533 0.600249
Si Si2 0.578417 0.394816 0.340279
Si Si3 0.920564 0.053121 0.172286
Si Si4 0.582761 0.547384 0.989930
Si Si5 0.085728 0.054127 0.819716
Si Si6 0.077996 0.800164 0.593788
Si Si7 0.920754 0.395084 0.673106
Si Si8 0.579057 0.451827 0.505014
O O1 0.750000 0.303157 0.596853
O O2 0.970902 0.250000 0.636310
O O3 0.981156 0.306925 0.503208
O O4 0.979189 0.342601 0.659190
O O5 0.750000 0.396068 0.337915
O O6 0.519059 0.418493 0.253835
O O7 0.520458 0.341918 0.346228
O O8 0.524044 0.422028 0.424129
O O9 0.750000 0.059359 0.157301
O O10 0.004674 0.073973 0.088952
O O11 0.960694 0.999506 0.186657
O O12 0.750000 0.538375 0.967167
O O13 0.500000 0.500000 0.000000
O O14 0.569487 0.573164 0.082118
O O15 0.250000 0.059004 0.787784
O O16 0.986607 0.085386 0.760299
O O17 0.250000 0.802025 0.590853
O O18 0.026756 0.750000 0.629887
O O19 0.750000 0.395564 0.683696
O O20 0.968265 0.426028 0.592076
O O21 0.500000 0.500000 0.500000
O O22 0.750000 0.459780 0.501689
#
# Coordination Sequence:
#
# PCOD8239288 Si02
#       8
#     8   8   8   8   8   8   8   8
#     4   8  13  23  39  60  85 108 135 176 218 247
#     4   9  15  25  39  57  85 116 141 169 206 248
#     4   9  17  28  43  62  85 114 144 172 207 247
#     4   9  17  30  46  62  82 108 140 177 215 251
#     4   9  18  30  42  59  84 114 140 168 211 252
#     4   8  12  20  37  59  82 109 140 174 211 248
#     4  10  18  27  42  64  84 109 144 176 204 242
#     4  10  19  29  39  55  84 118 147 169 195 236
#
# _framework density 15.383716
#
# number of rings (size 3 to 8) (size 9 to 14) (size 15 to 20)
#    0.000    3.000    1.250    2.625    0.000    4.000 
#    0.000    0.625    0.000    0.375    0.000    0.875 
#    0.000    7.000    0.000    0.000    0.000    0.000 
#
# Total GULP energy -793018.253767 kJ/mol
# GULP energy per Si atom -12390.910215 kJ/mol
# Density = 1.534870 g / cm^3
# Si number density = 15.383716 Si / 1000 Ang^3
#
#
#
# Elastic Constant Matrix: (Units=GPa)
#
#
# Indices 1 2 3 4 5 6 
#
# 1 30.9076 24.4165 31.2543 0.0000 0.0000 0.0000
# 2 24.4165 118.3112 59.0793 0.0000 0.0000 0.0000
# 3 31.2543 59.0793 112.9205 0.0000 0.0000 0.0000
# 4 0.0000 0.0000 0.0000 13.0224 0.0000 0.0000
# 5 0.0000 0.0000 0.0000 0.0000 21.6401 0.0000
# 6 0.0000 0.0000 0.0000 0.0000 0.0000 12.8940
#
#
#
# Elastic Compliance Matrix: (Units=1/GPa)
#
#
# Indices 1 2 3 4 5 6 
#
# 1 0.046484 -0.004289 -0.010622 0.000000 0.000000 0.000000
# 2 -0.004289 0.011837 -0.005006 0.000000 0.000000 0.000000
# 3 -0.010622 -0.005006 0.014415 0.000000 0.000000 0.000000
# 4 0.000000 0.000000 0.000000 0.076791 0.000000 0.000000
# 5 0.000000 0.000000 0.000000 0.000000 0.046210 0.000000
# 6 0.000000 0.000000 0.000000 0.000000 0.000000 0.077556
#
#
# Mechanical properties :
#
#
# Convention : Reuss Voigt Hill
#
# Bulk Modulus (GPa) = 30.39326 54.62661 42.50994
# Shear Modulus (GPa) = 15.42762 19.33724 17.38243
#
# Velocity S-wave (km/s) = 3.17022 3.54926 3.36508
# Velocity P-wave (km/s) = 5.76195 7.23759 6.54152
#
# Compressibility (1/GPa) = 0.03290203
#
# Stress axis : x y z
#
# Youngs Moduli (GPa) = 21.51287 84.47921 69.37286
#
# Poissons Ratio (x) = 0.36233 0.73687
# Poissons Ratio (y) = 0.09227 0.34728
# Poissons Ratio (z) = 0.22851 0.42291
#
# Static dielectric constant tensor:
#      x y z
#    x 2.661350 0.000000 0.000000 
#    y 0.000000 3.118360 0.000000 
#    z 0.000000 0.000000 3.302100 
# 
# 
# High freq. dielectric constant tensor:
#      x y z
#    x 1.555900 0.000000 0.000000 
#    y 0.000000 1.575410 0.000000 
#    z 0.000000 0.000000 1.583120 
# 
# From -- ./inp_files/21824.got.cif
#   From: 2010.03.12/outbox.cif.g09.slc.cpg/sg59_11_cif.got.tgz:21824.got - 2010.04.16 16:29:54.
