data_PCOD8239390
_publ_section_title
;
Structure prediction by ZEFSAII (Michael W. Deem and Ramdas Pophale) SiO2 
 PCOD8239390
Probable space group: P M M N
;
_chemical_formula_sum "Si O2"
_cell_formula_units_Z 56
_cell_length_a 24.198610
_cell_length_b 8.867638
_cell_length_c 16.287015
_cell_angle_alpha 90.000000
_cell_angle_beta 90.000000
_cell_angle_gamma 90.000000
_cell_volume 3494.941191
_symmetry_space_group_name_H-M "P M M N"
_symmetry_group_IT_number 59
_space_group.IT_coordinate_system_code '2'
_symmetry_cell_setting 'orthorhombic'
loop_
_space_group_symop_operation_xyz
x,y,z
1/2-x,1/2-y,z
1/2+x,-y,-z
-x,1/2+y,-z
-x,-y,-z
1/2+x,1/2+y,-z
1/2-x,y,z
x,1/2-y,z
loop_
_atom_site_type_symbol
_atom_site_label
_atom_site_fract_x
_atom_site_fract_y
_atom_site_fract_z
Si Si1 0.606051 0.928701 0.612264
Si Si2 0.993420 0.426689 0.305928
Si Si3 0.492726 0.572355 0.876498
Si Si4 0.555916 0.072264 0.468344
Si Si5 0.813105 0.572220 0.904853
Si Si6 0.314836 0.921584 0.265539
Si Si7 0.586607 0.426793 0.979179
O O1 0.608865 0.750000 0.607086
O O2 0.551850 0.990000 0.660473
O O3 0.605794 0.994810 0.518806
O O4 0.659430 0.991514 0.657752
O O5 0.001353 0.250000 0.298621
O O6 0.979702 0.489343 0.215204
O O7 0.943257 0.463072 0.369870
O O8 0.505289 0.750000 0.879256
O O9 0.547090 0.487646 0.907565
O O10 0.439829 0.532858 0.932541
O O11 0.555996 0.250000 0.484703
O O12 0.500000 0.000000 0.500000
O O13 0.750000 0.526485 0.926342
O O14 0.819844 0.750000 0.899131
O O15 0.832212 0.502635 0.818489
O O16 0.853534 0.506439 0.974705
O O17 0.250000 0.930087 0.278763
O O18 0.336012 0.750000 0.262142
O O19 0.594679 0.250000 0.967536
#
# Coordination Sequence:
#
# PCOD8239390 Si02
#       7
#     8   8   8   8   8   8   8
#     4  10  18  28  44  65  90 120 148 175 215 264
#     4   8  15  27  43  62  84 114 148 179 213 254
#     4   9  17  30  46  64  90 122 153 185 223 270
#     4   9  16  27  42  61  86 114 146 182 217 255
#     4  10  20  33  48  64  86 119 153 184 222 269
#     4  10  20  32  46  66  90 114 145 184 220 256
#     4  10  19  29  44  67  92 118 149 187 228 267
#
# _framework density 16.023160000000001
#
# number of rings (size 3 to 8) (size 9 to 14) (size 15 to 20)
#    0.000    2.571    0.000    3.857    0.000    3.429 
#    0.000    3.571    0.000    0.000    0.000    1.000 
#    0.000    3.429    0.000    0.000    0.000    0.000 
#
# Total GULP energy -694131.191782 kJ/mol
# GULP energy per Si atom -12395.199853 kJ/mol
# Density = 1.598669 g / cm^3
# Si number density = 16.023160 Si / 1000 Ang^3
#
#
#
# Elastic Constant Matrix: (Units=GPa)
#
#
# Indices 1 2 3 4 5 6 
#
# 1 64.4718 35.3515 43.0243 0.0000 0.0000 0.0000
# 2 35.3515 77.9850 37.4141 0.0000 0.0000 0.0000
# 3 43.0243 37.4141 117.2267 0.0000 0.0000 0.0000
# 4 0.0000 0.0000 0.0000 23.1584 0.0000 0.0000
# 5 0.0000 0.0000 0.0000 0.0000 27.9592 0.0000
# 6 0.0000 0.0000 0.0000 0.0000 0.0000 25.9042
#
#
#
# Elastic Compliance Matrix: (Units=1/GPa)
#
#
# Indices 1 2 3 4 5 6 
#
# 1 0.024036 -0.007868 -0.006310 0.000000 0.000000 0.000000
# 2 -0.007868 0.017717 -0.002767 0.000000 0.000000 0.000000
# 3 -0.006310 -0.002767 0.011730 0.000000 0.000000 0.000000
# 4 0.000000 0.000000 0.000000 0.043181 0.000000 0.000000
# 5 0.000000 0.000000 0.000000 0.000000 0.035766 0.000000
# 6 0.000000 0.000000 0.000000 0.000000 0.000000 0.038604
#
#
# Mechanical properties :
#
#
# Convention : Reuss Voigt Hill
#
# Bulk Modulus (GPa) = 51.04184 54.58480 52.81332
# Shear Modulus (GPa) = 23.64558 24.99728 24.32143
#
# Velocity S-wave (km/s) = 3.84567 3.95406 3.90024
# Velocity P-wave (km/s) = 7.18631 7.41527 7.30169
#
# Compressibility (1/GPa) = 0.01959177
#
# Stress axis : x y z
#
# Youngs Moduli (GPa) = 41.60374 56.44234 85.25459
#
# Poissons Ratio (x) = 0.44411 0.53800
# Poissons Ratio (y) = 0.32736 0.23588
# Poissons Ratio (z) = 0.26254 0.15616
#
# Static dielectric constant tensor:
#      x y z
#    x 2.901380 0.000000 0.000000 
#    y 0.000000 3.101750 0.000000 
#    z 0.000000 0.000000 3.435690 
# 
# 
# High freq. dielectric constant tensor:
#      x y z
#    x 1.585560 0.000000 0.000000 
#    y 0.000000 1.621830 0.000000 
#    z 0.000000 0.000000 1.611130 
# 
# From -- ./inp_files/28384.got.cif
#   From: 2010.03.12/outbox.cif.g09.slc.cpg/sg59_15_cif.got.tgz:28384.got - 2010.04.16 16:29:54.
