data_PCOD8239251
_publ_section_title
;
Structure prediction by ZEFSAII (Michael W. Deem and Ramdas Pophale) SiO2 
 PCOD8239251
Probable space group: P M M N
;
_chemical_formula_sum "Si O2"
_cell_formula_units_Z 56
_cell_length_a 24.775796
_cell_length_b 8.990263
_cell_length_c 16.296862
_cell_angle_alpha 90.000000
_cell_angle_beta 90.000000
_cell_angle_gamma 90.000000
_cell_volume 3629.978069
_symmetry_space_group_name_H-M "P M M N"
_symmetry_group_IT_number 59
_space_group.IT_coordinate_system_code '2'
_symmetry_cell_setting 'orthorhombic'
loop_
_space_group_symop_operation_xyz
x,y,z
1/2-x,1/2-y,z
1/2+x,-y,-z
-x,1/2+y,-z
-x,-y,-z
1/2+x,1/2+y,-z
1/2-x,y,z
x,1/2-y,z
loop_
_atom_site_type_symbol
_atom_site_label
_atom_site_fract_x
_atom_site_fract_y
_atom_site_fract_z
Si Si1 0.602918 0.925662 0.611018
Si Si2 0.993311 0.423989 0.306209
Si Si3 0.490113 0.574107 0.875229
Si Si4 0.554216 0.075000 0.469437
Si Si5 0.808901 0.426462 0.904747
Si Si6 0.312500 0.919087 0.280252
Si Si7 0.581206 0.425479 0.976305
O O1 0.601964 0.750000 0.599590
O O2 0.550613 0.986610 0.660820
O O3 0.603297 0.999867 0.519621
O O4 0.656368 0.973781 0.658002
O O5 0.001375 0.250000 0.296177
O O6 0.978787 0.489280 0.216369
O O7 0.944542 0.457137 0.370811
O O8 0.498165 0.750000 0.876458
O O9 0.545092 0.502154 0.907196
O O10 0.439613 0.528326 0.933174
O O11 0.553019 0.250000 0.486968
O O12 0.500000 0.000000 0.500000
O O13 0.750000 0.489803 0.933234
O O14 0.805260 0.250000 0.904074
O O15 0.821780 0.478993 0.812172
O O16 0.856792 0.480775 0.965258
O O17 0.250000 0.927881 0.303845
O O18 0.333662 0.750000 0.289166
O O19 0.576895 0.250000 0.962453
#
# Coordination Sequence:
#
# PCOD8239251 Si02
#       7
#     8   8   8   8   8   8   8
#     4  10  18  27  40  58  80 105 132 163 199 237
#     4   8  15  26  39  56  78 105 132 157 192 235
#     4   9  16  26  39  56  81 108 131 160 198 239
#     4   9  16  27  41  57  78 103 132 163 196 236
#     4   8  14  25  40  58  80 104 132 166 198 230
#     4   9  17  28  41  57  78 105 134 161 193 234
#     4   9  16  25  39  59  79 103 135 164 195 236
#
# _framework density 15.427091000000001
#
# number of rings (size 3 to 8) (size 9 to 14) (size 15 to 20)
#    0.000    3.143    0.000    3.429    0.000    0.286 
#    0.000    3.571    0.000    1.286    0.000    1.000 
#    0.000    5.714    0.000    0.000    0.000    0.143 
#
# Total GULP energy -693841.234883 kJ/mol
# GULP energy per Si atom -12390.022051 kJ/mol
# Density = 1.539198 g / cm^3
# Si number density = 15.427091 Si / 1000 Ang^3
#
#
#
# Elastic Constant Matrix: (Units=GPa)
#
#
# Indices 1 2 3 4 5 6 
#
# 1 92.5104 21.6443 57.6652 0.0000 0.0000 0.0000
# 2 21.6443 39.9127 28.4790 0.0000 0.0000 0.0000
# 3 57.6652 28.4790 123.3616 0.0000 0.0000 0.0000
# 4 0.0000 0.0000 0.0000 15.8493 0.0000 0.0000
# 5 0.0000 0.0000 0.0000 0.0000 23.0198 0.0000
# 6 0.0000 0.0000 0.0000 0.0000 0.0000 19.0251
#
#
#
# Elastic Compliance Matrix: (Units=1/GPa)
#
#
# Indices 1 2 3 4 5 6 
#
# 1 0.015755 -0.003937 -0.006456 0.000000 0.000000 0.000000
# 2 -0.003937 0.030980 -0.005311 0.000000 0.000000 0.000000
# 3 -0.006456 -0.005311 0.012350 0.000000 0.000000 0.000000
# 4 0.000000 0.000000 0.000000 0.063094 0.000000 0.000000
# 5 0.000000 0.000000 0.000000 0.000000 0.043441 0.000000
# 6 0.000000 0.000000 0.000000 0.000000 0.000000 0.052562
#
#
# Mechanical properties :
#
#
# Convention : Reuss Voigt Hill
#
# Bulk Modulus (GPa) = 36.13255 52.37351 44.25303
# Shear Modulus (GPa) = 19.31875 21.44526 20.38201
#
# Velocity S-wave (km/s) = 3.54257 3.73245 3.63875
# Velocity P-wave (km/s) = 6.34077 7.25243 6.81187
#
# Compressibility (1/GPa) = 0.02767588
#
# Stress axis : x y z
#
# Youngs Moduli (GPa) = 63.47262 32.27915 80.97117
#
# Poissons Ratio (x) = 0.12710 0.52272
# Poissons Ratio (y) = 0.24992 0.43007
# Poissons Ratio (z) = 0.40975 0.17145
#
# Static dielectric constant tensor:
#      x y z
#    x 2.991010 0.000000 0.000000 
#    y 0.000000 2.801980 0.000000 
#    z 0.000000 0.000000 3.379330 
# 
# 
# High freq. dielectric constant tensor:
#      x y z
#    x 1.565400 0.000000 0.000000 
#    y 0.000000 1.574730 0.000000 
#    z 0.000000 0.000000 1.587870 
# 
# From -- ./inp_files/28382.got.cif
#   From: 2010.03.12/outbox.cif.g09.slc.cpg/sg59_15_cif.got.tgz:28382.got - 2010.04.16 16:29:54.
