data_PCOD8239636
_publ_section_title
;
Structure prediction by ZEFSAII (Michael W. Deem and Ramdas Pophale) SiO2 
 PCOD8239636
Probable space group: P M M N
;
_chemical_formula_sum "Si O2"
_cell_formula_units_Z 28
_cell_length_a 17.357821
_cell_length_b 5.324977
_cell_length_c 15.302706
_cell_angle_alpha 90.000000
_cell_angle_beta 90.000000
_cell_angle_gamma 90.000000
_cell_volume 1414.429079
_symmetry_space_group_name_H-M "P M M N"
_symmetry_group_IT_number 59
_space_group.IT_coordinate_system_code '2'
_symmetry_cell_setting 'orthorhombic'
loop_
_space_group_symop_operation_xyz
x,y,z
1/2-x,1/2-y,z
1/2+x,-y,-z
-x,1/2+y,-z
-x,-y,-z
1/2+x,1/2+y,-z
1/2-x,y,z
x,1/2-y,z
loop_
_atom_site_type_symbol
_atom_site_label
_atom_site_fract_x
_atom_site_fract_y
_atom_site_fract_z
Si Si1 0.453368 0.750000 0.697072
Si Si2 0.097671 0.250000 0.430352
Si Si3 0.100018 0.250000 0.982571
Si Si4 0.053951 0.250000 0.628272
Si Si5 0.250000 0.750000 0.213559
Si Si6 0.626125 0.250000 0.639559
Si Si7 0.250000 0.250000 0.098751
Si Si8 0.050018 0.750000 0.900347
O O1 0.532838 0.750000 0.643885
O O2 0.406055 0.499371 0.668593
O O3 0.470524 0.750000 0.798918
O O4 0.057250 0.250000 0.524069
O O5 0.148672 0.501496 0.416836
O O6 0.176812 0.250000 0.037389
O O7 0.029819 0.250000 0.049279
O O8 0.098420 0.500021 0.923038
O O9 0.964941 0.250000 0.659438
O O10 0.172558 0.750000 0.270555
O O11 0.250000 0.499860 0.156447
#
# Coordination Sequence:
#
# PCOD8239636 Si02
#       8
#     4   4   4   4   2   4   2   4
#     4  10  18  29  54  83 109 143 183 242 281 336
#     4  10  19  34  53  83 114 154 183 237 281 331
#     4  10  23  40  58  83 115 154 190 246 296 366
#     4  10  19  31  54  85 116 148 184 234 289 327
#     4  12  26  36  56  90 114 162 196 222 288 378
#     4  10  20  33  49  75 116 149 189 223 265 341
#     4  12  26  42  62  82 122 160 190 238 314 380
#     4  10  21  38  59  86 114 147 202 244 299 335
#
# _framework density 19.795971999999999
#
# number of rings (size 3 to 8) (size 9 to 14) (size 15 to 20)
#    0.000    1.714    0.000    6.857    8.000    0.000 
#    0.000    0.000    0.000    0.000    0.000   34.000 
#    0.000    0.000    0.000    0.000    0.000    0.000 
#
# Total GULP energy -347043.319761 kJ/mol
# GULP energy per Si atom -12394.404277 kJ/mol
# Density = 1.975092 g / cm^3
# Si number density = 19.795972 Si / 1000 Ang^3
#
#
#
# Elastic Constant Matrix: (Units=GPa)
#
#
# Indices 1 2 3 4 5 6 
#
# 1 51.1373 23.7755 27.3913 0.0000 0.0000 0.0000
# 2 23.7755 243.1607 73.3253 0.0000 0.0000 0.0000
# 3 27.3913 73.3253 153.5579 0.0000 0.0000 0.0000
# 4 0.0000 0.0000 0.0000 42.9511 0.0000 0.0000
# 5 0.0000 0.0000 0.0000 0.0000 38.1141 0.0000
# 6 0.0000 0.0000 0.0000 0.0000 0.0000 11.7541
#
#
#
# Elastic Compliance Matrix: (Units=1/GPa)
#
#
# Indices 1 2 3 4 5 6 
#
# 1 0.021881 -0.001124 -0.003366 0.000000 0.000000 0.000000
# 2 -0.001124 0.004862 -0.002121 0.000000 0.000000 0.000000
# 3 -0.003366 -0.002121 0.008126 0.000000 0.000000 0.000000
# 4 0.000000 0.000000 0.000000 0.023282 0.000000 0.000000
# 5 0.000000 0.000000 0.000000 0.000000 0.026237 0.000000
# 6 0.000000 0.000000 0.000000 0.000000 0.000000 0.085077
#
#
# Mechanical properties :
#
#
# Convention : Reuss Voigt Hill
#
# Bulk Modulus (GPa) = 46.19956 77.42667 61.81312
# Shear Modulus (GPa) = 26.32919 40.12144 33.22532
#
# Velocity S-wave (km/s) = 3.65091 4.50683 4.10126
# Velocity P-wave (km/s) = 6.41566 8.14120 7.32939
#
# Compressibility (1/GPa) = 0.02164523
#
# Stress axis : x y z
#
# Youngs Moduli (GPa) = 45.70173 205.67372 123.06922
#
# Poissons Ratio (x) = 0.23126 0.41427
# Poissons Ratio (y) = 0.05139 0.26104
# Poissons Ratio (z) = 0.15384 0.43626
#
# Static dielectric constant tensor:
#      x y z
#    x 3.065130 0.000000 0.000000 
#    y 0.000000 6.054650 0.000000 
#    z 0.000000 0.000000 3.515900 
# 
# 
# High freq. dielectric constant tensor:
#      x y z
#    x 1.707430 0.000000 0.000000 
#    y 0.000000 1.821460 0.000000 
#    z 0.000000 0.000000 1.772370 
# 
# From -- ./inp_files/18043.got.cif
#   From: 2010.03.12/outbox.cif.g09.slc.cpg/sg59_10_cif.got.tgz:18043.got - 2010.04.16 16:29:54.
