data_PCOD8239833
_publ_section_title
;
Structure prediction by ZEFSAII (Michael W. Deem and Ramdas Pophale) SiO2 
 PCOD8239833
Probable space group: P M M N
;
_chemical_formula_sum "Si O2"
_cell_formula_units_Z 48
_cell_length_a 8.643024
_cell_length_b 26.248118
_cell_length_c 11.934771
_cell_angle_alpha 90.000000
_cell_angle_beta 90.000000
_cell_angle_gamma 90.000000
_cell_volume 2707.559312
_symmetry_space_group_name_H-M "P M M N"
_symmetry_group_IT_number 59
_space_group.IT_coordinate_system_code '2'
_symmetry_cell_setting 'orthorhombic'
loop_
_space_group_symop_operation_xyz
x,y,z
1/2-x,1/2-y,z
1/2+x,-y,-z
-x,1/2+y,-z
-x,-y,-z
1/2+x,1/2+y,-z
1/2-x,y,z
x,1/2-y,z
loop_
_atom_site_type_symbol
_atom_site_label
_atom_site_fract_x
_atom_site_fract_y
_atom_site_fract_z
Si Si1 0.065925 0.691716 0.341845
Si Si2 0.075878 0.613365 0.165961
Si Si3 0.565201 0.053756 0.038824
Si Si4 0.930966 0.430578 0.290429
Si Si5 0.074372 0.966575 0.355610
Si Si6 0.568064 0.882284 0.510738
O O1 0.250000 0.684546 0.349733
O O2 0.016223 0.750000 0.327205
O O3 0.996574 0.659911 0.235107
O O4 0.993564 0.670149 0.456554
O O5 0.250000 0.631197 0.144296
O O6 0.068104 0.561922 0.237537
O O7 0.002050 0.598371 0.045580
O O8 0.750000 0.050134 0.033500
O O9 0.507292 0.068625 0.162724
O O10 0.500000 0.000000 0.000000
O O11 0.750000 0.419542 0.294516
O O12 0.966687 0.484283 0.349147
O O13 0.018826 0.385567 0.358381
O O14 0.250000 0.982845 0.384325
O O15 0.011226 0.930416 0.452222
O O16 0.750000 0.884871 0.496403
#
# Coordination Sequence:
#
# PCOD8239833 Si02
#       6
#     8   8   8   8   8   8
#     4   9  18  35  59  81 100 124 159 208 266 317
#     4   8  15  29  49  74 101 130 163 204 250 297
#     4  10  19  31  48  71 103 140 177 210 242 294
#     4  11  21  31  46  70 103 141 178 210 246 296
#     4  10  18  31  50  70 100 135 170 211 253 302
#     4  11  22  34  49  71 101 133 170 211 255 308
#
# _framework density 17.728142999999999
#
# number of rings (size 3 to 8) (size 9 to 14) (size 15 to 20)
#    0.000    2.167    1.667    4.000    0.000    1.000 
#    0.000    0.000    0.000    1.000    0.000    4.667 
#    0.000    0.000    0.000    0.000    0.000    0.000 
#
# Total GULP energy -594946.010367 kJ/mol
# GULP energy per Si atom -12394.708549 kJ/mol
# Density = 1.768779 g / cm^3
# Si number density = 17.728143 Si / 1000 Ang^3
#
#
#
# Elastic Constant Matrix: (Units=GPa)
#
#
# Indices 1 2 3 4 5 6 
#
# 1 41.4265 14.6240 25.9746 0.0000 0.0000 0.0000
# 2 14.6240 93.7924 51.3140 0.0000 0.0000 0.0000
# 3 25.9746 51.3140 118.7042 0.0000 0.0000 0.0000
# 4 0.0000 0.0000 0.0000 13.8810 0.0000 0.0000
# 5 0.0000 0.0000 0.0000 0.0000 17.9447 0.0000
# 6 0.0000 0.0000 0.0000 0.0000 0.0000 20.9507
#
#
#
# Elastic Compliance Matrix: (Units=1/GPa)
#
#
# Indices 1 2 3 4 5 6 
#
# 1 0.028104 -0.001333 -0.005574 0.000000 0.000000 0.000000
# 2 -0.001333 0.014028 -0.005772 0.000000 0.000000 0.000000
# 3 -0.005574 -0.005772 0.012139 0.000000 0.000000 0.000000
# 4 0.000000 0.000000 0.000000 0.072041 0.000000 0.000000
# 5 0.000000 0.000000 0.000000 0.000000 0.055727 0.000000
# 6 0.000000 0.000000 0.000000 0.000000 0.000000 0.047731
#
#
# Mechanical properties :
#
#
# Convention : Reuss Voigt Hill
#
# Bulk Modulus (GPa) = 34.58543 48.63871 41.61207
# Shear Modulus (GPa) = 18.88467 21.35598 20.12033
#
# Velocity S-wave (km/s) = 3.26734 3.47455 3.37254
# Velocity P-wave (km/s) = 5.81250 6.60243 6.22002
#
# Compressibility (1/GPa) = 0.02891391
#
# Stress axis : x y z
#
# Youngs Moduli (GPa) = 35.58179 71.28759 82.37769
#
# Poissons Ratio (x) = 0.09500 0.45914
# Poissons Ratio (y) = 0.04742 0.47551
# Poissons Ratio (z) = 0.19832 0.41150
#
# Static dielectric constant tensor:
#      x y z
#    x 3.138340 0.000000 0.000000 
#    y 0.000000 3.132240 0.000000 
#    z 0.000000 0.000000 3.769090 
# 
# 
# High freq. dielectric constant tensor:
#      x y z
#    x 1.671770 0.000000 0.000000 
#    y 0.000000 1.651060 0.000000 
#    z 0.000000 0.000000 1.695350 
# 
# From -- ./inp_files/14462.got.cif
#   From: 2010.03.12/outbox.cif.g09.slc.cpg/sg59_8_cif.got.tgz:14462.got - 2010.04.16 16:29:54.
