data_PCOD8239588
_publ_section_title
;
Structure prediction by ZEFSAII (Michael W. Deem and Ramdas Pophale) SiO2 
 PCOD8239588
Probable space group: P M M N
;
_chemical_formula_sum "Si O2"
_cell_formula_units_Z 56
_cell_length_a 9.174484
_cell_length_b 22.567703
_cell_length_c 14.794840
_cell_angle_alpha 90.000000
_cell_angle_beta 90.000000
_cell_angle_gamma 90.000000
_cell_volume 3063.227683
_symmetry_space_group_name_H-M "P M M N"
_symmetry_group_IT_number 59
_space_group.IT_coordinate_system_code '2'
_symmetry_cell_setting 'orthorhombic'
loop_
_space_group_symop_operation_xyz
x,y,z
1/2-x,1/2-y,z
1/2+x,-y,-z
-x,1/2+y,-z
-x,-y,-z
1/2+x,1/2+y,-z
1/2-x,y,z
x,1/2-y,z
loop_
_atom_site_type_symbol
_atom_site_label
_atom_site_fract_x
_atom_site_fract_y
_atom_site_fract_z
Si Si1 0.579297 0.150934 0.117561
Si Si2 0.419813 0.817132 0.682862
Si Si3 0.078641 0.423469 0.414853
Si Si4 0.421093 0.043177 0.616186
Si Si5 0.916966 0.019131 0.087790
Si Si6 0.583291 0.683784 0.060072
Si Si7 0.418122 0.092476 0.797517
O O1 0.750000 0.158961 0.100734
O O2 0.532348 0.180078 0.212172
O O3 0.530270 0.082631 0.122719
O O4 0.499094 0.182161 0.034848
O O5 0.250000 0.834154 0.673575
O O6 0.449011 0.750000 0.648490
O O7 0.512360 0.862822 0.623490
O O8 0.250000 0.424782 0.394537
O O9 0.045059 0.425091 0.521781
O O10 0.005825 0.481343 0.370832
O O11 0.250000 0.028573 0.627676
O O12 0.474690 0.089756 0.693850
O O13 0.750000 0.020964 0.059457
O O14 0.947555 0.973398 0.167292
O O15 0.000000 0.000000 0.000000
O O16 0.750000 0.664323 0.041642
O O17 0.574451 0.750000 0.099223
O O18 0.507525 0.640929 0.135755
O O19 0.250000 0.110106 0.796700
#
# Coordination Sequence:
#
# PCOD8239588 Si02
#       7
#     8   8   8   8   8   8   8
#     4  10  20  34  53  75  99 135 178 213 253 309
#     4  10  21  37  56  76 103 144 185 216 256 317
#     4  10  20  34  55  84 110 132 166 220 273 311
#     4   9  18  35  58  79 104 139 174 209 260 322
#     4  10  18  29  48  73 100 129 163 205 251 294
#     4  10  20  33  50  72  99 133 171 211 254 298
#     4   9  17  32  52  73 100 134 170 207 248 302
#
# _framework density 18.281369000000002
#
# number of rings (size 3 to 8) (size 9 to 14) (size 15 to 20)
#    0.000    2.286    1.429    1.714    0.000    4.571 
#    0.000    3.571    0.000    2.571    0.000    0.000 
#    0.000    0.000    0.000    0.000    0.000    0.000 
#
# Total GULP energy -694202.302422 kJ/mol
# GULP energy per Si atom -12396.469686 kJ/mol
# Density = 1.823976 g / cm^3
# Si number density = 18.281369 Si / 1000 Ang^3
#
#
#
# Elastic Constant Matrix: (Units=GPa)
#
#
# Indices 1 2 3 4 5 6 
#
# 1 50.7916 38.8789 38.8507 0.0000 0.0000 0.0000
# 2 38.8789 110.7425 48.6261 0.0000 0.0000 0.0000
# 3 38.8507 48.6261 107.2121 0.0000 0.0000 0.0000
# 4 0.0000 0.0000 0.0000 26.4414 0.0000 0.0000
# 5 0.0000 0.0000 0.0000 0.0000 26.3727 0.0000
# 6 0.0000 0.0000 0.0000 0.0000 0.0000 24.4677
#
#
#
# Elastic Compliance Matrix: (Units=1/GPa)
#
#
# Indices 1 2 3 4 5 6 
#
# 1 0.031628 -0.007581 -0.008023 0.000000 0.000000 0.000000
# 2 -0.007581 0.013093 -0.003191 0.000000 0.000000 0.000000
# 3 -0.008023 -0.003191 0.013682 0.000000 0.000000 0.000000
# 4 0.000000 0.000000 0.000000 0.037820 0.000000 0.000000
# 5 0.000000 0.000000 0.000000 0.000000 0.037918 0.000000
# 6 0.000000 0.000000 0.000000 0.000000 0.000000 0.040870
#
#
# Mechanical properties :
#
#
# Convention : Reuss Voigt Hill
#
# Bulk Modulus (GPa) = 48.04732 57.93974 52.99353
# Shear Modulus (GPa) = 22.77520 24.94906 23.86213
#
# Velocity S-wave (km/s) = 3.53344 3.69823 3.61677
# Velocity P-wave (km/s) = 6.55638 7.07092 6.81851
#
# Compressibility (1/GPa) = 0.02081281
#
# Stress axis : x y z
#
# Youngs Moduli (GPa) = 31.61765 76.37891 73.08992
#
# Poissons Ratio (x) = 0.57903 0.58638
# Poissons Ratio (y) = 0.23970 0.23323
# Poissons Ratio (z) = 0.25366 0.24372
#
# Static dielectric constant tensor:
#      x y z
#    x 3.208170 0.000000 0.000000 
#    y 0.000000 3.460720 0.000000 
#    z 0.000000 0.000000 3.375880 
# 
# 
# High freq. dielectric constant tensor:
#      x y z
#    x 1.686110 0.000000 0.000000 
#    y 0.000000 1.710890 0.000000 
#    z 0.000000 0.000000 1.711180 
# 
# From -- ./inp_files/21020.got.cif
#   From: 2010.03.12/outbox.cif.g09.slc.cpg/sg59_11_cif.got.tgz:21020.got - 2010.04.16 16:29:54.
