data_PCOD8239619
_publ_section_title
;
Structure prediction by ZEFSAII (Michael W. Deem and Ramdas Pophale) SiO2 
 PCOD8239619
Probable space group: P M M N
;
_chemical_formula_sum "Si O2"
_cell_formula_units_Z 64
_cell_length_a 8.644016
_cell_length_b 29.680488
_cell_length_c 14.638615
_cell_angle_alpha 90.000000
_cell_angle_beta 90.000000
_cell_angle_gamma 90.000000
_cell_volume 3755.662763
_symmetry_space_group_name_H-M "P M M N"
_symmetry_group_IT_number 59
_space_group.IT_coordinate_system_code '2'
_symmetry_cell_setting 'orthorhombic'
loop_
_space_group_symop_operation_xyz
x,y,z
1/2-x,1/2-y,z
1/2+x,-y,-z
-x,1/2+y,-z
-x,-y,-z
1/2+x,1/2+y,-z
1/2-x,y,z
x,1/2-y,z
loop_
_atom_site_type_symbol
_atom_site_label
_atom_site_fract_x
_atom_site_fract_y
_atom_site_fract_z
Si Si1 0.929493 0.384568 0.304178
Si Si2 0.066905 0.798975 0.797634
Si Si3 0.567308 0.199705 0.995772
Si Si4 0.070930 0.555356 0.870349
Si Si5 0.570100 0.038475 0.828984
Si Si6 0.072807 0.441773 0.444981
Si Si7 0.068908 0.391817 0.962371
Si Si8 0.573630 0.528206 0.362394
O O1 0.750000 0.379577 0.329305
O O2 0.001247 0.337794 0.266905
O O3 0.955853 0.423130 0.228746
O O4 0.025799 0.395385 0.395667
O O5 0.250000 0.804383 0.802121
O O6 0.019442 0.750000 0.757983
O O7 0.005366 0.803967 0.900492
O O8 0.750000 0.191901 0.989824
O O9 0.526030 0.250000 0.957662
O O10 0.482113 0.159780 0.940874
O O11 0.250000 0.544562 0.887285
O O12 0.977364 0.508830 0.874724
O O13 0.015978 0.589794 0.947578
O O14 0.750000 0.046130 0.846817
O O15 0.475502 0.078686 0.874931
O O16 0.537405 0.040215 0.721006
O O17 0.250000 0.454751 0.423965
O O18 0.047881 0.436560 0.554212
O O19 0.960292 0.479152 0.402963
O O20 0.250000 0.394161 0.979138
O O21 0.750000 0.528500 0.326747
#
# Coordination Sequence:
#
# PCOD8239619 Si02
#       8
#     8   8   8   8   8   8   8   8
#     4  10  18  29  50  74 101 134 169 207 247 294
#     4   8  14  27  48  72  97 128 165 203 244 289
#     4   9  17  33  55  75  99 132 171 213 255 300
#     4  11  21  35  51  72 103 138 176 211 248 297
#     4  12  24  37  53  72  98 134 176 217 258 304
#     4  10  20  32  50  73 100 131 164 201 246 300
#     4  12  24  36  51  73 104 139 173 212 255 306
#     4  10  20  35  51  71  98 129 165 208 252 295
#
# _framework density 17.040934
#
# number of rings (size 3 to 8) (size 9 to 14) (size 15 to 20)
#    0.000    1.750    2.500    4.500    0.000    2.250 
#    0.000    0.000    0.000    0.375    0.000    0.875 
#    0.000    3.000    0.000    0.000    0.000    0.000 
#
# Total GULP energy -793550.472481 kJ/mol
# GULP energy per Si atom -12399.226133 kJ/mol
# Density = 1.700215 g / cm^3
# Si number density = 17.040934 Si / 1000 Ang^3
#
#
#
# Elastic Constant Matrix: (Units=GPa)
#
#
# Indices 1 2 3 4 5 6 
#
# 1 49.0824 18.3963 18.3003 0.0000 0.0000 0.0000
# 2 18.3963 105.5445 24.0543 0.0000 0.0000 0.0000
# 3 18.3003 24.0543 53.2062 0.0000 0.0000 0.0000
# 4 0.0000 0.0000 0.0000 23.2580 0.0000 0.0000
# 5 0.0000 0.0000 0.0000 0.0000 24.4183 0.0000
# 6 0.0000 0.0000 0.0000 0.0000 0.0000 23.8756
#
#
#
# Elastic Compliance Matrix: (Units=1/GPa)
#
#
# Indices 1 2 3 4 5 6 
#
# 1 0.023978 -0.002564 -0.007088 0.000000 0.000000 0.000000
# 2 -0.002564 0.010837 -0.004018 0.000000 0.000000 0.000000
# 3 -0.007088 -0.004018 0.023049 0.000000 0.000000 0.000000
# 4 0.000000 0.000000 0.000000 0.042996 0.000000 0.000000
# 5 0.000000 0.000000 0.000000 0.000000 0.040953 0.000000
# 6 0.000000 0.000000 0.000000 0.000000 0.000000 0.041884
#
#
# Mechanical properties :
#
#
# Convention : Reuss Voigt Hill
#
# Bulk Modulus (GPa) = 32.76013 36.59277 34.67645
# Shear Modulus (GPa) = 22.60291 24.11586 23.35939
#
# Velocity S-wave (km/s) = 3.64591 3.76596 3.70642
# Velocity P-wave (km/s) = 6.08192 6.35846 6.22172
#
# Compressibility (1/GPa) = 0.03052491
#
# Stress axis : x y z
#
# Youngs Moduli (GPa) = 41.70556 92.27482 43.38569
#
# Poissons Ratio (x) = 0.23658 0.30752
# Poissons Ratio (y) = 0.10693 0.17431
# Poissons Ratio (z) = 0.29561 0.37072
#
# Static dielectric constant tensor:
#      x y z
#    x 3.069210 0.000000 0.000000 
#    y 0.000000 3.324990 0.000000 
#    z 0.000000 0.000000 3.154520 
# 
# 
# High freq. dielectric constant tensor:
#      x y z
#    x 1.655390 0.000000 0.000000 
#    y 0.000000 1.646760 0.000000 
#    z 0.000000 0.000000 1.634960 
# 
# From -- ./inp_files/21878.got.cif
#   From: 2010.03.12/outbox.cif.g09.slc.cpg/sg59_11_cif.got.tgz:21878.got - 2010.04.16 16:29:54.
