data_PCOD8239500
_publ_section_title
;
Structure prediction by ZEFSAII (Michael W. Deem and Ramdas Pophale) SiO2 
 PCOD8239500
Probable space group: P M M N
;
_chemical_formula_sum "Si O2"
_cell_formula_units_Z 56
_cell_length_a 24.232127
_cell_length_b 9.065393
_cell_length_c 16.257043
_cell_angle_alpha 90.000000
_cell_angle_beta 90.000000
_cell_angle_gamma 90.000000
_cell_volume 3571.245673
_symmetry_space_group_name_H-M "P M M N"
_symmetry_group_IT_number 59
_space_group.IT_coordinate_system_code '2'
_symmetry_cell_setting 'orthorhombic'
loop_
_space_group_symop_operation_xyz
x,y,z
1/2-x,1/2-y,z
1/2+x,-y,-z
-x,1/2+y,-z
-x,-y,-z
1/2+x,1/2+y,-z
1/2-x,y,z
x,1/2-y,z
loop_
_atom_site_type_symbol
_atom_site_label
_atom_site_fract_x
_atom_site_fract_y
_atom_site_fract_z
Si Si1 0.606708 0.925095 0.606199
Si Si2 0.996373 0.421498 0.304644
Si Si3 0.482489 0.576519 0.876464
Si Si4 0.554515 0.076956 0.467683
Si Si5 0.812786 0.578915 0.890205
Si Si6 0.314696 0.916974 0.276300
Si Si7 0.582987 0.578818 0.991417
O O1 0.608576 0.750000 0.596479
O O2 0.553602 0.982847 0.657679
O O3 0.605379 0.998240 0.514538
O O4 0.660600 0.983098 0.651723
O O5 0.006387 0.250000 0.289957
O O6 0.983152 0.492557 0.215769
O O7 0.945448 0.448380 0.368433
O O8 0.473017 0.750000 0.874745
O O9 0.540250 0.533524 0.919474
O O10 0.430866 0.508075 0.925333
O O11 0.553460 0.250000 0.488331
O O12 0.500000 0.000000 0.500000
O O13 0.750000 0.544019 0.918635
O O14 0.819355 0.750000 0.865507
O O15 0.830391 0.483620 0.811897
O O16 0.854808 0.538053 0.963591
O O17 0.250000 0.921693 0.289942
O O18 0.337318 0.750000 0.280776
O O19 0.577373 0.750000 0.011644
#
# Coordination Sequence:
#
# PCOD8239500 Si02
#       7
#     8   8   8   8   8   8   8
#     4  10  18  29  45  63  86 116 145 174 212 255
#     4   8  15  27  43  62  84 112 143 174 209 249
#     4   9  16  27  42  59  83 115 144 171 208 254
#     4   9  16  27  42  62  87 112 141 175 211 252
#     4   9  17  30  47  63  82 112 145 175 211 255
#     4  10  20  31  43  63  89 113 141 177 212 248
#     4   9  17  28  41  61  87 111 140 177 213 252
#
# _framework density 15.680802999999999
#
# number of rings (size 3 to 8) (size 9 to 14) (size 15 to 20)
#    0.000    2.857    0.000    3.000    0.000    3.714 
#    0.000    7.143    0.000    0.000    0.000    1.000 
#    0.000    5.714    0.000    0.000    0.000    0.000 
#
# Total GULP energy -694088.589422 kJ/mol
# GULP energy per Si atom -12394.439097 kJ/mol
# Density = 1.564511 g / cm^3
# Si number density = 15.680803 Si / 1000 Ang^3
#
#
#
# Elastic Constant Matrix: (Units=GPa)
#
#
# Indices 1 2 3 4 5 6 
#
# 1 53.8137 24.4063 36.4606 0.0000 0.0000 0.0000
# 2 24.4063 63.0562 38.5847 0.0000 0.0000 0.0000
# 3 36.4606 38.5847 111.9802 0.0000 0.0000 0.0000
# 4 0.0000 0.0000 0.0000 25.3441 0.0000 0.0000
# 5 0.0000 0.0000 0.0000 0.0000 27.4835 0.0000
# 6 0.0000 0.0000 0.0000 0.0000 0.0000 21.7748
#
#
#
# Elastic Compliance Matrix: (Units=1/GPa)
#
#
# Indices 1 2 3 4 5 6 
#
# 1 0.025560 -0.006083 -0.006226 0.000000 0.000000 0.000000
# 2 -0.006083 0.021544 -0.005443 0.000000 0.000000 0.000000
# 3 -0.006226 -0.005443 0.012833 0.000000 0.000000 0.000000
# 4 0.000000 0.000000 0.000000 0.039457 0.000000 0.000000
# 5 0.000000 0.000000 0.000000 0.000000 0.036386 0.000000
# 6 0.000000 0.000000 0.000000 0.000000 0.000000 0.045925
#
#
# Mechanical properties :
#
#
# Convention : Reuss Voigt Hill
#
# Bulk Modulus (GPa) = 40.92921 47.52815 44.22868
# Shear Modulus (GPa) = 22.18750 23.54704 22.86727
#
# Velocity S-wave (km/s) = 3.76566 3.87931 3.82291
# Velocity P-wave (km/s) = 6.71305 7.10218 6.91036
#
# Compressibility (1/GPa) = 0.02443243
#
# Stress axis : x y z
#
# Youngs Moduli (GPa) = 39.12343 46.41704 77.92565
#
# Poissons Ratio (x) = 0.28237 0.48518
# Poissons Ratio (y) = 0.23800 0.42412
# Poissons Ratio (z) = 0.24359 0.25263
#
# Static dielectric constant tensor:
#      x y z
#    x 2.719000 0.000000 0.000000 
#    y 0.000000 3.036090 0.000000 
#    z 0.000000 0.000000 3.097110 
# 
# 
# High freq. dielectric constant tensor:
#      x y z
#    x 1.571790 0.000000 0.000000 
#    y 0.000000 1.600380 0.000000 
#    z 0.000000 0.000000 1.595850 
# 
# From -- ./inp_files/28383.got.cif
#   From: 2010.03.12/outbox.cif.g09.slc.cpg/sg59_15_cif.got.tgz:28383.got - 2010.04.16 16:29:54.
