data_PCOD8239431
_publ_section_title
;
Structure prediction by ZEFSAII (Michael W. Deem and Ramdas Pophale) SiO2 
 PCOD8239431
Probable space group: P M M N
;
_chemical_formula_sum "Si O2"
_cell_formula_units_Z 64
_cell_length_a 21.547759
_cell_length_b 8.829555
_cell_length_c 19.238199
_cell_angle_alpha 90.000000
_cell_angle_beta 90.000000
_cell_angle_gamma 90.000000
_cell_volume 3660.204398
_symmetry_space_group_name_H-M "P M M N"
_symmetry_group_IT_number 59
_space_group.IT_coordinate_system_code '2'
_symmetry_cell_setting 'orthorhombic'
loop_
_space_group_symop_operation_xyz
x,y,z
1/2-x,1/2-y,z
1/2+x,-y,-z
-x,1/2+y,-z
-x,-y,-z
1/2+x,1/2+y,-z
1/2-x,y,z
x,1/2-y,z
loop_
_atom_site_type_symbol
_atom_site_label
_atom_site_fract_x
_atom_site_fract_y
_atom_site_fract_z
Si Si1 0.509818 0.428361 0.672859
Si Si2 0.679471 0.580305 0.213854
Si Si3 0.180236 0.425783 0.538720
Si Si4 0.881005 0.426643 0.337930
Si Si5 0.442897 0.428409 0.457121
Si Si6 0.996262 0.071836 0.830508
Si Si7 0.616826 0.072320 0.101029
Si Si8 0.941225 0.074880 0.966926
O O1 0.516880 0.250000 0.664422
O O2 0.442471 0.478292 0.645417
O O3 0.558630 0.510038 0.622017
O O4 0.521893 0.480567 0.752675
O O5 0.750000 0.578999 0.237522
O O6 0.652095 0.750000 0.220754
O O7 0.640565 0.465119 0.260513
O O8 0.673701 0.520137 0.134728
O O9 0.250000 0.459003 0.508807
O O10 0.174155 0.250000 0.558635
O O11 0.172312 0.523379 0.608617
O O12 0.125304 0.473282 0.486033
O O13 0.895535 0.250000 0.344300
O O14 0.500000 0.500000 0.500000
O O15 0.453039 0.250000 0.457818
O O16 0.012701 0.250000 0.830173
O O17 0.938095 0.037080 0.883992
O O18 0.055032 0.979444 0.857901
O O19 0.626526 0.250000 0.112161
O O20 0.616062 0.029706 0.017885
O O21 0.953007 0.250000 0.976828
O O22 0.000000 0.000000 0.000000
#
# Coordination Sequence:
#
# PCOD8239431 Si02
#       8
#     8   8   8   8   8   8   8   8
#     4  11  21  33  52  76 106 142 174 207 254 313
#     4  11  23  36  48  64  94 137 178 212 252 307
#     4  10  22  40  59  77 101 137 177 214 259 317
#     4  12  23  34  52  76 103 134 172 217 258 303
#     4  11  22  36  56  79 106 137 173 219 267 314
#     4   9  17  30  48  68  97 132 163 194 241 304
#     4  10  18  28  46  69  95 124 161 210 252 288
#     4   8  15  27  43  67  93 121 155 192 236 285
#
# _framework density 17.485361999999999
#
# number of rings (size 3 to 8) (size 9 to 14) (size 15 to 20)
#    0.000    1.750    2.500    3.000    0.000    4.250 
#    0.000    0.000    0.000    0.000    0.000    0.875 
#    0.000    5.000    0.000    0.000    0.000    0.000 
#
# Total GULP energy -792987.384273 kJ/mol
# GULP energy per Si atom -12390.427879 kJ/mol
# Density = 1.744556 g / cm^3
# Si number density = 17.485362 Si / 1000 Ang^3
#
#
#
# Elastic Constant Matrix: (Units=GPa)
#
#
# Indices 1 2 3 4 5 6 
#
# 1 73.5416 24.0247 45.0657 0.0000 0.0000 0.0000
# 2 24.0247 56.6052 32.5578 0.0000 0.0000 0.0000
# 3 45.0657 32.5578 112.4320 0.0000 0.0000 0.0000
# 4 0.0000 0.0000 0.0000 25.6829 0.0000 0.0000
# 5 0.0000 0.0000 0.0000 0.0000 24.8179 0.0000
# 6 0.0000 0.0000 0.0000 0.0000 0.0000 19.5291
#
#
#
# Elastic Compliance Matrix: (Units=1/GPa)
#
#
# Indices 1 2 3 4 5 6 
#
# 1 0.018895 -0.004395 -0.006301 0.000000 0.000000 0.000000
# 2 -0.004395 0.022219 -0.004672 0.000000 0.000000 0.000000
# 3 -0.006301 -0.004672 0.012773 0.000000 0.000000 0.000000
# 4 0.000000 0.000000 0.000000 0.038936 0.000000 0.000000
# 5 0.000000 0.000000 0.000000 0.000000 0.040294 0.000000
# 6 0.000000 0.000000 0.000000 0.000000 0.000000 0.051206
#
#
# Mechanical properties :
#
#
# Convention : Reuss Voigt Hill
#
# Bulk Modulus (GPa) = 43.19713 49.54167 46.36940
# Shear Modulus (GPa) = 22.44414 23.40137 22.92276
#
# Velocity S-wave (km/s) = 3.58662 3.66230 3.62466
# Velocity P-wave (km/s) = 6.47380 6.80279 6.64034
#
# Compressibility (1/GPa) = 0.02314969
#
# Stress axis : x y z
#
# Youngs Moduli (GPa) = 52.92509 45.00618 78.29171
#
# Poissons Ratio (x) = 0.19782 0.49329
# Poissons Ratio (y) = 0.23263 0.36581
# Poissons Ratio (z) = 0.33346 0.21029
#
# Static dielectric constant tensor:
#      x y z
#    x 3.149970 0.000000 0.000000 
#    y 0.000000 3.244010 0.000000 
#    z 0.000000 0.000000 3.781790 
# 
# 
# High freq. dielectric constant tensor:
#      x y z
#    x 1.632040 0.000000 0.000000 
#    y 0.000000 1.683830 0.000000 
#    z 0.000000 0.000000 1.682150 
# 
# From -- ./inp_files/30952.got.cif
#   From: 2010.03.12/outbox.cif.g09.slc.cpg/sg59_16_cif.got.tgz:30952.got - 2010.04.16 16:29:54.
