data_PCOD8239815
_publ_section_title
;
Structure prediction by ZEFSAII (Michael W. Deem and Ramdas Pophale) SiO2 
 PCOD8239815
Probable space group: P M M N
;
_chemical_formula_sum "Si O2"
_cell_formula_units_Z 48
_cell_length_a 8.485230
_cell_length_b 19.605664
_cell_length_c 15.371607
_cell_angle_alpha 90.000000
_cell_angle_beta 90.000000
_cell_angle_gamma 90.000000
_cell_volume 2557.198534
_symmetry_space_group_name_H-M "P M M N"
_symmetry_group_IT_number 59
_space_group.IT_coordinate_system_code '2'
_symmetry_cell_setting 'orthorhombic'
loop_
_space_group_symop_operation_xyz
x,y,z
1/2-x,1/2-y,z
1/2+x,-y,-z
-x,1/2+y,-z
-x,-y,-z
1/2+x,1/2+y,-z
1/2-x,y,z
x,1/2-y,z
loop_
_atom_site_type_symbol
_atom_site_label
_atom_site_fract_x
_atom_site_fract_y
_atom_site_fract_z
Si Si1 0.568463 0.750000 0.012279
Si Si2 0.428556 0.826565 0.867837
Si Si3 0.432110 0.110943 0.289339
Si Si4 0.429132 0.750000 0.197556
Si Si5 0.567703 0.250000 0.352443
Si Si6 0.567312 0.353854 0.654180
Si Si7 0.065410 0.007757 0.597771
Si Si8 0.928968 0.750000 0.470843
O O1 0.750000 0.750000 0.991406
O O2 0.496185 0.818046 0.966001
O O3 0.541041 0.750000 0.114525
O O4 0.250000 0.851560 0.873955
O O5 0.439407 0.750000 0.822610
O O6 0.521845 0.884403 0.813274
O O7 0.250000 0.091191 0.299914
O O8 0.469613 0.184813 0.324572
O O9 0.537230 0.059185 0.344794
O O10 0.250000 0.750000 0.164363
O O11 0.464240 0.818766 0.252313
O O12 0.750000 0.250000 0.321151
O O13 0.562086 0.250000 0.456309
O O14 0.750000 0.343632 0.629164
O O15 0.522043 0.433026 0.652172
O O16 0.455123 0.317854 0.584922
O O17 0.250000 0.022594 0.591405
O O18 0.000000 0.000000 0.500000
O O19 0.750000 0.750000 0.506691
#
# Coordination Sequence:
#
# PCOD8239815 Si02
#       8
#     4   8   8   4   4   8   8   4
#     4  10  18  30  54  88 119 145 180 226 274 331
#     4   9  18  33  53  79 112 143 177 220 272 327
#     4  12  23  36  55  80 110 145 186 231 280 332
#     4   9  19  36  61  87 114 147 180 225 281 334
#     4  12  22  34  50  74 105 139 182 228 278 329
#     4  10  21  39  58  80 109 143 186 232 280 331
#     4  12  25  41  58  79 111 152 195 236 282 334
#     4  11  21  34  53  77 104 137 178 229 281 328
#
# _framework density 18.770541000000001
#
# number of rings (size 3 to 8) (size 9 to 14) (size 15 to 20)
#    0.500    0.833    0.833    7.500    0.000    2.000 
#    0.000    0.000    0.000    1.000    0.000    0.000 
#    0.000    0.000    0.000    0.000    0.000    0.000 
#
# Total GULP energy -594995.214770 kJ/mol
# GULP energy per Si atom -12395.733641 kJ/mol
# Density = 1.872782 g / cm^3
# Si number density = 18.770541 Si / 1000 Ang^3
#
#
#
# Elastic Constant Matrix: (Units=GPa)
#
#
# Indices 1 2 3 4 5 6 
#
# 1 106.9310 14.3885 32.6655 0.0000 0.0000 0.0000
# 2 14.3885 90.1182 36.8329 0.0000 0.0000 0.0000
# 3 32.6655 36.8329 104.6081 0.0000 0.0000 0.0000
# 4 0.0000 0.0000 0.0000 20.7247 0.0000 0.0000
# 5 0.0000 0.0000 0.0000 0.0000 32.9435 0.0000
# 6 0.0000 0.0000 0.0000 0.0000 0.0000 36.9349
#
#
#
# Elastic Compliance Matrix: (Units=1/GPa)
#
#
# Indices 1 2 3 4 5 6 
#
# 1 0.010350 -0.000387 -0.003095 0.000000 0.000000 0.000000
# 2 -0.000387 0.012976 -0.004448 0.000000 0.000000 0.000000
# 3 -0.003095 -0.004448 0.012092 0.000000 0.000000 0.000000
# 4 0.000000 0.000000 0.000000 0.048251 0.000000 0.000000
# 5 0.000000 0.000000 0.000000 0.000000 0.030355 0.000000
# 6 0.000000 0.000000 0.000000 0.000000 0.000000 0.027075
#
#
# Mechanical properties :
#
#
# Convention : Reuss Voigt Hill
#
# Bulk Modulus (GPa) = 51.13370 52.15901 51.64635
# Shear Modulus (GPa) = 30.58481 32.63866 31.61174
#
# Velocity S-wave (km/s) = 4.04097 4.17444 4.10825
# Velocity P-wave (km/s) = 7.00522 7.14721 7.07658
#
# Compressibility (1/GPa) = 0.01955657
#
# Stress axis : x y z
#
# Youngs Moduli (GPa) = 96.62263 77.06306 82.69732
#
# Poissons Ratio (x) = 0.02984 0.25599
# Poissons Ratio (y) = 0.03742 0.36785
# Poissons Ratio (z) = 0.29909 0.34278
#
# Static dielectric constant tensor:
#      x y z
#    x 3.447450 0.000000 0.000000 
#    y 0.000000 3.193070 0.000000 
#    z 0.000000 0.000000 3.424440 
# 
# 
# High freq. dielectric constant tensor:
#      x y z
#    x 1.744820 0.000000 0.000000 
#    y 0.000000 1.704020 0.000000 
#    z 0.000000 0.000000 1.723130 
# 
# From -- ./inp_files/20652.got.cif
#   From: 2010.03.12/outbox.cif.g09.slc.cpg/sg59_11_cif.got.tgz:20652.got - 2010.04.16 16:29:54.
