data_PCOD8239600
_publ_section_title
;
Structure prediction by ZEFSAII (Michael W. Deem and Ramdas Pophale) SiO2 
 PCOD8239600
Probable space group: P M M N
;
_chemical_formula_sum "Si O2"
_cell_formula_units_Z 64
_cell_length_a 9.223325
_cell_length_b 18.149798
_cell_length_c 21.878761
_cell_angle_alpha 90.000000
_cell_angle_beta 90.000000
_cell_angle_gamma 90.000000
_cell_volume 3662.537095
_symmetry_space_group_name_H-M "P M M N"
_symmetry_group_IT_number 59
_space_group.IT_coordinate_system_code '2'
_symmetry_cell_setting 'orthorhombic'
loop_
_space_group_symop_operation_xyz
x,y,z
1/2-x,1/2-y,z
1/2+x,-y,-z
-x,1/2+y,-z
-x,-y,-z
1/2+x,1/2+y,-z
1/2-x,y,z
x,1/2-y,z
loop_
_atom_site_type_symbol
_atom_site_label
_atom_site_fract_x
_atom_site_fract_y
_atom_site_fract_z
Si Si1 0.422121 0.079248 0.608036
Si Si2 0.577728 0.169475 0.125997
Si Si3 0.922088 0.411614 0.381622
Si Si4 0.077868 0.903787 0.753616
Si Si5 0.921785 0.022496 0.061301
Si Si6 0.922959 0.832403 0.274935
Si Si7 0.417969 0.335372 0.489242
Si Si8 0.078245 0.451095 0.816168
O O1 0.250000 0.081671 0.611226
O O2 0.484328 0.123530 0.666441
O O3 0.478674 0.118297 0.546561
O O4 0.477113 0.995197 0.608138
O O5 0.750000 0.168957 0.125863
O O6 0.518525 0.250000 0.105088
O O7 0.523776 0.154956 0.195716
O O8 0.524875 0.104688 0.080692
O O9 0.750000 0.406675 0.388721
O O10 0.975477 0.384423 0.314582
O O11 0.993769 0.356967 0.429439
O O12 0.250000 0.907175 0.752958
O O13 0.017265 0.983918 0.772978
O O14 0.750000 0.020701 0.051168
O O15 0.971376 0.964204 0.113769
O O16 0.000000 0.000000 0.000000
O O17 0.750000 0.829576 0.277904
O O18 0.987891 0.750000 0.274186
O O19 0.974794 0.873555 0.212491
O O20 0.250000 0.353004 0.477567
O O21 0.442806 0.250000 0.504096
O O22 0.250000 0.455371 0.814816
#
# Coordination Sequence:
#
# PCOD8239600 Si02
#       8
#     8   8   8   8   8   8   8   8
#     4   9  16  28  45  65  88 116 152 190 227 270
#     4   8  14  25  43  67  91 116 151 190 222 256
#     4  10  18  29  49  72  90 112 147 192 235 272
#     4   8  13  23  41  65  89 110 137 184 235 266
#     4   9  17  29  47  68  92 123 154 183 217 261
#     4   9  14  21  39  66  92 117 147 186 231 273
#     4  10  21  34  44  59  90 127 156 184 222 271
#     4   8  13  24  40  62  90 115 142 180 224 265
#
# _framework density 17.474226999999999
#
# number of rings (size 3 to 8) (size 9 to 14) (size 15 to 20)
#    0.000    3.125    1.250    2.250    0.000    2.250 
#    0.000    1.875    0.000    4.125    0.000    0.000 
#    0.000    2.000    0.000    0.000    0.000    0.000 
#
# Total GULP energy -793035.956512 kJ/mol
# GULP energy per Si atom -12391.186820 kJ/mol
# Density = 1.743445 g / cm^3
# Si number density = 17.474227 Si / 1000 Ang^3
#
#
#
# Elastic Constant Matrix: (Units=GPa)
#
#
# Indices 1 2 3 4 5 6 
#
# 1 14.7078 14.3242 23.4408 0.0000 0.0000 0.0000
# 2 14.3242 89.3228 50.8076 0.0000 0.0000 0.0000
# 3 23.4408 50.8076 145.4441 0.0000 0.0000 0.0000
# 4 0.0000 0.0000 0.0000 25.6656 0.0000 0.0000
# 5 0.0000 0.0000 0.0000 0.0000 22.0086 0.0000
# 6 0.0000 0.0000 0.0000 0.0000 0.0000 12.6540
#
#
#
# Elastic Compliance Matrix: (Units=1/GPa)
#
#
# Indices 1 2 3 4 5 6 
#
# 1 0.096117 -0.008240 -0.012613 0.000000 0.000000 0.000000
# 2 -0.008240 0.014678 -0.003799 0.000000 0.000000 0.000000
# 3 -0.012613 -0.003799 0.010235 0.000000 0.000000 0.000000
# 4 0.000000 0.000000 0.000000 0.038963 0.000000 0.000000
# 5 0.000000 0.000000 0.000000 0.000000 0.045437 0.000000
# 6 0.000000 0.000000 0.000000 0.000000 0.000000 0.079026
#
#
# Mechanical properties :
#
#
# Convention : Reuss Voigt Hill
#
# Bulk Modulus (GPa) = 13.94169 47.40220 30.67195
# Shear Modulus (GPa) = 13.97941 22.79244 18.38592
#
# Velocity S-wave (km/s) = 2.83150 3.61549 3.24724
# Velocity P-wave (km/s) = 4.32268 6.67943 5.62585
#
# Compressibility (1/GPa) = 0.07172732
#
# Stress axis : x y z
#
# Youngs Moduli (GPa) = 10.40395 68.12995 97.69952
#
# Poissons Ratio (x) = 0.56136 1.23225
# Poissons Ratio (y) = 0.08572 0.37120
# Poissons Ratio (z) = 0.13122 0.25885
#
# Static dielectric constant tensor:
#      x y z
#    x 2.565200 0.000000 0.000000 
#    y 0.000000 3.559750 0.000000 
#    z 0.000000 0.000000 3.417160 
# 
# 
# High freq. dielectric constant tensor:
#      x y z
#    x 1.599320 0.000000 0.000000 
#    y 0.000000 1.680290 0.000000 
#    z 0.000000 0.000000 1.681880 
# 
# From -- ./inp_files/27974.got.cif
#   From: 2010.03.12/outbox.cif.g09.slc.cpg/sg59_14_cif.got.tgz:27974.got - 2010.04.16 16:29:54.
