data_PCOD8239324
_publ_section_title
;
Structure prediction by ZEFSAII (Michael W. Deem and Ramdas Pophale) SiO2 
 PCOD8239324
Probable space group: P M M N
;
_chemical_formula_sum "Si O2"
_cell_formula_units_Z 64
_cell_length_a 9.177837
_cell_length_b 27.911956
_cell_length_c 14.616566
_cell_angle_alpha 90.000000
_cell_angle_beta 90.000000
_cell_angle_gamma 90.000000
_cell_volume 3744.345920
_symmetry_space_group_name_H-M "P M M N"
_symmetry_group_IT_number 59
_space_group.IT_coordinate_system_code '2'
_symmetry_cell_setting 'orthorhombic'
loop_
_space_group_symop_operation_xyz
x,y,z
1/2-x,1/2-y,z
1/2+x,-y,-z
-x,1/2+y,-z
-x,-y,-z
1/2+x,1/2+y,-z
1/2-x,y,z
x,1/2-y,z
loop_
_atom_site_type_symbol
_atom_site_label
_atom_site_fract_x
_atom_site_fract_y
_atom_site_fract_z
Si Si1 0.080338 0.070798 0.151686
Si Si2 0.076352 0.197211 0.845022
Si Si3 0.077415 0.472817 0.840355
Si Si4 0.079312 0.883108 0.477735
Si Si5 0.918184 0.694220 0.361248
Si Si6 0.078918 0.112845 0.966601
Si Si7 0.417486 0.422634 0.357548
Si Si8 0.919156 0.467737 0.657224
O O1 0.250000 0.056397 0.144056
O O2 0.047154 0.091578 0.252300
O O3 0.037790 0.110051 0.074344
O O4 0.987975 0.023640 0.131882
O O5 0.250000 0.198467 0.847889
O O6 0.015444 0.250000 0.869943
O O7 0.028765 0.182896 0.742151
O O8 0.008615 0.159560 0.917923
O O9 0.250000 0.477223 0.832896
O O10 0.025686 0.435378 0.917152
O O11 0.016108 0.453945 0.744116
O O12 0.250000 0.875383 0.485401
O O13 0.038563 0.931142 0.422525
O O14 0.013269 0.836370 0.430992
O O15 0.015692 0.888951 0.579368
O O16 0.750000 0.679867 0.373554
O O17 0.941838 0.750000 0.383758
O O18 0.250000 0.117547 0.953420
O O19 0.250000 0.412459 0.381359
O O20 0.455994 0.478374 0.374773
O O21 0.750000 0.463976 0.685104
#
# Coordination Sequence:
#
# PCOD8239324 Si02
#       8
#     8   8   8   8   8   8   8   8
#     4   9  18  32  46  62  92 128 156 189 232 272
#     4   8  14  26  46  72  97 118 145 183 224 268
#     4  10  18  27  44  69  94 122 157 193 226 269
#     4  11  21  31  48  72  95 121 156 197 238 279
#     4   9  18  33  52  73  98 126 153 184 227 280
#     4   9  16  26  43  67  93 122 154 187 227 272
#     4   9  18  32  47  62  88 128 165 194 228 273
#     4   9  19  33  46  66  97 128 155 188 235 284
#
# _framework density 17.092438000000001
#
# number of rings (size 3 to 8) (size 9 to 14) (size 15 to 20)
#    0.000    2.750    0.000    3.750    0.000    4.250 
#    0.000    0.625    0.000    1.500    0.000    3.500 
#    0.000    0.000    0.000    0.000    0.000    0.000 
#
# Total GULP energy -793440.111085 kJ/mol
# GULP energy per Si atom -12397.501736 kJ/mol
# Density = 1.705354 g / cm^3
# Si number density = 17.092438 Si / 1000 Ang^3
#
#
#
# Elastic Constant Matrix: (Units=GPa)
#
#
# Indices 1 2 3 4 5 6 
#
# 1 51.7110 36.7500 47.1713 0.0000 0.0000 0.0000
# 2 36.7500 87.1292 75.4552 0.0000 0.0000 0.0000
# 3 47.1713 75.4552 137.2139 0.0000 0.0000 0.0000
# 4 0.0000 0.0000 0.0000 29.1890 0.0000 0.0000
# 5 0.0000 0.0000 0.0000 0.0000 19.2211 0.0000
# 6 0.0000 0.0000 0.0000 0.0000 0.0000 21.2150
#
#
#
# Elastic Compliance Matrix: (Units=1/GPa)
#
#
# Indices 1 2 3 4 5 6 
#
# 1 0.030364 -0.007193 -0.006483 0.000000 0.000000 0.000000
# 2 -0.007193 0.023616 -0.010514 0.000000 0.000000 0.000000
# 3 -0.006483 -0.010514 0.015299 0.000000 0.000000 0.000000
# 4 0.000000 0.000000 0.000000 0.034259 0.000000 0.000000
# 5 0.000000 0.000000 0.000000 0.000000 0.052026 0.000000
# 6 0.000000 0.000000 0.000000 0.000000 0.000000 0.047136
#
#
# Mechanical properties :
#
#
# Convention : Reuss Voigt Hill
#
# Bulk Modulus (GPa) = 47.84949 66.08968 56.96958
# Shear Modulus (GPa) = 19.37630 21.70354 20.53992
#
# Velocity S-wave (km/s) = 3.37058 3.56726 3.47031
# Velocity P-wave (km/s) = 6.57290 7.46439 7.03278
#
# Compressibility (1/GPa) = 0.02089887
#
# Stress axis : x y z
#
# Youngs Moduli (GPa) = 32.93381 42.34344 65.36564
#
# Poissons Ratio (x) = 0.30456 0.42378
# Poissons Ratio (y) = 0.23688 0.68727
# Poissons Ratio (z) = 0.21352 0.44521
#
# Static dielectric constant tensor:
#      x y z
#    x 2.948870 0.000000 0.000000 
#    y 0.000000 3.180190 0.000000 
#    z 0.000000 0.000000 3.290420 
# 
# 
# High freq. dielectric constant tensor:
#      x y z
#    x 1.636940 0.000000 0.000000 
#    y 0.000000 1.641780 0.000000 
#    z 0.000000 0.000000 1.661990 
# 
# From -- ./inp_files/21924.got.cif
#   From: 2010.03.12/outbox.cif.g09.slc.cpg/sg59_11_cif.got.tgz:21924.got - 2010.04.16 16:29:54.
