data_PCOD8239979
_publ_section_title
;
Structure prediction by ZEFSAII (Michael W. Deem and Ramdas Pophale) SiO2 
 PCOD8239979
Probable space group: P M M N
;
_chemical_formula_sum "Si O2"
_cell_formula_units_Z 64
_cell_length_a 23.136259
_cell_length_b 8.997780
_cell_length_c 19.046611
_cell_angle_alpha 90.000000
_cell_angle_beta 90.000000
_cell_angle_gamma 90.000000
_cell_volume 3965.027645
_symmetry_space_group_name_H-M "P M M N"
_symmetry_group_IT_number 59
_space_group.IT_coordinate_system_code '2'
_symmetry_cell_setting 'orthorhombic'
loop_
_space_group_symop_operation_xyz
x,y,z
1/2-x,1/2-y,z
1/2+x,-y,-z
-x,1/2+y,-z
-x,-y,-z
1/2+x,1/2+y,-z
1/2-x,y,z
x,1/2-y,z
loop_
_atom_site_type_symbol
_atom_site_label
_atom_site_fract_x
_atom_site_fract_y
_atom_site_fract_z
Si Si1 0.489222 0.919813 0.900238
Si Si2 0.590485 0.077337 0.976402
Si Si3 0.317080 0.423204 0.106100
Si Si4 0.815811 0.578438 0.622243
Si Si5 0.028803 0.577554 0.598930
Si Si6 0.987115 0.578817 0.746032
Si Si7 0.413623 0.076481 0.480813
Si Si8 0.865376 0.073894 0.755230
O O1 0.508785 0.750000 0.915549
O O2 0.476715 0.943843 0.817771
O O3 0.540730 0.028621 0.922161
O O4 0.431084 0.955587 0.944125
O O5 0.603636 0.250000 0.964112
O O6 0.648432 0.983855 0.961857
O O7 0.250000 0.454385 0.092716
O O8 0.330029 0.250000 0.116740
O O9 0.338654 0.509122 0.174123
O O10 0.750000 0.558675 0.597979
O O11 0.830273 0.750000 0.640414
O O12 0.855469 0.521972 0.557861
O O13 0.826557 0.481117 0.690939
O O14 0.039052 0.750000 0.587451
O O15 0.080751 0.496394 0.557893
O O16 0.028902 0.534160 0.681372
O O17 0.967085 0.526634 0.567857
O O18 0.966915 0.750000 0.737056
O O19 0.930872 0.477376 0.745373
O O20 0.412275 0.250000 0.493252
O O21 0.863168 0.250000 0.759262
#
# Coordination Sequence:
#
# PCOD8239979 Si02
#       8
#     8   8   8   8   8   8   8   8
#     4   9  18  31  50  71  97 129 157 192 241 293
#     4  10  19  31  48  74  98 121 159 204 244 279
#     4  11  23  37  51  66  91 133 173 199 235 287
#     4  10  20  35  52  67  90 129 168 196 230 283
#     4   9  17  29  47  68  92 123 157 193 234 278
#     4  10  18  32  51  70  96 131 164 189 228 289
#     4   9  17  30  46  68  93 120 157 197 236 277
#     4  12  23  32  46  71 100 127 161 201 238 273
#
# _framework density 16.141123
#
# number of rings (size 3 to 8) (size 9 to 14) (size 15 to 20)
#    0.000    2.000    2.500    2.250    0.000    4.250 
#    0.000    0.000    0.000    0.000    0.000    0.875 
#    0.000    5.000    0.000    0.000    0.000    0.000 
#
# Total GULP energy -793594.930219 kJ/mol
# GULP energy per Si atom -12399.920785 kJ/mol
# Density = 1.610438 g / cm^3
# Si number density = 16.141123 Si / 1000 Ang^3
#
#
#
# Elastic Constant Matrix: (Units=GPa)
#
#
# Indices 1 2 3 4 5 6 
#
# 1 79.7717 36.8784 50.8309 0.0000 0.0000 0.0000
# 2 36.8784 71.1181 36.1121 0.0000 0.0000 0.0000
# 3 50.8309 36.1121 114.7290 0.0000 0.0000 0.0000
# 4 0.0000 0.0000 0.0000 25.0701 0.0000 0.0000
# 5 0.0000 0.0000 0.0000 0.0000 20.1200 0.0000
# 6 0.0000 0.0000 0.0000 0.0000 0.0000 21.8897
#
#
#
# Elastic Compliance Matrix: (Units=1/GPa)
#
#
# Indices 1 2 3 4 5 6 
#
# 1 0.020018 -0.006995 -0.006667 0.000000 0.000000 0.000000
# 2 -0.006995 0.019180 -0.002938 0.000000 0.000000 0.000000
# 3 -0.006667 -0.002938 0.012595 0.000000 0.000000 0.000000
# 4 0.000000 0.000000 0.000000 0.039888 0.000000 0.000000
# 5 0.000000 0.000000 0.000000 0.000000 0.049702 0.000000
# 6 0.000000 0.000000 0.000000 0.000000 0.000000 0.045684
#
#
# Mechanical properties :
#
#
# Convention : Reuss Voigt Hill
#
# Bulk Modulus (GPa) = 53.78474 57.02908 55.40691
# Shear Modulus (GPa) = 22.07851 22.86911 22.47381
#
# Velocity S-wave (km/s) = 3.70245 3.76815 3.73545
# Velocity P-wave (km/s) = 7.18828 7.37158 7.28051
#
# Compressibility (1/GPa) = 0.01859264
#
# Stress axis : x y z
#
# Youngs Moduli (GPa) = 49.95529 52.13716 79.39701
#
# Poissons Ratio (x) = 0.36469 0.52936
# Poissons Ratio (y) = 0.34943 0.23327
# Poissons Ratio (z) = 0.33307 0.15318
#
# Static dielectric constant tensor:
#      x y z
#    x 2.962260 0.000000 0.000000 
#    y 0.000000 3.106840 0.000000 
#    z 0.000000 0.000000 3.243840 
# 
# 
# High freq. dielectric constant tensor:
#      x y z
#    x 1.590330 0.000000 0.000000 
#    y 0.000000 1.624690 0.000000 
#    z 0.000000 0.000000 1.617960 
# 
# From -- ./inp_files/28162.got.cif
#   From: 2010.03.12/outbox.cif.g09.slc.cpg/sg59_15_cif.got.tgz:28162.got - 2010.04.16 16:29:54.
