data_PCOD8239131
_publ_section_title
;
Structure prediction by ZEFSAII (Michael W. Deem and Ramdas Pophale) SiO2 
 PCOD8239131
Probable space group: P M M N
;
_chemical_formula_sum "Si O2"
_cell_formula_units_Z 64
_cell_length_a 19.796990
_cell_length_b 13.762686
_cell_length_c 15.511659
_cell_angle_alpha 90.000000
_cell_angle_beta 90.000000
_cell_angle_gamma 90.000000
_cell_volume 4226.302844
_symmetry_space_group_name_H-M "P M M N"
_symmetry_group_IT_number 59
_space_group.IT_coordinate_system_code '2'
_symmetry_cell_setting 'orthorhombic'
loop_
_space_group_symop_operation_xyz
x,y,z
1/2-x,1/2-y,z
1/2+x,-y,-z
-x,1/2+y,-z
-x,-y,-z
1/2+x,1/2+y,-z
1/2-x,y,z
x,1/2-y,z
loop_
_atom_site_type_symbol
_atom_site_label
_atom_site_fract_x
_atom_site_fract_y
_atom_site_fract_z
Si Si1 0.419489 0.365460 0.268913
Si Si2 0.830373 0.979066 0.236674
Si Si3 0.674650 0.634385 0.884697
Si Si4 0.548096 0.139891 0.484238
Si Si5 0.572123 0.360045 0.287319
Si Si6 0.829938 0.642546 0.074094
Si Si7 0.170808 0.142031 0.599456
Si Si8 0.595193 0.553447 0.551453
O O1 0.413820 0.250000 0.282410
O O2 0.378430 0.403446 0.186013
O O3 0.497573 0.397168 0.259507
O O4 0.385824 0.417697 0.351359
O O5 0.750000 0.997515 0.238824
O O6 0.855423 0.928270 0.148945
O O7 0.856406 0.914161 0.316525
O O8 0.869328 0.080736 0.240003
O O9 0.750000 0.594174 0.863784
O O10 0.677073 0.750000 0.884812
O O11 0.650147 0.599935 0.979782
O O12 0.556962 0.250000 0.519565
O O13 0.580753 0.130431 0.389917
O O14 0.469471 0.113984 0.480111
O O15 0.584534 0.063217 0.547426
O O16 0.581678 0.250000 0.256684
O O17 0.750000 0.652185 0.079108
O O18 0.861653 0.750000 0.088116
O O19 0.250000 0.150929 0.607908
O O20 0.138522 0.250000 0.597466
O O21 0.155008 0.083378 0.512521
#
# Coordination Sequence:
#
# PCOD8239131 Si02
#       8
#     8   8   8   8   8   8   8   8
#     4   9  17  28  43  64  89 114 140 174 217 258
#     4  10  18  28  42  61  83 112 147 178 212 252
#     4   8  14  26  45  67  87 109 137 168 208 261
#     4   9  17  29  45  61  80 111 150 185 208 242
#     4   9  17  30  43  58  83 113 147 184 217 246
#     4   8  14  26  44  64  86 110 136 168 208 260
#     4  10  19  28  39  61  92 116 135 167 217 268
#     4  10  17  28  44  62  85 113 144 173 210 259
#
# _framework density 15.14326
#
# number of rings (size 3 to 8) (size 9 to 14) (size 15 to 20)
#    0.000    2.875    1.250    3.000    0.000    2.250 
#    0.000    1.875    0.000    0.375    0.000    0.875 
#    0.000    1.000    0.000    0.000    0.000    0.000 
#
# Total GULP energy -793335.960019 kJ/mol
# GULP energy per Si atom -12395.874375 kJ/mol
# Density = 1.510879 g / cm^3
# Si number density = 15.143260 Si / 1000 Ang^3
#
#
#
# Elastic Constant Matrix: (Units=GPa)
#
#
# Indices 1 2 3 4 5 6 
#
# 1 37.8664 25.7219 35.6306 0.0000 0.0000 0.0000
# 2 25.7219 79.2741 43.1317 0.0000 0.0000 0.0000
# 3 35.6306 43.1317 106.9407 0.0000 0.0000 0.0000
# 4 0.0000 0.0000 0.0000 17.3394 0.0000 0.0000
# 5 0.0000 0.0000 0.0000 0.0000 20.0442 0.0000
# 6 0.0000 0.0000 0.0000 0.0000 0.0000 18.2977
#
#
#
# Elastic Compliance Matrix: (Units=1/GPa)
#
#
# Indices 1 2 3 4 5 6 
#
# 1 0.041819 -0.007671 -0.010839 0.000000 0.000000 0.000000
# 2 -0.007671 0.017568 -0.004530 0.000000 0.000000 0.000000
# 3 -0.010839 -0.004530 0.014789 0.000000 0.000000 0.000000
# 4 0.000000 0.000000 0.000000 0.057672 0.000000 0.000000
# 5 0.000000 0.000000 0.000000 0.000000 0.049890 0.000000
# 6 0.000000 0.000000 0.000000 0.000000 0.000000 0.054652
#
#
# Mechanical properties :
#
#
# Convention : Reuss Voigt Hill
#
# Bulk Modulus (GPa) = 35.59261 48.11662 41.85461
# Shear Modulus (GPa) = 17.13293 19.10939 18.12116
#
# Velocity S-wave (km/s) = 3.36726 3.55619 3.46301
# Velocity P-wave (km/s) = 6.21875 6.97891 6.60977
#
# Compressibility (1/GPa) = 0.02809572
#
# Stress axis : x y z
#
# Youngs Moduli (GPa) = 23.91264 56.92132 67.61648
#
# Poissons Ratio (x) = 0.43667 0.73291
# Poissons Ratio (y) = 0.18345 0.30628
# Poissons Ratio (z) = 0.25919 0.25783
#
# Static dielectric constant tensor:
#      x y z
#    x 2.712100 0.000000 0.000000 
#    y 0.000000 2.876760 0.000000 
#    z 0.000000 0.000000 3.080750 
# 
# 
# High freq. dielectric constant tensor:
#      x y z
#    x 1.555300 0.000000 0.000000 
#    y 0.000000 1.562090 0.000000 
#    z 0.000000 0.000000 1.574690 
# 
# From -- ./inp_files/24023.got.cif
#   From: 2010.03.12/outbox.cif.g09.slc.cpg/sg59_13_cif.got.tgz:24023.got - 2010.04.16 16:29:54.
