data_PCOD8239019
_publ_section_title
;
Structure prediction by ZEFSAII (Michael W. Deem and Ramdas Pophale) SiO2 
 PCOD8239019
Probable space group: P M M N
;
_chemical_formula_sum "Si O2"
_cell_formula_units_Z 40
_cell_length_a 9.030331
_cell_length_b 26.245189
_cell_length_c 9.256575
_cell_angle_alpha 90.000000
_cell_angle_beta 90.000000
_cell_angle_gamma 90.000000
_cell_volume 2193.833673
_symmetry_space_group_name_H-M "P M M N"
_symmetry_group_IT_number 59
_space_group.IT_coordinate_system_code '2'
_symmetry_cell_setting 'orthorhombic'
loop_
_space_group_symop_operation_xyz
x,y,z
1/2-x,1/2-y,z
1/2+x,-y,-z
-x,1/2+y,-z
-x,-y,-z
1/2+x,1/2+y,-z
1/2-x,y,z
x,1/2-y,z
loop_
_atom_site_type_symbol
_atom_site_label
_atom_site_fract_x
_atom_site_fract_y
_atom_site_fract_z
Si Si1 0.413174 0.641867 0.420492
Si Si2 0.581715 0.351192 0.923365
Si Si3 0.925608 0.750000 0.088789
Si Si4 0.077763 0.750000 0.388167
Si Si5 0.076551 0.453358 0.921463
Si Si6 0.919749 0.955584 0.416965
O O1 0.250000 0.623702 0.468533
O O2 0.420501 0.648925 0.248957
O O3 0.449014 0.698610 0.483733
O O4 0.526921 0.599464 0.476011
O O5 0.750000 0.351873 0.982355
O O6 0.497659 0.300791 0.982246
O O7 0.496167 0.401252 0.980189
O O8 0.750000 0.750000 0.063689
O O9 0.960868 0.750000 0.258416
O O10 0.250000 0.750000 0.330345
O O11 0.250000 0.452323 0.956897
O O12 0.046251 0.460111 0.751890
O O13 0.000000 0.500000 0.000000
O O14 0.750000 0.960292 0.454966
O O15 0.000000 0.000000 0.500000
#
# Coordination Sequence:
#
# PCOD8239019 Si02
#       6
#     8   8   4   4   8   8
#     4   8  14  25  41  61  87 117 149 185 227 273
#     4   9  16  27  42  61  88 121 153 188 231 278
#     4  10  16  22  36  60  89 118 149 188 231 276
#     4   8  14  24  38  58  85 118 149 180 227 280
#     4  10  20  33  49  71  96 124 158 195 235 282
#     4  10  20  32  47  68  94 124 159 194 231 275
#
# _framework density 18.232921999999999
#
# number of rings (size 3 to 8) (size 9 to 14) (size 15 to 20)
#    0.000    2.800    0.000    3.900    0.000    7.200 
#    0.000    0.000    0.000    0.000    0.000    1.400 
#    0.000    9.600    0.000    0.000    0.000    0.000 
#
# Total GULP energy -495732.906136 kJ/mol
# GULP energy per Si atom -12393.322653 kJ/mol
# Density = 1.819142 g / cm^3
# Si number density = 18.232922 Si / 1000 Ang^3
#
#
#
# Elastic Constant Matrix: (Units=GPa)
#
#
# Indices 1 2 3 4 5 6 
#
# 1 149.9290 103.9650 29.3534 0.0000 0.0000 0.0000
# 2 103.9650 216.5120 30.2145 0.0000 0.0000 0.0000
# 3 29.3534 30.2145 12.2093 0.0000 0.0000 0.0000
# 4 0.0000 0.0000 0.0000 21.1391 0.0000 0.0000
# 5 0.0000 0.0000 0.0000 0.0000 16.2913 0.0000
# 6 0.0000 0.0000 0.0000 0.0000 0.0000 42.4911
#
#
#
# Elastic Compliance Matrix: (Units=1/GPa)
#
#
# Indices 1 2 3 4 5 6 
#
# 1 0.013805 -0.003051 -0.025640 0.000000 0.000000 0.000000
# 2 -0.003051 0.007729 -0.011793 0.000000 0.000000 0.000000
# 3 -0.025640 -0.011793 0.172733 0.000000 0.000000 0.000000
# 4 0.000000 0.000000 0.000000 0.047306 0.000000 0.000000
# 5 0.000000 0.000000 0.000000 0.000000 0.061383 0.000000
# 6 0.000000 0.000000 0.000000 0.000000 0.000000 0.023534
#
#
# Mechanical properties :
#
#
# Convention : Reuss Voigt Hill
#
# Bulk Modulus (GPa) = 8.82622 78.41290 43.61956
# Shear Modulus (GPa) = 11.23029 30.32546 20.77788
#
# Velocity S-wave (km/s) = 2.48450 4.08269 3.37943
# Velocity P-wave (km/s) = 3.61685 8.08233 6.26122
#
# Compressibility (1/GPa) = 0.11329874
#
# Stress axis : x y z
#
# Youngs Moduli (GPa) = 72.43570 129.37604 5.78930
#
# Poissons Ratio (x) = 0.39472 0.14844
# Poissons Ratio (y) = 0.22100 0.06827
# Poissons Ratio (z) = 1.85728 1.52573
#
# Static dielectric constant tensor:
#      x y z
#    x 3.510860 0.000000 0.000000 
#    y 0.000000 3.922840 0.000000 
#    z 0.000000 0.000000 2.650410 
# 
# 
# High freq. dielectric constant tensor:
#      x y z
#    x 1.717800 0.000000 0.000000 
#    y 0.000000 1.738590 0.000000 
#    z 0.000000 0.000000 1.617760 
# 
# From -- ./inp_files/5951.got.cif
#   From: 2010.03.12/outbox.cif.g09.slc.cpg/sg59_3_cif.got.tgz:5951.got - 2010.04.16 16:29:54.
