data_PCOD8239905
_publ_section_title
;
Structure prediction by ZEFSAII (Michael W. Deem and Ramdas Pophale) SiO2 
 PCOD8239905
Probable space group: P M M N
;
_chemical_formula_sum "Si O2"
_cell_formula_units_Z 56
_cell_length_a 8.588483
_cell_length_b 23.135536
_cell_length_c 15.360401
_cell_angle_alpha 90.000000
_cell_angle_beta 90.000000
_cell_angle_gamma 90.000000
_cell_volume 3052.098740
_symmetry_space_group_name_H-M "P M M N"
_symmetry_group_IT_number 59
_space_group.IT_coordinate_system_code '2'
_symmetry_cell_setting 'orthorhombic'
loop_
_space_group_symop_operation_xyz
x,y,z
1/2-x,1/2-y,z
1/2+x,-y,-z
-x,1/2+y,-z
-x,-y,-z
1/2+x,1/2+y,-z
1/2-x,y,z
x,1/2-y,z
loop_
_atom_site_type_symbol
_atom_site_label
_atom_site_fract_x
_atom_site_fract_y
_atom_site_fract_z
Si Si1 0.934593 0.553244 0.686729
Si Si2 0.934257 0.937570 0.018009
Si Si3 0.934821 0.250000 0.915769
Si Si4 0.066662 0.426030 0.666653
Si Si5 0.932900 0.868824 0.846711
Si Si6 0.566140 0.367305 0.828271
Si Si7 0.933387 0.250000 0.111708
Si Si8 0.934618 0.063891 0.490227
O O1 0.750000 0.549178 0.682189
O O2 0.992742 0.589105 0.770257
O O3 0.999637 0.488435 0.693526
O O4 0.998774 0.587404 0.601463
O O5 0.750000 0.939413 0.032271
O O6 0.982046 0.895896 0.938850
O O7 0.019622 0.916844 0.104484
O O8 0.000000 0.000000 0.000000
O O9 0.750000 0.250000 0.921030
O O10 0.995047 0.193907 0.864444
O O11 0.004449 0.250000 0.013604
O O12 0.250000 0.431623 0.658416
O O13 0.019590 0.378574 0.737526
O O14 0.997360 0.402137 0.574913
O O15 0.750000 0.860651 0.839615
O O16 0.011035 0.806382 0.836251
O O17 0.750000 0.368007 0.813278
O O18 0.750000 0.250000 0.107353
O O19 0.750000 0.064800 0.488425
O O20 0.000000 0.000000 0.500000
#
# Coordination Sequence:
#
# PCOD8239905 Si02
#       8
#     8   8   4   8   8   8   4   8
#     4  10  19  34  55  81 112 147 181 220 271 322
#     4  11  22  35  52  78 109 144 178 217 267 322
#     4   9  20  37  57  78 101 138 183 227 272 316
#     4  11  21  34  53  82 113 144 181 220 269 326
#     4  10  22  37  54  77 108 143 179 222 271 318
#     4  11  21  37  56  77 107 141 180 226 272 321
#     4  11  21  37  59  80 101 138 187 229 268 316
#     4  10  18  31  52  79 110 145 179 219 268 320
#
# _framework density 18.348030999999999
#
# number of rings (size 3 to 8) (size 9 to 14) (size 15 to 20)
#    0.000    1.571    1.429    6.643    0.000    2.857 
#    0.000    1.429    0.000    0.857    0.000    4.000 
#    0.000    0.000    0.000    0.000    0.000    0.000 
#
# Total GULP energy -694482.046551 kJ/mol
# GULP energy per Si atom -12401.465117 kJ/mol
# Density = 1.830627 g / cm^3
# Si number density = 18.348031 Si / 1000 Ang^3
#
#
#
# Elastic Constant Matrix: (Units=GPa)
#
#
# Indices 1 2 3 4 5 6 
#
# 1 88.0951 18.4854 30.9093 0.0000 0.0000 0.0000
# 2 18.4854 70.8705 10.7537 0.0000 0.0000 0.0000
# 3 30.9093 10.7537 101.8809 0.0000 0.0000 0.0000
# 4 0.0000 0.0000 0.0000 17.7198 0.0000 0.0000
# 5 0.0000 0.0000 0.0000 0.0000 32.5851 0.0000
# 6 0.0000 0.0000 0.0000 0.0000 0.0000 24.8441
#
#
#
# Elastic Compliance Matrix: (Units=1/GPa)
#
#
# Indices 1 2 3 4 5 6 
#
# 1 0.013264 -0.002895 -0.003718 0.000000 0.000000 0.000000
# 2 -0.002895 0.014972 -0.000702 0.000000 0.000000 0.000000
# 3 -0.003718 -0.000702 0.011018 0.000000 0.000000 0.000000
# 4 0.000000 0.000000 0.000000 0.056434 0.000000 0.000000
# 5 0.000000 0.000000 0.000000 0.000000 0.030689 0.000000
# 6 0.000000 0.000000 0.000000 0.000000 0.000000 0.040251
#
#
# Mechanical properties :
#
#
# Convention : Reuss Voigt Hill
#
# Bulk Modulus (GPa) = 40.61440 42.34925 41.48183
# Shear Modulus (GPa) = 26.39002 28.40967 27.39984
#
# Velocity S-wave (km/s) = 3.79661 3.93921 3.86857
# Velocity P-wave (km/s) = 6.43449 6.61975 6.52777
#
# Compressibility (1/GPa) = 0.02462181
#
# Stress axis : x y z
#
# Youngs Moduli (GPa) = 75.39461 66.79155 90.76416
#
# Poissons Ratio (x) = 0.19339 0.33749
# Poissons Ratio (y) = 0.21829 0.06371
# Poissons Ratio (z) = 0.28034 0.04688
#
# Static dielectric constant tensor:
#      x y z
#    x 3.374900 0.000000 0.000000 
#    y 0.000000 3.254190 0.000000 
#    z 0.000000 0.000000 4.024950 
# 
# 
# High freq. dielectric constant tensor:
#      x y z
#    x 1.719760 0.000000 0.000000 
#    y 0.000000 1.683170 0.000000 
#    z 0.000000 0.000000 1.724080 
# 
# From -- ./inp_files/21164.got.cif
#   From: 2010.03.12/outbox.cif.g09.slc.cpg/sg59_11_cif.got.tgz:21164.got - 2010.04.16 16:29:54.
