data_PCOD8239360
_publ_section_title
;
Structure prediction by ZEFSAII (Michael W. Deem and Ramdas Pophale) SiO2 
 PCOD8239360
Probable space group: P M M N
;
_chemical_formula_sum "Si O2"
_cell_formula_units_Z 64
_cell_length_a 9.045195
_cell_length_b 24.457800
_cell_length_c 18.432151
_cell_angle_alpha 90.000000
_cell_angle_beta 90.000000
_cell_angle_gamma 90.000000
_cell_volume 4077.663116
_symmetry_space_group_name_H-M "P M M N"
_symmetry_group_IT_number 59
_space_group.IT_coordinate_system_code '2'
_symmetry_cell_setting 'orthorhombic'
loop_
_space_group_symop_operation_xyz
x,y,z
1/2-x,1/2-y,z
1/2+x,-y,-z
-x,1/2+y,-z
-x,-y,-z
1/2+x,1/2+y,-z
1/2-x,y,z
x,1/2-y,z
loop_
_atom_site_type_symbol
_atom_site_label
_atom_site_fract_x
_atom_site_fract_y
_atom_site_fract_z
Si Si1 0.414548 0.577747 0.971915
Si Si2 0.925088 0.385168 0.179045
Si Si3 0.585601 0.686114 0.713872
Si Si4 0.577893 0.993951 0.771515
Si Si5 0.415500 0.459229 0.899533
Si Si6 0.419758 0.988640 0.395566
Si Si7 0.575504 0.312938 0.433235
Si Si8 0.077396 0.412542 0.496955
O O1 0.250000 0.591816 0.998682
O O2 0.464892 0.617883 0.906777
O O3 0.418055 0.517919 0.936966
O O4 0.519716 0.583731 0.041797
O O5 0.750000 0.386851 0.190229
O O6 0.996757 0.332367 0.215265
O O7 0.992637 0.437625 0.218329
O O8 0.750000 0.659366 0.710009
O O9 0.601476 0.750000 0.720107
O O10 0.495125 0.669315 0.642952
O O11 0.750000 0.985330 0.788771
O O12 0.513239 0.039729 0.826409
O O13 0.550765 0.013384 0.689848
O O14 0.250000 0.441073 0.879171
O O15 0.250000 0.974724 0.414239
O O16 0.523553 0.942632 0.430356
O O17 0.458532 0.048568 0.427879
O O18 0.750000 0.320640 0.428064
O O19 0.535193 0.250000 0.453500
O O20 0.508239 0.354689 0.491839
O O21 0.250000 0.399651 0.503460
#
# Coordination Sequence:
#
# PCOD8239360 Si02
#       8
#     8   8   8   8   8   8   8   8
#     4   8  15  26  38  55  79 108 140 170 204 244
#     4  10  19  29  43  62  84 112 146 181 214 254
#     4  10  20  32  45  62  85 112 143 179 216 254
#     4  10  18  28  43  61  85 116 147 179 214 255
#     4   9  16  25  38  57  81 108 139 174 208 243
#     4   9  19  32  44  62  88 119 151 180 218 267
#     4  10  20  33  49  67  88 116 148 183 222 262
#     4  10  19  31  48  67  88 115 147 185 224 262
#
# _framework density 15.695264
#
# number of rings (size 3 to 8) (size 9 to 14) (size 15 to 20)
#    0.000    2.500    0.000    3.750    0.000    7.500 
#    0.000    0.000    0.000    0.000    0.000    0.000 
#    0.000    1.000    0.000    5.500    0.000    4.500 
#
# Total GULP energy -793459.145386 kJ/mol
# GULP energy per Si atom -12397.799147 kJ/mol
# Density = 1.565954 g / cm^3
# Si number density = 15.695264 Si / 1000 Ang^3
#
#
#
# Elastic Constant Matrix: (Units=GPa)
#
#
# Indices 1 2 3 4 5 6 
#
# 1 102.6621 32.5027 46.2597 0.0000 0.0000 0.0000
# 2 32.5027 44.5931 26.6147 0.0000 0.0000 0.0000
# 3 46.2597 26.6147 81.4627 0.0000 0.0000 0.0000
# 4 0.0000 0.0000 0.0000 23.2005 0.0000 0.0000
# 5 0.0000 0.0000 0.0000 0.0000 28.7893 0.0000
# 6 0.0000 0.0000 0.0000 0.0000 0.0000 22.6863
#
#
#
# Elastic Compliance Matrix: (Units=1/GPa)
#
#
# Indices 1 2 3 4 5 6 
#
# 1 0.014713 -0.007127 -0.006026 0.000000 0.000000 0.000000
# 2 -0.007127 0.031309 -0.006182 0.000000 0.000000 0.000000
# 3 -0.006026 -0.006182 0.017717 0.000000 0.000000 0.000000
# 4 0.000000 0.000000 0.000000 0.043102 0.000000 0.000000
# 5 0.000000 0.000000 0.000000 0.000000 0.034735 0.000000
# 6 0.000000 0.000000 0.000000 0.000000 0.000000 0.044080
#
#
# Mechanical properties :
#
#
# Convention : Reuss Voigt Hill
#
# Bulk Modulus (GPa) = 39.89011 48.83024 44.36017
# Shear Modulus (GPa) = 21.48850 23.15794 22.32322
#
# Velocity S-wave (km/s) = 3.70416 3.84536 3.77542
# Velocity P-wave (km/s) = 6.61551 7.13405 6.87967
#
# Compressibility (1/GPa) = 0.02506887
#
# Stress axis : x y z
#
# Youngs Moduli (GPa) = 67.96940 31.93957 56.44181
#
# Poissons Ratio (x) = 0.22763 0.34013
# Poissons Ratio (y) = 0.48441 0.34892
# Poissons Ratio (z) = 0.40960 0.19745
#
# Static dielectric constant tensor:
#      x y z
#    x 3.230700 0.000000 0.000000 
#    y 0.000000 2.719740 0.000000 
#    z 0.000000 0.000000 3.072950 
# 
# 
# High freq. dielectric constant tensor:
#      x y z
#    x 1.621800 0.000000 0.000000 
#    y 0.000000 1.556890 0.000000 
#    z 0.000000 0.000000 1.594240 
# 
# From -- ./inp_files/26551.got.cif
#   From: 2010.03.12/outbox.cif.g09.slc.cpg/sg59_14_cif.got.tgz:26551.got - 2010.04.16 16:29:54.
