data_PCOD8239605
_publ_section_title
;
Structure prediction by ZEFSAII (Michael W. Deem and Ramdas Pophale) SiO2 
 PCOD8239605
Probable space group: P M M N
;
_chemical_formula_sum "Si O2"
_cell_formula_units_Z 64
_cell_length_a 9.220673
_cell_length_b 13.841632
_cell_length_c 26.463887
_cell_angle_alpha 90.000000
_cell_angle_beta 90.000000
_cell_angle_gamma 90.000000
_cell_volume 3377.563733
_symmetry_space_group_name_H-M "P M M N"
_symmetry_group_IT_number 59
_space_group.IT_coordinate_system_code '2'
_symmetry_cell_setting 'orthorhombic'
loop_
_space_group_symop_operation_xyz
x,y,z
1/2-x,1/2-y,z
1/2+x,-y,-z
-x,1/2+y,-z
-x,-y,-z
1/2+x,1/2+y,-z
1/2-x,y,z
x,1/2-y,z
loop_
_atom_site_type_symbol
_atom_site_label
_atom_site_fract_x
_atom_site_fract_y
_atom_site_fract_z
Si Si1 0.422401 0.640427 0.726727
Si Si2 0.910408 0.636045 0.534354
Si Si3 0.422043 0.355758 0.576569
Si Si4 0.082025 0.548002 0.829963
Si Si5 0.412920 0.135577 0.078350
Si Si6 0.416497 0.358713 0.883868
Si Si7 0.913976 0.134902 0.982504
Si Si8 0.578245 0.453596 0.375349
O O1 0.250000 0.641341 0.724420
O O2 0.482239 0.750000 0.730051
O O3 0.475991 0.578766 0.774906
O O4 0.486385 0.588663 0.676785
O O5 0.750000 0.590774 0.543880
O O6 0.896619 0.750000 0.534593
O O7 0.972913 0.606424 0.478885
O O8 0.020641 0.605929 0.577498
O O9 0.250000 0.346746 0.574366
O O10 0.488489 0.250000 0.590112
O O11 0.469824 0.434042 0.618669
O O12 0.250000 0.576698 0.836304
O O13 0.059793 0.432415 0.837236
O O14 0.993666 0.607826 0.870714
O O15 0.250000 0.093668 0.078828
O O16 0.410251 0.250000 0.074207
O O17 0.496300 0.091103 0.029724
O O18 0.250000 0.359563 0.902143
O O19 0.461402 0.250000 0.866885
O O20 0.513527 0.397994 0.929975
O O21 0.750000 0.095577 0.984856
O O22 0.917137 0.250000 0.985320
O O23 0.750000 0.443007 0.375649
#
# Coordination Sequence:
#
# PCOD8239605 Si02
#       8
#     8   8   8   8   8   8   8   8
#     4   9  18  32  49  71  98 123 153 200 249 286
#     4   9  17  29  45  67  98 133 163 195 242 295
#     4   8  15  28  45  68 100 133 162 196 241 290
#     4  10  20  34  52  70  91 127 166 195 236 292
#     4  10  20  33  50  74 103 130 158 198 242 279
#     4   9  18  33  51  71  96 123 155 199 242 277
#     4   9  17  30  50  75 101 130 161 190 229 288
#     4  10  18  29  49  73  95 125 166 206 242 283
#
# _framework density 18.948568000000002
#
# number of rings (size 3 to 8) (size 9 to 14) (size 15 to 20)
#    0.000    2.750    0.000    2.625    0.000    4.500 
#    0.000    1.250    0.000    7.125    0.000    0.000 
#    0.000    2.000    0.000    0.000    0.000    0.000 
#
# Total GULP energy -793376.079699 kJ/mol
# GULP energy per Si atom -12396.501245 kJ/mol
# Density = 1.890544 g / cm^3
# Si number density = 18.948568 Si / 1000 Ang^3
#
#
#
# Elastic Constant Matrix: (Units=GPa)
#
#
# Indices 1 2 3 4 5 6 
#
# 1 56.6562 26.2372 38.5520 0.0000 0.0000 0.0000
# 2 26.2372 76.4733 80.4951 0.0000 0.0000 0.0000
# 3 38.5520 80.4951 149.3810 0.0000 0.0000 0.0000
# 4 0.0000 0.0000 0.0000 34.4859 0.0000 0.0000
# 5 0.0000 0.0000 0.0000 0.0000 21.2410 0.0000
# 6 0.0000 0.0000 0.0000 0.0000 0.0000 15.1509
#
#
#
# Elastic Compliance Matrix: (Units=1/GPa)
#
#
# Indices 1 2 3 4 5 6 
#
# 1 0.021832 -0.003604 -0.003692 0.000000 0.000000 0.000000
# 2 -0.003604 0.030808 -0.015671 0.000000 0.000000 0.000000
# 3 -0.003692 -0.015671 0.016092 0.000000 0.000000 0.000000
# 4 0.000000 0.000000 0.000000 0.028997 0.000000 0.000000
# 5 0.000000 0.000000 0.000000 0.000000 0.047079 0.000000
# 6 0.000000 0.000000 0.000000 0.000000 0.000000 0.066003
#
#
# Mechanical properties :
#
#
# Convention : Reuss Voigt Hill
#
# Bulk Modulus (GPa) = 43.86515 63.67548 53.77032
# Shear Modulus (GPa) = 18.91474 23.32397 21.11935
#
# Velocity S-wave (km/s) = 3.16288 3.51224 3.34213
# Velocity P-wave (km/s) = 6.04469 7.07991 6.58268
#
# Compressibility (1/GPa) = 0.02279714
#
# Stress axis : x y z
#
# Youngs Moduli (GPa) = 45.80506 32.45890 62.14338
#
# Poissons Ratio (x) = 0.11697 0.22946
# Poissons Ratio (y) = 0.16506 0.97386
# Poissons Ratio (z) = 0.16913 0.50867
#
# Static dielectric constant tensor:
#      x y z
#    x 3.324550 0.000000 0.000000 
#    y 0.000000 3.672070 0.000000 
#    z 0.000000 0.000000 3.520750 
# 
# 
# High freq. dielectric constant tensor:
#      x y z
#    x 1.706370 0.000000 0.000000 
#    y 0.000000 1.747240 0.000000 
#    z 0.000000 0.000000 1.721100 
# 
# From -- ./inp_files/31670.got.cif
#   From: 2010.03.12/outbox.cif.g09.slc.cpg/sg59_16_cif.got.tgz:31670.got - 2010.04.16 16:29:54.
