data_PCOD8239581
_publ_section_title
;
Structure prediction by ZEFSAII (Michael W. Deem and Ramdas Pophale) SiO2 
 PCOD8239581
Probable space group: P M M N
;
_chemical_formula_sum "Si O2"
_cell_formula_units_Z 48
_cell_length_a 19.920873
_cell_length_b 8.940591
_cell_length_c 15.155753
_cell_angle_alpha 90.000000
_cell_angle_beta 90.000000
_cell_angle_gamma 90.000000
_cell_volume 2699.305959
_symmetry_space_group_name_H-M "P M M N"
_symmetry_group_IT_number 59
_space_group.IT_coordinate_system_code '2'
_symmetry_cell_setting 'orthorhombic'
loop_
_space_group_symop_operation_xyz
x,y,z
1/2-x,1/2-y,z
1/2+x,-y,-z
-x,1/2+y,-z
-x,-y,-z
1/2+x,1/2+y,-z
1/2-x,y,z
x,1/2-y,z
loop_
_atom_site_type_symbol
_atom_site_label
_atom_site_fract_x
_atom_site_fract_y
_atom_site_fract_z
Si Si1 0.912219 0.083622 0.427453
Si Si2 0.432538 0.573120 0.036631
Si Si3 0.928661 0.916094 0.595105
Si Si4 0.544789 0.572456 0.786470
Si Si5 0.672904 0.920645 0.083781
Si Si6 0.093056 0.078536 0.745245
O O1 0.882738 0.250000 0.418799
O O2 0.991942 0.083420 0.419329
O O3 0.891730 0.021228 0.524012
O O4 0.881555 0.982657 0.349317
O O5 0.442443 0.750000 0.040398
O O6 0.417034 0.509407 0.134034
O O7 0.500000 0.500000 0.000000
O O8 0.370019 0.532811 0.975412
O O9 0.899980 0.750000 0.581100
O O10 0.915876 0.969549 0.695816
O O11 0.543565 0.750000 0.801188
O O12 0.468321 0.517115 0.783312
O O13 0.750000 0.966081 0.072616
O O14 0.659769 0.750000 0.052931
O O15 0.654056 0.937440 0.186560
O O16 0.069795 0.250000 0.734040
#
# Coordination Sequence:
#
# PCOD8239581 Si02
#       6
#     8   8   8   8   8   8
#     4   9  16  25  40  63  95 131 164 202 246 296
#     4  12  23  35  54  78 105 138 177 220 267 320
#     4   8  15  26  40  63  95 129 163 201 247 299
#     4  10  19  31  49  73 102 133 169 214 261 312
#     4  10  22  39  56  76 104 138 177 221 267 316
#     4  10  18  29  48  71  98 134 170 208 256 311
#
# _framework density 17.782347999999999
#
# number of rings (size 3 to 8) (size 9 to 14) (size 15 to 20)
#    0.000    2.167    1.667    4.000    0.000    5.667 
#    0.000    0.000    0.000    0.000    0.000    1.167 
#    0.000    4.000    0.000    0.000    0.000    0.000 
#
# Total GULP energy -595120.460867 kJ/mol
# GULP energy per Si atom -12398.342935 kJ/mol
# Density = 1.774187 g / cm^3
# Si number density = 17.782348 Si / 1000 Ang^3
#
#
#
# Elastic Constant Matrix: (Units=GPa)
#
#
# Indices 1 2 3 4 5 6 
#
# 1 52.3070 32.2092 33.9857 0.0000 0.0000 0.0000
# 2 32.2092 129.0085 74.3146 0.0000 0.0000 0.0000
# 3 33.9857 74.3146 153.0246 0.0000 0.0000 0.0000
# 4 0.0000 0.0000 0.0000 36.3883 0.0000 0.0000
# 5 0.0000 0.0000 0.0000 0.0000 13.0575 0.0000
# 6 0.0000 0.0000 0.0000 0.0000 0.0000 15.6295
#
#
#
# Elastic Compliance Matrix: (Units=1/GPa)
#
#
# Indices 1 2 3 4 5 6 
#
# 1 0.023750 -0.004014 -0.003325 0.000000 0.000000 0.000000
# 2 -0.004014 0.011441 -0.004664 0.000000 0.000000 0.000000
# 3 -0.003325 -0.004664 0.009539 0.000000 0.000000 0.000000
# 4 0.000000 0.000000 0.000000 0.027481 0.000000 0.000000
# 5 0.000000 0.000000 0.000000 0.000000 0.076584 0.000000
# 6 0.000000 0.000000 0.000000 0.000000 0.000000 0.063982
#
#
# Mechanical properties :
#
#
# Convention : Reuss Voigt Hill
#
# Bulk Modulus (GPa) = 48.25874 68.37323 58.31598
# Shear Modulus (GPa) = 20.51771 25.93710 23.22741
#
# Velocity S-wave (km/s) = 3.40048 3.82329 3.61807
# Velocity P-wave (km/s) = 6.52803 7.61732 7.09362
#
# Compressibility (1/GPa) = 0.02072163
#
# Stress axis : x y z
#
# Youngs Moduli (GPa) = 42.10478 87.40830 104.83629
#
# Poissons Ratio (x) = 0.35087 0.34862
# Poissons Ratio (y) = 0.16901 0.48901
# Poissons Ratio (z) = 0.14001 0.40771
#
# Static dielectric constant tensor:
#      x y z
#    x 2.705110 0.000000 0.000000 
#    y 0.000000 3.466140 0.000000 
#    z 0.000000 0.000000 3.775120 
# 
# 
# High freq. dielectric constant tensor:
#      x y z
#    x 1.613220 0.000000 0.000000 
#    y 0.000000 1.700460 0.000000 
#    z 0.000000 0.000000 1.709090 
# 
# From -- ./inp_files/25973.got.cif
#   From: 2010.03.12/outbox.cif.g09.slc.cpg/sg59_13_cif.got.tgz:25973.got - 2010.04.16 16:29:54.
