data_PCOD8239836
_publ_section_title
;
Structure prediction by ZEFSAII (Michael W. Deem and Ramdas Pophale) SiO2 
 PCOD8239836
Probable space group: P M M N
;
_chemical_formula_sum "Si O2"
_cell_formula_units_Z 56
_cell_length_a 9.207088
_cell_length_b 21.326227
_cell_length_c 16.845824
_cell_angle_alpha 90.000000
_cell_angle_beta 90.000000
_cell_angle_gamma 90.000000
_cell_volume 3307.718793
_symmetry_space_group_name_H-M "P M M N"
_symmetry_group_IT_number 59
_space_group.IT_coordinate_system_code '2'
_symmetry_cell_setting 'orthorhombic'
loop_
_space_group_symop_operation_xyz
x,y,z
1/2-x,1/2-y,z
1/2+x,-y,-z
-x,1/2+y,-z
-x,-y,-z
1/2+x,1/2+y,-z
1/2-x,y,z
x,1/2-y,z
loop_
_atom_site_type_symbol
_atom_site_label
_atom_site_fract_x
_atom_site_fract_y
_atom_site_fract_z
Si Si1 0.919055 0.523278 0.376739
Si Si2 0.414906 0.876084 0.794754
Si Si3 0.423814 0.556436 0.047689
Si Si4 0.915278 0.582949 0.533216
Si Si5 0.582221 0.818882 0.654145
Si Si6 0.922291 0.180190 0.043109
Si Si7 0.916465 0.977827 0.199854
O O1 0.750000 0.508659 0.367119
O O2 0.952886 0.579846 0.438962
O O3 0.976996 0.538558 0.288397
O O4 0.986802 0.461158 0.413030
O O5 0.250000 0.857232 0.775690
O O6 0.508012 0.863895 0.717175
O O7 0.476761 0.835230 0.867847
O O8 0.426225 0.948538 0.817918
O O9 0.250000 0.547781 0.042406
O O10 0.477742 0.556852 0.138464
O O11 0.500000 0.500000 0.000000
O O12 0.475186 0.624438 0.014675
O O13 0.750000 0.560300 0.545487
O O14 0.938467 0.653291 0.565334
O O15 0.750000 0.815472 0.676887
O O16 0.511186 0.750000 0.655113
O O17 0.750000 0.180465 0.042819
O O18 0.980742 0.250000 0.018416
O O19 0.750000 0.954765 0.188809
#
# Coordination Sequence:
#
# PCOD8239836 Si02
#       7
#     8   8   8   8   8   8   8
#     4   9  17  30  48  68  93 123 155 198 242 281
#     4  10  18  31  50  71  97 130 165 197 237 295
#     4  11  21  34  53  76 101 131 166 206 251 297
#     4   9  17  29  46  67  91 124 161 193 235 285
#     4  10  20  31  43  66 101 132 160 198 241 289
#     4   9  18  33  51  70  94 127 167 203 237 290
#     4  10  19  32  50  74 102 128 160 204 250 294
#
# _framework density 16.930097
#
# number of rings (size 3 to 8) (size 9 to 14) (size 15 to 20)
#    0.000    2.286    2.857    0.857    0.000    2.000 
#    0.000    0.000    0.000    3.429    0.000    2.000 
#    0.000    0.000    0.000    0.000    0.000    0.000 
#
# Total GULP energy -694028.880911 kJ/mol
# GULP energy per Si atom -12393.372873 kJ/mol
# Density = 1.689156 g / cm^3
# Si number density = 16.930097 Si / 1000 Ang^3
#
#
#
# Elastic Constant Matrix: (Units=GPa)
#
#
# Indices 1 2 3 4 5 6 
#
# 1 39.0103 23.4969 33.5533 0.0000 0.0000 0.0000
# 2 23.4969 88.0826 52.7857 0.0000 0.0000 0.0000
# 3 33.5533 52.7857 130.4843 0.0000 0.0000 0.0000
# 4 0.0000 0.0000 0.0000 23.4176 0.0000 0.0000
# 5 0.0000 0.0000 0.0000 0.0000 25.5459 0.0000
# 6 0.0000 0.0000 0.0000 0.0000 0.0000 14.8330
#
#
#
# Elastic Compliance Matrix: (Units=1/GPa)
#
#
# Indices 1 2 3 4 5 6 
#
# 1 0.034594 -0.005145 -0.006815 0.000000 0.000000 0.000000
# 2 -0.005145 0.015751 -0.005049 0.000000 0.000000 0.000000
# 3 -0.006815 -0.005049 0.011459 0.000000 0.000000 0.000000
# 4 0.000000 0.000000 0.000000 0.042703 0.000000 0.000000
# 5 0.000000 0.000000 0.000000 0.000000 0.039145 0.000000
# 6 0.000000 0.000000 0.000000 0.000000 0.000000 0.067417
#
#
# Mechanical properties :
#
#
# Convention : Reuss Voigt Hill
#
# Bulk Modulus (GPa) = 35.98717 53.02766 44.50741
# Shear Modulus (GPa) = 19.65813 22.60873 21.13343
#
# Velocity S-wave (km/s) = 3.41124 3.65830 3.53693
# Velocity P-wave (km/s) = 6.06777 7.01668 6.55941
#
# Compressibility (1/GPa) = 0.02778768
#
# Stress axis : x y z
#
# Youngs Moduli (GPa) = 28.90660 63.48766 87.27077
#
# Poissons Ratio (x) = 0.32662 0.59471
# Poissons Ratio (y) = 0.14871 0.44063
# Poissons Ratio (z) = 0.19698 0.32055
#
# Static dielectric constant tensor:
#      x y z
#    x 3.067690 0.000000 0.000000 
#    y 0.000000 3.241560 0.000000 
#    z 0.000000 0.000000 3.375820 
# 
# 
# High freq. dielectric constant tensor:
#      x y z
#    x 1.637630 0.000000 0.000000 
#    y 0.000000 1.632630 0.000000 
#    z 0.000000 0.000000 1.658060 
# 
# From -- ./inp_files/26074.got.cif
#   From: 2010.03.12/outbox.cif.g09.slc.cpg/sg59_14_cif.got.tgz:26074.got - 2010.04.16 16:29:54.
