data_PCOD8239364
_publ_section_title
;
Structure prediction by ZEFSAII (Michael W. Deem and Ramdas Pophale) SiO2 
 PCOD8239364
Probable space group: P M M N
;
_chemical_formula_sum "Si O2"
_cell_formula_units_Z 64
_cell_length_a 8.657285
_cell_length_b 26.954306
_cell_length_c 16.992411
_cell_angle_alpha 90.000000
_cell_angle_beta 90.000000
_cell_angle_gamma 90.000000
_cell_volume 3965.197952
_symmetry_space_group_name_H-M "P M M N"
_symmetry_group_IT_number 59
_space_group.IT_coordinate_system_code '2'
_symmetry_cell_setting 'orthorhombic'
loop_
_space_group_symop_operation_xyz
x,y,z
1/2-x,1/2-y,z
1/2+x,-y,-z
-x,1/2+y,-z
-x,-y,-z
1/2+x,1/2+y,-z
1/2-x,y,z
x,1/2-y,z
loop_
_atom_site_type_symbol
_atom_site_label
_atom_site_fract_x
_atom_site_fract_y
_atom_site_fract_z
Si Si1 0.928870 0.946750 0.512216
Si Si2 0.429717 0.553560 0.842962
Si Si3 0.067588 0.195121 0.913688
Si Si4 0.569705 0.419109 0.638298
Si Si5 0.068772 0.381631 0.785633
Si Si6 0.572438 0.968197 0.682365
Si Si7 0.431434 0.111787 0.030327
Si Si8 0.070014 0.955318 0.097915
O O1 0.750000 0.948335 0.490078
O O2 0.952037 0.933687 0.604657
O O3 0.013856 0.909267 0.451781
O O4 0.000000 0.000000 0.500000
O O5 0.250000 0.543129 0.853966
O O6 0.468211 0.555460 0.750567
O O7 0.479235 0.604874 0.886546
O O8 0.529114 0.512249 0.887928
O O9 0.250000 0.199498 0.919656
O O10 0.991772 0.250000 0.916941
O O11 0.023254 0.169167 0.830699
O O12 0.008176 0.161953 0.987142
O O13 0.750000 0.408961 0.643538
O O14 0.481007 0.379691 0.694261
O O15 0.524486 0.475094 0.663884
O O16 0.250000 0.392565 0.795050
O O17 0.971694 0.426785 0.822015
O O18 0.750000 0.967083 0.709890
O O19 0.250000 0.114339 0.046120
O O20 0.468707 0.065536 0.973509
O O21 0.250000 0.949572 0.077989
#
# Coordination Sequence:
#
# PCOD8239364 Si02
#       8
#     8   8   8   8   8   8   8   8
#     4   9  17  28  42  59  84 116 154 190 222 259
#     4  12  22  30  43  62  88 120 154 188 222 262
#     4   8  16  32  52  71  89 111 143 185 230 274
#     4  10  18  28  43  62  89 120 153 189 221 259
#     4  10  18  28  46  69  90 117 152 186 225 269
#     4   9  18  30  42  59  85 121 155 188 224 256
#     4  10  20  33  48  65  86 113 147 184 225 271
#     4  11  20  31  44  60  88 118 150 187 223 264
#
# _framework density 16.140429000000001
#
# number of rings (size 3 to 8) (size 9 to 14) (size 15 to 20)
#    0.000    2.125    1.250    5.625    0.000    2.500 
#    0.000    0.000    0.000   13.500    0.000    0.000 
#    0.000    1.000    0.000   11.500    0.000    3.250 
#
# Total GULP energy -793317.070949 kJ/mol
# GULP energy per Si atom -12395.579234 kJ/mol
# Density = 1.610369 g / cm^3
# Si number density = 16.140429 Si / 1000 Ang^3
#
#
#
# Elastic Constant Matrix: (Units=GPa)
#
#
# Indices 1 2 3 4 5 6 
#
# 1 65.4260 20.5699 30.1347 0.0000 0.0000 0.0000
# 2 20.5699 65.0996 42.6521 0.0000 0.0000 0.0000
# 3 30.1347 42.6521 101.5439 0.0000 0.0000 0.0000
# 4 0.0000 0.0000 0.0000 13.0949 0.0000 0.0000
# 5 0.0000 0.0000 0.0000 0.0000 29.5385 0.0000
# 6 0.0000 0.0000 0.0000 0.0000 0.0000 10.3504
#
#
#
# Elastic Compliance Matrix: (Units=1/GPa)
#
#
# Indices 1 2 3 4 5 6 
#
# 1 0.018130 -0.003040 -0.004103 0.000000 0.000000 0.000000
# 2 -0.003040 0.021703 -0.008214 0.000000 0.000000 0.000000
# 3 -0.004103 -0.008214 0.014516 0.000000 0.000000 0.000000
# 4 0.000000 0.000000 0.000000 0.076366 0.000000 0.000000
# 5 0.000000 0.000000 0.000000 0.000000 0.033854 0.000000
# 6 0.000000 0.000000 0.000000 0.000000 0.000000 0.096615
#
#
# Mechanical properties :
#
#
# Convention : Reuss Voigt Hill
#
# Bulk Modulus (GPa) = 42.31144 46.53144 44.42144
# Shear Modulus (GPa) = 16.67903 19.84427 18.26165
#
# Velocity S-wave (km/s) = 3.21809 3.51019 3.36731
# Velocity P-wave (km/s) = 6.33085 6.73204 6.53452
#
# Compressibility (1/GPa) = 0.02363427
#
# Stress axis : x y z
#
# Youngs Moduli (GPa) = 55.15633 46.07588 68.89019
#
# Poissons Ratio (x) = 0.14008 0.28269
# Poissons Ratio (y) = 0.16769 0.56586
# Poissons Ratio (z) = 0.22633 0.37846
#
# Static dielectric constant tensor:
#      x y z
#    x 3.036330 0.000000 0.000000 
#    y 0.000000 2.843960 0.000000 
#    z 0.000000 0.000000 3.473620 
# 
# 
# High freq. dielectric constant tensor:
#      x y z
#    x 1.625650 0.000000 0.000000 
#    y 0.000000 1.554000 0.000000 
#    z 0.000000 0.000000 1.629780 
# 
# From -- ./inp_files/26666.got.cif
#   From: 2010.03.12/outbox.cif.g09.slc.cpg/sg59_14_cif.got.tgz:26666.got - 2010.04.16 16:29:54.
