data_PCOD8239330
_publ_section_title
;
Structure prediction by ZEFSAII (Michael W. Deem and Ramdas Pophale) SiO2 
 PCOD8239330
Probable space group: P M M N
;
_chemical_formula_sum "Si O2"
_cell_formula_units_Z 56
_cell_length_a 9.125077
_cell_length_b 18.306556
_cell_length_c 18.878856
_cell_angle_alpha 90.000000
_cell_angle_beta 90.000000
_cell_angle_gamma 90.000000
_cell_volume 3153.688977
_symmetry_space_group_name_H-M "P M M N"
_symmetry_group_IT_number 59
_space_group.IT_coordinate_system_code '2'
_symmetry_cell_setting 'orthorhombic'
loop_
_space_group_symop_operation_xyz
x,y,z
1/2-x,1/2-y,z
1/2+x,-y,-z
-x,1/2+y,-z
-x,-y,-z
1/2+x,1/2+y,-z
1/2-x,y,z
x,1/2-y,z
loop_
_atom_site_type_symbol
_atom_site_label
_atom_site_fract_x
_atom_site_fract_y
_atom_site_fract_z
Si Si1 0.917387 0.391693 0.278437
Si Si2 0.418710 0.428833 0.411694
Si Si3 0.076744 0.330220 0.701204
Si Si4 0.418702 0.331581 0.148409
Si Si5 0.922342 0.976233 0.928786
Si Si6 0.081155 0.421468 0.569799
Si Si7 0.418751 0.041429 0.799617
O O1 0.750000 0.367901 0.286473
O O2 0.934024 0.476021 0.256325
O O3 0.995921 0.380292 0.353955
O O4 0.988623 0.339728 0.219747
O O5 0.250000 0.431714 0.389029
O O6 0.478379 0.510612 0.414053
O O7 0.439406 0.392816 0.489374
O O8 0.250000 0.326239 0.707220
O O9 0.007195 0.250000 0.713802
O O10 0.033428 0.356853 0.622552
O O11 0.020465 0.385912 0.761342
O O12 0.250000 0.343829 0.169155
O O13 0.445233 0.250000 0.117285
O O14 0.464505 0.391982 0.089811
O O15 0.750000 0.986544 0.937826
O O16 0.979067 0.029077 0.867075
O O17 0.000000 0.000000 0.000000
O O18 0.250000 0.445580 0.583077
O O19 0.250000 0.049013 0.824549
#
# Coordination Sequence:
#
# PCOD8239330 Si02
#       7
#     8   8   8   8   8   8   8
#     4  10  18  30  50  74 102 132 167 211 255 306
#     4  10  18  27  45  70  97 130 171 218 267 311
#     4   9  16  29  50  72  96 130 173 218 260 301
#     4   9  19  36  56  79 106 134 168 210 253 300
#     4  10  20  35  57  82 106 134 166 202 245 293
#     4   9  17  30  45  67  96 128 173 222 265 308
#     4   9  17  31  51  74  99 128 165 208 249 295
#
# _framework density 17.756982000000001
#
# number of rings (size 3 to 8) (size 9 to 14) (size 15 to 20)
#    0.000    2.571    1.429    1.286    0.000    2.000 
#    0.000    1.429    0.000    8.571    0.000    0.000 
#    0.000    0.000    0.000    0.000    0.000    0.000 
#
# Total GULP energy -694300.349952 kJ/mol
# GULP energy per Si atom -12398.220535 kJ/mol
# Density = 1.771657 g / cm^3
# Si number density = 17.756982 Si / 1000 Ang^3
#
#
#
# Elastic Constant Matrix: (Units=GPa)
#
#
# Indices 1 2 3 4 5 6 
#
# 1 81.1417 31.7022 58.2303 0.0000 0.0000 0.0000
# 2 31.7022 110.4090 59.3532 0.0000 0.0000 0.0000
# 3 58.2303 59.3532 134.4221 0.0000 0.0000 0.0000
# 4 0.0000 0.0000 0.0000 19.8858 0.0000 0.0000
# 5 0.0000 0.0000 0.0000 0.0000 32.7403 0.0000
# 6 0.0000 0.0000 0.0000 0.0000 0.0000 18.5046
#
#
#
# Elastic Compliance Matrix: (Units=1/GPa)
#
#
# Indices 1 2 3 4 5 6 
#
# 1 0.018021 -0.001282 -0.007240 0.000000 0.000000 0.000000
# 2 -0.001282 0.011967 -0.004729 0.000000 0.000000 0.000000
# 3 -0.007240 -0.004729 0.012664 0.000000 0.000000 0.000000
# 4 0.000000 0.000000 0.000000 0.050287 0.000000 0.000000
# 5 0.000000 0.000000 0.000000 0.000000 0.030543 0.000000
# 6 0.000000 0.000000 0.000000 0.000000 0.000000 0.054041
#
#
# Mechanical properties :
#
#
# Convention : Reuss Voigt Hill
#
# Bulk Modulus (GPa) = 61.92127 69.39379 65.65753
# Shear Modulus (GPa) = 23.87671 26.00528 24.94100
#
# Velocity S-wave (km/s) = 3.67091 3.83104 3.75183
# Velocity P-wave (km/s) = 7.27424 7.66379 7.47156
#
# Compressibility (1/GPa) = 0.01614954
#
# Stress axis : x y z
#
# Youngs Moduli (GPa) = 55.49066 83.56008 78.96616
#
# Poissons Ratio (x) = 0.10714 0.57175
# Poissons Ratio (y) = 0.07115 0.37341
# Poissons Ratio (z) = 0.40177 0.39513
#
# Static dielectric constant tensor:
#      x y z
#    x 3.253540 0.000000 0.000000 
#    y 0.000000 3.323830 0.000000 
#    z 0.000000 0.000000 3.350880 
# 
# 
# High freq. dielectric constant tensor:
#      x y z
#    x 1.678920 0.000000 0.000000 
#    y 0.000000 1.665300 0.000000 
#    z 0.000000 0.000000 1.685520 
# 
# From -- ./inp_files/28038.got.cif
#   From: 2010.03.12/outbox.cif.g09.slc.cpg/sg59_15_cif.got.tgz:28038.got - 2010.04.16 16:29:54.
