data_PCOD8239498
_publ_section_title
;
Structure prediction by ZEFSAII (Michael W. Deem and Ramdas Pophale) SiO2 
 PCOD8239498
Probable space group: P M M N
;
_chemical_formula_sum "Si O2"
_cell_formula_units_Z 64
_cell_length_a 20.244258
_cell_length_b 9.085780
_cell_length_c 20.690080
_cell_angle_alpha 90.000000
_cell_angle_beta 90.000000
_cell_angle_gamma 90.000000
_cell_volume 3805.627267
_symmetry_space_group_name_H-M "P M M N"
_symmetry_group_IT_number 59
_space_group.IT_coordinate_system_code '2'
_symmetry_cell_setting 'orthorhombic'
loop_
_space_group_symop_operation_xyz
x,y,z
1/2-x,1/2-y,z
1/2+x,-y,-z
-x,1/2+y,-z
-x,-y,-z
1/2+x,1/2+y,-z
1/2-x,y,z
x,1/2-y,z
loop_
_atom_site_type_symbol
_atom_site_label
_atom_site_fract_x
_atom_site_fract_y
_atom_site_fract_z
Si Si1 0.385590 0.074951 0.812682
Si Si2 0.910565 0.423377 0.310053
Si Si3 0.449515 0.576720 0.306421
Si Si4 0.674959 0.419304 0.069734
Si Si5 0.427577 0.415301 0.428190
Si Si6 0.916418 0.413448 0.450282
Si Si7 0.465667 0.577169 0.167730
Si Si8 0.936195 0.076281 0.971290
O O1 0.380207 0.250000 0.803884
O O2 0.459086 0.016801 0.830973
O O3 0.364005 0.992713 0.745729
O O4 0.336474 0.022255 0.868506
O O5 0.924812 0.250000 0.298181
O O6 0.879106 0.445413 0.382064
O O7 0.976522 0.518708 0.308728
O O8 0.448942 0.750000 0.319176
O O9 0.405883 0.500953 0.362703
O O10 0.424771 0.535809 0.233284
O O11 0.750000 0.439192 0.046281
O O12 0.660035 0.250000 0.088412
O O13 0.628797 0.471491 0.010453
O O14 0.402944 0.250000 0.420104
O O15 0.392524 0.479607 0.492433
O O16 0.505801 0.428881 0.436507
O O17 0.900449 0.250000 0.474800
O O18 0.473585 0.750000 0.165131
O O19 0.427983 0.521694 0.103362
O O20 0.947529 0.250000 0.974571
O O21 0.000000 0.000000 0.000000
#
# Coordination Sequence:
#
# PCOD8239498 Si02
#       8
#     8   8   8   8   8   8   8   8
#     4  10  18  29  45  63  84 111 145 183 223 266
#     4   9  16  25  37  54  76 102 137 178 218 258
#     4   9  15  23  34  50  74 103 136 175 217 263
#     4  10  21  34  48  68  93 121 150 184 230 278
#     4   9  15  21  30  45  68 100 137 174 211 255
#     4   8  14  22  31  45  67  99 136 172 209 253
#     4   8  15  26  41  61  82 105 140 182 222 263
#     4  10  18  31  49  68  90 115 148 189 229 274
#
# _framework density 16.8172
#
# number of rings (size 3 to 8) (size 9 to 14) (size 15 to 20)
#    0.000    2.875    1.250    3.000    0.000    3.750 
#    0.000    0.625    0.000    0.000    0.000    0.000 
#    0.000    0.000    0.000    1.125    0.000   23.750 
#
# Total GULP energy -792871.762615 kJ/mol
# GULP energy per Si atom -12388.621291 kJ/mol
# Density = 1.677892 g / cm^3
# Si number density = 16.817200 Si / 1000 Ang^3
#
#
#
# Elastic Constant Matrix: (Units=GPa)
#
#
# Indices 1 2 3 4 5 6 
#
# 1 39.2562 17.8367 35.4346 0.0000 0.0000 0.0000
# 2 17.8367 86.9527 68.2177 0.0000 0.0000 0.0000
# 3 35.4346 68.2177 176.5717 0.0000 0.0000 0.0000
# 4 0.0000 0.0000 0.0000 27.3547 0.0000 0.0000
# 5 0.0000 0.0000 0.0000 0.0000 9.6005 0.0000
# 6 0.0000 0.0000 0.0000 0.0000 0.0000 9.6682
#
#
#
# Elastic Compliance Matrix: (Units=1/GPa)
#
#
# Indices 1 2 3 4 5 6 
#
# 1 0.031386 -0.002148 -0.005469 0.000000 0.000000 0.000000
# 2 -0.002148 0.016649 -0.006001 0.000000 0.000000 0.000000
# 3 -0.005469 -0.006001 0.009080 0.000000 0.000000 0.000000
# 4 0.000000 0.000000 0.000000 0.036557 0.000000 0.000000
# 5 0.000000 0.000000 0.000000 0.000000 0.104161 0.000000
# 6 0.000000 0.000000 0.000000 0.000000 0.000000 0.103432
#
#
# Mechanical properties :
#
#
# Convention : Reuss Voigt Hill
#
# Bulk Modulus (GPa) = 33.46833 60.63984 47.05409
# Shear Modulus (GPa) = 14.77277 21.41077 18.09177
#
# Velocity S-wave (km/s) = 2.96705 3.57199 3.28348
# Velocity P-wave (km/s) = 5.62870 7.29031 6.51272
#
# Compressibility (1/GPa) = 0.02987899
#
# Stress axis : x y z
#
# Youngs Moduli (GPa) = 31.86134 60.06210 110.13788
#
# Poissons Ratio (x) = 0.12900 0.60232
# Poissons Ratio (y) = 0.06843 0.66098
# Poissons Ratio (z) = 0.17424 0.36046
#
# Static dielectric constant tensor:
#      x y z
#    x 2.500730 0.000000 0.000000 
#    y 0.000000 3.169560 0.000000 
#    z 0.000000 0.000000 4.051700 
# 
# 
# High freq. dielectric constant tensor:
#      x y z
#    x 1.556060 0.000000 0.000000 
#    y 0.000000 1.649310 0.000000 
#    z 0.000000 0.000000 1.676200 
# 
# From -- ./inp_files/31076.got.cif
#   From: 2010.03.12/outbox.cif.g09.slc.cpg/sg59_16_cif.got.tgz:31076.got - 2010.04.16 16:29:54.
