data_PCOD8239146
_publ_section_title
;
Structure prediction by ZEFSAII (Michael W. Deem and Ramdas Pophale) SiO2 
 PCOD8239146
Probable space group: P M M N
;
_chemical_formula_sum "Si O2"
_cell_formula_units_Z 56
_cell_length_a 17.813075
_cell_length_b 22.712093
_cell_length_c 8.679578
_cell_angle_alpha 90.000000
_cell_angle_beta 90.000000
_cell_angle_gamma 90.000000
_cell_volume 3511.516106
_symmetry_space_group_name_H-M "P M M N"
_symmetry_group_IT_number 59
_space_group.IT_coordinate_system_code '2'
_symmetry_cell_setting 'orthorhombic'
loop_
_space_group_symop_operation_xyz
x,y,z
1/2-x,1/2-y,z
1/2+x,-y,-z
-x,1/2+y,-z
-x,-y,-z
1/2+x,1/2+y,-z
1/2-x,y,z
x,1/2-y,z
loop_
_atom_site_type_symbol
_atom_site_label
_atom_site_fract_x
_atom_site_fract_y
_atom_site_fract_z
Si Si1 0.031385 0.413163 0.605985
Si Si2 0.437407 0.998041 0.192065
Si Si3 0.166362 0.816643 0.387101
Si Si4 0.336358 0.476234 0.469899
Si Si5 0.606085 0.091399 0.388804
Si Si6 0.454928 0.589594 0.935320
Si Si7 0.973086 0.318801 0.817951
O O1 0.115777 0.423362 0.546242
O O2 0.005184 0.468050 0.711299
O O3 0.977909 0.411936 0.457084
O O4 0.030139 0.351985 0.701277
O O5 0.365047 0.009901 0.297276
O O6 0.467968 0.058650 0.120234
O O7 0.412919 0.952880 0.057703
O O8 0.250000 0.829833 0.325630
O O9 0.156735 0.750000 0.441989
O O10 0.149758 0.854058 0.538500
O O11 0.110530 0.830639 0.246715
O O12 0.250000 0.456576 0.462488
O O13 0.345686 0.533581 0.575336
O O14 0.601118 0.101330 0.205997
O O15 0.476787 0.652050 0.013069
O O16 0.994284 0.250000 0.827908
#
# Coordination Sequence:
#
# PCOD8239146 Si02
#       7
#     8   8   8   8   8   8   8
#     4   9  16  32  51  67  93 123 159 197 239 273
#     4   9  17  31  49  69  94 133 155 182 243 290
#     4   9  18  33  48  64  94 133 164 195 234 272
#     4  11  19  30  48  72  98 125 160 197 241 287
#     4  10  17  29  48  73  94 125 161 198 225 276
#     4  10  17  28  51  67  97 124 155 192 236 280
#     4   9  19  32  51  73  91 123 168 200 230 288
#
# _framework density 15.947528
#
# number of rings (size 3 to 8) (size 9 to 14) (size 15 to 20)
#    0.000    2.429    2.857    2.143    0.000    0.571 
#    0.000    2.857    0.000    2.143    0.000    0.000 
#    0.000    0.000    0.000    0.000    0.000    0.000 
#
# Total GULP energy -694328.936149 kJ/mol
# GULP energy per Si atom -12398.731003 kJ/mol
# Density = 1.591123 g / cm^3
# Si number density = 15.947528 Si / 1000 Ang^3
#
#
#
# Elastic Constant Matrix: (Units=GPa)
#
#
# Indices 1 2 3 4 5 6 
#
# 1 90.1193 38.1174 30.0304 0.0000 0.0000 0.0000
# 2 38.1174 100.1848 44.2758 0.0000 0.0000 0.0000
# 3 30.0304 44.2758 103.9578 0.0000 0.0000 0.0000
# 4 0.0000 0.0000 0.0000 26.2060 0.0000 0.0000
# 5 0.0000 0.0000 0.0000 0.0000 14.6483 0.0000
# 6 0.0000 0.0000 0.0000 0.0000 0.0000 18.6202
#
#
#
# Elastic Compliance Matrix: (Units=1/GPa)
#
#
# Indices 1 2 3 4 5 6 
#
# 1 0.013595 -0.004234 -0.002124 0.000000 0.000000 0.000000
# 2 -0.004234 0.013614 -0.004575 0.000000 0.000000 0.000000
# 3 -0.002124 -0.004575 0.012182 0.000000 0.000000 0.000000
# 4 0.000000 0.000000 0.000000 0.038159 0.000000 0.000000
# 5 0.000000 0.000000 0.000000 0.000000 0.068267 0.000000
# 6 0.000000 0.000000 0.000000 0.000000 0.000000 0.053705
#
#
# Mechanical properties :
#
#
# Convention : Reuss Voigt Hill
#
# Bulk Modulus (GPa) = 57.06292 57.67879 57.37085
# Shear Modulus (GPa) = 22.00411 24.01746 23.01078
#
# Velocity S-wave (km/s) = 3.71857 3.88497 3.80268
# Velocity P-wave (km/s) = 7.36861 7.50802 7.43864
#
# Compressibility (1/GPa) = 0.01752452
#
# Stress axis : x y z
#
# Youngs Moduli (GPa) = 73.55684 73.45134 82.09157
#
# Poissons Ratio (x) = 0.31098 0.17436
# Poissons Ratio (y) = 0.31143 0.37560
# Poissons Ratio (z) = 0.15623 0.33607
#
# Static dielectric constant tensor:
#      x y z
#    x 2.778040 0.000000 0.000000 
#    y 0.000000 3.031490 0.000000 
#    z 0.000000 0.000000 3.133050 
# 
# 
# High freq. dielectric constant tensor:
#      x y z
#    x 1.577720 0.000000 0.000000 
#    y 0.000000 1.606200 0.000000 
#    z 0.000000 0.000000 1.617420 
# 
# From -- ./inp_files/10735.got.cif
#   From: 2010.03.12/outbox.cif.g09.slc.cpg/sg59_6_cif.got.tgz:10735.got - 2010.04.16 16:29:54.
