data_PCOD8239158
_publ_section_title
;
Structure prediction by ZEFSAII (Michael W. Deem and Ramdas Pophale) SiO2 
 PCOD8239158
Probable space group: P M M N
;
_chemical_formula_sum "Si O2"
_cell_formula_units_Z 64
_cell_length_a 8.746663
_cell_length_b 19.946076
_cell_length_c 19.754383
_cell_angle_alpha 90.000000
_cell_angle_beta 90.000000
_cell_angle_gamma 90.000000
_cell_volume 3446.381363
_symmetry_space_group_name_H-M "P M M N"
_symmetry_group_IT_number 59
_space_group.IT_coordinate_system_code '2'
_symmetry_cell_setting 'orthorhombic'
loop_
_space_group_symop_operation_xyz
x,y,z
1/2-x,1/2-y,z
1/2+x,-y,-z
-x,1/2+y,-z
-x,-y,-z
1/2+x,1/2+y,-z
1/2-x,y,z
x,1/2-y,z
loop_
_atom_site_type_symbol
_atom_site_label
_atom_site_fract_x
_atom_site_fract_y
_atom_site_fract_z
Si Si1 0.069518 0.080436 0.850986
Si Si2 0.570554 0.604367 0.395203
Si Si3 0.071560 0.825865 0.040421
Si Si4 0.926509 0.173535 0.116186
Si Si5 0.568654 0.070470 0.475569
Si Si6 0.430818 0.466637 0.346661
Si Si7 0.928143 0.945487 0.806753
Si Si8 0.430538 0.323067 0.736357
O O1 0.250000 0.076246 0.848084
O O2 0.999489 0.121859 0.787316
O O3 0.022044 0.118376 0.919155
O O4 0.007780 0.005005 0.848543
O O5 0.750000 0.598604 0.409444
O O6 0.484846 0.622374 0.465929
O O7 0.513854 0.536134 0.361252
O O8 0.529341 0.662029 0.341626
O O9 0.250000 0.835650 0.054728
O O10 0.022113 0.750000 0.061112
O O11 0.033473 0.837946 0.962110
O O12 0.750000 0.156767 0.129783
O O13 0.962997 0.250000 0.136818
O O14 0.029860 0.125696 0.161566
O O15 0.750000 0.068355 0.470037
O O16 0.495296 0.087222 0.401977
O O17 0.500000 0.000000 0.500000
O O18 0.250000 0.474787 0.355192
O O19 0.478497 0.443398 0.271789
O O20 0.750000 0.958092 0.812976
O O21 0.250000 0.322970 0.746622
O O22 0.499047 0.250000 0.754155
#
# Coordination Sequence:
#
# PCOD8239158 Si02
#       8
#     8   8   8   8   8   8   8   8
#     4  11  21  34  54  80 111 145 185 227 267 319
#     4  10  17  29  49  71 100 136 175 218 263 310
#     4   9  19  37  58  80 109 144 181 223 270 321
#     4   9  20  40  63  83 105 137 177 219 270 334
#     4  10  18  28  46  71  99 130 169 213 258 308
#     4  10  19  32  49  73 105 135 169 213 263 315
#     4  11  23  36  55  82 113 143 176 224 276 325
#     4   9  18  31  48  73 105 142 183 223 264 314
#
# _framework density 18.570201000000001
#
# number of rings (size 3 to 8) (size 9 to 14) (size 15 to 20)
#    0.000    2.125    1.250    5.250    0.000    3.500 
#    0.000    1.250    0.000    4.500    0.000    1.750 
#    0.000    0.000    0.000    0.000    0.000    0.000 
#
# Total GULP energy -793402.644056 kJ/mol
# GULP energy per Si atom -12396.916313 kJ/mol
# Density = 1.852793 g / cm^3
# Si number density = 18.570201 Si / 1000 Ang^3
#
#
#
# Elastic Constant Matrix: (Units=GPa)
#
#
# Indices 1 2 3 4 5 6 
#
# 1 63.9886 22.3303 41.0955 0.0000 0.0000 0.0000
# 2 22.3303 83.4772 51.0508 0.0000 0.0000 0.0000
# 3 41.0955 51.0508 109.8580 0.0000 0.0000 0.0000
# 4 0.0000 0.0000 0.0000 19.8814 0.0000 0.0000
# 5 0.0000 0.0000 0.0000 0.0000 30.1887 0.0000
# 6 0.0000 0.0000 0.0000 0.0000 0.0000 22.1770
#
#
#
# Elastic Compliance Matrix: (Units=1/GPa)
#
#
# Indices 1 2 3 4 5 6 
#
# 1 0.020644 -0.001117 -0.007203 0.000000 0.000000 0.000000
# 2 -0.001117 0.016796 -0.007387 0.000000 0.000000 0.000000
# 3 -0.007203 -0.007387 0.015230 0.000000 0.000000 0.000000
# 4 0.000000 0.000000 0.000000 0.050298 0.000000 0.000000
# 5 0.000000 0.000000 0.000000 0.000000 0.033125 0.000000
# 6 0.000000 0.000000 0.000000 0.000000 0.000000 0.045092
#
#
# Mechanical properties :
#
#
# Convention : Reuss Voigt Hill
#
# Bulk Modulus (GPa) = 47.04846 54.03079 50.53963
# Shear Modulus (GPa) = 22.75990 23.97254 23.36622
#
# Velocity S-wave (km/s) = 3.50468 3.59683 3.55105
# Velocity P-wave (km/s) = 6.46278 6.81235 6.63986
#
# Compressibility (1/GPa) = 0.02125468
#
# Stress axis : x y z
#
# Youngs Moduli (GPa) = 48.44066 59.53894 65.65973
#
# Poissons Ratio (x) = 0.06651 0.47297
# Poissons Ratio (y) = 0.05411 0.48503
# Poissons Ratio (z) = 0.34893 0.43982
#
# Static dielectric constant tensor:
#      x y z
#    x 3.307090 0.000000 0.000000 
#    y 0.000000 3.432810 0.000000 
#    z 0.000000 0.000000 3.994080 
# 
# 
# High freq. dielectric constant tensor:
#      x y z
#    x 1.717470 0.000000 0.000000 
#    y 0.000000 1.690030 0.000000 
#    z 0.000000 0.000000 1.733460 
# 
# From -- ./inp_files/26320.got.cif
#   From: 2010.03.12/outbox.cif.g09.slc.cpg/sg59_14_cif.got.tgz:26320.got - 2010.04.16 16:29:54.
