data_PCOD8239463
_publ_section_title
;
Structure prediction by ZEFSAII (Michael W. Deem and Ramdas Pophale) SiO2 
 PCOD8239463
Probable space group: P M M N
;
_chemical_formula_sum "Si O2"
_cell_formula_units_Z 40
_cell_length_a 25.163580
_cell_length_b 9.169964
_cell_length_c 9.896108
_cell_angle_alpha 90.000000
_cell_angle_beta 90.000000
_cell_angle_gamma 90.000000
_cell_volume 2283.518239
_symmetry_space_group_name_H-M "P M M N"
_symmetry_group_IT_number 59
_space_group.IT_coordinate_system_code '2'
_symmetry_cell_setting 'orthorhombic'
loop_
_space_group_symop_operation_xyz
x,y,z
1/2-x,1/2-y,z
1/2+x,-y,-z
-x,1/2+y,-z
-x,-y,-z
1/2+x,1/2+y,-z
1/2-x,y,z
x,1/2-y,z
loop_
_atom_site_type_symbol
_atom_site_label
_atom_site_fract_x
_atom_site_fract_y
_atom_site_fract_z
Si Si1 0.865393 0.415049 0.662618
Si Si2 0.561460 0.920740 0.863379
Si Si3 0.750000 0.577941 0.360793
Si Si4 0.750000 0.415043 0.633031
Si Si5 0.853955 0.419391 0.348577
Si Si6 0.439990 0.580097 0.867278
O O1 0.885286 0.250000 0.686770
O O2 0.903564 0.524990 0.738921
O O3 0.804459 0.433548 0.718334
O O4 0.866983 0.454906 0.504231
O O5 0.569538 0.750000 0.878770
O O6 0.500483 0.962966 0.832811
O O7 0.580860 0.995068 0.001477
O O8 0.750000 0.750000 0.340260
O O9 0.750000 0.536385 0.517891
O O10 0.803267 0.510432 0.294739
O O11 0.750000 0.250000 0.568520
O O12 0.840574 0.250000 0.329747
O O13 0.904747 0.466396 0.260600
O O14 0.434888 0.750000 0.900264
#
# Coordination Sequence:
#
# PCOD8239463 Si02
#       6
#     8   8   4   4   8   8
#     4   9  17  31  52  75  98 128 166 203 238 285
#     4  10  20  33  50  74 102 129 160 203 252 294
#     4  10  18  28  47  76 105 128 154 198 254 294
#     4   8  16  32  51  70  97 134 170 198 232 288
#     4   9  18  34  54  73  96 131 171 202 233 287
#     4   9  19  36  54  70  94 132 171 202 239 292
#
# _framework density 17.516829000000001
#
# number of rings (size 3 to 8) (size 9 to 14) (size 15 to 20)
#    0.000    2.800    0.000    2.700    0.000    5.600 
#    0.000    1.000    0.000    2.400    0.000    0.000 
#    0.000    0.000    0.000    0.000    0.000    0.000 
#
# Total GULP energy -495883.631188 kJ/mol
# GULP energy per Si atom -12397.090780 kJ/mol
# Density = 1.747696 g / cm^3
# Si number density = 17.516829 Si / 1000 Ang^3
#
#
#
# Elastic Constant Matrix: (Units=GPa)
#
#
# Indices 1 2 3 4 5 6 
#
# 1 115.5774 52.0326 64.9592 0.0000 0.0000 0.0000
# 2 52.0326 70.7311 41.8520 0.0000 0.0000 0.0000
# 3 64.9592 41.8520 81.3160 0.0000 0.0000 0.0000
# 4 0.0000 0.0000 0.0000 26.7974 0.0000 0.0000
# 5 0.0000 0.0000 0.0000 0.0000 9.8749 0.0000
# 6 0.0000 0.0000 0.0000 0.0000 0.0000 30.3421
#
#
#
# Elastic Compliance Matrix: (Units=1/GPa)
#
#
# Indices 1 2 3 4 5 6 
#
# 1 0.017652 -0.006674 -0.010666 0.000000 0.000000 0.000000
# 2 -0.006674 0.022853 -0.006430 0.000000 0.000000 0.000000
# 3 -0.010666 -0.006430 0.024128 0.000000 0.000000 0.000000
# 4 0.000000 0.000000 0.000000 0.037317 0.000000 0.000000
# 5 0.000000 0.000000 0.000000 0.000000 0.101267 0.000000
# 6 0.000000 0.000000 0.000000 0.000000 0.000000 0.032958
#
#
# Mechanical properties :
#
#
# Convention : Reuss Voigt Hill
#
# Bulk Modulus (GPa) = 58.50910 65.03467 61.77189
# Shear Modulus (GPa) = 17.27650 20.65493 18.96571
#
# Velocity S-wave (km/s) = 3.14392 3.43760 3.29403
# Velocity P-wave (km/s) = 6.83031 7.27761 7.05751
#
# Compressibility (1/GPa) = 0.01709136
#
# Stress axis : x y z
#
# Youngs Moduli (GPa) = 56.65240 43.75869 41.44622
#
# Poissons Ratio (x) = 0.29205 0.44206
# Poissons Ratio (y) = 0.37810 0.26651
# Poissons Ratio (z) = 0.60425 0.28138
#
# Static dielectric constant tensor:
#      x y z
#    x 3.525830 0.000000 0.000000 
#    y 0.000000 3.155310 0.000000 
#    z 0.000000 0.000000 3.024810 
# 
# 
# High freq. dielectric constant tensor:
#      x y z
#    x 1.687580 0.000000 0.000000 
#    y 0.000000 1.674220 0.000000 
#    z 0.000000 0.000000 1.647130 
# 
# From -- ./inp_files/5905.got.cif
#   From: 2010.03.12/outbox.cif.g09.slc.cpg/sg59_3_cif.got.tgz:5905.got - 2010.04.16 16:29:54.
