data_PCOD8239814
_publ_section_title
;
Structure prediction by ZEFSAII (Michael W. Deem and Ramdas Pophale) SiO2 
 PCOD8239814
Probable space group: P M M N
;
_chemical_formula_sum "Si O2"
_cell_formula_units_Z 40
_cell_length_a 19.921662
_cell_length_b 11.072502
_cell_length_c 10.174969
_cell_angle_alpha 90.000000
_cell_angle_beta 90.000000
_cell_angle_gamma 90.000000
_cell_volume 2244.421548
_symmetry_space_group_name_H-M "P M M N"
_symmetry_group_IT_number 59
_space_group.IT_coordinate_system_code '2'
_symmetry_cell_setting 'orthorhombic'
loop_
_space_group_symop_operation_xyz
x,y,z
1/2-x,1/2-y,z
1/2+x,-y,-z
-x,1/2+y,-z
-x,-y,-z
1/2+x,1/2+y,-z
1/2-x,y,z
x,1/2-y,z
loop_
_atom_site_type_symbol
_atom_site_label
_atom_site_fract_x
_atom_site_fract_y
_atom_site_fract_z
Si Si1 0.939869 0.114646 0.379842
Si Si2 0.588274 0.537370 0.627695
Si Si3 0.170475 0.250000 0.787764
Si Si4 0.670801 0.750000 0.515366
Si Si5 0.932432 0.109852 0.877527
Si Si6 0.415362 0.464502 0.865369
O O1 0.913656 0.250000 0.367248
O O2 0.019950 0.113220 0.363079
O O3 0.917600 0.066859 0.520462
O O4 0.904412 0.037631 0.267922
O O5 0.646820 0.630525 0.591694
O O6 0.603285 0.469140 0.764276
O O7 0.250000 0.250000 0.794983
O O8 0.144476 0.250000 0.635858
O O9 0.142886 0.134786 0.866739
O O10 0.750000 0.750000 0.517484
O O11 0.911304 0.250000 0.866868
O O12 0.012769 0.101250 0.867604
O O13 0.906413 0.056149 0.014396
#
# Coordination Sequence:
#
# PCOD8239814 Si02
#       6
#     8   8   4   4   8   8
#     4  10  18  30  54  80 113 143 179 240 276 330
#     4  10  20  32  53  83 110 145 186 223 291 334
#     4  11  22  39  61  81 115 153 192 235 269 336
#     4  11  22  39  59  81 117 149 192 241 273 336
#     4  10  20  34  56  84 120 146 172 243 291 329
#     4  10  20  34  55  84 116 147 189 224 282 338
#
# _framework density 17.821964000000001
#
# number of rings (size 3 to 8) (size 9 to 14) (size 15 to 20)
#    0.000    1.800    4.000    1.200    0.000    0.800 
#    0.000    2.000    0.000    7.200    0.000    0.000 
#    0.000    0.000    0.000    0.000    0.000    0.000 
#
# Total GULP energy -496104.521273 kJ/mol
# GULP energy per Si atom -12402.613032 kJ/mol
# Density = 1.778140 g / cm^3
# Si number density = 17.821964 Si / 1000 Ang^3
#
#
#
# Elastic Constant Matrix: (Units=GPa)
#
#
# Indices 1 2 3 4 5 6 
#
# 1 50.1244 30.1960 13.5410 0.0000 0.0000 0.0000
# 2 30.1960 114.7350 17.3028 0.0000 0.0000 0.0000
# 3 13.5410 17.3028 75.7799 0.0000 0.0000 0.0000
# 4 0.0000 0.0000 0.0000 91.2157 0.0000 0.0000
# 5 0.0000 0.0000 0.0000 0.0000 17.2195 0.0000
# 6 0.0000 0.0000 0.0000 0.0000 0.0000 81.5829
#
#
#
# Elastic Compliance Matrix: (Units=1/GPa)
#
#
# Indices 1 2 3 4 5 6 
#
# 1 0.024347 -0.005957 -0.002990 0.000000 0.000000 0.000000
# 2 -0.005957 0.010484 -0.001329 0.000000 0.000000 0.000000
# 3 -0.002990 -0.001329 0.014034 0.000000 0.000000 0.000000
# 4 0.000000 0.000000 0.000000 0.010963 0.000000 0.000000
# 5 0.000000 0.000000 0.000000 0.000000 0.058074 0.000000
# 6 0.000000 0.000000 0.000000 0.000000 0.000000 0.012257
#
#
# Mechanical properties :
#
#
# Convention : Reuss Voigt Hill
#
# Bulk Modulus (GPa) = 35.32105 40.30208 37.81157
# Shear Modulus (GPa) = 31.22101 49.97692 40.59897
#
# Velocity S-wave (km/s) = 4.19002 5.30124 4.77805
# Velocity P-wave (km/s) = 6.57801 7.75459 7.19041
#
# Compressibility (1/GPa) = 0.02831173
#
# Stress axis : x y z
#
# Youngs Moduli (GPa) = 41.07352 95.38460 71.25555
#
# Poissons Ratio (x) = 0.56817 0.21308
# Poissons Ratio (y) = 0.24466 0.09473
# Poissons Ratio (z) = 0.12283 0.12680
#
# Static dielectric constant tensor:
#      x y z
#    x 2.876030 0.000000 0.000000 
#    y 0.000000 3.287340 0.000000 
#    z 0.000000 0.000000 3.450810 
# 
# 
# High freq. dielectric constant tensor:
#      x y z
#    x 1.639790 0.000000 0.000000 
#    y 0.000000 1.703970 0.000000 
#    z 0.000000 0.000000 1.702030 
# 
# From -- ./inp_files/11176.got.cif
#   From: 2010.03.12/outbox.cif.g09.slc.cpg/sg59_6_cif.got.tgz:11176.got - 2010.04.16 16:29:54.
