data_PCOD8239920
_publ_section_title
;
Structure prediction by ZEFSAII (Michael W. Deem and Ramdas Pophale) SiO2 
 PCOD8239920
Probable space group: P M M N
;
_chemical_formula_sum "Si O2"
_cell_formula_units_Z 36
_cell_length_a 14.733140
_cell_length_b 12.680889
_cell_length_c 7.871536
_cell_angle_alpha 90.000000
_cell_angle_beta 90.000000
_cell_angle_gamma 90.000000
_cell_volume 1470.633663
_symmetry_space_group_name_H-M "P M M N"
_symmetry_group_IT_number 59
_space_group.IT_coordinate_system_code '2'
_symmetry_cell_setting 'orthorhombic'
loop_
_space_group_symop_operation_xyz
x,y,z
1/2-x,1/2-y,z
1/2+x,-y,-z
-x,1/2+y,-z
-x,-y,-z
1/2+x,1/2+y,-z
1/2-x,y,z
x,1/2-y,z
loop_
_atom_site_type_symbol
_atom_site_label
_atom_site_fract_x
_atom_site_fract_y
_atom_site_fract_z
Si Si1 0.558326 0.374517 0.941194
Si Si2 0.750000 0.952707 0.343503
Si Si3 0.945133 0.626281 0.369159
Si Si4 0.250000 0.627879 0.923083
Si Si5 0.554097 0.871190 0.748367
Si Si6 0.250000 0.129822 0.302684
O O1 0.540230 0.250000 0.940935
O O2 0.664143 0.401872 0.960045
O O3 0.505053 0.425731 0.102950
O O4 0.521256 0.420622 0.760915
O O5 0.655633 0.895398 0.292558
O O6 0.750000 0.957266 0.548040
O O7 0.750000 0.067537 0.256649
O O8 0.956859 0.750000 0.383043
O O9 0.961036 0.578770 0.559689
O O10 0.250000 0.750000 0.870769
O O11 0.524862 0.750000 0.737825
O O12 0.659249 0.884128 0.808103
O O13 0.250000 0.250000 0.382768
#
# Coordination Sequence:
#
# PCOD8239920 Si02
#       6
#     8   4   8   4   8   4
#     4   9  18  33  52  72 100 139 176 210 249 296
#     4  10  18  31  53  77 105 136 164 206 262 312
#     4   9  17  31  54  83 108 129 160 207 264 317
#     4  10  22  38  51  68 100 141 183 220 247 283
#     4   8  14  27  49  76 105 133 158 194 250 310
#     4   8  14  27  48  77 109 129 151 200 263 319
#
# _framework density 24.479246
#
# number of rings (size 3 to 8) (size 9 to 14) (size 15 to 20)
#    0.000    3.111    0.000    2.333    0.000    1.778 
#    0.000    8.889    0.000   12.000    0.000    0.000 
#    0.000    0.000    0.000    0.000    0.000    0.000 
#
# Total GULP energy -446094.680868 kJ/mol
# GULP energy per Si atom -12391.518913 kJ/mol
# Density = 2.442353 g / cm^3
# Si number density = 24.479246 Si / 1000 Ang^3
#
#
#
# Elastic Constant Matrix: (Units=GPa)
#
#
# Indices 1 2 3 4 5 6 
#
# 1 201.7903 -2.5110 113.2803 0.0000 0.0000 0.0000
# 2 -2.5110 48.9110 56.9257 0.0000 0.0000 0.0000
# 3 113.2803 56.9257 168.3242 0.0000 0.0000 0.0000
# 4 0.0000 0.0000 0.0000 34.1284 0.0000 0.0000
# 5 0.0000 0.0000 0.0000 0.0000 -824.9086 0.0000
# 6 0.0000 0.0000 0.0000 0.0000 0.0000 -5.5378
#
#
#
# Elastic Compliance Matrix: (Units=1/GPa)
#
#
# Indices 1 2 3 4 5 6 
#
# 1 0.014416 0.019841 -0.016411 0.000000 0.000000 0.000000
# 2 0.019841 0.061024 -0.033990 0.000000 0.000000 0.000000
# 3 -0.016411 -0.033990 0.028481 0.000000 0.000000 0.000000
# 4 0.000000 0.000000 0.000000 0.029301 0.000000 0.000000
# 5 0.000000 0.000000 0.000000 0.000000 -0.001212 0.000000
# 6 0.000000 0.000000 0.000000 0.000000 0.000000 -0.180578
#
#
# Mechanical properties :
#
#
# Convention : Reuss Voigt Hill
#
# Bulk Modulus (GPa) = 23.36539 83.82392 53.59465
# Shear Modulus (GPa) = 186.43270 -142.50823 21.96224
#
# Velocity S-wave (km/s) = 8.73641 -7.63821 2.99854
# Velocity P-wave (km/s) = 10.55140 6.59337 5.82493
#
# Compressibility (1/GPa) = 0.04279835
#
# Stress axis : x y z
#
# Youngs Moduli (GPa) = 69.36958 16.38696 35.11125
#
# Poissons Ratio (x) = -0.32513 0.57623
# Poissons Ratio (y) = -1.37635 1.19345
# Poissons Ratio (z) = 1.13846 0.55700
#
# Static dielectric constant tensor:
#      x y z
#    x 4.563960 0.000000 0.000000 
#    y 0.000000 4.216530 0.000000 
#    z 0.000000 0.000000 4.668180 
# 
# 
# High freq. dielectric constant tensor:
#      x y z
#    x 1.972600 0.000000 0.000000 
#    y 0.000000 1.988280 0.000000 
#    z 0.000000 0.000000 1.963610 
# 
# From -- ./inp_files/8522.got.cif
#   From: 2010.03.12/outbox.cif.g09.slc.cpg/sg59_5_cif.got.tgz:8522.got - 2010.04.16 16:29:54.
