data_PCOD8239459
_publ_section_title
;
Structure prediction by ZEFSAII (Michael W. Deem and Ramdas Pophale) SiO2 
 PCOD8239459
Probable space group: P M M N
;
_chemical_formula_sum "Si O2"
_cell_formula_units_Z 40
_cell_length_a 21.020778
_cell_length_b 9.073181
_cell_length_c 12.417638
_cell_angle_alpha 90.000000
_cell_angle_beta 90.000000
_cell_angle_gamma 90.000000
_cell_volume 2368.358025
_symmetry_space_group_name_H-M "P M M N"
_symmetry_group_IT_number 59
_space_group.IT_coordinate_system_code '2'
_symmetry_cell_setting 'orthorhombic'
loop_
_space_group_symop_operation_xyz
x,y,z
1/2-x,1/2-y,z
1/2+x,-y,-z
-x,1/2+y,-z
-x,-y,-z
1/2+x,1/2+y,-z
1/2-x,y,z
x,1/2-y,z
loop_
_atom_site_type_symbol
_atom_site_label
_atom_site_fract_x
_atom_site_fract_y
_atom_site_fract_z
Si Si1 0.951352 0.920343 0.648024
Si Si2 0.422420 0.080777 0.586804
Si Si3 0.822570 0.920724 0.235668
Si Si4 0.544557 0.078839 0.852815
Si Si5 0.916070 0.421872 0.086992
O O1 0.952773 0.750000 0.678987
O O2 0.910107 0.949861 0.540169
O O3 0.920484 0.008485 0.748703
O O4 0.023395 0.973699 0.630414
O O5 0.444814 0.250000 0.602733
O O6 0.357936 0.047258 0.651442
O O7 0.750000 0.969921 0.251400
O O8 0.828155 0.750000 0.203560
O O9 0.851742 0.015857 0.138537
O O10 0.533288 0.250000 0.832991
O O11 0.475504 0.005592 0.861959
O O12 0.586842 0.049109 0.958574
O O13 0.923413 0.250000 0.112491
#
# Coordination Sequence:
#
# PCOD8239459 Si02
#       5
#     8   8   8   8   8
#     4  10  18  28  47  73  99 128 161 200 244 293
#     4   9  18  31  46  69 100 130 161 199 243 289
#     4  10  20  34  52  72  98 132 165 199 242 292
#     4  10  19  31  48  71 101 130 157 201 253 297
#     4  10  20  32  48  72  98 128 166 203 244 292
#
# _framework density 16.889337999999999
#
# number of rings (size 3 to 8) (size 9 to 14) (size 15 to 20)
#    0.000    2.200    2.000    1.800    0.000    3.600 
#    0.000    0.000    0.000    1.200    0.000    2.800 
#    0.000    0.000    0.000    0.000    0.000    0.000 
#
# Total GULP energy -495976.750182 kJ/mol
# GULP energy per Si atom -12399.418755 kJ/mol
# Density = 1.685090 g / cm^3
# Si number density = 16.889338 Si / 1000 Ang^3
#
#
#
# Elastic Constant Matrix: (Units=GPa)
#
#
# Indices 1 2 3 4 5 6 
#
# 1 82.7191 38.0243 53.3927 0.0000 0.0000 0.0000
# 2 38.0243 95.7177 68.8520 0.0000 0.0000 0.0000
# 3 53.3927 68.8520 151.0197 0.0000 0.0000 0.0000
# 4 0.0000 0.0000 0.0000 33.1645 0.0000 0.0000
# 5 0.0000 0.0000 0.0000 0.0000 22.4748 0.0000
# 6 0.0000 0.0000 0.0000 0.0000 0.0000 19.0359
#
#
#
# Elastic Compliance Matrix: (Units=1/GPa)
#
#
# Indices 1 2 3 4 5 6 
#
# 1 0.016412 -0.003491 -0.004211 0.000000 0.000000 0.000000
# 2 -0.003491 0.016288 -0.006192 0.000000 0.000000 0.000000
# 3 -0.004211 -0.006192 0.010933 0.000000 0.000000 0.000000
# 4 0.000000 0.000000 0.000000 0.030153 0.000000 0.000000
# 5 0.000000 0.000000 0.000000 0.000000 0.044494 0.000000
# 6 0.000000 0.000000 0.000000 0.000000 0.000000 0.052532
#
#
# Mechanical properties :
#
#
# Convention : Reuss Voigt Hill
#
# Bulk Modulus (GPa) = 63.10606 72.22159 67.66383
# Shear Modulus (GPa) = 24.52410 26.21421 25.36915
#
# Velocity S-wave (km/s) = 3.81471 3.94396 3.87987
# Velocity P-wave (km/s) = 7.53977 7.97460 7.76023
#
# Compressibility (1/GPa) = 0.01584634
#
# Stress axis : x y z
#
# Youngs Moduli (GPa) = 60.93226 61.39500 91.46342
#
# Poissons Ratio (x) = 0.21431 0.38514
# Poissons Ratio (y) = 0.21269 0.56632
# Poissons Ratio (z) = 0.25658 0.38015
#
# Static dielectric constant tensor:
#      x y z
#    x 2.761260 0.000000 0.000000 
#    y 0.000000 3.270050 0.000000 
#    z 0.000000 0.000000 3.597240 
# 
# 
# High freq. dielectric constant tensor:
#      x y z
#    x 1.594030 0.000000 0.000000 
#    y 0.000000 1.663280 0.000000 
#    z 0.000000 0.000000 1.671820 
# 
# From -- ./inp_files/18139.got.cif
#   From: 2010.03.12/outbox.cif.g09.slc.cpg/sg59_10_cif.got.tgz:18139.got - 2010.04.16 16:29:54.
