data_PCOD8239863
_publ_section_title
;
Structure prediction by ZEFSAII (Michael W. Deem and Ramdas Pophale) SiO2 
 PCOD8239863
Probable space group: P M M N
;
_chemical_formula_sum "Si O2"
_cell_formula_units_Z 40
_cell_length_a 8.605974
_cell_length_b 19.154900
_cell_length_c 12.910134
_cell_angle_alpha 90.000000
_cell_angle_beta 90.000000
_cell_angle_gamma 90.000000
_cell_volume 2128.191326
_symmetry_space_group_name_H-M "P M M N"
_symmetry_group_IT_number 59
_space_group.IT_coordinate_system_code '2'
_symmetry_cell_setting 'orthorhombic'
loop_
_space_group_symop_operation_xyz
x,y,z
1/2-x,1/2-y,z
1/2+x,-y,-z
-x,1/2+y,-z
-x,-y,-z
1/2+x,1/2+y,-z
1/2-x,y,z
x,1/2-y,z
loop_
_atom_site_type_symbol
_atom_site_label
_atom_site_fract_x
_atom_site_fract_y
_atom_site_fract_z
Si Si1 0.931361 0.924489 0.790989
Si Si2 0.066241 0.922452 0.999292
Si Si3 0.070955 0.668754 0.618321
Si Si4 0.433280 0.422731 0.790186
Si Si5 0.430403 0.330247 0.598245
O O1 0.750000 0.938952 0.802884
O O2 0.962656 0.873723 0.695761
O O3 0.015759 0.997900 0.771459
O O4 0.995756 0.886841 0.895851
O O5 0.250000 0.921312 0.992254
O O6 0.010001 0.887910 0.106913
O O7 0.000000 0.000000 0.000000
O O8 0.250000 0.650614 0.639575
O O9 0.035143 0.750000 0.635385
O O10 0.028750 0.646909 0.501625
O O11 0.250000 0.419647 0.804075
O O12 0.489468 0.377056 0.693207
O O13 0.250000 0.343490 0.573833
O O14 0.461707 0.250000 0.627453
#
# Coordination Sequence:
#
# PCOD8239863 Si02
#       5
#     8   8   8   8   8
#     4  11  21  34  54  78 105 137 174 214 256 307
#     4  10  18  31  51  75 105 137 171 212 259 309
#     4  10  21  37  56  77 103 135 171 213 261 310
#     4  10  19  33  54  79 107 137 172 215 259 306
#     4   9  19  36  56  77 103 137 174 211 255 307
#
# _framework density 18.795303000000001
#
# number of rings (size 3 to 8) (size 9 to 14) (size 15 to 20)
#    0.000    2.000    0.000    7.200    0.000    3.600 
#    0.000    1.000    0.000    3.600    0.000    0.000 
#    0.000    0.000    0.000    0.000    0.000    0.000 
#
# Total GULP energy -496003.644504 kJ/mol
# GULP energy per Si atom -12400.091113 kJ/mol
# Density = 1.875252 g / cm^3
# Si number density = 18.795303 Si / 1000 Ang^3
#
#
#
# Elastic Constant Matrix: (Units=GPa)
#
#
# Indices 1 2 3 4 5 6 
#
# 1 76.0761 13.7223 37.6062 0.0000 0.0000 0.0000
# 2 13.7223 47.6566 55.3241 0.0000 0.0000 0.0000
# 3 37.6062 55.3241 151.0764 0.0000 0.0000 0.0000
# 4 0.0000 0.0000 0.0000 -0.3738 0.0000 0.0000
# 5 0.0000 0.0000 0.0000 0.0000 37.5534 0.0000
# 6 0.0000 0.0000 0.0000 0.0000 0.0000 16.2356
#
#
#
# Elastic Compliance Matrix: (Units=1/GPa)
#
#
# Indices 1 2 3 4 5 6 
#
# 1 0.014989 0.000027 -0.003741 0.000000 0.000000 0.000000
# 2 0.000027 0.036500 -0.013373 0.000000 0.000000 0.000000
# 3 -0.003741 -0.013373 0.012448 0.000000 0.000000 0.000000
# 4 0.000000 0.000000 0.000000 -2.675203 0.000000 0.000000
# 5 0.000000 0.000000 0.000000 0.000000 0.026629 0.000000
# 6 0.000000 0.000000 0.000000 0.000000 0.000000 0.061593
#
#
# Mechanical properties :
#
#
# Convention : Reuss Voigt Hill
#
# Bulk Modulus (GPa) = 33.59909 54.23494 43.91701
# Shear Modulus (GPa) = -2.01698 21.89348 9.93825
#
# Velocity S-wave (km/s) = -1.03704 3.41667 2.30198
# Velocity P-wave (km/s) = 4.05970 6.66957 5.52106
#
# Compressibility (1/GPa) = 0.02976271
#
# Stress axis : x y z
#
# Youngs Moduli (GPa) = 66.71506 27.39690 80.33670
#
# Poissons Ratio (x) = -0.00074 0.30054
# Poissons Ratio (y) = -0.00179 1.07435
# Poissons Ratio (z) = 0.24958 0.36638
#
# Static dielectric constant tensor:
#      x y z
#    x 3.479360 0.000000 0.000000 
#    y 0.000000 3.159010 0.000000 
#    z 0.000000 0.000000 4.076460 
# 
# 
# High freq. dielectric constant tensor:
#      x y z
#    x 1.743090 0.000000 0.000000 
#    y 0.000000 1.692910 0.000000 
#    z 0.000000 0.000000 1.751360 
# 
# From -- ./inp_files/14046.got.cif
#   From: 2010.03.12/outbox.cif.g09.slc.cpg/sg59_8_cif.got.tgz:14046.got - 2010.04.16 16:29:54.
