data_PCOD8239024
_publ_section_title
;
Structure prediction by ZEFSAII (Michael W. Deem and Ramdas Pophale) SiO2 
 PCOD8239024
Probable space group: P M M N
;
_chemical_formula_sum "Si O2"
_cell_formula_units_Z 56
_cell_length_a 8.774075
_cell_length_b 21.315169
_cell_length_c 16.073497
_cell_angle_alpha 90.000000
_cell_angle_beta 90.000000
_cell_angle_gamma 90.000000
_cell_volume 3006.079738
_symmetry_space_group_name_H-M "P M M N"
_symmetry_group_IT_number 59
_space_group.IT_coordinate_system_code '2'
_symmetry_cell_setting 'orthorhombic'
loop_
_space_group_symop_operation_xyz
x,y,z
1/2-x,1/2-y,z
1/2+x,-y,-z
-x,1/2+y,-z
-x,-y,-z
1/2+x,1/2+y,-z
1/2-x,y,z
x,1/2-y,z
loop_
_atom_site_type_symbol
_atom_site_label
_atom_site_fract_x
_atom_site_fract_y
_atom_site_fract_z
Si Si1 0.427954 0.501763 0.910048
Si Si2 0.927945 0.883838 0.196006
Si Si3 0.427700 0.870750 0.485930
Si Si4 0.569627 0.454020 0.656943
Si Si5 0.425270 0.750000 0.377651
Si Si6 0.568841 0.571989 0.759495
Si Si7 0.926854 0.750000 0.204473
Si Si8 0.931798 0.177460 0.340692
O O1 0.250000 0.517735 0.914516
O O2 0.461291 0.432362 0.876692
O O3 0.507267 0.552706 0.850232
O O4 0.500000 0.500000 0.000000
O O5 0.750000 0.882393 0.219370
O O6 0.989557 0.815259 0.165337
O O7 0.018482 0.900829 0.278967
O O8 0.250000 0.879624 0.499582
O O9 0.490980 0.932585 0.435395
O O10 0.463184 0.810024 0.432331
O O11 0.498816 0.858423 0.577295
O O12 0.750000 0.454043 0.655994
O O13 0.510142 0.521871 0.688987
O O14 0.250000 0.750000 0.347088
O O15 0.540380 0.750000 0.301898
O O16 0.750000 0.574609 0.763384
O O17 0.501758 0.640292 0.737712
O O18 0.750000 0.750000 0.188160
O O19 0.750000 0.175031 0.337312
O O20 0.986450 0.250000 0.338752
#
# Coordination Sequence:
#
# PCOD8239024 Si02
#       8
#     8   8   8   8   4   8   4   8
#     4  10  20  37  61  84 104 132 169 211 260 318
#     4   9  18  30  47  74 107 138 166 198 249 309
#     4   9  16  28  48  73 100 137 186 227 258 297
#     4   9  17  30  49  73 103 137 176 219 258 303
#     4  10  16  26  46  70  97 138 185 218 247 292
#     4  10  21  36  54  80 109 136 170 217 272 322
#     4  10  18  28  44  72 109 140 163 200 251 306
#     4  10  20  35  54  74 100 141 189 229 264 309
#
# _framework density 18.628914999999999
#
# number of rings (size 3 to 8) (size 9 to 14) (size 15 to 20)
#    0.000    2.429    2.143    0.857    0.000    2.000 
#    0.000    1.429    1.571    0.000    0.000    0.000 
#    0.000    0.000    0.000    0.000    0.000    0.000 
#
# Total GULP energy -693837.760285 kJ/mol
# GULP energy per Si atom -12389.960005 kJ/mol
# Density = 1.858651 g / cm^3
# Si number density = 18.628915 Si / 1000 Ang^3
#
#
#
# Elastic Constant Matrix: (Units=GPa)
#
#
# Indices 1 2 3 4 5 6 
#
# 1 25.8066 26.3386 24.2783 0.0000 0.0000 0.0000
# 2 26.3386 106.7206 64.5198 0.0000 0.0000 0.0000
# 3 24.2783 64.5198 109.1795 0.0000 0.0000 0.0000
# 4 0.0000 0.0000 0.0000 26.0854 0.0000 0.0000
# 5 0.0000 0.0000 0.0000 0.0000 24.1212 0.0000
# 6 0.0000 0.0000 0.0000 0.0000 0.0000 20.4174
#
#
#
# Elastic Compliance Matrix: (Units=1/GPa)
#
#
# Indices 1 2 3 4 5 6 
#
# 1 0.054611 -0.009547 -0.006502 0.000000 0.000000 0.000000
# 2 -0.009547 0.016248 -0.007479 0.000000 0.000000 0.000000
# 3 -0.006502 -0.007479 0.015025 0.000000 0.000000 0.000000
# 4 0.000000 0.000000 0.000000 0.038336 0.000000 0.000000
# 5 0.000000 0.000000 0.000000 0.000000 0.041457 0.000000
# 6 0.000000 0.000000 0.000000 0.000000 0.000000 0.048978
#
#
# Mechanical properties :
#
#
# Convention : Reuss Voigt Hill
#
# Bulk Modulus (GPa) = 25.75483 52.44222 39.09853
# Shear Modulus (GPa) = 18.20487 22.56279 20.38383
#
# Velocity S-wave (km/s) = 3.12947 3.48396 3.31146
# Velocity P-wave (km/s) = 5.18781 6.66304 5.97116
#
# Compressibility (1/GPa) = 0.03882766
#
# Stress axis : x y z
#
# Youngs Moduli (GPa) = 18.31149 61.54651 66.55734
#
# Poissons Ratio (x) = 0.58759 0.43275
# Poissons Ratio (y) = 0.17482 0.49776
# Poissons Ratio (z) = 0.11906 0.46029
#
# Static dielectric constant tensor:
#      x y z
#    x 3.198580 0.000000 0.000000 
#    y 0.000000 3.914590 0.000000 
#    z 0.000000 0.000000 3.439910 
# 
# 
# High freq. dielectric constant tensor:
#      x y z
#    x 1.702980 0.000000 0.000000 
#    y 0.000000 1.732510 0.000000 
#    z 0.000000 0.000000 1.699490 
# 
# From -- ./inp_files/21215.got.cif
#   From: 2010.03.12/outbox.cif.g09.slc.cpg/sg59_11_cif.got.tgz:21215.got - 2010.04.16 16:29:54.
