data_PCOD8239906
_publ_section_title
;
Structure prediction by ZEFSAII (Michael W. Deem and Ramdas Pophale) SiO2 
 PCOD8239906
Probable space group: P M M N
;
_chemical_formula_sum "Si O2"
_cell_formula_units_Z 64
_cell_length_a 9.036322
_cell_length_b 29.252931
_cell_length_c 12.460865
_cell_angle_alpha 90.000000
_cell_angle_beta 90.000000
_cell_angle_gamma 90.000000
_cell_volume 3293.891396
_symmetry_space_group_name_H-M "P M M N"
_symmetry_group_IT_number 59
_space_group.IT_coordinate_system_code '2'
_symmetry_cell_setting 'orthorhombic'
loop_
_space_group_symop_operation_xyz
x,y,z
1/2-x,1/2-y,z
1/2+x,-y,-z
-x,1/2+y,-z
-x,-y,-z
1/2+x,1/2+y,-z
1/2-x,y,z
x,1/2-y,z
loop_
_atom_site_type_symbol
_atom_site_label
_atom_site_fract_x
_atom_site_fract_y
_atom_site_fract_z
Si Si1 0.423608 0.824170 0.325150
Si Si2 0.577689 0.610048 0.615182
Si Si3 0.921931 0.037836 0.795084
Si Si4 0.578458 0.199714 0.434915
Si Si5 0.075158 0.887894 0.028732
Si Si6 0.578318 0.935419 0.835172
Si Si7 0.075132 0.084827 0.619316
Si Si8 0.579173 0.800528 0.117258
O O1 0.250000 0.826881 0.299676
O O2 0.457347 0.800932 0.438682
O O3 0.491028 0.874522 0.320602
O O4 0.504201 0.795504 0.233637
O O5 0.750000 0.619142 0.610342
O O6 0.506827 0.660181 0.627871
O O7 0.532145 0.578787 0.714738
O O8 0.526882 0.584180 0.505924
O O9 0.750000 0.041961 0.764969
O O10 0.973264 0.076664 0.878731
O O11 0.015969 0.040655 0.684029
O O12 0.955204 0.989008 0.849092
O O13 0.750000 0.190660 0.415239
O O14 0.531869 0.250000 0.391591
O O15 0.250000 0.881795 0.026191
O O16 0.002643 0.838389 0.045815
O O17 0.022151 0.906940 0.915298
O O18 0.750000 0.924305 0.857582
O O19 0.250000 0.089859 0.632088
O O20 0.750000 0.814780 0.129760
O O21 0.565453 0.750000 0.063267
#
# Coordination Sequence:
#
# PCOD8239906 Si02
#       8
#     8   8   8   8   8   8   8   8
#     4  10  18  31  52  80 115 150 183 224 276 333
#     4   9  20  37  55  80 113 150 190 233 279 333
#     4  10  21  37  59  87 115 148 186 233 292 345
#     4   9  18  32  52  79 110 146 187 231 280 333
#     4  11  23  39  60  86 115 146 190 239 285 337
#     4  10  22  41  61  80 111 152 194 238 286 339
#     4  10  19  32  54  84 118 151 184 226 277 334
#     4  11  23  37  56  84 116 151 188 226 279 341
#
# _framework density 19.429905000000002
#
# number of rings (size 3 to 8) (size 9 to 14) (size 15 to 20)
#    0.000    2.000    1.250    2.250    0.000    4.750 
#    0.000    0.625    0.000    0.750    0.000    0.000 
#    0.000    0.000    0.000    0.000    0.000    0.000 
#
# Total GULP energy -793576.948856 kJ/mol
# GULP energy per Si atom -12399.639826 kJ/mol
# Density = 1.938568 g / cm^3
# Si number density = 19.429905 Si / 1000 Ang^3
#
#
#
# Elastic Constant Matrix: (Units=GPa)
#
#
# Indices 1 2 3 4 5 6 
#
# 1 74.8581 46.9864 41.2966 0.0000 0.0000 0.0000
# 2 46.9864 109.3522 47.3685 0.0000 0.0000 0.0000
# 3 41.2966 47.3685 82.1791 0.0000 0.0000 0.0000
# 4 0.0000 0.0000 0.0000 18.3281 0.0000 0.0000
# 5 0.0000 0.0000 0.0000 0.0000 28.8045 0.0000
# 6 0.0000 0.0000 0.0000 0.0000 0.0000 28.2214
#
#
#
# Elastic Compliance Matrix: (Units=1/GPa)
#
#
# Indices 1 2 3 4 5 6 
#
# 1 0.021028 -0.005941 -0.007142 0.000000 0.000000 0.000000
# 2 -0.005941 0.013867 -0.005007 0.000000 0.000000 0.000000
# 3 -0.007142 -0.005007 0.018644 0.000000 0.000000 0.000000
# 4 0.000000 0.000000 0.000000 0.054561 0.000000 0.000000
# 5 0.000000 0.000000 0.000000 0.000000 0.034717 0.000000
# 6 0.000000 0.000000 0.000000 0.000000 0.000000 0.035434
#
#
# Mechanical properties :
#
#
# Convention : Reuss Voigt Hill
#
# Bulk Modulus (GPa) = 57.61449 59.74360 58.67905
# Shear Modulus (GPa) = 22.70478 23.78666 23.24572
#
# Velocity S-wave (km/s) = 3.42211 3.50270 3.46264
# Velocity P-wave (km/s) = 6.73285 6.86830 6.80091
#
# Compressibility (1/GPa) = 0.01735675
#
# Stress axis : x y z
#
# Youngs Moduli (GPa) = 47.55543 72.11562 53.63702
#
# Poissons Ratio (x) = 0.42847 0.38309
# Poissons Ratio (y) = 0.28255 0.26857
# Poissons Ratio (z) = 0.33966 0.36109
#
# Static dielectric constant tensor:
#      x y z
#    x 3.512440 0.000000 0.000000 
#    y 0.000000 3.798290 0.000000 
#    z 0.000000 0.000000 3.479500 
# 
# 
# High freq. dielectric constant tensor:
#      x y z
#    x 1.757100 0.000000 0.000000 
#    y 0.000000 1.760130 0.000000 
#    z 0.000000 0.000000 1.740120 
# 
# From -- ./inp_files/15030.got.cif
#   From: 2010.03.12/outbox.cif.g09.slc.cpg/sg59_8_cif.got.tgz:15030.got - 2010.04.16 16:29:54.
