data_PCOD8239866
_publ_section_title
;
Structure prediction by ZEFSAII (Michael W. Deem and Ramdas Pophale) SiO2 
 PCOD8239866
Probable space group: P M M N
;
_chemical_formula_sum "Si O2"
_cell_formula_units_Z 64
_cell_length_a 23.707529
_cell_length_b 9.068491
_cell_length_c 15.555904
_cell_angle_alpha 90.000000
_cell_angle_beta 90.000000
_cell_angle_gamma 90.000000
_cell_volume 3344.387343
_symmetry_space_group_name_H-M "P M M N"
_symmetry_group_IT_number 59
_space_group.IT_coordinate_system_code '2'
_symmetry_cell_setting 'orthorhombic'
loop_
_space_group_symop_operation_xyz
x,y,z
1/2-x,1/2-y,z
1/2+x,-y,-z
-x,1/2+y,-z
-x,-y,-z
1/2+x,1/2+y,-z
1/2-x,y,z
x,1/2-y,z
loop_
_atom_site_type_symbol
_atom_site_label
_atom_site_fract_x
_atom_site_fract_y
_atom_site_fract_z
Si Si1 0.313392 0.425561 0.459151
Si Si2 0.611549 0.923712 0.696535
Si Si3 0.521033 0.921636 0.134788
Si Si4 0.608897 0.082678 0.867492
Si Si5 0.983087 0.075330 0.309963
Si Si6 0.684854 0.579368 0.203290
Si Si7 0.618758 0.923732 0.375051
Si Si8 0.120137 0.577356 0.944488
O O1 0.250000 0.489473 0.456837
O O2 0.312126 0.250000 0.457386
O O3 0.347151 0.487139 0.376494
O O4 0.343861 0.480373 0.545422
O O5 0.615702 0.750000 0.701940
O O6 0.547758 0.972554 0.672723
O O7 0.631212 0.983128 0.789514
O O8 0.535436 0.750000 0.145296
O O9 0.456435 0.950237 0.112019
O O10 0.538355 0.003757 0.221926
O O11 0.560557 0.992798 0.062479
O O12 0.617010 0.250000 0.837102
O O13 0.641708 0.051304 0.957025
O O14 0.976718 0.250000 0.306139
O O15 0.941482 0.007539 0.381906
O O16 0.750000 0.547827 0.221775
O O17 0.673805 0.750000 0.181741
O O18 0.651205 0.531516 0.288204
O O19 0.666197 0.484322 0.121281
O O20 0.607704 0.750000 0.381128
O O21 0.110203 0.750000 0.927860
#
# Coordination Sequence:
#
# PCOD8239866 Si02
#       8
#     8   8   8   8   8   8   8   8
#     4   9  18  35  59  83 105 135 180 229 271 314
#     4   9  19  35  55  80 109 141 180 225 271 318
#     4  10  18  31  51  76 106 141 180 218 258 314
#     4   9  20  35  52  76 107 142 179 217 266 320
#     4  10  19  31  49  78 115 146 173 213 270 328
#     4  10  21  36  53  75 105 142 184 226 265 316
#     4  10  19  33  56  82 107 138 178 220 267 325
#     4  11  21  33  51  77 108 142 178 219 269 320
#
# _framework density 19.136538999999999
#
# number of rings (size 3 to 8) (size 9 to 14) (size 15 to 20)
#    0.000    2.250    1.250    1.875    0.000    4.250 
#    0.000    1.250    0.000    4.500    0.000    0.000 
#    0.000    0.000    0.000    0.000    0.000    0.000 
#
# Total GULP energy -793527.779144 kJ/mol
# GULP energy per Si atom -12398.871549 kJ/mol
# Density = 1.909298 g / cm^3
# Si number density = 19.136539 Si / 1000 Ang^3
#
#
#
# Elastic Constant Matrix: (Units=GPa)
#
#
# Indices 1 2 3 4 5 6 
#
# 1 73.6698 31.0223 66.3977 0.0000 0.0000 0.0000
# 2 31.0223 53.4785 39.6541 0.0000 0.0000 0.0000
# 3 66.3977 39.6541 134.4792 0.0000 0.0000 0.0000
# 4 0.0000 0.0000 0.0000 23.6128 0.0000 0.0000
# 5 0.0000 0.0000 0.0000 0.0000 26.1741 0.0000
# 6 0.0000 0.0000 0.0000 0.0000 0.0000 21.5342
#
#
#
# Elastic Compliance Matrix: (Units=1/GPa)
#
#
# Indices 1 2 3 4 5 6 
#
# 1 0.026488 -0.007254 -0.010939 0.000000 0.000000 0.000000
# 2 -0.007254 0.025918 -0.004061 0.000000 0.000000 0.000000
# 3 -0.010939 -0.004061 0.014035 0.000000 0.000000 0.000000
# 4 0.000000 0.000000 0.000000 0.042350 0.000000 0.000000
# 5 0.000000 0.000000 0.000000 0.000000 0.038206 0.000000
# 6 0.000000 0.000000 0.000000 0.000000 0.000000 0.046438
#
#
# Mechanical properties :
#
#
# Convention : Reuss Voigt Hill
#
# Bulk Modulus (GPa) = 45.59423 59.53062 52.56242
# Shear Modulus (GPa) = 20.38705 22.56779 21.47742
#
# Velocity S-wave (km/s) = 3.26751 3.43782 3.35375
# Velocity P-wave (km/s) = 6.17357 6.85084 6.52100
#
# Compressibility (1/GPa) = 0.02193260
#
# Stress axis : x y z
#
# Youngs Moduli (GPa) = 37.75274 38.58283 71.25215
#
# Poissons Ratio (x) = 0.27988 0.77944
# Poissons Ratio (y) = 0.27386 0.28935
# Poissons Ratio (z) = 0.41299 0.15668
#
# Static dielectric constant tensor:
#      x y z
#    x 3.510140 0.000000 0.000000 
#    y 0.000000 3.316000 0.000000 
#    z 0.000000 0.000000 3.589830 
# 
# 
# High freq. dielectric constant tensor:
#      x y z
#    x 1.733650 0.000000 0.000000 
#    y 0.000000 1.727070 0.000000 
#    z 0.000000 0.000000 1.745760 
# 
# From -- ./inp_files/24801.got.cif
#   From: 2010.03.12/outbox.cif.g09.slc.cpg/sg59_13_cif.got.tgz:24801.got - 2010.04.16 16:29:54.
