data_PCOD8239810
_publ_section_title
;
Structure prediction by ZEFSAII (Michael W. Deem and Ramdas Pophale) SiO2 
 PCOD8239810
Probable space group: P M M N
;
_chemical_formula_sum "Si O2"
_cell_formula_units_Z 64
_cell_length_a 14.014433
_cell_length_b 9.162755
_cell_length_c 25.892991
_cell_angle_alpha 90.000000
_cell_angle_beta 90.000000
_cell_angle_gamma 90.000000
_cell_volume 3324.940104
_symmetry_space_group_name_H-M "P M M N"
_symmetry_group_IT_number 59
_space_group.IT_coordinate_system_code '2'
_symmetry_cell_setting 'orthorhombic'
loop_
_space_group_symop_operation_xyz
x,y,z
1/2-x,1/2-y,z
1/2+x,-y,-z
-x,1/2+y,-z
-x,-y,-z
1/2+x,1/2+y,-z
1/2-x,y,z
x,1/2-y,z
loop_
_atom_site_type_symbol
_atom_site_label
_atom_site_fract_x
_atom_site_fract_y
_atom_site_fract_z
Si Si1 0.363628 0.588207 0.482680
Si Si2 0.363580 0.084665 0.580383
Si Si3 0.639920 0.080091 0.914256
Si Si4 0.142535 0.576746 0.774212
Si Si5 0.534243 0.076665 0.328211
Si Si6 0.527884 0.076748 0.126652
Si Si7 0.644491 0.076559 0.029456
Si Si8 0.141123 0.578593 0.366888
O O1 0.250000 0.590330 0.482321
O O2 0.401375 0.750000 0.496765
O O3 0.402401 0.473379 0.524972
O O4 0.396648 0.544008 0.424994
O O5 0.250000 0.076583 0.581920
O O6 0.400462 0.250000 0.587557
O O7 0.402896 0.983057 0.625126
O O8 0.750000 0.046457 0.902695
O O9 0.617894 0.250000 0.907817
O O10 0.578033 0.990800 0.872573
O O11 0.612451 0.025994 0.972266
O O12 0.250000 0.512210 0.773007
O O13 0.147758 0.750000 0.775721
O O14 0.084909 0.523675 0.724157
O O15 0.087978 0.517851 0.824767
O O16 0.528237 0.250000 0.331993
O O17 0.427494 0.010335 0.328495
O O18 0.520491 0.250000 0.128091
O O19 0.576115 0.016382 0.074142
O O20 0.750000 0.015313 0.041037
O O21 0.647498 0.250000 0.030908
O O22 0.250000 0.525143 0.358847
O O23 0.133758 0.750000 0.355448
#
# Coordination Sequence:
#
# PCOD8239810 Si02
#       8
#     8   8   8   8   8   8   8   8
#     4   8  15  30  52  76 102 133 167 204 250 303
#     4  10  20  33  51  77 108 139 171 209 253 304
#     4   9  18  32  48  70 106 145 172 199 245 306
#     4   9  19  36  56  78 103 130 165 211 259 304
#     4  11  22  35  54  77 101 134 173 213 258 306
#     4  10  18  30  53  79  99 127 172 221 259 292
#     4   8  14  26  47  75 104 135 170 206 250 306
#     4   9  19  37  58  78 103 134 168 210 257 304
#
# _framework density 19.248467000000002
#
# number of rings (size 3 to 8) (size 9 to 14) (size 15 to 20)
#    0.000    2.750    0.000    3.375    0.000    4.250 
#    0.000    3.125    0.000    7.500    0.000    0.000 
#    0.000    0.000    0.000    0.000    0.000    0.000 
#
# Total GULP energy -793464.316081 kJ/mol
# GULP energy per Si atom -12397.879939 kJ/mol
# Density = 1.920466 g / cm^3
# Si number density = 19.248467 Si / 1000 Ang^3
#
#
#
# Elastic Constant Matrix: (Units=GPa)
#
#
# Indices 1 2 3 4 5 6 
#
# 1 105.6025 44.3793 78.2586 0.0000 0.0000 0.0000
# 2 44.3793 52.6473 38.8782 0.0000 0.0000 0.0000
# 3 78.2586 38.8782 112.3140 0.0000 0.0000 0.0000
# 4 0.0000 0.0000 0.0000 19.4294 0.0000 0.0000
# 5 0.0000 0.0000 0.0000 0.0000 33.5479 0.0000
# 6 0.0000 0.0000 0.0000 0.0000 0.0000 31.0447
#
#
#
# Elastic Compliance Matrix: (Units=1/GPa)
#
#
# Indices 1 2 3 4 5 6 
#
# 1 0.023017 -0.010155 -0.012523 0.000000 0.000000 0.000000
# 2 -0.010155 0.029997 -0.003308 0.000000 0.000000 0.000000
# 3 -0.012523 -0.003308 0.018775 0.000000 0.000000 0.000000
# 4 0.000000 0.000000 0.000000 0.051468 0.000000 0.000000
# 5 0.000000 0.000000 0.000000 0.000000 0.029808 0.000000
# 6 0.000000 0.000000 0.000000 0.000000 0.000000 0.032212
#
#
# Mechanical properties :
#
#
# Convention : Reuss Voigt Hill
#
# Bulk Modulus (GPa) = 50.46052 65.95511 58.20782
# Shear Modulus (GPa) = 20.50401 24.07425 22.28913
#
# Velocity S-wave (km/s) = 3.26732 3.54037 3.40659
# Velocity P-wave (km/s) = 6.36444 7.14506 6.76602
#
# Compressibility (1/GPa) = 0.01981747
#
# Stress axis : x y z
#
# Youngs Moduli (GPa) = 43.44536 33.33646 53.26366
#
# Poissons Ratio (x) = 0.33853 0.66702
# Poissons Ratio (y) = 0.44118 0.17620
# Poissons Ratio (z) = 0.54407 0.11028
#
# Static dielectric constant tensor:
#      x y z
#    x 3.601150 0.000000 0.000000 
#    y 0.000000 3.213550 0.000000 
#    z 0.000000 0.000000 3.579140 
# 
# 
# High freq. dielectric constant tensor:
#      x y z
#    x 1.761410 0.000000 0.000000 
#    y 0.000000 1.718130 0.000000 
#    z 0.000000 0.000000 1.736010 
# 
# From -- ./inp_files/32185.got.cif
#   From: 2010.03.12/outbox.cif.g09.slc.cpg/sg59_17_cif.got.tgz:32185.got - 2010.04.16 16:29:54.
