data_PCOD8239557
_publ_section_title
;
Structure prediction by ZEFSAII (Michael W. Deem and Ramdas Pophale) SiO2 
 PCOD8239557
Probable space group: P M M N
;
_chemical_formula_sum "Si O2"
_cell_formula_units_Z 48
_cell_length_a 9.454532
_cell_length_b 18.197421
_cell_length_c 16.383491
_cell_angle_alpha 90.000000
_cell_angle_beta 90.000000
_cell_angle_gamma 90.000000
_cell_volume 2818.748484
_symmetry_space_group_name_H-M "P M M N"
_symmetry_group_IT_number 59
_space_group.IT_coordinate_system_code '2'
_symmetry_cell_setting 'orthorhombic'
loop_
_space_group_symop_operation_xyz
x,y,z
1/2-x,1/2-y,z
1/2+x,-y,-z
-x,1/2+y,-z
-x,-y,-z
1/2+x,1/2+y,-z
1/2-x,y,z
x,1/2-y,z
loop_
_atom_site_type_symbol
_atom_site_label
_atom_site_fract_x
_atom_site_fract_y
_atom_site_fract_z
Si Si1 0.915256 0.425081 0.999259
Si Si2 0.085920 0.524785 0.577680
Si Si3 0.585819 0.944770 0.255727
Si Si4 0.418427 0.669649 0.665451
Si Si5 0.916147 0.165383 0.841668
Si Si6 0.084596 0.592305 0.821798
O O1 0.750000 0.444284 0.992725
O O2 0.964098 0.371558 0.926987
O O3 0.948841 0.384076 0.085410
O O4 0.000000 0.500000 0.000000
O O5 0.250000 0.527621 0.554304
O O6 0.059729 0.466982 0.650446
O O7 0.031258 0.606187 0.603394
O O8 0.000000 0.500000 0.500000
O O9 0.750000 0.927532 0.239715
O O10 0.496204 0.872413 0.233977
O O11 0.527224 0.010247 0.197493
O O12 0.250000 0.671530 0.666424
O O13 0.478378 0.750000 0.639798
O O14 0.476947 0.650966 0.756829
O O15 0.750000 0.156498 0.827479
O O16 0.961530 0.250000 0.845103
O O17 0.250000 0.587151 0.804184
#
# Coordination Sequence:
#
# PCOD8239557 Si02
#       6
#     8   8   8   8   8   8
#     4  10  18  29  47  69  96 129 164 200 239 286
#     4   9  18  32  52  77 100 123 157 196 235 289
#     4   9  17  32  51  69  92 125 165 198 230 288
#     4   8  14  26  46  72  98 121 150 193 240 281
#     4  10  21  33  45  69 102 130 162 207 251 283
#     4   8  14  25  44  68  91 119 157 195 230 277
#
# _framework density 17.028832999999999
#
# number of rings (size 3 to 8) (size 9 to 14) (size 15 to 20)
#    0.000    3.000    1.667    2.000    0.000    1.667 
#    0.000    4.167    0.000    3.500    0.000    0.000 
#    0.000    0.000    0.000    0.000    0.000    0.000 
#
# Total GULP energy -594859.911725 kJ/mol
# GULP energy per Si atom -12392.914828 kJ/mol
# Density = 1.699007 g / cm^3
# Si number density = 17.028833 Si / 1000 Ang^3
#
#
#
# Elastic Constant Matrix: (Units=GPa)
#
#
# Indices 1 2 3 4 5 6 
#
# 1 33.1474 40.1009 39.6896 0.0000 0.0000 0.0000
# 2 40.1009 144.6810 70.6302 0.0000 0.0000 0.0000
# 3 39.6896 70.6302 113.0944 0.0000 0.0000 0.0000
# 4 0.0000 0.0000 0.0000 22.3593 0.0000 0.0000
# 5 0.0000 0.0000 0.0000 0.0000 25.8451 0.0000
# 6 0.0000 0.0000 0.0000 0.0000 0.0000 21.1186
#
#
#
# Elastic Compliance Matrix: (Units=1/GPa)
#
#
# Indices 1 2 3 4 5 6 
#
# 1 0.059218 -0.009017 -0.015151 0.000000 0.000000 0.000000
# 2 -0.009017 0.011316 -0.003903 0.000000 0.000000 0.000000
# 3 -0.015151 -0.003903 0.016597 0.000000 0.000000 0.000000
# 4 0.000000 0.000000 0.000000 0.044724 0.000000 0.000000
# 5 0.000000 0.000000 0.000000 0.000000 0.038692 0.000000
# 6 0.000000 0.000000 0.000000 0.000000 0.000000 0.047352
#
#
# Mechanical properties :
#
#
# Convention : Reuss Voigt Hill
#
# Bulk Modulus (GPa) = 32.26891 65.75159 49.01025
# Shear Modulus (GPa) = 17.58276 23.23140 20.40708
#
# Velocity S-wave (km/s) = 3.21678 3.69757 3.46552
# Velocity P-wave (km/s) = 5.72605 7.54487 6.69749
#
# Compressibility (1/GPa) = 0.03098959
#
# Stress axis : x y z
#
# Youngs Moduli (GPa) = 16.88682 88.36843 60.25330
#
# Poissons Ratio (x) = 0.79682 0.91288
# Poissons Ratio (y) = 0.15227 0.23516
# Poissons Ratio (z) = 0.25585 0.34489
#
# Static dielectric constant tensor:
#      x y z
#    x 2.815600 0.000000 0.000000 
#    y 0.000000 3.390870 0.000000 
#    z 0.000000 0.000000 3.238160 
# 
# 
# High freq. dielectric constant tensor:
#      x y z
#    x 1.617730 0.000000 0.000000 
#    y 0.000000 1.651500 0.000000 
#    z 0.000000 0.000000 1.657410 
# 
# From -- ./inp_files/25745.got.cif
#   From: 2010.03.12/outbox.cif.g09.slc.cpg/sg59_13_cif.got.tgz:25745.got - 2010.04.16 16:29:54.
