data_PCOD8239773
_publ_section_title
;
Structure prediction by ZEFSAII (Michael W. Deem and Ramdas Pophale) SiO2 
 PCOD8239773
Probable space group: P M M N
;
_chemical_formula_sum "Si O2"
_cell_formula_units_Z 64
_cell_length_a 9.161862
_cell_length_b 20.292950
_cell_length_c 19.620518
_cell_angle_alpha 90.000000
_cell_angle_beta 90.000000
_cell_angle_gamma 90.000000
_cell_volume 3647.870398
_symmetry_space_group_name_H-M "P M M N"
_symmetry_group_IT_number 59
_space_group.IT_coordinate_system_code '2'
_symmetry_cell_setting 'orthorhombic'
loop_
_space_group_symop_operation_xyz
x,y,z
1/2-x,1/2-y,z
1/2+x,-y,-z
-x,1/2+y,-z
-x,-y,-z
1/2+x,1/2+y,-z
1/2-x,y,z
x,1/2-y,z
loop_
_atom_site_type_symbol
_atom_site_label
_atom_site_fract_x
_atom_site_fract_y
_atom_site_fract_z
Si Si1 0.579949 0.435101 0.475226
Si Si2 0.922782 0.178214 0.571701
Si Si3 0.417577 0.325161 0.940702
Si Si4 0.419798 0.905179 0.304900
Si Si5 0.916918 0.466261 0.327651
Si Si6 0.078223 0.561541 0.823065
Si Si7 0.083123 0.174681 0.100095
Si Si8 0.922731 0.073283 0.846540
O O1 0.500000 0.500000 0.500000
O O2 0.750000 0.444498 0.491970
O O3 0.514468 0.372660 0.515927
O O4 0.555141 0.421183 0.394344
O O5 0.750000 0.181954 0.563912
O O6 0.992789 0.250000 0.558586
O O7 0.964490 0.157256 0.649065
O O8 0.250000 0.338766 0.920376
O O9 0.459979 0.250000 0.921453
O O10 0.522263 0.376018 0.902877
O O11 0.441143 0.336913 0.020366
O O12 0.250000 0.919198 0.308854
O O13 0.467387 0.895379 0.226528
O O14 0.492500 0.968050 0.339050
O O15 0.750000 0.488320 0.322845
O O16 0.961345 0.430255 0.257209
O O17 0.250000 0.553292 0.835489
O O18 0.024471 0.627568 0.858983
O O19 0.998234 0.497876 0.855078
O O20 0.250000 0.158683 0.119821
O O21 0.045243 0.250000 0.119288
O O22 0.750000 0.063758 0.854618
#
# Coordination Sequence:
#
# PCOD8239773 Si02
#       8
#     8   8   8   8   8   8   8   8
#     4  10  18  30  51  74  95 128 169 206 247 294
#     4   9  17  29  46  70  99 129 164 204 245 291
#     4   9  19  36  55  74 100 135 172 210 256 310
#     4   9  17  30  48  70  95 128 168 203 243 292
#     4   9  18  31  48  73 101 126 162 207 250 294
#     4  10  20  34  52  76 106 136 168 213 261 307
#     4   9  19  37  58  77  99 131 172 215 258 308
#     4  10  20  32  50  77 106 135 170 212 256 301
#
# _framework density 17.544483
#
# number of rings (size 3 to 8) (size 9 to 14) (size 15 to 20)
#    0.000    2.625    1.250    1.500    0.000    3.000 
#    0.000    3.125    0.000    3.750    0.000    0.000 
#    0.000    0.000    0.000    0.000    0.000    0.000 
#
# Total GULP energy -793365.539567 kJ/mol
# GULP energy per Si atom -12396.336556 kJ/mol
# Density = 1.750455 g / cm^3
# Si number density = 17.544483 Si / 1000 Ang^3
#
#
#
# Elastic Constant Matrix: (Units=GPa)
#
#
# Indices 1 2 3 4 5 6 
#
# 1 55.8417 46.8616 36.7928 0.0000 0.0000 0.0000
# 2 46.8616 134.5409 68.6580 0.0000 0.0000 0.0000
# 3 36.7928 68.6580 86.1960 0.0000 0.0000 0.0000
# 4 0.0000 0.0000 0.0000 27.2432 0.0000 0.0000
# 5 0.0000 0.0000 0.0000 0.0000 20.3454 0.0000
# 6 0.0000 0.0000 0.0000 0.0000 0.0000 28.3168
#
#
#
# Elastic Compliance Matrix: (Units=1/GPa)
#
#
# Indices 1 2 3 4 5 6 
#
# 1 0.027565 -0.006060 -0.006939 0.000000 0.000000 0.000000
# 2 -0.006060 0.013855 -0.008449 0.000000 0.000000 0.000000
# 3 -0.006939 -0.008449 0.021294 0.000000 0.000000 0.000000
# 4 0.000000 0.000000 0.000000 0.036706 0.000000 0.000000
# 5 0.000000 0.000000 0.000000 0.000000 0.049151 0.000000
# 6 0.000000 0.000000 0.000000 0.000000 0.000000 0.035315
#
#
# Mechanical properties :
#
#
# Convention : Reuss Voigt Hill
#
# Bulk Modulus (GPa) = 50.46199 64.57817 57.52008
# Shear Modulus (GPa) = 21.42336 23.46550 22.44443
#
# Velocity S-wave (km/s) = 3.49820 3.66113 3.58059
# Velocity P-wave (km/s) = 6.71873 7.40000 7.06758
#
# Compressibility (1/GPa) = 0.01981690
#
# Stress axis : x y z
#
# Youngs Moduli (GPa) = 36.27734 72.17442 46.96199
#
# Poissons Ratio (x) = 0.43738 0.32588
# Poissons Ratio (y) = 0.21984 0.39681
# Poissons Ratio (z) = 0.25174 0.60984
#
# Static dielectric constant tensor:
#      x y z
#    x 3.148860 0.000000 0.000000 
#    y 0.000000 3.305530 0.000000 
#    z 0.000000 0.000000 3.470150 
# 
# 
# High freq. dielectric constant tensor:
#      x y z
#    x 1.667000 0.000000 0.000000 
#    y 0.000000 1.665930 0.000000 
#    z 0.000000 0.000000 1.686000 
# 
# From -- ./inp_files/29420.got.cif
#   From: 2010.03.12/outbox.cif.g09.slc.cpg/sg59_15_cif.got.tgz:29420.got - 2010.04.16 16:29:54.
