data_PCOD8239272
_publ_section_title
;
Structure prediction by ZEFSAII (Michael W. Deem and Ramdas Pophale) SiO2 
 PCOD8239272
Probable space group: P M M N
;
_chemical_formula_sum "Si O2"
_cell_formula_units_Z 64
_cell_length_a 14.739112
_cell_length_b 27.499821
_cell_length_c 9.839477
_cell_angle_alpha 90.000000
_cell_angle_beta 90.000000
_cell_angle_gamma 90.000000
_cell_volume 3988.165762
_symmetry_space_group_name_H-M "P M M N"
_symmetry_group_IT_number 59
_space_group.IT_coordinate_system_code '2'
_symmetry_cell_setting 'orthorhombic'
loop_
_space_group_symop_operation_xyz
x,y,z
1/2-x,1/2-y,z
1/2+x,-y,-z
-x,1/2+y,-z
-x,-y,-z
1/2+x,1/2+y,-z
1/2-x,y,z
x,1/2-y,z
loop_
_atom_site_type_symbol
_atom_site_label
_atom_site_fract_x
_atom_site_fract_y
_atom_site_fract_z
Si Si1 0.909382 0.003904 0.170784
Si Si2 0.857544 0.804273 0.596975
Si Si3 0.148034 0.124195 0.171075
Si Si4 0.643416 0.633011 0.346485
Si Si5 0.395613 0.479861 0.254779
Si Si6 0.353428 0.027680 0.546215
Si Si7 0.848215 0.065164 0.927290
Si Si8 0.455894 0.103474 0.906971
O O1 0.868458 0.006019 0.322157
O O2 0.909982 0.949381 0.111167
O O3 0.010393 0.024927 0.173709
O O4 0.852343 0.038134 0.072502
O O5 0.750000 0.804113 0.604911
O O6 0.897613 0.750000 0.614281
O O7 0.893496 0.838726 0.717721
O O8 0.886003 0.824383 0.449224
O O9 0.250000 0.139442 0.125992
O O10 0.156723 0.070639 0.236107
O O11 0.079209 0.126926 0.045803
O O12 0.750000 0.635250 0.306413
O O13 0.619384 0.582534 0.419209
O O14 0.580182 0.638201 0.213669
O O15 0.411550 0.490086 0.415769
O O16 0.342839 0.525357 0.192125
O O17 0.250000 0.024150 0.499243
O O18 0.750000 0.092838 0.923657
O O19 0.933912 0.101122 0.905642
#
# Coordination Sequence:
#
# PCOD8239272 Si02
#       8
#     8   8   8   8   8   8   8   8
#     4  10  19  30  41  61  90 124 159 195 226 253
#     4   9  18  32  49  71  96 119 143 176 227 282
#     4  11  18  28  48  68  92 122 151 185 222 269
#     4   9  17  29  46  66  90 121 149 179 216 265
#     4  11  18  29  42  63  88 124 163 193 222 260
#     4  10  18  27  41  62  86 119 160 188 216 258
#     4  11  20  31  44  61  92 128 159 195 233 258
#     4  10  19  31  43  66  90 121 163 190 218 262
#
# _framework density 16.047476
#
# number of rings (size 3 to 8) (size 9 to 14) (size 15 to 20)
#    0.000    1.875    3.750    3.000    0.000    1.000 
#    0.000    0.625    0.000    3.000    0.000    0.000 
#    0.000    3.000    0.000    0.000    0.000    0.000 
#
# Total GULP energy -793427.093103 kJ/mol
# GULP energy per Si atom -12397.298330 kJ/mol
# Density = 1.601095 g / cm^3
# Si number density = 16.047476 Si / 1000 Ang^3
#
#
#
# Elastic Constant Matrix: (Units=GPa)
#
#
# Indices 1 2 3 4 5 6 
#
# 1 74.9794 20.4719 38.7749 0.0000 0.0000 0.0000
# 2 20.4719 55.0705 38.5318 0.0000 0.0000 0.0000
# 3 38.7749 38.5318 127.3962 0.0000 0.0000 0.0000
# 4 0.0000 0.0000 0.0000 18.5854 0.0000 0.0000
# 5 0.0000 0.0000 0.0000 0.0000 19.3003 0.0000
# 6 0.0000 0.0000 0.0000 0.0000 0.0000 11.1707
#
#
#
# Elastic Compliance Matrix: (Units=1/GPa)
#
#
# Indices 1 2 3 4 5 6 
#
# 1 0.016282 -0.003279 -0.003964 0.000000 0.000000 0.000000
# 2 -0.003279 0.023693 -0.006168 0.000000 0.000000 0.000000
# 3 -0.003964 -0.006168 0.010922 0.000000 0.000000 0.000000
# 4 0.000000 0.000000 0.000000 0.053806 0.000000 0.000000
# 5 0.000000 0.000000 0.000000 0.000000 0.051813 0.000000
# 6 0.000000 0.000000 0.000000 0.000000 0.000000 0.089520
#
#
# Mechanical properties :
#
#
# Convention : Reuss Voigt Hill
#
# Bulk Modulus (GPa) = 41.53762 50.33369 45.93566
# Shear Modulus (GPa) = 17.80103 20.45580 19.12841
#
# Velocity S-wave (km/s) = 3.33419 3.57417 3.45626
# Velocity P-wave (km/s) = 6.38458 6.96179 6.67942
#
# Compressibility (1/GPa) = 0.02407456
#
# Stress axis : x y z
#
# Youngs Moduli (GPa) = 61.41664 42.20605 91.56196
#
# Poissons Ratio (x) = 0.13841 0.36294
# Poissons Ratio (y) = 0.20140 0.56476
# Poissons Ratio (z) = 0.24345 0.26033
#
# Static dielectric constant tensor:
#      x y z
#    x 2.932720 0.000000 0.000000 
#    y 0.000000 2.751660 0.000000 
#    z 0.000000 0.000000 3.251130 
# 
# 
# High freq. dielectric constant tensor:
#      x y z
#    x 1.598310 0.000000 0.000000 
#    y 0.000000 1.557630 0.000000 
#    z 0.000000 0.000000 1.639070 
# 
# From -- ./inp_files/9751.got.cif
#   From: 2010.03.12/outbox.cif.g09.slc.cpg/sg59_5_cif.got.tgz:9751.got - 2010.04.16 16:29:54.
