data_PCOD8239944
_publ_section_title
;
Structure prediction by ZEFSAII (Michael W. Deem and Ramdas Pophale) SiO2 
 PCOD8239944
Probable space group: P M M N
;
_chemical_formula_sum "Si O2"
_cell_formula_units_Z 64
_cell_length_a 15.216342
_cell_length_b 9.181520
_cell_length_c 24.074217
_cell_angle_alpha 90.000000
_cell_angle_beta 90.000000
_cell_angle_gamma 90.000000
_cell_volume 3363.388355
_symmetry_space_group_name_H-M "P M M N"
_symmetry_group_IT_number 59
_space_group.IT_coordinate_system_code '2'
_symmetry_cell_setting 'orthorhombic'
loop_
_space_group_symop_operation_xyz
x,y,z
1/2-x,1/2-y,z
1/2+x,-y,-z
-x,1/2+y,-z
-x,-y,-z
1/2+x,1/2+y,-z
1/2-x,y,z
x,1/2-y,z
loop_
_atom_site_type_symbol
_atom_site_label
_atom_site_fract_x
_atom_site_fract_y
_atom_site_fract_z
Si Si1 0.006230 0.919535 0.185080
Si Si2 0.645864 0.086457 0.994714
Si Si3 0.996271 0.078658 0.687381
Si Si4 0.091071 0.079250 0.496845
Si Si5 0.647569 0.921546 0.884970
Si Si6 0.149309 0.080845 0.896597
Si Si7 0.155070 0.422566 0.614760
Si Si8 0.349798 0.083048 0.376782
O O1 0.030369 0.750000 0.177791
O O2 0.914936 0.957534 0.154221
O O3 0.990365 0.962434 0.248673
O O4 0.088564 0.013925 0.164221
O O5 0.750000 0.090009 0.995026
O O6 0.606960 0.250000 0.991700
O O7 0.613329 0.995518 0.941707
O O8 0.613215 0.008825 0.050715
O O9 0.990238 0.250000 0.678591
O O10 0.077956 0.010578 0.652843
O O11 0.906623 0.012227 0.664846
O O12 0.073364 0.250000 0.498191
O O13 0.146554 0.030382 0.550484
O O14 0.140894 0.032194 0.440761
O O15 0.000000 0.000000 0.500000
O O16 0.750000 0.957811 0.873165
O O17 0.632686 0.750000 0.889863
O O18 0.250000 0.037923 0.880761
O O19 0.144841 0.250000 0.912578
O O20 0.250000 0.480008 0.635885
O O21 0.151325 0.250000 0.620142
O O22 0.250000 0.060913 0.358084
O O23 0.379396 0.250000 0.370943
#
# Coordination Sequence:
#
# PCOD8239944 Si02
#       8
#     8   8   8   8   8   8   8   8
#     4  10  22  37  54  78 107 140 180 224 269 315
#     4   9  17  31  54  83 112 140 172 214 265 319
#     4  10  21  37  55  78 106 138 181 228 269 311
#     4  10  18  31  54  81 110 141 173 214 265 318
#     4  10  21  37  57  80 106 139 179 221 266 318
#     4   9  18  34  55  79 109 142 175 215 263 317
#     4   9  17  31  54  81 107 137 174 216 263 316
#     4  10  21  36  55  79 108 143 180 218 266 323
#
# _framework density 19.028431000000001
#
# number of rings (size 3 to 8) (size 9 to 14) (size 15 to 20)
#    0.000    2.375    1.250    1.125    0.000    6.500 
#    0.000    5.000    0.000    2.250    0.000    1.750 
#    0.000    0.000    0.000    0.000    0.000    0.000 
#
# Total GULP energy -793572.510957 kJ/mol
# GULP energy per Si atom -12399.570484 kJ/mol
# Density = 1.898512 g / cm^3
# Si number density = 19.028431 Si / 1000 Ang^3
#
#
#
# Elastic Constant Matrix: (Units=GPa)
#
#
# Indices 1 2 3 4 5 6 
#
# 1 104.8264 37.1060 55.7685 0.0000 0.0000 0.0000
# 2 37.1060 58.0508 48.1644 0.0000 0.0000 0.0000
# 3 55.7685 48.1644 119.8619 0.0000 0.0000 0.0000
# 4 0.0000 0.0000 0.0000 24.7381 0.0000 0.0000
# 5 0.0000 0.0000 0.0000 0.0000 16.3424 0.0000
# 6 0.0000 0.0000 0.0000 0.0000 0.0000 24.5543
#
#
#
# Elastic Compliance Matrix: (Units=1/GPa)
#
#
# Indices 1 2 3 4 5 6 
#
# 1 0.013643 -0.005181 -0.004266 0.000000 0.000000 0.000000
# 2 -0.005181 0.027810 -0.008764 0.000000 0.000000 0.000000
# 3 -0.004266 -0.008764 0.013849 0.000000 0.000000 0.000000
# 4 0.000000 0.000000 0.000000 0.040424 0.000000 0.000000
# 5 0.000000 0.000000 0.000000 0.000000 0.061190 0.000000
# 6 0.000000 0.000000 0.000000 0.000000 0.000000 0.040726
#
#
# Mechanical properties :
#
#
# Convention : Reuss Voigt Hill
#
# Bulk Modulus (GPa) = 52.96673 62.75742 57.86208
# Shear Modulus (GPa) = 20.80232 22.57364 21.68798
#
# Velocity S-wave (km/s) = 3.30998 3.44802 3.37971
# Velocity P-wave (km/s) = 6.51951 6.99316 6.76048
#
# Compressibility (1/GPa) = 0.01887977
#
# Stress axis : x y z
#
# Youngs Moduli (GPa) = 73.29741 35.95860 72.20558
#
# Poissons Ratio (x) = 0.18632 0.30801
# Poissons Ratio (y) = 0.37978 0.63282
# Poissons Ratio (z) = 0.31266 0.31515
#
# Static dielectric constant tensor:
#      x y z
#    x 3.486760 0.000000 0.000000 
#    y 0.000000 3.359100 0.000000 
#    z 0.000000 0.000000 3.385600 
# 
# 
# High freq. dielectric constant tensor:
#      x y z
#    x 1.743420 0.000000 0.000000 
#    y 0.000000 1.719860 0.000000 
#    z 0.000000 0.000000 1.739760 
# 
# From -- ./inp_files/32143.got.cif
#   From: 2010.03.12/outbox.cif.g09.slc.cpg/sg59_17_cif.got.tgz:32143.got - 2010.04.16 16:29:54.
