data_PCOD8239532
_publ_section_title
;
Structure prediction by ZEFSAII (Michael W. Deem and Ramdas Pophale) SiO2 
 PCOD8239532
Probable space group: P M M N
;
_chemical_formula_sum "Si O2"
_cell_formula_units_Z 64
_cell_length_a 8.877368
_cell_length_b 21.621630
_cell_length_c 19.226623
_cell_angle_alpha 90.000000
_cell_angle_beta 90.000000
_cell_angle_gamma 90.000000
_cell_volume 3690.418895
_symmetry_space_group_name_H-M "P M M N"
_symmetry_group_IT_number 59
_space_group.IT_coordinate_system_code '2'
_symmetry_cell_setting 'orthorhombic'
loop_
_space_group_symop_operation_xyz
x,y,z
1/2-x,1/2-y,z
1/2+x,-y,-z
-x,1/2+y,-z
-x,-y,-z
1/2+x,1/2+y,-z
1/2-x,y,z
x,1/2-y,z
loop_
_atom_site_type_symbol
_atom_site_label
_atom_site_fract_x
_atom_site_fract_y
_atom_site_fract_z
Si Si1 0.922447 0.556370 0.463212
Si Si2 0.573045 0.988906 0.323561
Si Si3 0.919494 0.181718 0.299044
Si Si4 0.923053 0.603823 0.602526
Si Si5 0.571804 0.943328 0.043498
Si Si6 0.928181 0.488691 0.824994
Si Si7 0.076133 0.884038 0.842322
Si Si8 0.424843 0.180328 0.038057
O O1 0.750000 0.537805 0.458966
O O2 0.972119 0.564191 0.381976
O O3 0.950519 0.612029 0.518480
O O4 0.000000 0.500000 0.500000
O O5 0.750000 0.989999 0.305254
O O6 0.528128 0.053507 0.359264
O O7 0.484309 0.975079 0.253009
O O8 0.750000 0.175895 0.327301
O O9 0.952339 0.250000 0.270616
O O10 0.948078 0.134413 0.237048
O O11 0.033161 0.168623 0.362629
O O12 0.750000 0.586299 0.617183
O O13 0.750000 0.953913 0.045164
O O14 0.504551 0.940860 0.121510
O O15 0.530004 0.875168 0.014125
O O16 0.500000 0.000000 0.000000
O O17 0.750000 0.481708 0.827234
O O18 0.974494 0.555836 0.853970
O O19 0.250000 0.899571 0.857981
O O20 0.020679 0.829033 0.891851
O O21 0.250000 0.175434 0.057237
O O22 0.460968 0.250000 0.008844
#
# Coordination Sequence:
#
# PCOD8239532 Si02
#       8
#     8   8   8   8   8   8   8   8
#     4   8  16  28  44  67  94 123 157 195 238 292
#     4  10  18  31  49  70  98 131 164 202 252 307
#     4  10  21  34  46  65  97 138 180 216 251 300
#     4  10  18  29  46  69  96 128 165 207 253 299
#     4  11  22  37  57  80 109 142 175 215 265 319
#     4  12  23  34  51  77 107 139 176 218 262 313
#     4  11  21  34  53  74 101 139 180 217 258 310
#     4  10  22  39  58  80 106 137 176 220 264 313
#
# _framework density 17.342205
#
# number of rings (size 3 to 8) (size 9 to 14) (size 15 to 20)
#    0.000    1.750    2.500    3.000    0.000    3.000 
#    0.000    0.000    0.000    0.000    0.000    0.875 
#    0.000    3.000    0.000    0.000    0.000    0.000 
#
# Total GULP energy -792938.818544 kJ/mol
# GULP energy per Si atom -12389.669040 kJ/mol
# Density = 1.730273 g / cm^3
# Si number density = 17.342205 Si / 1000 Ang^3
#
#
#
# Elastic Constant Matrix: (Units=GPa)
#
#
# Indices 1 2 3 4 5 6 
#
# 1 79.5526 33.9405 48.9951 0.0000 0.0000 0.0000
# 2 33.9405 76.4499 45.8531 0.0000 0.0000 0.0000
# 3 48.9951 45.8531 120.4605 0.0000 0.0000 0.0000
# 4 0.0000 0.0000 0.0000 23.2684 0.0000 0.0000
# 5 0.0000 0.0000 0.0000 0.0000 27.9689 0.0000
# 6 0.0000 0.0000 0.0000 0.0000 0.0000 19.7966
#
#
#
# Elastic Compliance Matrix: (Units=1/GPa)
#
#
# Indices 1 2 3 4 5 6 
#
# 1 0.017966 -0.004656 -0.005535 0.000000 0.000000 0.000000
# 2 -0.004656 0.018157 -0.005018 0.000000 0.000000 0.000000
# 3 -0.005535 -0.005018 0.012463 0.000000 0.000000 0.000000
# 4 0.000000 0.000000 0.000000 0.042977 0.000000 0.000000
# 5 0.000000 0.000000 0.000000 0.000000 0.035754 0.000000
# 6 0.000000 0.000000 0.000000 0.000000 0.000000 0.050514
#
#
# Mechanical properties :
#
#
# Convention : Reuss Voigt Hill
#
# Bulk Modulus (GPa) = 55.04198 59.33782 57.18990
# Shear Modulus (GPa) = 23.33141 24.05172 23.69157
#
# Velocity S-wave (km/s) = 3.67189 3.72814 3.70012
# Velocity P-wave (km/s) = 7.05582 7.26788 7.16264
#
# Compressibility (1/GPa) = 0.01816795
#
# Stress axis : x y z
#
# Youngs Moduli (GPa) = 55.66172 55.07476 80.24011
#
# Poissons Ratio (x) = 0.25645 0.44411
# Poissons Ratio (y) = 0.25918 0.40261
# Poissons Ratio (z) = 0.30808 0.27634
#
# Static dielectric constant tensor:
#      x y z
#    x 3.190290 0.000000 0.000000 
#    y 0.000000 3.152550 0.000000 
#    z 0.000000 0.000000 3.705970 
# 
# 
# High freq. dielectric constant tensor:
#      x y z
#    x 1.681150 0.000000 0.000000 
#    y 0.000000 1.626900 0.000000 
#    z 0.000000 0.000000 1.677520 
# 
# From -- ./inp_files/26463.got.cif
#   From: 2010.03.12/outbox.cif.g09.slc.cpg/sg59_14_cif.got.tgz:26463.got - 2010.04.16 16:29:54.
