data_PCOD8239276
_publ_section_title
;
Structure prediction by ZEFSAII (Michael W. Deem and Ramdas Pophale) SiO2 
 PCOD8239276
Probable space group: P M M N
;
_chemical_formula_sum "Si O2"
_cell_formula_units_Z 56
_cell_length_a 9.093425
_cell_length_b 27.614604
_cell_length_c 13.754355
_cell_angle_alpha 90.000000
_cell_angle_beta 90.000000
_cell_angle_gamma 90.000000
_cell_volume 3453.874383
_symmetry_space_group_name_H-M "P M M N"
_symmetry_group_IT_number 59
_space_group.IT_coordinate_system_code '2'
_symmetry_cell_setting 'orthorhombic'
loop_
_space_group_symop_operation_xyz
x,y,z
1/2-x,1/2-y,z
1/2+x,-y,-z
-x,1/2+y,-z
-x,-y,-z
1/2+x,1/2+y,-z
1/2-x,y,z
x,1/2-y,z
loop_
_atom_site_type_symbol
_atom_site_label
_atom_site_fract_x
_atom_site_fract_y
_atom_site_fract_z
Si Si1 0.079913 0.400041 0.941932
Si Si2 0.581657 0.440565 0.116455
Si Si3 0.084117 0.037399 0.770707
Si Si4 0.922840 0.990168 0.600834
Si Si5 0.418157 0.303736 0.044335
Si Si6 0.577249 0.606065 0.709556
Si Si7 0.578186 0.304389 0.245495
O O1 0.250000 0.412336 0.964611
O O2 0.046464 0.412814 0.828466
O O3 0.045125 0.343323 0.961167
O O4 0.977705 0.434293 0.007716
O O5 0.750000 0.423065 0.123651
O O6 0.565849 0.495930 0.148331
O O7 0.481097 0.406904 0.183885
O O8 0.250000 0.038069 0.728834
O O9 0.975481 0.029408 0.680357
O O10 0.750000 0.995855 0.588514
O O11 0.967739 0.935936 0.633846
O O12 0.000000 0.000000 0.500000
O O13 0.250000 0.309389 0.080363
O O14 0.444230 0.250000 0.999905
O O15 0.522840 0.312039 0.135847
O O16 0.750000 0.612872 0.713433
O O17 0.502075 0.657476 0.681857
O O18 0.750000 0.314843 0.247849
O O19 0.541785 0.250000 0.281554
#
# Coordination Sequence:
#
# PCOD8239276 Si02
#       7
#     8   8   8   8   8   8   8
#     4  10  18  28  43  63  91 126 160 193 228 269
#     4  10  18  27  41  62  91 125 157 190 228 268
#     4   9  19  32  45  65  92 121 154 191 231 278
#     4  10  21  36  54  73  93 118 151 194 243 293
#     4   9  17  28  42  61  89 127 165 196 228 267
#     4  10  19  31  47  68  93 124 158 190 231 284
#     4  10  19  29  43  66  95 126 160 195 230 269
#
# _framework density 16.213677000000001
#
# number of rings (size 3 to 8) (size 9 to 14) (size 15 to 20)
#    0.000    2.286    1.429    2.143    0.000    3.714 
#    0.000    0.000    0.000    0.000    0.000    1.000 
#    0.000    5.714    0.000    0.000    0.000    0.000 
#
# Total GULP energy -694226.576467 kJ/mol
# GULP energy per Si atom -12396.903151 kJ/mol
# Density = 1.617677 g / cm^3
# Si number density = 16.213677 Si / 1000 Ang^3
#
#
#
# Elastic Constant Matrix: (Units=GPa)
#
#
# Indices 1 2 3 4 5 6 
#
# 1 76.9504 45.0928 44.0982 0.0000 0.0000 0.0000
# 2 45.0928 91.1361 47.3182 0.0000 0.0000 0.0000
# 3 44.0982 47.3182 84.8659 0.0000 0.0000 0.0000
# 4 0.0000 0.0000 0.0000 16.7712 0.0000 0.0000
# 5 0.0000 0.0000 0.0000 0.0000 23.7266 0.0000
# 6 0.0000 0.0000 0.0000 0.0000 0.0000 23.6230
#
#
#
# Elastic Compliance Matrix: (Units=1/GPa)
#
#
# Indices 1 2 3 4 5 6 
#
# 1 0.021034 -0.006661 -0.007216 0.000000 0.000000 0.000000
# 2 -0.006661 0.017552 -0.006326 0.000000 0.000000 0.000000
# 3 -0.007216 -0.006326 0.019060 0.000000 0.000000 0.000000
# 4 0.000000 0.000000 0.000000 0.059626 0.000000 0.000000
# 5 0.000000 0.000000 0.000000 0.000000 0.042147 0.000000
# 6 0.000000 0.000000 0.000000 0.000000 0.000000 0.042332
#
#
# Mechanical properties :
#
#
# Convention : Reuss Voigt Hill
#
# Bulk Modulus (GPa) = 57.99888 58.44119 58.22004
# Shear Modulus (GPa) = 20.16930 20.58707 20.37818
#
# Velocity S-wave (km/s) = 3.53082 3.56720 3.54906
# Velocity P-wave (km/s) = 7.24372 7.28623 7.26501
#
# Compressibility (1/GPa) = 0.01724171
#
# Stress axis : x y z
#
# Youngs Moduli (GPa) = 47.54278 56.97202 52.46669
#
# Poissons Ratio (x) = 0.37947 0.37859
# Poissons Ratio (y) = 0.31667 0.33188
# Poissons Ratio (z) = 0.34306 0.36038
#
# Static dielectric constant tensor:
#      x y z
#    x 3.154160 0.000000 0.000000 
#    y 0.000000 3.439190 0.000000 
#    z 0.000000 0.000000 2.711050 
# 
# 
# High freq. dielectric constant tensor:
#      x y z
#    x 1.634690 0.000000 0.000000 
#    y 0.000000 1.627160 0.000000 
#    z 0.000000 0.000000 1.573560 
# 
# From -- ./inp_files/21714.got.cif
#   From: 2010.03.12/outbox.cif.g09.slc.cpg/sg59_11_cif.got.tgz:21714.got - 2010.04.16 16:29:54.
