data_PCOD8239576
_publ_section_title
;
Structure prediction by ZEFSAII (Michael W. Deem and Ramdas Pophale) SiO2 
 PCOD8239576
Probable space group: P M M N
;
_chemical_formula_sum "Si O2"
_cell_formula_units_Z 56
_cell_length_a 7.909520
_cell_length_b 32.129800
_cell_length_c 13.586239
_cell_angle_alpha 90.000000
_cell_angle_beta 90.000000
_cell_angle_gamma 90.000000
_cell_volume 3452.688521
_symmetry_space_group_name_H-M "P M M N"
_symmetry_group_IT_number 59
_space_group.IT_coordinate_system_code '2'
_symmetry_cell_setting 'orthorhombic'
loop_
_space_group_symop_operation_xyz
x,y,z
1/2-x,1/2-y,z
1/2+x,-y,-z
-x,1/2+y,-z
-x,-y,-z
1/2+x,1/2+y,-z
1/2-x,y,z
x,1/2-y,z
loop_
_atom_site_type_symbol
_atom_site_label
_atom_site_fract_x
_atom_site_fract_y
_atom_site_fract_z
Si Si1 0.556502 0.146973 0.133236
Si Si2 0.942281 0.985193 0.362898
Si Si3 0.557811 0.020060 0.847344
Si Si4 0.557922 0.934097 0.545803
Si Si5 0.750000 0.796270 0.867607
Si Si6 0.561614 0.147696 0.362414
Si Si7 0.947531 0.441698 0.047579
Si Si8 0.250000 0.203380 0.365892
O O1 0.750000 0.161718 0.112387
O O2 0.422241 0.181290 0.096245
O O3 0.529889 0.137411 0.248059
O O4 0.511867 0.105665 0.072733
O O5 0.750000 0.995322 0.390351
O O6 0.045973 0.027826 0.376769
O O7 0.006956 0.949692 0.438625
O O8 0.955404 0.969119 0.251311
O O9 0.750000 0.031187 0.824607
O O10 0.541897 0.971455 0.875288
O O11 0.487605 0.048481 0.936883
O O12 0.750000 0.918241 0.542661
O O13 0.444399 0.895424 0.578555
O O14 0.750000 0.750000 0.913104
O O15 0.750000 0.794022 0.750807
O O16 0.750000 0.166912 0.377145
O O17 0.420213 0.179886 0.401930
O O18 0.750000 0.451936 0.056184
O O19 0.250000 0.250000 0.410860
#
# Coordination Sequence:
#
# PCOD8239576 Si02
#       8
#     8   8   8   8   4   8   8   4
#     4   9  18  30  45  66  92 121 152 186 223 269
#     4  10  20  31  43  62  90 121 154 193 231 268
#     4  10  19  29  44  63  87 120 154 191 230 266
#     4  10  19  31  46  63  87 121 158 193 230 269
#     4   9  18  30  46  68  91 119 153 187 228 274
#     4  10  18  29  48  69  91 122 155 188 226 272
#     4   9  18  31  44  62  87 118 156 190 225 267
#     4   9  18  32  46  66  97 123 151 191 228 274
#
# _framework density 16.219245000000001
#
# number of rings (size 3 to 8) (size 9 to 14) (size 15 to 20)
#    0.000    2.429    0.714    2.143    1.000    4.000 
#    0.000    2.857    0.000    0.000    0.000    0.000 
#    0.000    2.286    0.000    3.714    0.000    0.286 
#
# Total GULP energy -694315.295715 kJ/mol
# GULP energy per Si atom -12398.487423 kJ/mol
# Density = 1.618233 g / cm^3
# Si number density = 16.219245 Si / 1000 Ang^3
#
#
#
# Elastic Constant Matrix: (Units=GPa)
#
#
# Indices 1 2 3 4 5 6 
#
# 1 86.2177 50.9014 22.5414 0.0000 0.0000 0.0000
# 2 50.9014 110.1889 34.6607 0.0000 0.0000 0.0000
# 3 22.5414 34.6607 77.1372 0.0000 0.0000 0.0000
# 4 0.0000 0.0000 0.0000 16.0742 0.0000 0.0000
# 5 0.0000 0.0000 0.0000 0.0000 17.0618 0.0000
# 6 0.0000 0.0000 0.0000 0.0000 0.0000 23.6661
#
#
#
# Elastic Compliance Matrix: (Units=1/GPa)
#
#
# Indices 1 2 3 4 5 6 
#
# 1 0.016113 -0.006944 -0.001589 0.000000 0.000000 0.000000
# 2 -0.006944 0.013562 -0.004065 0.000000 0.000000 0.000000
# 3 -0.001589 -0.004065 0.015255 0.000000 0.000000 0.000000
# 4 0.000000 0.000000 0.000000 0.062212 0.000000 0.000000
# 5 0.000000 0.000000 0.000000 0.000000 0.058611 0.000000
# 6 0.000000 0.000000 0.000000 0.000000 0.000000 0.042255
#
#
# Mechanical properties :
#
#
# Convention : Reuss Voigt Hill
#
# Bulk Modulus (GPa) = 50.67020 54.41674 52.54347
# Shear Modulus (GPa) = 20.85256 22.38976 21.62116
#
# Velocity S-wave (km/s) = 3.58951 3.71946 3.65506
# Velocity P-wave (km/s) = 6.96334 7.21592 7.09075
#
# Compressibility (1/GPa) = 0.01973546
#
# Stress axis : x y z
#
# Youngs Moduli (GPa) = 62.06013 73.73792 65.55438
#
# Poissons Ratio (x) = 0.51202 0.10414
# Poissons Ratio (y) = 0.43093 0.26645
# Poissons Ratio (z) = 0.09859 0.29971
#
# Static dielectric constant tensor:
#      x y z
#    x 3.178800 0.000000 0.000000 
#    y 0.000000 2.953500 0.000000 
#    z 0.000000 0.000000 2.904120 
# 
# 
# High freq. dielectric constant tensor:
#      x y z
#    x 1.639670 0.000000 0.000000 
#    y 0.000000 1.596080 0.000000 
#    z 0.000000 0.000000 1.591840 
# 
# From -- ./inp_files/21800.got.cif
#   From: 2010.03.12/outbox.cif.g09.slc.cpg/sg59_11_cif.got.tgz:21800.got - 2010.04.16 16:29:54.
