data_PCOD8239138
_publ_section_title
;
Structure prediction by ZEFSAII (Michael W. Deem and Ramdas Pophale) SiO2 
 PCOD8239138
Probable space group: P M M N
;
_chemical_formula_sum "Si O2"
_cell_formula_units_Z 48
_cell_length_a 8.755814
_cell_length_b 21.630265
_cell_length_c 15.133151
_cell_angle_alpha 90.000000
_cell_angle_beta 90.000000
_cell_angle_gamma 90.000000
_cell_volume 2866.076201
_symmetry_space_group_name_H-M "P M M N"
_symmetry_group_IT_number 59
_space_group.IT_coordinate_system_code '2'
_symmetry_cell_setting 'orthorhombic'
loop_
_space_group_symop_operation_xyz
x,y,z
1/2-x,1/2-y,z
1/2+x,-y,-z
-x,1/2+y,-z
-x,-y,-z
1/2+x,1/2+y,-z
1/2-x,y,z
x,1/2-y,z
loop_
_atom_site_type_symbol
_atom_site_label
_atom_site_fract_x
_atom_site_fract_y
_atom_site_fract_z
Si Si1 0.571719 0.536572 0.809594
Si Si2 0.428173 0.909500 0.445242
Si Si3 0.431573 0.566895 0.978529
Si Si4 0.068940 0.094734 0.848851
Si Si5 0.926223 0.544935 0.611579
Si Si6 0.069433 0.319572 0.690338
O O1 0.750000 0.525999 0.829528
O O2 0.498720 0.584062 0.881535
O O3 0.487863 0.470999 0.813596
O O4 0.546055 0.565527 0.712641
O O5 0.250000 0.898502 0.437180
O O6 0.476747 0.910252 0.548277
O O7 0.509640 0.853116 0.396938
O O8 0.479758 0.973885 0.400189
O O9 0.250000 0.566451 0.975974
O O10 0.500000 0.500000 0.000000
O O11 0.492305 0.611929 0.056195
O O12 0.250000 0.093012 0.860242
O O13 0.013882 0.146179 0.779266
O O14 0.750000 0.550850 0.584291
O O15 0.250000 0.319792 0.685953
O O16 0.004480 0.250000 0.692365
#
# Coordination Sequence:
#
# PCOD8239138 Si02
#       6
#     8   8   8   8   8   8
#     4  10  17  28  45  67  95 123 154 187 228 279
#     4  10  19  31  47  69  94 123 159 198 239 284
#     4  10  18  27  41  63  92 122 152 184 226 274
#     4  10  18  29  45  64  90 123 157 192 232 276
#     4   9  18  30  46  68  96 127 155 190 239 290
#     4  10  21  35  50  68  93 127 164 200 238 282
#
# _framework density 16.747636
#
# number of rings (size 3 to 8) (size 9 to 14) (size 15 to 20)
#    0.000    2.167    1.667    5.000    0.000    3.000 
#    0.000    0.000    0.000    0.000    0.000    1.167 
#    0.000    4.000    0.000    0.000    0.000    0.000 
#
# Total GULP energy -595071.172219 kJ/mol
# GULP energy per Si atom -12397.316088 kJ/mol
# Density = 1.670952 g / cm^3
# Si number density = 16.747636 Si / 1000 Ang^3
#
#
#
# Elastic Constant Matrix: (Units=GPa)
#
#
# Indices 1 2 3 4 5 6 
#
# 1 52.1368 13.9836 33.8836 0.0000 0.0000 0.0000
# 2 13.9836 63.2363 44.4669 0.0000 0.0000 0.0000
# 3 33.8836 44.4669 138.4123 0.0000 0.0000 0.0000
# 4 0.0000 0.0000 0.0000 18.3919 0.0000 0.0000
# 5 0.0000 0.0000 0.0000 0.0000 30.6912 0.0000
# 6 0.0000 0.0000 0.0000 0.0000 0.0000 15.1210
#
#
#
# Elastic Compliance Matrix: (Units=1/GPa)
#
#
# Indices 1 2 3 4 5 6 
#
# 1 0.022912 -0.001450 -0.005143 0.000000 0.000000 0.000000
# 2 -0.001450 0.020521 -0.006238 0.000000 0.000000 0.000000
# 3 -0.005143 -0.006238 0.010488 0.000000 0.000000 0.000000
# 4 0.000000 0.000000 0.000000 0.054372 0.000000 0.000000
# 5 0.000000 0.000000 0.000000 0.000000 0.032583 0.000000
# 6 0.000000 0.000000 0.000000 0.000000 0.000000 0.066133
#
#
# Mechanical properties :
#
#
# Convention : Reuss Voigt Hill
#
# Bulk Modulus (GPa) = 35.38726 48.71708 42.05217
# Shear Modulus (GPa) = 20.65362 23.60423 22.12892
#
# Velocity S-wave (km/s) = 3.51554 3.75828 3.63893
# Velocity P-wave (km/s) = 6.13631 6.92712 6.54367
#
# Compressibility (1/GPa) = 0.02825876
#
# Stress axis : x y z
#
# Youngs Moduli (GPa) = 43.64595 48.73171 95.34975
#
# Poissons Ratio (x) = 0.07066 0.49038
# Poissons Ratio (y) = 0.06329 0.59475
# Poissons Ratio (z) = 0.22447 0.30397
#
# Static dielectric constant tensor:
#      x y z
#    x 3.176590 0.000000 0.000000 
#    y 0.000000 2.870510 0.000000 
#    z 0.000000 0.000000 3.855100 
# 
# 
# High freq. dielectric constant tensor:
#      x y z
#    x 1.657100 0.000000 0.000000 
#    y 0.000000 1.576130 0.000000 
#    z 0.000000 0.000000 1.666340 
# 
# From -- ./inp_files/20299.got.cif
#   From: 2010.03.12/outbox.cif.g09.slc.cpg/sg59_11_cif.got.tgz:20299.got - 2010.04.16 16:29:54.
