data_PCOD8239669
_publ_section_title
;
Structure prediction by ZEFSAII (Michael W. Deem and Ramdas Pophale) SiO2 
 PCOD8239669
Probable space group: P M M N
;
_chemical_formula_sum "Si O2"
_cell_formula_units_Z 40
_cell_length_a 8.998483
_cell_length_b 10.291629
_cell_length_c 24.669178
_cell_angle_alpha 90.000000
_cell_angle_beta 90.000000
_cell_angle_gamma 90.000000
_cell_volume 2284.589104
_symmetry_space_group_name_H-M "P M M N"
_symmetry_group_IT_number 59
_space_group.IT_coordinate_system_code '2'
_symmetry_cell_setting 'orthorhombic'
loop_
_space_group_symop_operation_xyz
x,y,z
1/2-x,1/2-y,z
1/2+x,-y,-z
-x,1/2+y,-z
-x,-y,-z
1/2+x,1/2+y,-z
1/2-x,y,z
x,1/2-y,z
loop_
_atom_site_type_symbol
_atom_site_label
_atom_site_fract_x
_atom_site_fract_y
_atom_site_fract_z
Si Si1 0.073564 0.505213 0.122305
Si Si2 0.427034 0.604962 0.234255
Si Si3 0.426240 0.750000 0.053032
Si Si4 0.075176 0.099940 0.540732
Si Si5 0.072814 0.250000 0.063298
Si Si6 0.084962 0.596190 0.351517
O O1 0.250000 0.503731 0.123368
O O2 0.013263 0.518079 0.184183
O O3 0.018144 0.624951 0.086077
O O4 0.011599 0.373850 0.096110
O O5 0.250000 0.612465 0.232992
O O6 0.492444 0.750000 0.226846
O O7 0.474237 0.544105 0.292900
O O8 0.250000 0.750000 0.044559
O O9 0.505332 0.750000 0.995807
O O10 0.250000 0.085673 0.535391
O O11 0.025832 0.250000 0.529192
O O12 0.027305 0.055894 0.600994
O O13 0.000000 0.000000 0.500000
O O14 0.250000 0.250000 0.058544
O O15 0.250000 0.540687 0.364840
O O16 0.095251 0.750000 0.345915
#
# Coordination Sequence:
#
# PCOD8239669 Si02
#       6
#     8   8   4   8   4   8
#     4   9  16  27  44  66  88 114 149 188 228 270
#     4   8  12  22  43  68  88 111 152 195 225 265
#     4  10  18  30  48  64  82 116 157 186 215 272
#     4  10  20  33  51  75 103 134 168 204 242 289
#     4  10  20  30  42  64  94 116 139 186 239 274
#     4   8  14  25  45  71  94 119 154 197 239 277
#
# _framework density 17.508620000000001
#
# number of rings (size 3 to 8) (size 9 to 14) (size 15 to 20)
#    0.000    3.000    1.000    2.400    0.000    1.200 
#    0.000    0.000    2.200    2.400    0.000    0.000 
#    0.000    0.000    0.000    0.000    0.000    0.000 
#
# Total GULP energy -495669.409390 kJ/mol
# GULP energy per Si atom -12391.735235 kJ/mol
# Density = 1.746877 g / cm^3
# Si number density = 17.508620 Si / 1000 Ang^3
#
#
#
# Elastic Constant Matrix: (Units=GPa)
#
#
# Indices 1 2 3 4 5 6 
#
# 1 34.9713 24.6801 38.4638 0.0000 0.0000 0.0000
# 2 24.6801 105.9608 78.0315 0.0000 0.0000 0.0000
# 3 38.4638 78.0315 189.3904 0.0000 0.0000 0.0000
# 4 0.0000 0.0000 0.0000 16.7435 0.0000 0.0000
# 5 0.0000 0.0000 0.0000 0.0000 26.5700 0.0000
# 6 0.0000 0.0000 0.0000 0.0000 0.0000 11.6689
#
#
#
# Elastic Compliance Matrix: (Units=1/GPa)
#
#
# Indices 1 2 3 4 5 6 
#
# 1 0.038310 -0.004584 -0.005892 0.000000 0.000000 0.000000
# 2 -0.004584 0.014097 -0.004877 0.000000 0.000000 0.000000
# 3 -0.005892 -0.004877 0.008486 0.000000 0.000000 0.000000
# 4 0.000000 0.000000 0.000000 0.059725 0.000000 0.000000
# 5 0.000000 0.000000 0.000000 0.000000 0.037636 0.000000
# 6 0.000000 0.000000 0.000000 0.000000 0.000000 0.085698
#
#
# Mechanical properties :
#
#
# Convention : Reuss Voigt Hill
#
# Bulk Modulus (GPa) = 33.12689 68.07480 50.60084
# Shear Modulus (GPa) = 17.56107 23.60629 20.58368
#
# Velocity S-wave (km/s) = 3.17045 3.67586 3.43247
# Velocity P-wave (km/s) = 5.68891 7.54858 6.68374
#
# Compressibility (1/GPa) = 0.03018696
#
# Stress axis : x y z
#
# Youngs Moduli (GPa) = 26.10263 70.93836 117.84031
#
# Poissons Ratio (x) = 0.32521 0.69428
# Poissons Ratio (y) = 0.11966 0.57471
# Poissons Ratio (z) = 0.15379 0.34597
#
# Static dielectric constant tensor:
#      x y z
#    x 2.630010 0.000000 0.000000 
#    y 0.000000 3.354620 0.000000 
#    z 0.000000 0.000000 3.768430 
# 
# 
# High freq. dielectric constant tensor:
#      x y z
#    x 1.631290 0.000000 0.000000 
#    y 0.000000 1.646420 0.000000 
#    z 0.000000 0.000000 1.699140 
# 
# From -- ./inp_files/28790.got.cif
#   From: 2010.03.12/outbox.cif.g09.slc.cpg/sg59_15_cif.got.tgz:28790.got - 2010.04.16 16:29:54.
