data_PCOD8239717
_publ_section_title
;
Structure prediction by ZEFSAII (Michael W. Deem and Ramdas Pophale) SiO2 
 PCOD8239717
Probable space group: P M M N
;
_chemical_formula_sum "Si O2"
_cell_formula_units_Z 48
_cell_length_a 8.843971
_cell_length_b 20.429265
_cell_length_c 14.343561
_cell_angle_alpha 90.000000
_cell_angle_beta 90.000000
_cell_angle_gamma 90.000000
_cell_volume 2591.534749
_symmetry_space_group_name_H-M "P M M N"
_symmetry_group_IT_number 59
_space_group.IT_coordinate_system_code '2'
_symmetry_cell_setting 'orthorhombic'
loop_
_space_group_symop_operation_xyz
x,y,z
1/2-x,1/2-y,z
1/2+x,-y,-z
-x,1/2+y,-z
-x,-y,-z
1/2+x,1/2+y,-z
1/2-x,y,z
x,1/2-y,z
loop_
_atom_site_type_symbol
_atom_site_label
_atom_site_fract_x
_atom_site_fract_y
_atom_site_fract_z
Si Si1 0.927005 0.480750 0.224404
Si Si2 0.427455 0.326521 0.518282
Si Si3 0.571874 0.067000 0.033791
Si Si4 0.584714 0.324442 0.702787
Si Si5 0.930756 0.447594 0.428672
Si Si6 0.071605 0.383317 0.864669
O O1 0.750000 0.486438 0.237233
O O2 0.964563 0.425613 0.144770
O O3 0.995744 0.463649 0.325065
O O4 0.985550 0.550532 0.186773
O O5 0.250000 0.338781 0.510243
O O6 0.466742 0.250000 0.498902
O O7 0.479455 0.352325 0.620243
O O8 0.514706 0.373237 0.446256
O O9 0.750000 0.065214 0.016559
O O10 0.496411 0.123153 0.969626
O O11 0.500000 0.000000 0.000000
O O12 0.750000 0.359735 0.705451
O O13 0.612975 0.250000 0.678314
O O14 0.498265 0.326640 0.801371
O O15 0.750000 0.450731 0.434643
O O16 0.000000 0.500000 0.500000
O O17 0.250000 0.376894 0.871812
#
# Coordination Sequence:
#
# PCOD8239717 Si02
#       6
#     8   8   8   8   8   8
#     4   8  17  31  47  69  98 130 162 201 246 294
#     4  10  21  37  54  73 102 139 175 213 261 314
#     4   9  16  29  47  68  95 127 163 200 243 296
#     4  10  20  33  50  73  98 127 166 207 247 298
#     4  11  21  34  53  78 107 137 174 218 263 309
#     4  10  18  30  49  73 101 130 160 198 250 306
#
# _framework density 18.521844000000002
#
# number of rings (size 3 to 8) (size 9 to 14) (size 15 to 20)
#    0.000    2.333    0.000    4.500    0.000    3.333 
#    0.000    9.167    0.000    1.000    0.000    2.333 
#    0.000    0.000    0.000    0.000    0.000    0.000 
#
# Total GULP energy -594730.568015 kJ/mol
# GULP energy per Si atom -12390.220167 kJ/mol
# Density = 1.847969 g / cm^3
# Si number density = 18.521844 Si / 1000 Ang^3
#
#
#
# Elastic Constant Matrix: (Units=GPa)
#
#
# Indices 1 2 3 4 5 6 
#
# 1 103.7403 26.9647 48.7282 0.0000 0.0000 0.0000
# 2 26.9647 46.0500 31.2037 0.0000 0.0000 0.0000
# 3 48.7282 31.2037 143.2344 0.0000 0.0000 0.0000
# 4 0.0000 0.0000 0.0000 28.0160 0.0000 0.0000
# 5 0.0000 0.0000 0.0000 0.0000 30.6153 0.0000
# 6 0.0000 0.0000 0.0000 0.0000 0.0000 25.6721
#
#
#
# Elastic Compliance Matrix: (Units=1/GPa)
#
#
# Indices 1 2 3 4 5 6 
#
# 1 0.012445 -0.005184 -0.003105 0.000000 0.000000 0.000000
# 2 -0.005184 0.027635 -0.004257 0.000000 0.000000 0.000000
# 3 -0.003105 -0.004257 0.008965 0.000000 0.000000 0.000000
# 4 0.000000 0.000000 0.000000 0.035694 0.000000 0.000000
# 5 0.000000 0.000000 0.000000 0.000000 0.032663 0.000000
# 6 0.000000 0.000000 0.000000 0.000000 0.000000 0.038953
#
#
# Mechanical properties :
#
#
# Convention : Reuss Voigt Hill
#
# Bulk Modulus (GPa) = 41.74435 56.31310 49.02872
# Shear Modulus (GPa) = 26.39489 29.26923 27.83206
#
# Velocity S-wave (km/s) = 3.77910 3.97955 3.88062
# Velocity P-wave (km/s) = 6.45205 7.18230 6.82695
#
# Compressibility (1/GPa) = 0.02395534
#
# Stress axis : x y z
#
# Youngs Moduli (GPa) = 80.35328 36.18567 111.54368
#
# Poissons Ratio (x) = 0.18757 0.34629
# Poissons Ratio (y) = 0.41652 0.47483
# Poissons Ratio (z) = 0.24946 0.15404
#
# Static dielectric constant tensor:
#      x y z
#    x 3.601020 0.000000 0.000000 
#    y 0.000000 3.209790 0.000000 
#    z 0.000000 0.000000 3.972380 
# 
# 
# High freq. dielectric constant tensor:
#      x y z
#    x 1.724140 0.000000 0.000000 
#    y 0.000000 1.679100 0.000000 
#    z 0.000000 0.000000 1.725280 
# 
# From -- ./inp_files/14386.got.cif
#   From: 2010.03.12/outbox.cif.g09.slc.cpg/sg59_8_cif.got.tgz:14386.got - 2010.04.16 16:29:54.
