data_PCOD8239639
_publ_section_title
;
Structure prediction by ZEFSAII (Michael W. Deem and Ramdas Pophale) SiO2 
 PCOD8239639
Probable space group: P M M N
;
_chemical_formula_sum "Si O2"
_cell_formula_units_Z 64
_cell_length_a 21.426616
_cell_length_b 9.068385
_cell_length_c 20.376751
_cell_angle_alpha 90.000000
_cell_angle_beta 90.000000
_cell_angle_gamma 90.000000
_cell_volume 3959.300592
_symmetry_space_group_name_H-M "P M M N"
_symmetry_group_IT_number 59
_space_group.IT_coordinate_system_code '2'
_symmetry_cell_setting 'orthorhombic'
loop_
_space_group_symop_operation_xyz
x,y,z
1/2-x,1/2-y,z
1/2+x,-y,-z
-x,1/2+y,-z
-x,-y,-z
1/2+x,1/2+y,-z
1/2-x,y,z
x,1/2-y,z
loop_
_atom_site_type_symbol
_atom_site_label
_atom_site_fract_x
_atom_site_fract_y
_atom_site_fract_z
Si Si1 0.026649 0.077375 0.769989
Si Si2 0.322890 0.418873 0.136160
Si Si3 0.549984 0.085894 0.352946
Si Si4 0.933695 0.075805 0.494315
Si Si5 0.614172 0.425459 0.745857
Si Si6 0.095946 0.418688 0.382962
Si Si7 0.092583 0.580172 0.035020
Si Si8 0.454151 0.080383 0.914252
O O1 0.027517 0.250000 0.763407
O O2 0.057001 0.028860 0.839155
O O3 0.955152 0.022732 0.766776
O O4 0.067148 0.015627 0.709128
O O5 0.250000 0.429177 0.122370
O O6 0.344478 0.250000 0.146262
O O7 0.338179 0.512643 0.200760
O O8 0.356234 0.485655 0.072647
O O9 0.565361 0.250000 0.329747
O O10 0.589710 0.047794 0.419017
O O11 0.477575 0.069671 0.371015
O O12 0.939965 0.250000 0.508460
O O13 0.887911 0.000282 0.547849
O O14 0.000000 0.000000 0.500000
O O15 0.620497 0.250000 0.741790
O O16 0.631626 0.496412 0.675509
O O17 0.118992 0.250000 0.386203
O O18 0.113327 0.750000 0.033971
O O19 0.027078 0.559225 0.071352
O O20 0.087956 0.521697 0.960506
O O21 0.434766 0.250000 0.925228
#
# Coordination Sequence:
#
# PCOD8239639 Si02
#       8
#     8   8   8   8   8   8   8   8
#     4   9  16  26  40  59  83 110 140 175 215 259
#     4  11  23  36  49  65  87 116 147 183 227 270
#     4   8  15  23  32  50  76 105 139 173 207 246
#     4   9  15  23  33  48  72 104 140 177 211 246
#     4  10  18  30  45  62  82 107 143 182 219 261
#     4   9  16  25  37  54  75 103 138 176 214 252
#     4  10  19  32  48  67  86 110 145 181 222 268
#     4   9  17  30  45  65  90 113 141 180 223 267
#
# _framework density 16.164470000000001
#
# number of rings (size 3 to 8) (size 9 to 14) (size 15 to 20)
#    0.000    2.625    1.250    2.625    0.000    6.000 
#    0.000    0.000    0.000    0.000    0.000    0.000 
#    0.000    0.000    0.000    1.125    0.000   19.375 
#
# Total GULP energy -793262.441657 kJ/mol
# GULP energy per Si atom -12394.725651 kJ/mol
# Density = 1.612768 g / cm^3
# Si number density = 16.164470 Si / 1000 Ang^3
#
#
#
# Elastic Constant Matrix: (Units=GPa)
#
#
# Indices 1 2 3 4 5 6 
#
# 1 24.7717 22.1301 25.1917 0.0000 0.0000 0.0000
# 2 22.1301 91.0357 60.4292 0.0000 0.0000 0.0000
# 3 25.1917 60.4292 147.3500 0.0000 0.0000 0.0000
# 4 0.0000 0.0000 0.0000 36.2184 0.0000 0.0000
# 5 0.0000 0.0000 0.0000 0.0000 10.4651 0.0000
# 6 0.0000 0.0000 0.0000 0.0000 0.0000 13.3267
#
#
#
# Elastic Compliance Matrix: (Units=1/GPa)
#
#
# Indices 1 2 3 4 5 6 
#
# 1 0.054456 -0.009698 -0.005333 0.000000 0.000000 0.000000
# 2 -0.009698 0.016821 -0.005240 0.000000 0.000000 0.000000
# 3 -0.005333 -0.005240 0.009847 0.000000 0.000000 0.000000
# 4 0.000000 0.000000 0.000000 0.027610 0.000000 0.000000
# 5 0.000000 0.000000 0.000000 0.000000 0.095556 0.000000
# 6 0.000000 0.000000 0.000000 0.000000 0.000000 0.075037
#
#
# Mechanical properties :
#
#
# Convention : Reuss Voigt Hill
#
# Bulk Modulus (GPa) = 24.64163 53.18438 38.91300
# Shear Modulus (GPa) = 14.99717 22.36247 18.67982
#
# Velocity S-wave (km/s) = 3.04926 3.72349 3.40311
# Velocity P-wave (km/s) = 5.26068 7.17351 6.29023
#
# Compressibility (1/GPa) = 0.04058173
#
# Stress axis : x y z
#
# Youngs Moduli (GPa) = 18.36354 59.45069 101.54999
#
# Poissons Ratio (x) = 0.57655 0.54155
# Poissons Ratio (y) = 0.17809 0.53215
# Poissons Ratio (z) = 0.09793 0.31154
#
# Static dielectric constant tensor:
#      x y z
#    x 2.427700 0.000000 0.000000 
#    y 0.000000 3.179220 0.000000 
#    z 0.000000 0.000000 3.688460 
# 
# 
# High freq. dielectric constant tensor:
#      x y z
#    x 1.533760 0.000000 0.000000 
#    y 0.000000 1.635350 0.000000 
#    z 0.000000 0.000000 1.642390 
# 
# From -- ./inp_files/30897.got.cif
#   From: 2010.03.12/outbox.cif.g09.slc.cpg/sg59_16_cif.got.tgz:30897.got - 2010.04.16 16:29:54.
