data_PCOD8239660
_publ_section_title
;
Structure prediction by ZEFSAII (Michael W. Deem and Ramdas Pophale) SiO2 
 PCOD8239660
Probable space group: P M M N
;
_chemical_formula_sum "Si O2"
_cell_formula_units_Z 64
_cell_length_a 9.149466
_cell_length_b 25.941362
_cell_length_c 16.946696
_cell_angle_alpha 90.000000
_cell_angle_beta 90.000000
_cell_angle_gamma 90.000000
_cell_volume 4022.291680
_symmetry_space_group_name_H-M "P M M N"
_symmetry_group_IT_number 59
_space_group.IT_coordinate_system_code '2'
_symmetry_cell_setting 'orthorhombic'
loop_
_space_group_symop_operation_xyz
x,y,z
1/2-x,1/2-y,z
1/2+x,-y,-z
-x,1/2+y,-z
-x,-y,-z
1/2+x,1/2+y,-z
1/2-x,y,z
x,1/2-y,z
loop_
_atom_site_type_symbol
_atom_site_label
_atom_site_fract_x
_atom_site_fract_y
_atom_site_fract_z
Si Si1 0.918781 0.446339 0.506890
Si Si2 0.078889 0.093254 0.825558
Si Si3 0.417411 0.558833 0.666659
Si Si4 0.576601 0.693551 0.086464
Si Si5 0.422254 0.403284 0.186658
Si Si6 0.076368 0.192892 0.090215
Si Si7 0.418516 0.440781 0.654207
Si Si8 0.076411 0.997902 0.084153
O O1 0.750000 0.456161 0.525466
O O2 0.937473 0.417994 0.422121
O O3 0.000000 0.500000 0.500000
O O4 0.990564 0.415982 0.580963
O O5 0.250000 0.083508 0.845183
O O6 0.022365 0.148932 0.854913
O O7 0.051387 0.092702 0.731924
O O8 0.982161 0.050662 0.867937
O O9 0.250000 0.562073 0.693911
O O10 0.512237 0.592522 0.726121
O O11 0.469852 0.499401 0.670337
O O12 0.750000 0.694058 0.084461
O O13 0.520006 0.750000 0.115103
O O14 0.517406 0.682359 0.998255
O O15 0.250000 0.400503 0.195875
O O16 0.486668 0.350932 0.148038
O O17 0.468594 0.451027 0.131930
O O18 0.250000 0.189432 0.089187
O O19 0.026393 0.250000 0.118685
O O20 0.250000 0.440218 0.629218
O O21 0.250000 0.993704 0.073176
O O22 0.000000 0.000000 0.000000
#
# Coordination Sequence:
#
# PCOD8239660 Si02
#       8
#     8   8   8   8   8   8   8   8
#     4   9  17  28  43  62  86 117 151 182 216 261
#     4  10  18  30  47  67  94 121 150 188 227 271
#     4   9  17  29  42  61  89 119 145 176 221 264
#     4   8  14  26  46  68  88 115 152 193 231 265
#     4  10  19  29  44  66  87 113 149 184 218 265
#     4   8  14  26  43  63  86 110 143 188 230 261
#     4   9  17  28  42  63  91 122 149 177 219 266
#     4  11  22  32  43  63  91 123 156 184 222 274
#
# _framework density 15.911329
#
# number of rings (size 3 to 8) (size 9 to 14) (size 15 to 20)
#    0.000    2.750    1.250    3.000    0.000    5.500 
#    0.000    0.000    0.000    0.750    0.000    2.625 
#    0.000    5.000    0.000    0.000    0.000    0.000 
#
# Total GULP energy -793217.426680 kJ/mol
# GULP energy per Si atom -12394.022292 kJ/mol
# Density = 1.587511 g / cm^3
# Si number density = 15.911329 Si / 1000 Ang^3
#
#
#
# Elastic Constant Matrix: (Units=GPa)
#
#
# Indices 1 2 3 4 5 6 
#
# 1 45.8023 28.1275 44.9436 0.0000 0.0000 0.0000
# 2 28.1275 107.1260 65.3333 0.0000 0.0000 0.0000
# 3 44.9436 65.3333 128.3662 0.0000 0.0000 0.0000
# 4 0.0000 0.0000 0.0000 16.3133 0.0000 0.0000
# 5 0.0000 0.0000 0.0000 0.0000 28.9744 0.0000
# 6 0.0000 0.0000 0.0000 0.0000 0.0000 13.2839
#
#
#
# Elastic Compliance Matrix: (Units=1/GPa)
#
#
# Indices 1 2 3 4 5 6 
#
# 1 0.033678 -0.002395 -0.010572 0.000000 0.000000 0.000000
# 2 -0.002395 0.013707 -0.006138 0.000000 0.000000 0.000000
# 3 -0.010572 -0.006138 0.014616 0.000000 0.000000 0.000000
# 4 0.000000 0.000000 0.000000 0.061300 0.000000 0.000000
# 5 0.000000 0.000000 0.000000 0.000000 0.034513 0.000000
# 6 0.000000 0.000000 0.000000 0.000000 0.000000 0.075279
#
#
# Mechanical properties :
#
#
# Convention : Reuss Voigt Hill
#
# Bulk Modulus (GPa) = 42.03373 62.01147 52.02260
# Shear Modulus (GPa) = 17.90622 21.24032 19.57327
#
# Velocity S-wave (km/s) = 3.35830 3.65762 3.51115
# Velocity P-wave (km/s) = 6.44301 7.54290 7.01455
#
# Compressibility (1/GPa) = 0.02379042
#
# Stress axis : x y z
#
# Youngs Moduli (GPa) = 29.69309 72.95617 68.41939
#
# Poissons Ratio (x) = 0.17471 0.72336
# Poissons Ratio (y) = 0.07111 0.41994
# Poissons Ratio (z) = 0.31393 0.44779
#
# Static dielectric constant tensor:
#      x y z
#    x 2.879370 0.000000 0.000000 
#    y 0.000000 3.059920 0.000000 
#    z 0.000000 0.000000 3.420920 
# 
# 
# High freq. dielectric constant tensor:
#      x y z
#    x 1.591700 0.000000 0.000000 
#    y 0.000000 1.578080 0.000000 
#    z 0.000000 0.000000 1.618950 
# 
# From -- ./inp_files/26688.got.cif
#   From: 2010.03.12/outbox.cif.g09.slc.cpg/sg59_14_cif.got.tgz:26688.got - 2010.04.16 16:29:54.
