data_PCOD8239031
_publ_section_title
;
Structure prediction by ZEFSAII (Michael W. Deem and Ramdas Pophale) SiO2 
 PCOD8239031
Probable space group: P M M N
;
_chemical_formula_sum "Si O2"
_cell_formula_units_Z 46
_cell_length_a 11.399086
_cell_length_b 21.665103
_cell_length_c 10.028691
_cell_angle_alpha 90.000000
_cell_angle_beta 90.000000
_cell_angle_gamma 90.000000
_cell_volume 2476.709320
_symmetry_space_group_name_H-M "P M M N"
_symmetry_group_IT_number 59
_space_group.IT_coordinate_system_code '2'
_symmetry_cell_setting 'orthorhombic'
loop_
_space_group_symop_operation_xyz
x,y,z
1/2-x,1/2-y,z
1/2+x,-y,-z
-x,1/2+y,-z
-x,-y,-z
1/2+x,1/2+y,-z
1/2-x,y,z
x,1/2-y,z
loop_
_atom_site_type_symbol
_atom_site_label
_atom_site_fract_x
_atom_site_fract_y
_atom_site_fract_z
Si Si1 0.494067 0.750000 0.355215
Si Si2 0.119941 0.448180 0.880803
Si Si3 0.250000 0.819230 0.950570
Si Si4 0.614169 0.626854 0.365990
Si Si5 0.619146 0.750000 0.623935
Si Si6 0.883324 0.616672 0.668424
Si Si7 0.550122 0.414992 0.103794
Si Si8 0.750000 0.250000 0.789283
O O1 0.551743 0.686847 0.301461
O O2 0.515321 0.750000 0.514694
O O3 0.359307 0.750000 0.310758
O O4 0.250000 0.423665 0.913244
O O5 0.086536 0.431428 0.728384
O O6 0.121254 0.521453 0.901598
O O7 0.033485 0.411062 0.976400
O O8 0.250000 0.750000 0.885180
O O9 0.250000 0.810542 0.112584
O O10 0.364017 0.856353 0.900422
O O11 0.750000 0.643179 0.374700
O O12 0.571791 0.610185 0.515661
O O13 0.750000 0.750000 0.554600
O O14 0.609402 0.811299 0.713251
O O15 0.750000 0.591250 0.685228
O O16 0.972140 0.580505 0.762784
#
# Coordination Sequence:
#
# PCOD8239031 Si02
#       8
#     4   8   4   8   4   8   8   2
#     4  10  16  32  53  79 109 143 181 219 281 340
#     4  10  21  37  58  84 109 145 192 240 286 337
#     4  10  24  40  53  80 115 157 188 230 283 336
#     4   9  18  34  58  83 111 139 177 239 295 328
#     4   8  16  31  55  82 112 142 174 234 297 336
#     4   9  18  33  55  83 109 142 183 230 284 341
#     4  11  21  37  59  78 112 152 192 231 280 340
#     4  10  22  32  52  74 114 152 188 226 260 346
#
# _framework density 18.573031
#
# number of rings (size 3 to 8) (size 9 to 14) (size 15 to 20)
#    0.261    2.087    0.870    3.391    1.217    0.696 
#    0.000    3.478    0.000    0.000    0.000    0.000 
#    0.000    0.000    0.000    0.000    0.000    0.000 
#
# Total GULP energy -570030.074656 kJ/mol
# GULP energy per Si atom -12391.958145 kJ/mol
# Density = 1.853076 g / cm^3
# Si number density = 18.573031 Si / 1000 Ang^3
#
#
#
# Elastic Constant Matrix: (Units=GPa)
#
#
# Indices 1 2 3 4 5 6 
#
# 1 97.7495 31.4010 54.6603 0.0000 0.0000 0.0000
# 2 31.4010 70.1913 25.5037 0.0000 0.0000 0.0000
# 3 54.6603 25.5037 89.2406 0.0000 0.0000 0.0000
# 4 0.0000 0.0000 0.0000 24.3469 0.0000 0.0000
# 5 0.0000 0.0000 0.0000 0.0000 30.4831 0.0000
# 6 0.0000 0.0000 0.0000 0.0000 0.0000 12.8440
#
#
#
# Elastic Compliance Matrix: (Units=1/GPa)
#
#
# Indices 1 2 3 4 5 6 
#
# 1 0.016581 -0.004159 -0.008967 0.000000 0.000000 0.000000
# 2 -0.004159 0.016941 -0.002294 0.000000 0.000000 0.000000
# 3 -0.008967 -0.002294 0.017354 0.000000 0.000000 0.000000
# 4 0.000000 0.000000 0.000000 0.041073 0.000000 0.000000
# 5 0.000000 0.000000 0.000000 0.000000 0.032805 0.000000
# 6 0.000000 0.000000 0.000000 0.000000 0.000000 0.077857
#
#
# Mechanical properties :
#
#
# Convention : Reuss Voigt Hill
#
# Bulk Modulus (GPa) = 49.91356 53.36794 51.64075
# Shear Modulus (GPa) = 20.82214 23.24258 22.03236
#
# Velocity S-wave (km/s) = 3.35191 3.54137 3.44794
# Velocity P-wave (km/s) = 6.47402 6.74672 6.61178
#
# Compressibility (1/GPa) = 0.02003464
#
# Stress axis : x y z
#
# Youngs Moduli (GPa) = 60.31128 59.02838 57.62513
#
# Poissons Ratio (x) = 0.24552 0.51673
# Poissons Ratio (y) = 0.25086 0.13218
# Poissons Ratio (z) = 0.54081 0.13540
#
# Static dielectric constant tensor:
#      x y z
#    x 3.293790 0.000000 0.000000 
#    y 0.000000 3.391330 0.000000 
#    z 0.000000 0.000000 3.271260 
# 
# 
# High freq. dielectric constant tensor:
#      x y z
#    x 1.715940 0.000000 0.000000 
#    y 0.000000 1.716080 0.000000 
#    z 0.000000 0.000000 1.704860 
# 
# From -- ./inp_files/7637.got.cif
#   From: 2010.03.12/outbox.cif.g09.slc.cpg/sg59_4_cif.got.tgz:7637.got - 2010.04.16 16:29:54.
