data_PCOD8239046
_publ_section_title
;
Structure prediction by ZEFSAII (Michael W. Deem and Ramdas Pophale) SiO2 
 PCOD8239046
Probable space group: P M M N
;
_chemical_formula_sum "Si O2"
_cell_formula_units_Z 64
_cell_length_a 9.137377
_cell_length_b 27.008043
_cell_length_c 17.069319
_cell_angle_alpha 90.000000
_cell_angle_beta 90.000000
_cell_angle_gamma 90.000000
_cell_volume 4212.412134
_symmetry_space_group_name_H-M "P M M N"
_symmetry_group_IT_number 59
_space_group.IT_coordinate_system_code '2'
_symmetry_cell_setting 'orthorhombic'
loop_
_space_group_symop_operation_xyz
x,y,z
1/2-x,1/2-y,z
1/2+x,-y,-z
-x,1/2+y,-z
-x,-y,-z
1/2+x,1/2+y,-z
1/2-x,y,z
x,1/2-y,z
loop_
_atom_site_type_symbol
_atom_site_label
_atom_site_fract_x
_atom_site_fract_y
_atom_site_fract_z
Si Si1 0.580382 0.523536 0.319052
Si Si2 0.576872 0.119751 0.219018
Si Si3 0.582596 0.950557 0.483162
Si Si4 0.922784 0.305736 0.086416
Si Si5 0.081755 0.044606 0.114176
Si Si6 0.420039 0.449518 0.852882
Si Si7 0.077967 0.078817 0.354615
Si Si8 0.414924 0.377540 0.980670
O O1 0.750000 0.506311 0.318409
O O2 0.552407 0.562763 0.391514
O O3 0.541113 0.552715 0.239376
O O4 0.480608 0.475116 0.328460
O O5 0.750000 0.117554 0.227270
O O6 0.526309 0.166257 0.165731
O O7 0.518295 0.069299 0.180849
O O8 0.503350 0.122163 0.305204
O O9 0.750000 0.963887 0.495733
O O10 0.541412 0.911274 0.552261
O O11 0.500000 0.000000 0.500000
O O12 0.750000 0.306164 0.079832
O O13 0.984459 0.250000 0.089950
O O14 0.982243 0.332953 0.008883
O O15 0.250000 0.043692 0.142091
O O16 0.064000 0.073847 0.033581
O O17 0.021006 0.989479 0.103112
O O18 0.250000 0.463146 0.867123
O O19 0.453459 0.395818 0.892430
O O20 0.250000 0.081669 0.337050
O O21 0.250000 0.357334 0.986186
#
# Coordination Sequence:
#
# PCOD8239046 Si02
#       8
#     8   8   8   8   8   8   8   8
#     4   9  16  26  39  54  78 114 147 171 201 234
#     4  10  18  28  43  61  81 106 136 170 211 254
#     4   8  15  25  36  52  75 107 142 172 199 228
#     4   9  19  35  51  64  79 102 134 172 212 255
#     4  10  18  27  39  56  82 111 141 172 202 237
#     4  10  18  27  40  58  84 113 142 171 200 238
#     4  10  17  25  38  57  82 107 139 176 202 236
#     4   9  19  31  42  61  84 108 136 168 207 249
#
# _framework density 15.193194999999999
#
# number of rings (size 3 to 8) (size 9 to 14) (size 15 to 20)
#    0.000    2.625    1.250    1.500    0.000    2.250 
#    0.000    0.000    0.000    0.000    0.000    0.000 
#    0.000    1.000    0.000   10.250    0.000    0.750 
#
# Total GULP energy -792896.504618 kJ/mol
# GULP energy per Si atom -12389.007885 kJ/mol
# Density = 1.515861 g / cm^3
# Si number density = 15.193195 Si / 1000 Ang^3
#
#
#
# Elastic Constant Matrix: (Units=GPa)
#
#
# Indices 1 2 3 4 5 6 
#
# 1 47.5976 25.2874 30.4153 0.0000 0.0000 0.0000
# 2 25.2874 67.2414 43.6497 0.0000 0.0000 0.0000
# 3 30.4153 43.6497 105.5188 0.0000 0.0000 0.0000
# 4 0.0000 0.0000 0.0000 13.0205 0.0000 0.0000
# 5 0.0000 0.0000 0.0000 0.0000 19.7381 0.0000
# 6 0.0000 0.0000 0.0000 0.0000 0.0000 15.5896
#
#
#
# Elastic Compliance Matrix: (Units=1/GPa)
#
#
# Indices 1 2 3 4 5 6 
#
# 1 0.028131 -0.007267 -0.005102 0.000000 0.000000 0.000000
# 2 -0.007267 0.022209 -0.007092 0.000000 0.000000 0.000000
# 3 -0.005102 -0.007092 0.013882 0.000000 0.000000 0.000000
# 4 0.000000 0.000000 0.000000 0.076802 0.000000 0.000000
# 5 0.000000 0.000000 0.000000 0.000000 0.050663 0.000000
# 6 0.000000 0.000000 0.000000 0.000000 0.000000 0.064145
#
#
# Mechanical properties :
#
#
# Convention : Reuss Voigt Hill
#
# Bulk Modulus (GPa) = 39.52942 46.56250 43.04596
# Shear Modulus (GPa) = 16.49146 17.73667 17.11406
#
# Velocity S-wave (km/s) = 3.29819 3.42044 3.35987
# Velocity P-wave (km/s) = 6.37012 6.80535 6.59133
#
# Compressibility (1/GPa) = 0.02529761
#
# Stress axis : x y z
#
# Youngs Moduli (GPa) = 35.54847 45.02757 72.03754
#
# Poissons Ratio (x) = 0.32720 0.36757
# Poissons Ratio (y) = 0.25832 0.51092
# Poissons Ratio (z) = 0.18139 0.31935
#
# Static dielectric constant tensor:
#      x y z
#    x 2.919110 0.000000 0.000000 
#    y 0.000000 2.575030 0.000000 
#    z 0.000000 0.000000 3.554770 
# 
# 
# High freq. dielectric constant tensor:
#      x y z
#    x 1.590500 0.000000 0.000000 
#    y 0.000000 1.517050 0.000000 
#    z 0.000000 0.000000 1.593580 
# 
# From -- ./inp_files/26518.got.cif
#   From: 2010.03.12/outbox.cif.g09.slc.cpg/sg59_14_cif.got.tgz:26518.got - 2010.04.16 16:29:54.
