data_PCOD8239016
_publ_section_title
;
Structure prediction by ZEFSAII (Michael W. Deem and Ramdas Pophale) SiO2 
 PCOD8239016
Probable space group: P N N M
;
_chemical_formula_sum "Si O2"
_cell_formula_units_Z 64
_cell_length_a 30.000000
_cell_length_b 12.000000
_cell_length_c 9.000000
_cell_angle_alpha 90.000000
_cell_angle_beta 90.000000
_cell_angle_gamma 90.000000
_cell_volume 3240.000000
_symmetry_space_group_name_H-M "P N N M"
_symmetry_group_IT_number 58
_symmetry_cell_setting 'orthorhombic'
loop_
_space_group_symop_operation_xyz
x,y,z
-x,-y,z
1/2+x,1/2-y,1/2-z
1/2-x,1/2+y,1/2-z
-x,-y,-z
x,y,-z
1/2-x,1/2+y,1/2+z
1/2+x,1/2-y,1/2+z
loop_
_atom_site_type_symbol
_atom_site_label
_atom_site_fract_x
_atom_site_fract_y
_atom_site_fract_z
Si Si1 0.544572 0.564389 0.171998
Si Si2 0.080858 0.740423 0.174068
Si Si3 0.618932 0.161280 0.824008
Si Si4 0.449399 0.995188 0.674196
Si Si5 0.207426 0.949991 0.176312
Si Si6 0.129194 0.083995 0.325293
Si Si7 0.305831 0.003190 0.175738
Si Si8 0.670205 0.754009 0.824086
O O1 0.500000 0.500000 0.209988
O O2 0.542003 0.676081 0.272886
O O3 0.585409 0.484775 0.217592
O O4 0.546941 0.599088 0.000000
O O5 0.071739 0.613441 0.217776
O O6 0.121966 0.785838 0.270722
O O7 0.089922 0.753557 0.000000
O O8 0.574825 0.105496 0.757075
O O9 0.622341 0.288833 0.772126
O O10 0.662289 0.094751 0.762643
O O11 0.615085 0.152843 0.000000
O O12 0.446492 0.971740 0.500000
O O13 0.500000 0.000000 0.729113
O O14 0.255576 0.990792 0.230215
O O15 0.205040 0.827108 0.245596
O O16 0.171300 0.035096 0.239274
O O17 0.202755 0.943597 0.000000
O O18 0.139237 0.077957 0.500000
O O19 0.322569 0.121637 0.236569
O O20 0.308258 0.002313 0.000000
O O21 0.674737 0.742913 0.000000
#
# Coordination Sequence:
#
# PCOD8239016 Si02
#       8
#     8   8   8   8   8   8   8   8
#     4  10  22  39  59  86 120 157 197 245 296 348
#     4  11  22  38  61  88 116 153 199 245 294 352
#     4  10  21  40  62  85 115 155 201 242 285 344
#     4  10  23  41  59  86 123 156 190 240 297 348
#     4  11  23  39  60  88 120 155 196 240 295 356
#     4  10  22  39  59  85 119 157 197 241 292 346
#     4   9  21  39  59  85 118 153 192 244 293 341
#     4  11  21  39  63  86 116 153 196 246 296 344
#
# _framework density 19.753086
#
# number of rings (size 3 to 8) (size 9 to 14) (size 15 to 20)
#    0.000    1.750    2.500    1.125    3.500    1.500 
#    0.000    3.125    0.000    0.000    0.000    0.000 
#    0.000    0.000    0.000    0.000    0.000    0.000 
#
# Total GULP energy -793694.490469 kJ/mol
# GULP energy per Si atom -12401.476414 kJ/mol
# Density = 1.970813 g / cm^3
# Si number density = 19.753086 Si / 1000 Ang^3
#
#
#
# Elastic Constant Matrix: (Units=GPa)
#
#
# Indices 1 2 3 4 5 6 
#
# 1 107.0585 32.0730 29.9225 0.0000 0.0000 0.0000
# 2 32.0730 117.5816 33.7885 0.0000 0.0000 0.0000
# 3 29.9225 33.7885 51.4614 0.0000 0.0000 0.0000
# 4 0.0000 0.0000 0.0000 23.8955 0.0000 0.0000
# 5 0.0000 0.0000 0.0000 0.0000 25.6029 0.0000
# 6 0.0000 0.0000 0.0000 0.0000 0.0000 26.1088
#
#
#
# Elastic Compliance Matrix: (Units=1/GPa)
#
#
# Indices 1 2 3 4 5 6 
#
# 1 0.011358 -0.001480 -0.005633 0.000000 0.000000 0.000000
# 2 -0.001480 0.010675 -0.006149 0.000000 0.000000 0.000000
# 3 -0.005633 -0.006149 0.026745 0.000000 0.000000 0.000000
# 4 0.000000 0.000000 0.000000 0.041849 0.000000 0.000000
# 5 0.000000 0.000000 0.000000 0.000000 0.039058 0.000000
# 6 0.000000 0.000000 0.000000 0.000000 0.000000 0.038301
#
#
# Mechanical properties :
#
#
# Convention : Reuss Voigt Hill
#
# Bulk Modulus (GPa) = 44.93277 51.96327 48.44802
# Shear Modulus (GPa) = 24.76137 27.14261 25.95199
#
# Velocity S-wave (km/s) = 3.54438 3.71090 3.62860
# Velocity P-wave (km/s) = 6.28863 6.68764 6.49120
#
# Compressibility (1/GPa) = 0.02225547
#
# Stress axis : x y z
#
# Youngs Moduli (GPa) = 88.04128 93.67450 37.39086
#
# Poissons Ratio (x) = 0.13860 0.21062
# Poissons Ratio (y) = 0.13026 0.22991
# Poissons Ratio (z) = 0.49593 0.57599
#
# Static dielectric constant tensor:
#      x y z
#    x 3.667280 0.000000 0.000000 
#    y 0.000000 3.799260 0.000000 
#    z 0.000000 0.000000 3.369080 
# 
# 
# High freq. dielectric constant tensor:
#      x y z
#    x 1.771240 0.000000 0.000000 
#    y 0.000000 1.786070 0.000000 
#    z 0.000000 0.000000 1.753380 
# 
# From -- ./inp_files/10988.got.cif
#   From: 2010.06.25/outbox.ucp.g09.slc.cvg/sg58_6_cif.got.tgz:10988.got - 2010.06.28 15:54:47.
