data_PCOD8239004
_publ_section_title
;
Structure prediction by ZEFSAII (Michael W. Deem and Ramdas Pophale) SiO2 
 PCOD8239004
Probable space group: P N N M
;
_chemical_formula_sum "Si O2"
_cell_formula_units_Z 48
_cell_length_a 30.000000
_cell_length_b 9.000000
_cell_length_c 9.000000
_cell_angle_alpha 90.000000
_cell_angle_beta 90.000000
_cell_angle_gamma 90.000000
_cell_volume 2430.000000
_symmetry_space_group_name_H-M "P N N M"
_symmetry_group_IT_number 58
_symmetry_cell_setting 'orthorhombic'
loop_
_space_group_symop_operation_xyz
x,y,z
-x,-y,z
1/2+x,1/2-y,1/2-z
1/2-x,1/2+y,1/2-z
-x,-y,-z
x,y,-z
1/2-x,1/2+y,1/2+z
1/2+x,1/2-y,1/2+z
loop_
_atom_site_type_symbol
_atom_site_label
_atom_site_fract_x
_atom_site_fract_y
_atom_site_fract_z
Si Si1 0.964645 0.284246 0.832103
Si Si2 0.203617 0.937323 0.669740
Si Si3 0.879926 0.244348 0.669335
Si Si4 0.277466 0.772050 0.824947
Si Si5 0.647047 0.042381 0.321976
Si Si6 0.944062 0.631345 0.833520
O O1 0.928522 0.197461 0.732854
O O2 0.952397 0.456241 0.834326
O O3 0.014873 0.276606 0.758531
O O4 0.963467 0.220094 0.000000
O O5 0.220522 0.919507 0.500000
O O6 0.151108 0.901264 0.681153
O O7 0.228060 0.817879 0.774983
O O8 0.212232 0.104397 0.726364
O O9 0.885425 0.297429 0.500000
O O10 0.857255 0.376059 0.761713
O O11 0.308431 0.887224 0.739219
O O12 0.283752 0.790523 0.000000
O O13 0.647998 0.034334 0.500000
O O14 0.605509 0.147129 0.264253
O O15 0.943620 0.692306 0.000000
#
# Coordination Sequence:
#
# PCOD8239004 Si02
#       6
#     8   8   8   8   8   8
#     4   8  13  25  45  70 100 134 171 209 250 291
#     4  10  23  40  55  74 103 135 165 203 252 305
#     4  10  19  32  51  77 107 137 171 210 252 297
#     4  11  23  38  56  77 100 128 166 209 251 299
#     4  10  19  33  53  77 105 136 170 208 253 300
#     4   7  12  24  44  69  99 134 168 205 247 292
#
# _framework density 19.753086
#
# number of rings (size 3 to 8) (size 9 to 14) (size 15 to 20)
#    0.000    2.667    0.000    4.500    0.000    5.333 
#    0.000    7.500    0.000    1.000    0.000    7.000 
#    0.000    0.000    0.000    0.000    0.000    0.000 
#
# Total GULP energy -594638.578644 kJ/mol
# GULP energy per Si atom -12388.303722 kJ/mol
# Density = 1.970813 g / cm^3
# Si number density = 19.753086 Si / 1000 Ang^3
#
#
#
# Elastic Constant Matrix: (Units=GPa)
#
#
# Indices 1 2 3 4 5 6 
#
# 1 42.4693 -20.5582 4.1938 0.0000 0.0000 0.0000
# 2 -20.5582 31.6554 6.9548 0.0000 0.0000 0.0000
# 3 4.1938 6.9548 64.2266 0.0000 0.0000 0.0000
# 4 0.0000 0.0000 0.0000 9.9669 0.0000 0.0000
# 5 0.0000 0.0000 0.0000 0.0000 26.3528 0.0000
# 6 0.0000 0.0000 0.0000 0.0000 0.0000 16.4768
#
#
#
# Elastic Compliance Matrix: (Units=1/GPa)
#
#
# Indices 1 2 3 4 5 6 
#
# 1 0.035832 0.024364 -0.004978 0.000000 0.000000 0.000000
# 2 0.024364 0.048927 -0.006889 0.000000 0.000000 0.000000
# 3 -0.004978 -0.006889 0.016641 0.000000 0.000000 0.000000
# 4 0.000000 0.000000 0.000000 0.100332 0.000000 0.000000
# 5 0.000000 0.000000 0.000000 0.000000 0.037947 0.000000
# 6 0.000000 0.000000 0.000000 0.000000 0.000000 0.060691
#
#
# Mechanical properties :
#
#
# Convention : Reuss Voigt Hill
#
# Bulk Modulus (GPa) = 7.91171 13.28133 10.59652
# Shear Modulus (GPa) = 15.74770 20.41003 18.07886
#
# Velocity S-wave (km/s) = 2.82658 3.21792 3.02858
# Velocity P-wave (km/s) = 3.82972 4.53265 4.19593
#
# Compressibility (1/GPa) = 0.12639486
#
# Stress axis : x y z
#
# Youngs Moduli (GPa) = 27.90792 20.43862 60.09287
#
# Poissons Ratio (x) = -0.49798 0.29914
# Poissons Ratio (y) = -0.67996 0.41398
# Poissons Ratio (z) = 0.13893 0.14080
#
# Static dielectric constant tensor:
#      x y z
#    x 4.291340 0.000000 0.000000 
#    y 0.000000 3.125400 0.000000 
#    z 0.000000 0.000000 3.456050 
# 
# 
# High freq. dielectric constant tensor:
#      x y z
#    x 1.791310 0.000000 0.000000 
#    y 0.000000 1.723020 0.000000 
#    z 0.000000 0.000000 1.749540 
# 
# From -- ./inp_files/10742.got.cif
#   From: 2010.06.25/outbox.ucp.g09.slc.cvg/sg58_6_cif.got.tgz:10742.got - 2010.06.28 15:54:47.
