data_PCOD8239217
_publ_section_title
;
Structure prediction by ZEFSAII (Michael W. Deem and Ramdas Pophale) SiO2 
 PCOD8239217
Probable space group: P M M N
;
_chemical_formula_sum "Si O2"
_cell_formula_units_Z 64
_cell_length_a 9.123954
_cell_length_b 26.697299
_cell_length_c 18.178178
_cell_angle_alpha 90.000000
_cell_angle_beta 90.000000
_cell_angle_gamma 90.000000
_cell_volume 4427.930179
_symmetry_space_group_name_H-M "P M M N"
_symmetry_group_IT_number 59
_space_group.IT_coordinate_system_code '2'
_symmetry_cell_setting 'orthorhombic'
loop_
_space_group_symop_operation_xyz
x,y,z
1/2-x,1/2-y,z
1/2+x,-y,-z
-x,1/2+y,-z
-x,-y,-z
1/2+x,1/2+y,-z
1/2-x,y,z
x,1/2-y,z
loop_
_atom_site_type_symbol
_atom_site_label
_atom_site_fract_x
_atom_site_fract_y
_atom_site_fract_z
Si Si1 0.076056 0.305739 0.174323
Si Si2 0.918246 0.546247 0.464922
Si Si3 0.922573 0.957764 0.047379
Si Si4 0.579991 0.397205 0.423762
Si Si5 0.583025 0.008239 0.323152
Si Si6 0.919499 0.193227 0.324291
Si Si7 0.923751 0.503093 0.827387
Si Si8 0.079195 0.398967 0.087719
O O1 0.250000 0.307126 0.179831
O O2 0.021985 0.250000 0.151471
O O3 0.013770 0.345693 0.114679
O O4 0.013713 0.320924 0.253354
O O5 0.750000 0.544635 0.488904
O O6 0.933483 0.540381 0.376631
O O7 0.000000 0.500000 0.500000
O O8 0.991360 0.596214 0.499371
O O9 0.750000 0.968546 0.055342
O O10 0.950278 0.906759 0.999879
O O11 0.999479 0.957176 0.127441
O O12 0.000000 0.000000 0.000000
O O13 0.750000 0.399605 0.443932
O O14 0.539849 0.440883 0.365773
O O15 0.534454 0.343711 0.390105
O O16 0.750000 0.012150 0.294132
O O17 0.471946 0.000264 0.256685
O O18 0.750000 0.185344 0.303439
O O19 0.950715 0.250000 0.350345
O O20 0.750000 0.496889 0.833266
O O21 0.982659 0.555068 0.863064
O O22 0.250000 0.398096 0.103850
#
# Coordination Sequence:
#
# PCOD8239217 Si02
#       8
#     8   8   8   8   8   8   8   8
#     4   9  16  26  40  57  77 101 131 164 192 222
#     4   9  17  28  41  57  78 103 131 163 197 234
#     4   9  16  27  40  53  74 100 127 159 192 227
#     4   9  17  28  41  57  78 106 138 166 194 231
#     4   9  17  27  38  55  78 102 129 159 192 229
#     4   9  17  28  40  56  80 107 134 165 198 228
#     4  10  18  26  38  56  77 101 130 159 188 226
#     4   8  15  26  38  54  75 100 128 156 188 222
#
# _framework density 14.453704999999999
#
# number of rings (size 3 to 8) (size 9 to 14) (size 15 to 20)
#    0.000    3.000    0.000    3.375    0.000    3.000 
#    0.000    3.125    0.000    0.000    0.000    0.000 
#    0.000    1.000    0.000    4.250    0.000    2.625 
#
# Total GULP energy -793014.016919 kJ/mol
# GULP energy per Si atom -12390.844014 kJ/mol
# Density = 1.442081 g / cm^3
# Si number density = 14.453705 Si / 1000 Ang^3
#
#
#
# Elastic Constant Matrix: (Units=GPa)
#
#
# Indices 1 2 3 4 5 6 
#
# 1 58.7343 28.0423 38.5944 0.0000 0.0000 0.0000
# 2 28.0423 78.5031 49.4318 0.0000 0.0000 0.0000
# 3 38.5944 49.4318 81.7157 0.0000 0.0000 0.0000
# 4 0.0000 0.0000 0.0000 25.8119 0.0000 0.0000
# 5 0.0000 0.0000 0.0000 0.0000 26.5373 0.0000
# 6 0.0000 0.0000 0.0000 0.0000 0.0000 14.6140
#
#
#
# Elastic Compliance Matrix: (Units=1/GPa)
#
#
# Indices 1 2 3 4 5 6 
#
# 1 0.024967 -0.002412 -0.010333 0.000000 0.000000 0.000000
# 2 -0.002412 0.020809 -0.011449 0.000000 0.000000 0.000000
# 3 -0.010333 -0.011449 0.024043 0.000000 0.000000 0.000000
# 4 0.000000 0.000000 0.000000 0.038742 0.000000 0.000000
# 5 0.000000 0.000000 0.000000 0.000000 0.037683 0.000000
# 6 0.000000 0.000000 0.000000 0.000000 0.000000 0.068428
#
#
# Mechanical properties :
#
#
# Convention : Reuss Voigt Hill
#
# Bulk Modulus (GPa) = 46.65867 50.12110 48.38988
# Shear Modulus (GPa) = 18.50461 20.25160 19.37810
#
# Velocity S-wave (km/s) = 3.58196 3.74724 3.66553
# Velocity P-wave (km/s) = 7.03270 7.31264 7.17403
#
# Compressibility (1/GPa) = 0.02143225
#
# Stress axis : x y z
#
# Youngs Moduli (GPa) = 40.05244 48.05629 41.59172
#
# Poissons Ratio (x) = 0.11592 0.42976
# Poissons Ratio (y) = 0.09662 0.47616
# Poissons Ratio (z) = 0.41386 0.55017
#
# Static dielectric constant tensor:
#      x y z
#    x 2.884480 0.000000 0.000000 
#    y 0.000000 3.185000 0.000000 
#    z 0.000000 0.000000 3.106000 
# 
# 
# High freq. dielectric constant tensor:
#      x y z
#    x 1.554550 0.000000 0.000000 
#    y 0.000000 1.521450 0.000000 
#    z 0.000000 0.000000 1.538980 
# 
# From -- ./inp_files/26623.got.cif
#   From: 2010.03.12/outbox.cif.g09.slc.cpg/sg59_14_cif.got.tgz:26623.got - 2010.04.16 16:29:54.
