data_PCOD8239766
_publ_section_title
;
Structure prediction by ZEFSAII (Michael W. Deem and Ramdas Pophale) SiO2 
 PCOD8239766
Probable space group: P M M N
;
_chemical_formula_sum "Si O2"
_cell_formula_units_Z 56
_cell_length_a 8.762304
_cell_length_b 21.967744
_cell_length_c 14.922976
_cell_angle_alpha 90.000000
_cell_angle_beta 90.000000
_cell_angle_gamma 90.000000
_cell_volume 2872.494567
_symmetry_space_group_name_H-M "P M M N"
_symmetry_group_IT_number 59
_space_group.IT_coordinate_system_code '2'
_symmetry_cell_setting 'orthorhombic'
loop_
_space_group_symop_operation_xyz
x,y,z
1/2-x,1/2-y,z
1/2+x,-y,-z
-x,1/2+y,-z
-x,-y,-z
1/2+x,1/2+y,-z
1/2-x,y,z
x,1/2-y,z
loop_
_atom_site_type_symbol
_atom_site_label
_atom_site_fract_x
_atom_site_fract_y
_atom_site_fract_z
Si Si1 0.569668 0.082686 0.766664
Si Si2 0.930235 0.949128 0.707331
Si Si3 0.568884 0.319649 0.629653
Si Si4 0.930733 0.128295 0.441596
Si Si5 0.420227 0.557784 0.039163
Si Si6 0.425114 0.250000 0.173239
Si Si7 0.925848 0.250000 0.356532
Si Si8 0.076924 0.867684 0.863219
O O1 0.750000 0.090137 0.767561
O O2 0.503921 0.142283 0.714835
O O3 0.502858 0.081845 0.868357
O O4 0.524408 0.019965 0.716714
O O5 0.750000 0.938924 0.715883
O O6 0.986484 0.927806 0.608664
O O7 0.011282 0.912523 0.787676
O O8 0.750000 0.313543 0.631992
O O9 0.501544 0.250000 0.626493
O O10 0.523045 0.362408 0.545148
O O11 0.750000 0.119607 0.429217
O O12 0.998288 0.188957 0.395648
O O13 0.250000 0.537330 0.064823
O O14 0.500000 0.500000 0.000000
O O15 0.422089 0.607661 0.963122
O O16 0.250000 0.250000 0.204415
O O17 0.546033 0.250000 0.252643
O O18 0.465612 0.189287 0.119978
O O19 0.750000 0.250000 0.383592
O O20 0.250000 0.850588 0.834029
#
# Coordination Sequence:
#
# PCOD8239766 Si02
#       8
#     8   8   8   8   8   4   4   8
#     4   9  19  35  54  81 114 142 181 237 284 330
#     4  11  21  33  53  82 117 149 181 228 287 337
#     4   9  17  33  57  82 107 145 189 229 277 333
#     4  10  19  32  54  82 111 143 185 226 272 332
#     4  10  20  36  59  84 110 146 186 231 285 338
#     4  12  24  36  54  81 114 152 188 231 292 343
#     4  10  18  30  50  77 110 144 182 229 268 321
#     4  11  22  36  55  81 115 151 190 234 282 340
#
# _framework density 19.495249999999999
#
# number of rings (size 3 to 8) (size 9 to 14) (size 15 to 20)
#    0.000    1.857    3.571    1.500    0.000    1.143 
#    1.286    0.000    0.000    1.714    0.000    0.000 
#    0.000    0.000    0.000    0.000    0.000    0.000 
#
# Total GULP energy -693898.798504 kJ/mol
# GULP energy per Si atom -12391.049973 kJ/mol
# Density = 1.945088 g / cm^3
# Si number density = 19.495250 Si / 1000 Ang^3
#
#
#
# Elastic Constant Matrix: (Units=GPa)
#
#
# Indices 1 2 3 4 5 6 
#
# 1 44.4563 25.9879 23.4602 0.0000 0.0000 0.0000
# 2 25.9879 111.1382 61.4307 0.0000 0.0000 0.0000
# 3 23.4602 61.4307 143.2201 0.0000 0.0000 0.0000
# 4 0.0000 0.0000 0.0000 31.5037 0.0000 0.0000
# 5 0.0000 0.0000 0.0000 0.0000 17.4796 0.0000
# 6 0.0000 0.0000 0.0000 0.0000 0.0000 46.1868
#
#
#
# Elastic Compliance Matrix: (Units=1/GPa)
#
#
# Indices 1 2 3 4 5 6 
#
# 1 0.026580 -0.004992 -0.002213 0.000000 0.000000 0.000000
# 2 -0.004992 0.012732 -0.004643 0.000000 0.000000 0.000000
# 3 -0.002213 -0.004643 0.009336 0.000000 0.000000 0.000000
# 4 0.000000 0.000000 0.000000 0.031742 0.000000 0.000000
# 5 0.000000 0.000000 0.000000 0.000000 0.057210 0.000000
# 6 0.000000 0.000000 0.000000 0.000000 0.000000 0.021651
#
#
# Mechanical properties :
#
#
# Convention : Reuss Voigt Hill
#
# Bulk Modulus (GPa) = 40.07739 57.84136 48.95937
# Shear Modulus (GPa) = 26.14182 31.56307 28.85245
#
# Velocity S-wave (km/s) = 3.66585 4.02806 3.85122
# Velocity P-wave (km/s) = 6.20645 7.16712 6.70402
#
# Compressibility (1/GPa) = 0.02495173
#
# Stress axis : x y z
#
# Youngs Moduli (GPa) = 37.62233 78.54454 107.10925
#
# Poissons Ratio (x) = 0.39212 0.23699
# Poissons Ratio (y) = 0.18782 0.49732
# Poissons Ratio (z) = 0.08324 0.36469
#
# Static dielectric constant tensor:
#      x y z
#    x 3.297880 0.000000 0.000000 
#    y 0.000000 3.522810 0.000000 
#    z 0.000000 0.000000 9.271730 
# 
# 
# High freq. dielectric constant tensor:
#      x y z
#    x 1.723060 0.000000 0.000000 
#    y 0.000000 1.762670 0.000000 
#    z 0.000000 0.000000 1.764910 
# 
# From -- ./inp_files/21113.got.cif
#   From: 2010.03.12/outbox.cif.g09.slc.cpg/sg59_11_cif.got.tgz:21113.got - 2010.04.16 16:29:54.
