data_PCOD8239353
_publ_section_title
;
Structure prediction by ZEFSAII (Michael W. Deem and Ramdas Pophale) SiO2 
 PCOD8239353
Probable space group: P M M N
;
_chemical_formula_sum "Si O2"
_cell_formula_units_Z 64
_cell_length_a 9.046198
_cell_length_b 25.656648
_cell_length_c 17.240597
_cell_angle_alpha 90.000000
_cell_angle_beta 90.000000
_cell_angle_gamma 90.000000
_cell_volume 4001.458392
_symmetry_space_group_name_H-M "P M M N"
_symmetry_group_IT_number 59
_space_group.IT_coordinate_system_code '2'
_symmetry_cell_setting 'orthorhombic'
loop_
_space_group_symop_operation_xyz
x,y,z
1/2-x,1/2-y,z
1/2+x,-y,-z
-x,1/2+y,-z
-x,-y,-z
1/2+x,1/2+y,-z
1/2-x,y,z
x,1/2-y,z
loop_
_atom_site_type_symbol
_atom_site_label
_atom_site_fract_x
_atom_site_fract_y
_atom_site_fract_z
Si Si1 0.580426 0.553810 0.497232
Si Si2 0.579867 0.810396 0.093703
Si Si3 0.924489 0.903000 0.822716
Si Si4 0.075995 0.058189 0.670147
Si Si5 0.075651 0.601462 0.183836
Si Si6 0.075222 0.997254 0.082664
Si Si7 0.422927 0.446921 0.335584
Si Si8 0.574105 0.692764 0.918041
O O1 0.500000 0.500000 0.500000
O O2 0.750000 0.538949 0.492817
O O3 0.539611 0.582841 0.416274
O O4 0.546783 0.581679 0.580578
O O5 0.750000 0.827347 0.104193
O O6 0.559281 0.750000 0.115359
O O7 0.477660 0.843720 0.150210
O O8 0.526737 0.820877 0.005718
O O9 0.750000 0.900015 0.832382
O O10 0.970118 0.906744 0.732155
O O11 0.994121 0.850623 0.860161
O O12 0.983127 0.953898 0.867403
O O13 0.250000 0.057596 0.687333
O O14 0.996323 0.094714 0.731889
O O15 0.015843 0.999437 0.674517
O O16 0.250000 0.602062 0.194382
O O17 0.024916 0.554986 0.126897
O O18 0.250000 0.998820 0.071271
O O19 0.000000 0.000000 0.000000
O O20 0.250000 0.461831 0.326047
O O21 0.750000 0.694109 0.914051
O O22 0.512456 0.750000 0.894459
#
# Coordination Sequence:
#
# PCOD8239353 Si02
#       8
#     8   8   8   8   8   8   8   8
#     4   8  15  25  40  60  83 115 150 180 219 266
#     4   9  18  33  51  68  87 115 151 190 229 264
#     4   9  15  25  41  60  87 118 146 177 218 264
#     4  10  18  28  42  63  89 118 151 186 221 267
#     4  11  21  32  46  66  91 119 150 185 228 273
#     4  10  20  31  42  60  86 119 151 178 219 272
#     4   9  15  27  43  61  89 120 147 182 226 271
#     4   8  14  25  43  66  88 112 146 185 221 258
#
# _framework density 15.994168
#
# number of rings (size 3 to 8) (size 9 to 14) (size 15 to 20)
#    0.000    2.750    1.250    2.250    0.000    2.750 
#    0.000    0.000    0.000    0.000    0.000    0.875 
#    0.000    5.000    0.000    0.000    0.000    0.000 
#
# Total GULP energy -792961.898572 kJ/mol
# GULP energy per Si atom -12390.029665 kJ/mol
# Density = 1.595776 g / cm^3
# Si number density = 15.994168 Si / 1000 Ang^3
#
#
#
# Elastic Constant Matrix: (Units=GPa)
#
#
# Indices 1 2 3 4 5 6 
#
# 1 36.4985 23.4135 38.8173 0.0000 0.0000 0.0000
# 2 23.4135 82.3434 63.7474 0.0000 0.0000 0.0000
# 3 38.8173 63.7474 162.9149 0.0000 0.0000 0.0000
# 4 0.0000 0.0000 0.0000 18.6510 0.0000 0.0000
# 5 0.0000 0.0000 0.0000 0.0000 19.9325 0.0000
# 6 0.0000 0.0000 0.0000 0.0000 0.0000 16.4094
#
#
#
# Elastic Compliance Matrix: (Units=1/GPa)
#
#
# Indices 1 2 3 4 5 6 
#
# 1 0.038357 -0.005496 -0.006989 0.000000 0.000000 0.000000
# 2 -0.005496 0.018209 -0.005816 0.000000 0.000000 0.000000
# 3 -0.006989 -0.005816 0.010079 0.000000 0.000000 0.000000
# 4 0.000000 0.000000 0.000000 0.053616 0.000000 0.000000
# 5 0.000000 0.000000 0.000000 0.000000 0.050169 0.000000
# 6 0.000000 0.000000 0.000000 0.000000 0.000000 0.060941
#
#
# Mechanical properties :
#
#
# Convention : Reuss Voigt Hill
#
# Bulk Modulus (GPa) = 33.28414 59.30147 46.29281
# Shear Modulus (GPa) = 17.98651 21.38384 19.68518
#
# Velocity S-wave (km/s) = 3.35709 3.66044 3.51204
# Velocity P-wave (km/s) = 5.99017 7.41771 6.74183
#
# Compressibility (1/GPa) = 0.03004434
#
# Stress axis : x y z
#
# Youngs Moduli (GPa) = 26.07116 54.91717 99.21697
#
# Poissons Ratio (x) = 0.30183 0.69338
# Poissons Ratio (y) = 0.14329 0.57701
# Poissons Ratio (z) = 0.18220 0.31938
#
# Static dielectric constant tensor:
#      x y z
#    x 2.684300 0.000000 0.000000 
#    y 0.000000 2.946420 0.000000 
#    z 0.000000 0.000000 3.590110 
# 
# 
# High freq. dielectric constant tensor:
#      x y z
#    x 1.595970 0.000000 0.000000 
#    y 0.000000 1.577340 0.000000 
#    z 0.000000 0.000000 1.630050 
# 
# From -- ./inp_files/26492.got.cif
#   From: 2010.03.12/outbox.cif.g09.slc.cpg/sg59_14_cif.got.tgz:26492.got - 2010.04.16 16:29:54.
