data_PCOD8239468
_publ_section_title
;
Structure prediction by ZEFSAII (Michael W. Deem and Ramdas Pophale) SiO2 
 PCOD8239468
Probable space group: P M M N
;
_chemical_formula_sum "Si O2"
_cell_formula_units_Z 56
_cell_length_a 9.525609
_cell_length_b 20.902939
_cell_length_c 14.854022
_cell_angle_alpha 90.000000
_cell_angle_beta 90.000000
_cell_angle_gamma 90.000000
_cell_volume 2957.632208
_symmetry_space_group_name_H-M "P M M N"
_symmetry_group_IT_number 59
_space_group.IT_coordinate_system_code '2'
_symmetry_cell_setting 'orthorhombic'
loop_
_space_group_symop_operation_xyz
x,y,z
1/2-x,1/2-y,z
1/2+x,-y,-z
-x,1/2+y,-z
-x,-y,-z
1/2+x,1/2+y,-z
1/2-x,y,z
x,1/2-y,z
loop_
_atom_site_type_symbol
_atom_site_label
_atom_site_fract_x
_atom_site_fract_y
_atom_site_fract_z
Si Si1 0.589856 0.632314 0.934938
Si Si2 0.908079 0.889785 0.137792
Si Si3 0.586761 0.063759 0.520807
Si Si4 0.589968 0.457680 0.717741
Si Si5 0.907159 0.750000 0.122669
Si Si6 0.909163 0.598292 0.742123
Si Si7 0.416862 0.750000 0.949671
Si Si8 0.585100 0.176436 0.387192
O O1 0.750000 0.657558 0.944676
O O2 0.575823 0.584870 0.850104
O O3 0.484137 0.688033 0.903851
O O4 0.544933 0.603855 0.032418
O O5 0.750000 0.914606 0.147993
O O6 0.922582 0.816658 0.176334
O O7 0.002123 0.933918 0.198455
O O8 0.750000 0.048144 0.502078
O O9 0.562822 0.081622 0.626064
O O10 0.538367 0.127042 0.466129
O O11 0.500000 0.000000 0.500000
O O12 0.750000 0.452796 0.749236
O O13 0.550101 0.531293 0.695714
O O14 0.750000 0.750000 0.077782
O O15 0.033421 0.750000 0.052515
O O16 0.750000 0.618438 0.718986
O O17 0.008256 0.654404 0.704281
O O18 0.250000 0.750000 0.940832
O O19 0.750000 0.172134 0.369524
O O20 0.543005 0.250000 0.411449
#
# Coordination Sequence:
#
# PCOD8239468 Si02
#       8
#     8   8   8   8   4   8   4   8
#     4   9  19  35  52  73 107 152 188 222 271 330
#     4   9  18  34  55  77 106 147 190 226 271 329
#     4  10  20  38  62  84 111 148 185 227 281 341
#     4  10  21  36  55  83 112 141 184 233 276 327
#     4   8  16  34  54  72 103 144 185 228 273 326
#     4  10  21  37  57  81 111 148 189 227 272 330
#     4  10  18  28  48  76 103 136 183 232 275 322
#     4  10  22  39  59  86 118 146 179 231 289 339
#
# _framework density 18.934063999999999
#
# number of rings (size 3 to 8) (size 9 to 14) (size 15 to 20)
#    0.000    2.429    1.429    1.500    1.000    4.857 
#    1.286    0.000    0.000    0.000    0.000    0.000 
#    0.000    0.000    0.000    0.000    0.000    0.000 
#
# Total GULP energy -693781.429997 kJ/mol
# GULP energy per Si atom -12388.954107 kJ/mol
# Density = 1.889097 g / cm^3
# Si number density = 18.934064 Si / 1000 Ang^3
#
#
#
# Elastic Constant Matrix: (Units=GPa)
#
#
# Indices 1 2 3 4 5 6 
#
# 1 67.2970 42.5732 42.6671 0.0000 0.0000 0.0000
# 2 42.5732 98.8181 58.9737 0.0000 0.0000 0.0000
# 3 42.6671 58.9737 105.0911 0.0000 0.0000 0.0000
# 4 0.0000 0.0000 0.0000 31.2485 0.0000 0.0000
# 5 0.0000 0.0000 0.0000 0.0000 26.9517 0.0000
# 6 0.0000 0.0000 0.0000 0.0000 0.0000 24.7620
#
#
#
# Elastic Compliance Matrix: (Units=1/GPa)
#
#
# Indices 1 2 3 4 5 6 
#
# 1 0.022375 -0.006342 -0.005525 0.000000 0.000000 0.000000
# 2 -0.006342 0.017013 -0.006972 0.000000 0.000000 0.000000
# 3 -0.005525 -0.006972 0.015671 0.000000 0.000000 0.000000
# 4 0.000000 0.000000 0.000000 0.032002 0.000000 0.000000
# 5 0.000000 0.000000 0.000000 0.000000 0.037103 0.000000
# 6 0.000000 0.000000 0.000000 0.000000 0.000000 0.040384
#
#
# Mechanical properties :
#
#
# Convention : Reuss Voigt Hill
#
# Bulk Modulus (GPa) = 57.53758 62.18160 59.85959
# Shear Modulus (GPa) = 24.03609 25.05857 24.54733
#
# Velocity S-wave (km/s) = 3.56682 3.64189 3.60455
# Velocity P-wave (km/s) = 6.88602 7.11315 7.00051
#
# Compressibility (1/GPa) = 0.01737994
#
# Stress axis : x y z
#
# Youngs Moduli (GPa) = 44.69338 58.77896 63.81104
#
# Poissons Ratio (x) = 0.37279 0.35256
# Poissons Ratio (y) = 0.28346 0.44490
# Poissons Ratio (z) = 0.24693 0.40981
#
# Static dielectric constant tensor:
#      x y z
#    x 3.374650 0.000000 0.000000 
#    y 0.000000 3.517620 0.000000 
#    z 0.000000 0.000000 3.362680 
# 
# 
# High freq. dielectric constant tensor:
#      x y z
#    x 1.729710 0.000000 0.000000 
#    y 0.000000 1.726530 0.000000 
#    z 0.000000 0.000000 1.727500 
# 
# From -- ./inp_files/21213.got.cif
#   From: 2010.03.12/outbox.cif.g09.slc.cpg/sg59_11_cif.got.tgz:21213.got - 2010.04.16 16:29:54.
