data_PCOD8239975
_publ_section_title
;
Structure prediction by ZEFSAII (Michael W. Deem and Ramdas Pophale) SiO2 
 PCOD8239975
Probable space group: P M M N
;
_chemical_formula_sum "Si O2"
_cell_formula_units_Z 64
_cell_length_a 19.465047
_cell_length_b 17.643014
_cell_length_c 10.085567
_cell_angle_alpha 90.000000
_cell_angle_beta 90.000000
_cell_angle_gamma 90.000000
_cell_volume 3463.606566
_symmetry_space_group_name_H-M "P M M N"
_symmetry_group_IT_number 59
_space_group.IT_coordinate_system_code '2'
_symmetry_cell_setting 'orthorhombic'
loop_
_space_group_symop_operation_xyz
x,y,z
1/2-x,1/2-y,z
1/2+x,-y,-z
-x,1/2+y,-z
-x,-y,-z
1/2+x,1/2+y,-z
1/2-x,y,z
x,1/2-y,z
loop_
_atom_site_type_symbol
_atom_site_label
_atom_site_fract_x
_atom_site_fract_y
_atom_site_fract_z
Si Si1 0.829024 0.336452 0.008245
Si Si2 0.090142 0.489209 0.562554
Si Si3 0.940827 0.838128 0.893999
Si Si4 0.045360 0.028449 0.291590
Si Si5 0.829652 0.034923 0.201316
Si Si6 0.073421 0.331647 0.682963
Si Si7 0.959798 0.116167 0.874061
Si Si8 0.168236 0.376491 0.905951
O O1 0.750000 0.355661 0.965236
O O2 0.834207 0.250000 0.055489
O O3 0.881748 0.352022 0.887226
O O4 0.854968 0.387678 0.132305
O O5 0.099978 0.500693 0.404092
O O6 0.152395 0.527146 0.643266
O O7 0.084345 0.398375 0.578821
O O8 0.025131 0.531349 0.626468
O O9 0.955628 0.750000 0.862101
O O10 0.939858 0.886714 0.758894
O O11 0.865313 0.846931 0.958445
O O12 0.000229 0.872071 0.988158
O O13 0.044234 0.972392 0.165847
O O14 0.750000 0.031588 0.191832
O O15 0.857943 0.963099 0.118028
O O16 0.071966 0.250000 0.609690
O O17 0.137156 0.328437 0.785314
O O18 0.000747 0.340043 0.759384
O O19 0.250000 0.366728 0.913302
#
# Coordination Sequence:
#
# PCOD8239975 Si02
#       8
#     8   8   8   8   8   8   8   8
#     4  10  19  30  49  76 100 121 149 194 248 289
#     4   9  19  34  50  68  91 124 165 199 229 271
#     4  11  21  31  49  76 100 124 153 192 244 287
#     4  10  20  34  51  69  93 127 162 196 232 277
#     4   9  17  31  51  72  94 124 162 199 232 272
#     4   9  17  29  49  73  95 124 157 195 239 274
#     4  10  18  32  50  70  98 126 158 191 232 292
#     4   9  17  30  48  72 100 127 158 191 228 281
#
# _framework density 18.477848999999999
#
# number of rings (size 3 to 8) (size 9 to 14) (size 15 to 20)
#    0.000    2.375    0.000    4.875    0.000    1.500 
#    0.000    1.250    0.000    4.500    0.000    3.500 
#    0.000    0.000    0.000    0.000    0.000    0.000 
#
# Total GULP energy -793077.811475 kJ/mol
# GULP energy per Si atom -12391.840804 kJ/mol
# Density = 1.843579 g / cm^3
# Si number density = 18.477849 Si / 1000 Ang^3
#
#
#
# Elastic Constant Matrix: (Units=GPa)
#
#
# Indices 1 2 3 4 5 6 
#
# 1 55.4617 32.2562 14.2506 0.0000 0.0000 0.0000
# 2 32.2562 115.3906 41.3739 0.0000 0.0000 0.0000
# 3 14.2506 41.3739 63.3919 0.0000 0.0000 0.0000
# 4 0.0000 0.0000 0.0000 12.0824 0.0000 0.0000
# 5 0.0000 0.0000 0.0000 0.0000 20.1976 0.0000
# 6 0.0000 0.0000 0.0000 0.0000 0.0000 17.4916
#
#
#
# Elastic Compliance Matrix: (Units=1/GPa)
#
#
# Indices 1 2 3 4 5 6 
#
# 1 0.021600 -0.005610 -0.001194 0.000000 0.000000 0.000000
# 2 -0.005610 0.012771 -0.007074 0.000000 0.000000 0.000000
# 3 -0.001194 -0.007074 0.020660 0.000000 0.000000 0.000000
# 4 0.000000 0.000000 0.000000 0.082765 0.000000 0.000000
# 5 0.000000 0.000000 0.000000 0.000000 0.049511 0.000000
# 6 0.000000 0.000000 0.000000 0.000000 0.000000 0.057170
#
#
# Mechanical properties :
#
#
# Convention : Reuss Voigt Hill
#
# Bulk Modulus (GPa) = 36.66389 45.55617 41.11003
# Shear Modulus (GPa) = 17.77302 19.71189 18.74245
#
# Velocity S-wave (km/s) = 3.10474 3.26971 3.18829
# Velocity P-wave (km/s) = 5.72169 6.24201 5.98750
#
# Compressibility (1/GPa) = 0.02727479
#
# Stress axis : x y z
#
# Youngs Moduli (GPa) = 46.29638 78.30376 48.40191
#
# Poissons Ratio (x) = 0.43927 0.05781
# Poissons Ratio (y) = 0.25971 0.34239
# Poissons Ratio (z) = 0.05530 0.55392
#
# Static dielectric constant tensor:
#      x y z
#    x 3.469600 0.000000 0.000000 
#    y 0.000000 3.963220 0.000000 
#    z 0.000000 0.000000 3.933110 
# 
# 
# High freq. dielectric constant tensor:
#      x y z
#    x 1.710300 0.000000 0.000000 
#    y 0.000000 1.724080 0.000000 
#    z 0.000000 0.000000 1.682480 
# 
# From -- ./inp_files/11657.got.cif
#   From: 2010.03.12/outbox.cif.g09.slc.cpg/sg59_6_cif.got.tgz:11657.got - 2010.04.16 16:29:54.
