data_PCOD8239497
_publ_section_title
;
Structure prediction by ZEFSAII (Michael W. Deem and Ramdas Pophale) SiO2 
 PCOD8239497
Probable space group: P M M N
;
_chemical_formula_sum "Si O2"
_cell_formula_units_Z 64
_cell_length_a 8.984051
_cell_length_b 22.292690
_cell_length_c 20.347172
_cell_angle_alpha 90.000000
_cell_angle_beta 90.000000
_cell_angle_gamma 90.000000
_cell_volume 4075.104422
_symmetry_space_group_name_H-M "P M M N"
_symmetry_group_IT_number 59
_space_group.IT_coordinate_system_code '2'
_symmetry_cell_setting 'orthorhombic'
loop_
_space_group_symop_operation_xyz
x,y,z
1/2-x,1/2-y,z
1/2+x,-y,-z
-x,1/2+y,-z
-x,-y,-z
1/2+x,1/2+y,-z
1/2-x,y,z
x,1/2-y,z
loop_
_atom_site_type_symbol
_atom_site_label
_atom_site_fract_x
_atom_site_fract_y
_atom_site_fract_z
Si Si1 0.575125 0.437364 0.484056
Si Si2 0.579833 0.469857 0.205164
Si Si3 0.572979 0.606601 0.397104
Si Si4 0.420770 0.109060 0.826527
Si Si5 0.582020 0.082559 0.953870
Si Si6 0.576446 0.477797 0.347867
Si Si7 0.421486 0.820454 0.287743
Si Si8 0.417134 0.442864 0.079358
O O1 0.500000 0.500000 0.500000
O O2 0.750000 0.439710 0.499582
O O3 0.496030 0.386753 0.528969
O O4 0.547441 0.428360 0.405336
O O5 0.750000 0.449062 0.197506
O O6 0.564966 0.540722 0.195626
O O7 0.512158 0.455139 0.277819
O O8 0.486506 0.433025 0.151477
O O9 0.750000 0.610462 0.401769
O O10 0.513515 0.543384 0.367549
O O11 0.511869 0.659804 0.352277
O O12 0.250000 0.130129 0.826831
O O13 0.487731 0.118086 0.899284
O O14 0.512847 0.149710 0.777107
O O15 0.750000 0.107281 0.954302
O O16 0.579383 0.012502 0.938187
O O17 0.510111 0.094152 0.025296
O O18 0.750000 0.488358 0.336367
O O19 0.250000 0.839510 0.295499
O O20 0.440090 0.750000 0.280186
O O21 0.250000 0.417824 0.079601
#
# Coordination Sequence:
#
# PCOD8239497 Si02
#       8
#     8   8   8   8   8   8   8   8
#     4   9  16  26  41  61  83 108 138 173 210 252
#     4   9  15  25  39  56  80 110 138 168 204 243
#     4  10  18  31  46  60  79 106 140 178 217 258
#     4  10  18  29  45  60  77 104 137 175 213 251
#     4   9  16  26  39  54  75 103 135 169 204 243
#     4   8  14  25  40  59  82 108 138 169 204 248
#     4  11  23  35  46  62  83 107 140 182 223 262
#     4   9  16  24  34  54  78 103 136 170 200 236
#
# _framework density 15.705119
#
# number of rings (size 3 to 8) (size 9 to 14) (size 15 to 20)
#    0.000    2.625    1.250    3.000    0.000    4.500 
#    0.000    1.250    0.000    0.000    0.000    0.000 
#    0.000    0.000    0.000    1.125    0.000   20.750 
#
# Total GULP energy -793215.045168 kJ/mol
# GULP energy per Si atom -12393.985081 kJ/mol
# Density = 1.566937 g / cm^3
# Si number density = 15.705119 Si / 1000 Ang^3
#
#
#
# Elastic Constant Matrix: (Units=GPa)
#
#
# Indices 1 2 3 4 5 6 
#
# 1 101.5383 18.0396 58.6925 0.0000 0.0000 0.0000
# 2 18.0396 18.8437 19.7514 0.0000 0.0000 0.0000
# 3 58.6925 19.7514 148.6607 0.0000 0.0000 0.0000
# 4 0.0000 0.0000 0.0000 8.7539 0.0000 0.0000
# 5 0.0000 0.0000 0.0000 0.0000 29.9691 0.0000
# 6 0.0000 0.0000 0.0000 0.0000 0.0000 13.3993
#
#
#
# Elastic Compliance Matrix: (Units=1/GPa)
#
#
# Indices 1 2 3 4 5 6 
#
# 1 0.013908 -0.008782 -0.004324 0.000000 0.000000 0.000000
# 2 -0.008782 0.067200 -0.005461 0.000000 0.000000 0.000000
# 3 -0.004324 -0.005461 0.009160 0.000000 0.000000 0.000000
# 4 0.000000 0.000000 0.000000 0.114235 0.000000 0.000000
# 5 0.000000 0.000000 0.000000 0.000000 0.033368 0.000000
# 6 0.000000 0.000000 0.000000 0.000000 0.000000 0.074631
#
#
# Mechanical properties :
#
#
# Convention : Reuss Voigt Hill
#
# Bulk Modulus (GPa) = 18.82084 51.33441 35.07763
# Shear Modulus (GPa) = 13.61111 21.92841 17.76976
#
# Velocity S-wave (km/s) = 2.94712 3.74071 3.36737
# Velocity P-wave (km/s) = 4.85701 7.17040 6.12393
#
# Compressibility (1/GPa) = 0.05313258
#
# Stress axis : x y z
#
# Youngs Moduli (GPa) = 71.89911 14.88100 109.17556
#
# Poissons Ratio (x) = 0.13069 0.47211
# Poissons Ratio (y) = 0.63144 0.59621
# Poissons Ratio (z) = 0.31091 0.08126
#
# Static dielectric constant tensor:
#      x y z
#    x 3.126710 0.000000 0.000000 
#    y 0.000000 2.397650 0.000000 
#    z 0.000000 0.000000 3.491230 
# 
# 
# High freq. dielectric constant tensor:
#      x y z
#    x 1.612250 0.000000 0.000000 
#    y 0.000000 1.516100 0.000000 
#    z 0.000000 0.000000 1.623270 
# 
# From -- ./inp_files/29737.got.cif
#   From: 2010.03.12/outbox.cif.g09.slc.cpg/sg59_15_cif.got.tgz:29737.got - 2010.04.16 16:29:54.
