data_PCOD8239502
_publ_section_title
;
Structure prediction by ZEFSAII (Michael W. Deem and Ramdas Pophale) SiO2 
 PCOD8239502
Probable space group: P M M N
;
_chemical_formula_sum "Si O2"
_cell_formula_units_Z 64
_cell_length_a 20.137207
_cell_length_b 9.140875
_cell_length_c 20.365991
_cell_angle_alpha 90.000000
_cell_angle_beta 90.000000
_cell_angle_gamma 90.000000
_cell_volume 3748.802423
_symmetry_space_group_name_H-M "P M M N"
_symmetry_group_IT_number 59
_space_group.IT_coordinate_system_code '2'
_symmetry_cell_setting 'orthorhombic'
loop_
_space_group_symop_operation_xyz
x,y,z
1/2-x,1/2-y,z
1/2+x,-y,-z
-x,1/2+y,-z
-x,-y,-z
1/2+x,1/2+y,-z
1/2-x,y,z
x,1/2-y,z
loop_
_atom_site_type_symbol
_atom_site_label
_atom_site_fract_x
_atom_site_fract_y
_atom_site_fract_z
Si Si1 0.400000 0.584302 0.681353
Si Si2 0.325629 0.582124 0.929445
Si Si3 0.040047 0.918972 0.175000
Si Si4 0.071520 0.915388 0.427734
Si Si5 0.062824 0.579325 0.029724
Si Si6 0.442748 0.414848 0.301623
Si Si7 0.414121 0.084390 0.554760
Si Si8 0.886275 0.920727 0.189724
O O1 0.373081 0.750000 0.678159
O O2 0.478798 0.582618 0.688506
O O3 0.379367 0.500160 0.614992
O O4 0.367071 0.501875 0.742833
O O5 0.250000 0.560745 0.952116
O O6 0.340440 0.750000 0.909801
O O7 0.339221 0.480993 0.867089
O O8 0.371098 0.533527 0.990681
O O9 0.051533 0.750000 0.192677
O O10 0.073119 0.963987 0.105894
O O11 0.961938 0.953608 0.169811
O O12 0.075155 0.013280 0.231703
O O13 0.098852 0.750000 0.426816
O O14 0.992790 0.915386 0.436127
O O15 0.091906 0.994154 0.359902
O O16 0.105416 0.002329 0.487628
O O17 0.047525 0.750000 0.024388
O O18 0.000000 0.500000 0.000000
O O19 0.415165 0.250000 0.303033
O O20 0.387049 0.250000 0.552093
O O21 0.872891 0.750000 0.199582
#
# Coordination Sequence:
#
# PCOD8239502 Si02
#       8
#     8   8   8   8   8   8   8   8
#     4   9  16  25  37  54  77 106 142 182 223 266
#     4  10  21  35  50  69  94 123 153 188 234 286
#     4   9  17  28  42  62  85 110 143 185 229 271
#     4   9  15  22  32  46  70 105 141 178 219 264
#     4  10  19  32  50  70  92 118 152 192 234 281
#     4   9  16  24  35  53  76 105 140 179 221 266
#     4   9  15  22  32  48  71 102 142 183 219 260
#     4  10  18  29  45  64  86 113 147 188 230 272
#
# _framework density 17.072119000000001
#
# number of rings (size 3 to 8) (size 9 to 14) (size 15 to 20)
#    0.000    2.625    1.250    1.875    0.000    7.250 
#    0.000    0.000    0.000    0.000    0.000    0.000 
#    0.000    0.000    0.000    1.125    0.000   21.250 
#
# Total GULP energy -793586.125906 kJ/mol
# GULP energy per Si atom -12399.783217 kJ/mol
# Density = 1.703326 g / cm^3
# Si number density = 17.072119 Si / 1000 Ang^3
#
#
#
# Elastic Constant Matrix: (Units=GPa)
#
#
# Indices 1 2 3 4 5 6 
#
# 1 35.5739 26.1450 36.5435 0.0000 0.0000 0.0000
# 2 26.1450 130.2828 84.8651 0.0000 0.0000 0.0000
# 3 36.5435 84.8651 170.5246 0.0000 0.0000 0.0000
# 4 0.0000 0.0000 0.0000 35.4079 0.0000 0.0000
# 5 0.0000 0.0000 0.0000 0.0000 9.7569 0.0000
# 6 0.0000 0.0000 0.0000 0.0000 0.0000 10.0125
#
#
#
# Elastic Compliance Matrix: (Units=1/GPa)
#
#
# Indices 1 2 3 4 5 6 
#
# 1 0.037005 -0.003345 -0.006266 0.000000 0.000000 0.000000
# 2 -0.003345 0.011660 -0.005086 0.000000 0.000000 0.000000
# 3 -0.006266 -0.005086 0.009738 0.000000 0.000000 0.000000
# 4 0.000000 0.000000 0.000000 0.028242 0.000000 0.000000
# 5 0.000000 0.000000 0.000000 0.000000 0.102492 0.000000
# 6 0.000000 0.000000 0.000000 0.000000 0.000000 0.099875
#
#
# Mechanical properties :
#
#
# Convention : Reuss Voigt Hill
#
# Bulk Modulus (GPa) = 34.47050 70.16539 52.31794
# Shear Modulus (GPa) = 15.24041 23.62397 19.43219
#
# Velocity S-wave (km/s) = 2.99106 3.72395 3.37744
# Velocity P-wave (km/s) = 5.67129 7.72522 6.77652
#
# Compressibility (1/GPa) = 0.02901032
#
# Stress axis : x y z
#
# Youngs Moduli (GPa) = 27.02331 85.76493 102.68946
#
# Poissons Ratio (x) = 0.28687 0.64341
# Poissons Ratio (y) = 0.09039 0.52227
# Poissons Ratio (z) = 0.16932 0.43620
#
# Static dielectric constant tensor:
#      x y z
#    x 2.527610 0.000000 0.000000 
#    y 0.000000 3.353490 0.000000 
#    z 0.000000 0.000000 3.431600 
# 
# 
# High freq. dielectric constant tensor:
#      x y z
#    x 1.573230 0.000000 0.000000 
#    y 0.000000 1.672440 0.000000 
#    z 0.000000 0.000000 1.675600 
# 
# From -- ./inp_files/30908.got.cif
#   From: 2010.03.12/outbox.cif.g09.slc.cpg/sg59_16_cif.got.tgz:30908.got - 2010.04.16 16:29:54.
