data_PCOD8239637
_publ_section_title
;
Structure prediction by ZEFSAII (Michael W. Deem and Ramdas Pophale) SiO2 
 PCOD8239637
Probable space group: P M M N
;
_chemical_formula_sum "Si O2"
_cell_formula_units_Z 64
_cell_length_a 9.169754
_cell_length_b 22.155094
_cell_length_c 20.127864
_cell_angle_alpha 90.000000
_cell_angle_beta 90.000000
_cell_angle_gamma 90.000000
_cell_volume 4089.111673
_symmetry_space_group_name_H-M "P M M N"
_symmetry_group_IT_number 59
_space_group.IT_coordinate_system_code '2'
_symmetry_cell_setting 'orthorhombic'
loop_
_space_group_symop_operation_xyz
x,y,z
1/2-x,1/2-y,z
1/2+x,-y,-z
-x,1/2+y,-z
-x,-y,-z
1/2+x,1/2+y,-z
1/2-x,y,z
x,1/2-y,z
loop_
_atom_site_type_symbol
_atom_site_label
_atom_site_fract_x
_atom_site_fract_y
_atom_site_fract_z
Si Si1 0.417823 0.441794 0.474198
Si Si2 0.582148 0.471969 0.203884
Si Si3 0.583459 0.603216 0.388062
Si Si4 0.420751 0.109579 0.827072
Si Si5 0.584881 0.083118 0.955053
Si Si6 0.581476 0.466498 0.353076
Si Si7 0.417468 0.821016 0.285753
Si Si8 0.414299 0.442782 0.079470
O O1 0.500000 0.500000 0.500000
O O2 0.250000 0.458008 0.462600
O O3 0.433945 0.390881 0.531605
O O4 0.489149 0.423619 0.403250
O O5 0.750000 0.460690 0.185271
O O6 0.548188 0.543060 0.201203
O O7 0.544759 0.448077 0.277511
O O8 0.485038 0.434394 0.152086
O O9 0.750000 0.616895 0.366525
O O10 0.540049 0.536374 0.363783
O O11 0.476797 0.650801 0.354094
O O12 0.250000 0.122259 0.835389
O O13 0.497152 0.118778 0.898327
O O14 0.488470 0.157177 0.776528
O O15 0.750000 0.107679 0.958604
O O16 0.583352 0.012585 0.939536
O O17 0.506219 0.095023 0.025498
O O18 0.750000 0.456188 0.369554
O O19 0.250000 0.840564 0.275606
O O20 0.434054 0.750000 0.292036
O O21 0.250000 0.417627 0.080954
#
# Coordination Sequence:
#
# PCOD8239637 Si02
#       8
#     8   8   8   8   8   8   8   8
#     4   9  17  27  40  59  80 102 132 167 203 245
#     4   9  16  26  39  56  81 109 136 169 203 238
#     4   9  17  31  45  58  77 104 137 172 208 250
#     4  10  18  30  45  58  75 103 137 173 210 248
#     4   9  16  26  39  55  76 102 133 168 204 239
#     4   9  16  27  41  60  83 107 137 169 204 246
#     4  11  23  34  44  61  82 104 137 180 220 256
#     4   9  16  24  35  55  78 104 137 167 196 235
#
# _framework density 15.651320999999999
#
# number of rings (size 3 to 8) (size 9 to 14) (size 15 to 20)
#    0.000    2.625    1.250    2.625    0.000    7.500 
#    0.000    0.000    0.000    0.000    0.000    0.000 
#    0.000    0.000    0.000    1.125    0.000   18.750 
#
# Total GULP energy -793398.989596 kJ/mol
# GULP energy per Si atom -12396.859212 kJ/mol
# Density = 1.561570 g / cm^3
# Si number density = 15.651321 Si / 1000 Ang^3
#
#
#
# Elastic Constant Matrix: (Units=GPa)
#
#
# Indices 1 2 3 4 5 6 
#
# 1 121.7019 26.8513 75.7029 0.0000 0.0000 0.0000
# 2 26.8513 22.9149 25.7594 0.0000 0.0000 0.0000
# 3 75.7029 25.7594 136.5807 0.0000 0.0000 0.0000
# 4 0.0000 0.0000 0.0000 11.6667 0.0000 0.0000
# 5 0.0000 0.0000 0.0000 0.0000 36.0594 0.0000
# 6 0.0000 0.0000 0.0000 0.0000 0.0000 14.2147
#
#
#
# Elastic Compliance Matrix: (Units=1/GPa)
#
#
# Indices 1 2 3 4 5 6 
#
# 1 0.014087 -0.009809 -0.005958 0.000000 0.000000 0.000000
# 2 -0.009809 0.062212 -0.006296 0.000000 0.000000 0.000000
# 3 -0.005958 -0.006296 0.011812 0.000000 0.000000 0.000000
# 4 0.000000 0.000000 0.000000 0.085714 0.000000 0.000000
# 5 0.000000 0.000000 0.000000 0.000000 0.027732 0.000000
# 6 0.000000 0.000000 0.000000 0.000000 0.000000 0.070350
#
#
# Mechanical properties :
#
#
# Convention : Reuss Voigt Hill
#
# Bulk Modulus (GPa) = 22.73587 59.75830 41.24709
# Shear Modulus (GPa) = 15.11967 22.58044 18.85005
#
# Velocity S-wave (km/s) = 3.11148 3.80243 3.47418
# Velocity P-wave (km/s) = 5.24084 7.58564 6.51952
#
# Compressibility (1/GPa) = 0.04398337
#
# Stress axis : x y z
#
# Youngs Moduli (GPa) = 70.98650 16.07403 84.66296
#
# Poissons Ratio (x) = 0.15768 0.50443
# Poissons Ratio (y) = 0.69634 0.53306
# Poissons Ratio (z) = 0.42294 0.10121
#
# Static dielectric constant tensor:
#      x y z
#    x 3.202750 0.000000 0.000000 
#    y 0.000000 2.354250 0.000000 
#    z 0.000000 0.000000 3.448300 
# 
# 
# High freq. dielectric constant tensor:
#      x y z
#    x 1.616690 0.000000 0.000000 
#    y 0.000000 1.512680 0.000000 
#    z 0.000000 0.000000 1.618000 
# 
# From -- ./inp_files/29738.got.cif
#   From: 2010.03.12/outbox.cif.g09.slc.cpg/sg59_15_cif.got.tgz:29738.got - 2010.04.16 16:29:54.
