data_PCOD8239806
_publ_section_title
;
Structure prediction by ZEFSAII (Michael W. Deem and Ramdas Pophale) SiO2 
 PCOD8239806
Probable space group: P M M N
;
_chemical_formula_sum "Si O2"
_cell_formula_units_Z 56
_cell_length_a 15.651014
_cell_length_b 8.931426
_cell_length_c 21.801059
_cell_angle_alpha 90.000000
_cell_angle_beta 90.000000
_cell_angle_gamma 90.000000
_cell_volume 3047.480073
_symmetry_space_group_name_H-M "P M M N"
_symmetry_group_IT_number 59
_space_group.IT_coordinate_system_code '2'
_symmetry_cell_setting 'orthorhombic'
loop_
_space_group_symop_operation_xyz
x,y,z
1/2-x,1/2-y,z
1/2+x,-y,-z
-x,1/2+y,-z
-x,-y,-z
1/2+x,1/2+y,-z
1/2-x,y,z
x,1/2-y,z
loop_
_atom_site_type_symbol
_atom_site_label
_atom_site_fract_x
_atom_site_fract_y
_atom_site_fract_z
Si Si1 0.591949 0.926983 0.500885
Si Si2 0.497802 0.926693 0.293170
Si Si3 0.065154 0.081140 0.179796
Si Si4 0.924362 0.572676 0.962265
Si Si5 0.845985 0.076853 0.620218
Si Si6 0.156237 0.427602 0.630423
Si Si7 0.750000 0.425858 0.959605
Si Si8 0.750000 0.918493 0.835775
O O1 0.581704 0.750000 0.504457
O O2 0.640038 0.978008 0.439252
O O3 0.500000 0.000000 0.500000
O O4 0.646800 0.983419 0.558023
O O5 0.500808 0.750000 0.292370
O O6 0.414601 0.983631 0.330415
O O7 0.583073 0.993993 0.324875
O O8 0.494478 0.981015 0.222891
O O9 0.032587 0.250000 0.186544
O O10 0.060588 0.030292 0.109054
O O11 0.163663 0.064467 0.203723
O O12 0.922037 0.750000 0.972166
O O13 0.835511 0.502253 0.987119
O O14 0.000000 0.500000 0.000000
O O15 0.750000 0.056165 0.646542
O O16 0.865347 0.250000 0.605174
O O17 0.250000 0.486954 0.650775
O O18 0.153211 0.250000 0.634366
O O19 0.750000 0.250000 0.974484
O O20 0.750000 0.453652 0.887006
O O21 0.750000 0.750000 0.866758
#
# Coordination Sequence:
#
# PCOD8239806 Si02
#       8
#     8   8   8   8   8   8   4   4
#     4  11  20  34  55  77 103 132 172 220 272 325
#     4  10  20  34  52  75 103 137 175 216 261 317
#     4   9  19  34  52  77 110 142 174 219 271 314
#     4  10  20  36  58  83 114 148 186 232 279 327
#     4  10  21  36  51  74 110 141 169 214 268 315
#     4   9  18  34  55  74  95 129 175 223 264 308
#     4  10  18  30  52  84 116 146 182 221 268 327
#     4   8  16  32  50  72 106 144 176 215 260 311
#
# _framework density 18.375838999999999
#
# number of rings (size 3 to 8) (size 9 to 14) (size 15 to 20)
#    0.000    2.286    1.429    2.786    1.000    4.286 
#    0.000    0.000    1.571    2.143    0.000    0.000 
#    0.000    0.000    0.000    0.000    0.000    0.000 
#
# Total GULP energy -694175.074592 kJ/mol
# GULP energy per Si atom -12395.983475 kJ/mol
# Density = 1.833402 g / cm^3
# Si number density = 18.375839 Si / 1000 Ang^3
#
#
#
# Elastic Constant Matrix: (Units=GPa)
#
#
# Indices 1 2 3 4 5 6 
#
# 1 157.1003 43.6938 63.6924 0.0000 0.0000 0.0000
# 2 43.6938 61.8250 33.6358 0.0000 0.0000 0.0000
# 3 63.6924 33.6358 89.1371 0.0000 0.0000 0.0000
# 4 0.0000 0.0000 0.0000 29.4550 0.0000 0.0000
# 5 0.0000 0.0000 0.0000 0.0000 25.4668 0.0000
# 6 0.0000 0.0000 0.0000 0.0000 0.0000 23.7154
#
#
#
# Elastic Compliance Matrix: (Units=1/GPa)
#
#
# Indices 1 2 3 4 5 6 
#
# 1 0.009641 -0.003858 -0.005433 0.000000 0.000000 0.000000
# 2 -0.003858 0.021897 -0.005506 0.000000 0.000000 0.000000
# 3 -0.005433 -0.005506 0.017179 0.000000 0.000000 0.000000
# 4 0.000000 0.000000 0.000000 0.033950 0.000000 0.000000
# 5 0.000000 0.000000 0.000000 0.000000 0.039267 0.000000
# 6 0.000000 0.000000 0.000000 0.000000 0.000000 0.042167
#
#
# Mechanical properties :
#
#
# Convention : Reuss Voigt Hill
#
# Bulk Modulus (GPa) = 52.29531 65.56736 58.93134
# Shear Modulus (GPa) = 24.99143 26.86346 25.92744
#
# Velocity S-wave (km/s) = 3.69184 3.82762 3.76034
# Velocity P-wave (km/s) = 6.83326 7.43592 7.14095
#
# Compressibility (1/GPa) = 0.01912217
#
# Stress axis : x y z
#
# Youngs Moduli (GPa) = 103.72281 45.66895 58.21141
#
# Poissons Ratio (x) = 0.17618 0.31628
# Poissons Ratio (y) = 0.40013 0.32052
# Poissons Ratio (z) = 0.56356 0.25146
#
# Static dielectric constant tensor:
#      x y z
#    x 3.688350 0.000000 0.000000 
#    y 0.000000 3.237410 0.000000 
#    z 0.000000 0.000000 3.208230 
# 
# 
# High freq. dielectric constant tensor:
#      x y z
#    x 1.721040 0.000000 0.000000 
#    y 0.000000 1.698430 0.000000 
#    z 0.000000 0.000000 1.687290 
# 
# From -- ./inp_files/30430.got.cif
#   From: 2010.03.12/outbox.cif.g09.slc.cpg/sg59_16_cif.got.tgz:30430.got - 2010.04.16 16:29:54.
