data_PCOD8239632
_publ_section_title
;
Structure prediction by ZEFSAII (Michael W. Deem and Ramdas Pophale) SiO2 
 PCOD8239632
Probable space group: P M M N
;
_chemical_formula_sum "Si O2"
_cell_formula_units_Z 48
_cell_length_a 17.574457
_cell_length_b 18.437993
_cell_length_c 8.758746
_cell_angle_alpha 90.000000
_cell_angle_beta 90.000000
_cell_angle_gamma 90.000000
_cell_volume 2838.164041
_symmetry_space_group_name_H-M "P M M N"
_symmetry_group_IT_number 59
_space_group.IT_coordinate_system_code '2'
_symmetry_cell_setting 'orthorhombic'
loop_
_space_group_symop_operation_xyz
x,y,z
1/2-x,1/2-y,z
1/2+x,-y,-z
-x,1/2+y,-z
-x,-y,-z
1/2+x,1/2+y,-z
1/2-x,y,z
x,1/2-y,z
loop_
_atom_site_type_symbol
_atom_site_label
_atom_site_fract_x
_atom_site_fract_y
_atom_site_fract_z
Si Si1 0.517746 0.331473 0.774305
Si Si2 0.663118 0.927684 0.713538
Si Si3 0.547879 0.607442 0.946061
Si Si4 0.409880 0.529301 0.856747
Si Si5 0.834357 0.416774 0.862012
Si Si6 0.935903 0.550689 0.428917
O O1 0.522847 0.250000 0.709767
O O2 0.603086 0.360030 0.805837
O O3 0.475661 0.380584 0.650011
O O4 0.471657 0.328117 0.935849
O O5 0.750000 0.901672 0.702876
O O6 0.621374 0.876903 0.840423
O O7 0.623341 0.917913 0.550659
O O8 0.655222 0.010925 0.762722
O O9 0.476503 0.589440 0.834989
O O10 0.556871 0.538096 0.052314
O O11 0.386678 0.498824 0.690290
O O12 0.342049 0.564444 0.956723
O O13 0.750000 0.384081 0.837378
O O14 0.000000 0.500000 0.500000
#
# Coordination Sequence:
#
# PCOD8239632 Si02
#       6
#     8   8   8   8   8   8
#     4  10  20  33  51  73  99 138 177 207 254 313
#     4  10  18  29  51  80 102 125 165 213 259 299
#     4   8  14  29  46  66  92 122 165 204 237 284
#     4   8  14  25  47  69  94 127 156 198 244 285
#     4   9  17  30  49  77 105 128 161 207 254 301
#     4  11  17  30  52  76 105 136 169 213 253 298
#
# _framework density 16.912341999999999
#
# number of rings (size 3 to 8) (size 9 to 14) (size 15 to 20)
#    0.000    2.667    3.333    2.000    0.000    1.000 
#    0.000    3.333    0.000    3.000    0.000    0.000 
#    0.000    0.000    0.000    0.000    0.000    0.000 
#
# Total GULP energy -594669.869831 kJ/mol
# GULP energy per Si atom -12388.955621 kJ/mol
# Density = 1.687385 g / cm^3
# Si number density = 16.912342 Si / 1000 Ang^3
#
#
#
# Elastic Constant Matrix: (Units=GPa)
#
#
# Indices 1 2 3 4 5 6 
#
# 1 115.5670 33.5497 54.8877 0.0000 0.0000 0.0000
# 2 33.5497 63.1391 29.2394 0.0000 0.0000 0.0000
# 3 54.8877 29.2394 101.5229 0.0000 0.0000 0.0000
# 4 0.0000 0.0000 0.0000 15.2689 0.0000 0.0000
# 5 0.0000 0.0000 0.0000 0.0000 25.7491 0.0000
# 6 0.0000 0.0000 0.0000 0.0000 0.0000 11.6815
#
#
#
# Elastic Compliance Matrix: (Units=1/GPa)
#
#
# Indices 1 2 3 4 5 6 
#
# 1 0.012478 -0.004046 -0.005581 0.000000 0.000000 0.000000
# 2 -0.004046 0.019587 -0.003454 0.000000 0.000000 0.000000
# 3 -0.005581 -0.003454 0.013862 0.000000 0.000000 0.000000
# 4 0.000000 0.000000 0.000000 0.065493 0.000000 0.000000
# 5 0.000000 0.000000 0.000000 0.000000 0.038836 0.000000
# 6 0.000000 0.000000 0.000000 0.000000 0.000000 0.085605
#
#
# Mechanical properties :
#
#
# Convention : Reuss Voigt Hill
#
# Bulk Modulus (GPa) = 50.59197 57.28696 53.93947
# Shear Modulus (GPa) = 18.61421 21.37673 19.99547
#
# Velocity S-wave (km/s) = 3.32117 3.55910 3.44219
# Velocity P-wave (km/s) = 6.68476 7.12993 6.91093
#
# Compressibility (1/GPa) = 0.01976598
#
# Stress axis : x y z
#
# Youngs Moduli (GPa) = 80.13988 51.05331 72.13921
#
# Poissons Ratio (x) = 0.20656 0.40261
# Poissons Ratio (y) = 0.32424 0.24916
# Poissons Ratio (z) = 0.44726 0.17634
#
# Static dielectric constant tensor:
#      x y z
#    x 3.179810 0.000000 0.000000 
#    y 0.000000 2.819420 0.000000 
#    z 0.000000 0.000000 3.377280 
# 
# 
# High freq. dielectric constant tensor:
#      x y z
#    x 1.643850 0.000000 0.000000 
#    y 0.000000 1.604930 0.000000 
#    z 0.000000 0.000000 1.654900 
# 
# From -- ./inp_files/10384.got.cif
#   From: 2010.03.12/outbox.cif.g09.slc.cpg/sg59_6_cif.got.tgz:10384.got - 2010.04.16 16:29:54.
