data_PCOD8239361
_publ_section_title
;
Structure prediction by ZEFSAII (Michael W. Deem and Ramdas Pophale) SiO2 
 PCOD8239361
Probable space group: P M M N
;
_chemical_formula_sum "Si O2"
_cell_formula_units_Z 64
_cell_length_a 14.969484
_cell_length_b 17.579067
_cell_length_c 15.082017
_cell_angle_alpha 90.000000
_cell_angle_beta 90.000000
_cell_angle_gamma 90.000000
_cell_volume 3968.826171
_symmetry_space_group_name_H-M "P M M N"
_symmetry_group_IT_number 59
_space_group.IT_coordinate_system_code '2'
_symmetry_cell_setting 'orthorhombic'
loop_
_space_group_symop_operation_xyz
x,y,z
1/2-x,1/2-y,z
1/2+x,-y,-z
-x,1/2+y,-z
-x,-y,-z
1/2+x,1/2+y,-z
1/2-x,y,z
x,1/2-y,z
loop_
_atom_site_type_symbol
_atom_site_label
_atom_site_fract_x
_atom_site_fract_y
_atom_site_fract_z
Si Si1 0.644835 0.662783 0.660660
Si Si2 0.086753 0.050512 0.484341
Si Si3 0.649534 0.439637 0.803109
Si Si4 0.645355 0.607909 0.848276
Si Si5 0.849832 0.839369 0.034991
Si Si6 0.470265 0.162713 0.618532
Si Si7 0.653653 0.412064 0.599981
Si Si8 0.488623 0.161929 0.822844
O O1 0.750000 0.641118 0.651388
O O2 0.628838 0.750000 0.632502
O O3 0.584765 0.608140 0.599091
O O4 0.609488 0.651651 0.761357
O O5 0.099512 0.105384 0.570068
O O6 0.159512 0.984395 0.467346
O O7 0.000000 0.000000 0.500000
O O8 0.750000 0.416839 0.831190
O O9 0.620754 0.519604 0.844278
O O10 0.641624 0.447366 0.697466
O O11 0.583203 0.377127 0.842734
O O12 0.750000 0.622447 0.850997
O O13 0.605515 0.641215 0.939716
O O14 0.750000 0.875026 0.044594
O O15 0.843101 0.750000 0.046289
O O16 0.912841 0.872616 0.112685
O O17 0.447581 0.250000 0.595082
O O18 0.571737 0.146014 0.583749
O O19 0.458249 0.147313 0.722262
O O20 0.750000 0.369328 0.591877
O O21 0.504529 0.250000 0.841771
#
# Coordination Sequence:
#
# PCOD8239361 Si02
#       8
#     8   8   8   8   8   8   8   8
#     4  10  18  28  45  69  94 116 143 184 230 274
#     4  10  18  28  43  61  88 121 144 174 216 269
#     4   9  16  27  45  67  92 116 141 181 230 274
#     4   9  16  27  45  69  92 113 142 180 226 274
#     4   9  17  30  46  63  88 122 153 182 219 262
#     4   9  18  30  43  62  87 117 151 185 217 255
#     4   9  16  28  45  63  85 114 144 178 225 271
#     4   9  18  31  45  63  90 121 155 187 216 260
#
# _framework density 16.125674
#
# number of rings (size 3 to 8) (size 9 to 14) (size 15 to 20)
#    0.000    2.750    1.250    1.125    0.000    2.500 
#    0.000    3.750    0.000    3.000    0.000    0.000 
#    0.000    0.000    0.000    4.875    0.000    0.250 
#
# Total GULP energy -792909.094588 kJ/mol
# GULP energy per Si atom -12389.204603 kJ/mol
# Density = 1.608897 g / cm^3
# Si number density = 16.125674 Si / 1000 Ang^3
#
#
#
# Elastic Constant Matrix: (Units=GPa)
#
#
# Indices 1 2 3 4 5 6 
#
# 1 55.6494 25.8795 34.1729 0.0000 0.0000 0.0000
# 2 25.8795 60.8971 40.0281 0.0000 0.0000 0.0000
# 3 34.1729 40.0281 79.3231 0.0000 0.0000 0.0000
# 4 0.0000 0.0000 0.0000 24.4456 0.0000 0.0000
# 5 0.0000 0.0000 0.0000 0.0000 20.6970 0.0000
# 6 0.0000 0.0000 0.0000 0.0000 0.0000 20.9105
#
#
#
# Elastic Compliance Matrix: (Units=1/GPa)
#
#
# Indices 1 2 3 4 5 6 
#
# 1 0.025578 -0.005427 -0.008281 0.000000 0.000000 0.000000
# 2 -0.005427 0.025723 -0.010642 0.000000 0.000000 0.000000
# 3 -0.008281 -0.010642 0.021544 0.000000 0.000000 0.000000
# 4 0.000000 0.000000 0.000000 0.040907 0.000000 0.000000
# 5 0.000000 0.000000 0.000000 0.000000 0.048316 0.000000
# 6 0.000000 0.000000 0.000000 0.000000 0.000000 0.047823
#
#
# Mechanical properties :
#
#
# Convention : Reuss Voigt Hill
#
# Bulk Modulus (GPa) = 41.41571 44.00342 42.70957
# Shear Modulus (GPa) = 18.75186 19.59656 19.17421
#
# Velocity S-wave (km/s) = 3.41377 3.48981 3.45200
# Velocity P-wave (km/s) = 6.42474 6.60193 6.51393
#
# Compressibility (1/GPa) = 0.02414543
#
# Stress axis : x y z
#
# Youngs Moduli (GPa) = 39.09533 38.87621 46.41600
#
# Poissons Ratio (x) = 0.21099 0.38436
# Poissons Ratio (y) = 0.21218 0.49397
# Poissons Ratio (z) = 0.32374 0.41373
#
# Static dielectric constant tensor:
#      x y z
#    x 3.017910 0.000000 0.000000 
#    y 0.000000 3.106710 0.000000 
#    z 0.000000 0.000000 3.198660 
# 
# 
# High freq. dielectric constant tensor:
#      x y z
#    x 1.589260 0.000000 0.000000 
#    y 0.000000 1.620110 0.000000 
#    z 0.000000 0.000000 1.612250 
# 
# From -- ./inp_files/23462.got.cif
#   From: 2010.03.12/outbox.cif.g09.slc.cpg/sg59_12_cif.got.tgz:23462.got - 2010.04.16 16:29:54.
