data_PCOD8239946
_publ_section_title
;
Structure prediction by ZEFSAII (Michael W. Deem and Ramdas Pophale) SiO2 
 PCOD8239946
Probable space group: P M M N
;
_chemical_formula_sum "Si O2"
_cell_formula_units_Z 48
_cell_length_a 8.859171
_cell_length_b 15.466937
_cell_length_c 17.268929
_cell_angle_alpha 90.000000
_cell_angle_beta 90.000000
_cell_angle_gamma 90.000000
_cell_volume 2366.261867
_symmetry_space_group_name_H-M "P M M N"
_symmetry_group_IT_number 59
_space_group.IT_coordinate_system_code '2'
_symmetry_cell_setting 'orthorhombic'
loop_
_space_group_symop_operation_xyz
x,y,z
1/2-x,1/2-y,z
1/2+x,-y,-z
-x,1/2+y,-z
-x,-y,-z
1/2+x,1/2+y,-z
1/2-x,y,z
x,1/2-y,z
loop_
_atom_site_type_symbol
_atom_site_label
_atom_site_fract_x
_atom_site_fract_y
_atom_site_fract_z
Si Si1 0.923860 0.409009 0.002244
Si Si2 0.076719 0.347359 0.319833
Si Si3 0.427749 0.901168 0.831475
Si Si4 0.923596 0.845913 0.310270
Si Si5 0.928150 0.003126 0.416401
Si Si6 0.426560 0.587933 0.165076
O O1 0.750000 0.429399 0.010813
O O2 0.970634 0.361156 0.082768
O O3 0.957203 0.364172 0.918791
O O4 0.000000 0.500000 0.000000
O O5 0.250000 0.377860 0.321852
O O6 0.060578 0.250000 0.352501
O O7 0.017862 0.346822 0.231822
O O8 0.979058 0.411019 0.372218
O O9 0.250000 0.894048 0.813716
O O10 0.476498 0.000976 0.826473
O O11 0.750000 0.864249 0.288907
O O12 0.943087 0.750000 0.346828
O O13 0.021707 0.847593 0.232065
O O14 0.982640 0.917614 0.370511
O O15 0.750000 0.004426 0.425414
O O16 0.000000 0.000000 0.500000
O O17 0.250000 0.565496 0.173793
#
# Coordination Sequence:
#
# PCOD8239946 Si02
#       6
#     8   8   8   8   8   8
#     4   8  16  28  46  77 113 152 198 246 294 345
#     4  11  24  41  62  90 124 160 200 249 301 352
#     4  10  18  32  55  82 116 158 202 247 298 353
#     4  10  22  40  61  87 120 158 197 238 290 352
#     4  11  24  43  68  94 122 156 192 239 298 361
#     4  10  18  31  54  83 117 156 200 248 296 348
#
# _framework density 20.285160999999999
#
# number of rings (size 3 to 8) (size 9 to 14) (size 15 to 20)
#    0.000    2.000    1.667    2.000    0.000    4.333 
#    0.000    2.500    0.000    5.000    0.000    0.000 
#    0.000    0.000    0.000    0.000    0.000    0.000 
#
# Total GULP energy -594788.327209 kJ/mol
# GULP energy per Si atom -12391.423484 kJ/mol
# Density = 2.023899 g / cm^3
# Si number density = 20.285161 Si / 1000 Ang^3
#
#
#
# Elastic Constant Matrix: (Units=GPa)
#
#
# Indices 1 2 3 4 5 6 
#
# 1 58.0978 24.3151 45.2735 0.0000 0.0000 0.0000
# 2 24.3151 91.0535 51.8047 0.0000 0.0000 0.0000
# 3 45.2735 51.8047 164.7331 0.0000 0.0000 0.0000
# 4 0.0000 0.0000 0.0000 5.9336 0.0000 0.0000
# 5 0.0000 0.0000 0.0000 0.0000 35.8909 0.0000
# 6 0.0000 0.0000 0.0000 0.0000 0.0000 24.3338
#
#
#
# Elastic Compliance Matrix: (Units=1/GPa)
#
#
# Indices 1 2 3 4 5 6 
#
# 1 0.022575 -0.003043 -0.005247 0.000000 0.000000 0.000000
# 2 -0.003043 0.013786 -0.003499 0.000000 0.000000 0.000000
# 3 -0.005247 -0.003499 0.008613 0.000000 0.000000 0.000000
# 4 0.000000 0.000000 0.000000 0.168533 0.000000 0.000000
# 5 0.000000 0.000000 0.000000 0.000000 0.027862 0.000000
# 6 0.000000 0.000000 0.000000 0.000000 0.000000 0.041095
#
#
# Mechanical properties :
#
#
# Convention : Reuss Voigt Hill
#
# Bulk Modulus (GPa) = 46.73974 61.85233 54.29603
# Shear Modulus (GPa) = 15.96553 26.06438 21.01495
#
# Velocity S-wave (km/s) = 2.80849 3.58844 3.22215
# Velocity P-wave (km/s) = 5.79726 6.90846 6.37711
#
# Compressibility (1/GPa) = 0.02139507
#
# Stress axis : x y z
#
# Youngs Moduli (GPa) = 44.29688 72.53760 116.10491
#
# Poissons Ratio (x) = 0.22073 0.60924
# Poissons Ratio (y) = 0.13480 0.40626
# Poissons Ratio (z) = 0.23244 0.25381
#
# Static dielectric constant tensor:
#      x y z
#    x 3.660450 0.000000 0.000000 
#    y 0.000000 3.406890 0.000000 
#    z 0.000000 0.000000 4.219830 
# 
# 
# High freq. dielectric constant tensor:
#      x y z
#    x 1.796940 0.000000 0.000000 
#    y 0.000000 1.766030 0.000000 
#    z 0.000000 0.000000 1.804990 
# 
# From -- ./inp_files/25477.got.cif
#   From: 2010.03.12/outbox.cif.g09.slc.cpg/sg59_13_cif.got.tgz:25477.got - 2010.04.16 16:29:54.
