data_PCOD8239674
_publ_section_title
;
Structure prediction by ZEFSAII (Michael W. Deem and Ramdas Pophale) SiO2 
 PCOD8239674
Probable space group: P M M N
;
_chemical_formula_sum "Si O2"
_cell_formula_units_Z 64
_cell_length_a 30.009375
_cell_length_b 8.974390
_cell_length_c 14.452967
_cell_angle_alpha 90.000000
_cell_angle_beta 90.000000
_cell_angle_gamma 90.000000
_cell_volume 3892.412874
_symmetry_space_group_name_H-M "P M M N"
_symmetry_group_IT_number 59
_space_group.IT_coordinate_system_code '2'
_symmetry_cell_setting 'orthorhombic'
loop_
_space_group_symop_operation_xyz
x,y,z
1/2-x,1/2-y,z
1/2+x,-y,-z
-x,1/2+y,-z
-x,-y,-z
1/2+x,1/2+y,-z
1/2-x,y,z
x,1/2-y,z
loop_
_atom_site_type_symbol
_atom_site_label
_atom_site_fract_x
_atom_site_fract_y
_atom_site_fract_z
Si Si1 0.039797 0.925649 0.942272
Si Si2 0.379313 0.423298 0.419430
Si Si3 0.578035 0.084730 0.743296
Si Si4 0.526392 0.917772 0.246271
Si Si5 0.199984 0.574479 0.343164
Si Si6 0.957955 0.574150 0.450632
Si Si7 0.301010 0.076029 0.149580
Si Si8 0.878804 0.078791 0.937105
O O1 0.032804 0.750000 0.952286
O O2 0.040179 0.971888 0.835323
O O3 0.088697 0.972346 0.979917
O O4 0.000000 0.000000 0.000000
O O5 0.368876 0.250000 0.426916
O O6 0.402329 0.458128 0.321912
O O7 0.332301 0.511135 0.423274
O O8 0.412012 0.477433 0.501000
O O9 0.594954 0.250000 0.712643
O O10 0.525656 0.077987 0.737207
O O11 0.591803 0.049765 0.846968
O O12 0.541993 0.750000 0.221145
O O13 0.547589 0.972520 0.343306
O O14 0.250000 0.524041 0.368068
O O15 0.195659 0.750000 0.336940
O O16 0.185658 0.509444 0.243535
O O17 0.965242 0.750000 0.460258
O O18 0.000000 0.500000 0.500000
O O19 0.250000 0.040818 0.121266
O O20 0.308199 0.250000 0.166672
O O21 0.333523 0.018972 0.067562
O O22 0.864339 0.250000 0.948220
#
# Coordination Sequence:
#
# PCOD8239674 Si02
#       8
#     8   8   8   8   8   8   8   8
#     4  11  22  35  51  73  99 130 170 209 246 293
#     4  11  21  31  47  74 101 130 168 206 245 289
#     4  10  18  30  48  68  98 136 168 201 240 287
#     4  10  20  36  51  68  99 135 169 210 249 284
#     4  10  20  33  49  69  96 132 167 199 244 299
#     4  10  21  34  50  73 101 133 170 206 245 293
#     4  10  20  32  48  73 101 127 160 203 246 291
#     4  10  20  33  48  70  99 132 168 200 241 294
#
# _framework density 16.442243999999999
#
# number of rings (size 3 to 8) (size 9 to 14) (size 15 to 20)
#    0.000    1.750    3.750    1.500    0.000    4.000 
#    0.000    0.000    0.000    0.000    0.000    0.875 
#    0.000    1.000    0.000    0.000    0.000    0.000 
#
# Total GULP energy -793529.567628 kJ/mol
# GULP energy per Si atom -12398.899494 kJ/mol
# Density = 1.640482 g / cm^3
# Si number density = 16.442244 Si / 1000 Ang^3
#
#
#
# Elastic Constant Matrix: (Units=GPa)
#
#
# Indices 1 2 3 4 5 6 
#
# 1 102.8628 38.8695 51.8706 0.0000 0.0000 0.0000
# 2 38.8695 60.3505 32.3613 0.0000 0.0000 0.0000
# 3 51.8706 32.3613 78.9248 0.0000 0.0000 0.0000
# 4 0.0000 0.0000 0.0000 23.8432 0.0000 0.0000
# 5 0.0000 0.0000 0.0000 0.0000 19.3242 0.0000
# 6 0.0000 0.0000 0.0000 0.0000 0.0000 28.2670
#
#
#
# Elastic Compliance Matrix: (Units=1/GPa)
#
#
# Indices 1 2 3 4 5 6 
#
# 1 0.016079 -0.006011 -0.008103 0.000000 0.000000 0.000000
# 2 -0.006011 0.023487 -0.005680 0.000000 0.000000 0.000000
# 3 -0.008103 -0.005680 0.020324 0.000000 0.000000 0.000000
# 4 0.000000 0.000000 0.000000 0.041941 0.000000 0.000000
# 5 0.000000 0.000000 0.000000 0.000000 0.051749 0.000000
# 6 0.000000 0.000000 0.000000 0.000000 0.000000 0.035377
#
#
# Mechanical properties :
#
#
# Convention : Reuss Voigt Hill
#
# Bulk Modulus (GPa) = 49.25290 54.26012 51.75651
# Shear Modulus (GPa) = 21.24844 22.22266 21.73555
#
# Velocity S-wave (km/s) = 3.59877 3.68034 3.63978
# Velocity P-wave (km/s) = 6.87665 7.15066 7.01499
#
# Compressibility (1/GPa) = 0.02030337
#
# Stress axis : x y z
#
# Youngs Moduli (GPa) = 62.19261 42.57680 49.20210
#
# Poissons Ratio (x) = 0.25593 0.39867
# Poissons Ratio (y) = 0.37385 0.27945
# Poissons Ratio (z) = 0.50393 0.24182
#
# Static dielectric constant tensor:
#      x y z
#    x 3.271280 0.000000 0.000000 
#    y 0.000000 3.166180 0.000000 
#    z 0.000000 0.000000 3.099330 
# 
# 
# High freq. dielectric constant tensor:
#      x y z
#    x 1.633250 0.000000 0.000000 
#    y 0.000000 1.638800 0.000000 
#    z 0.000000 0.000000 1.602720 
# 
# From -- ./inp_files/25077.got.cif
#   From: 2010.03.12/outbox.cif.g09.slc.cpg/sg59_13_cif.got.tgz:25077.got - 2010.04.16 16:29:54.
