data_PCOD8239120
_publ_section_title
;
Structure prediction by ZEFSAII (Michael W. Deem and Ramdas Pophale) SiO2 
 PCOD8239120
Probable space group: P M M N
;
_chemical_formula_sum "Si O2"
_cell_formula_units_Z 64
_cell_length_a 23.606111
_cell_length_b 9.363601
_cell_length_c 15.562960
_cell_angle_alpha 90.000000
_cell_angle_beta 90.000000
_cell_angle_gamma 90.000000
_cell_volume 3440.008736
_symmetry_space_group_name_H-M "P M M N"
_symmetry_group_IT_number 59
_space_group.IT_coordinate_system_code '2'
_symmetry_cell_setting 'orthorhombic'
loop_
_space_group_symop_operation_xyz
x,y,z
1/2-x,1/2-y,z
1/2+x,-y,-z
-x,1/2+y,-z
-x,-y,-z
1/2+x,1/2+y,-z
1/2-x,y,z
x,1/2-y,z
loop_
_atom_site_type_symbol
_atom_site_label
_atom_site_fract_x
_atom_site_fract_y
_atom_site_fract_z
Si Si1 0.382227 0.914526 0.693761
Si Si2 0.489993 0.413064 0.308269
Si Si3 0.815811 0.417278 0.765464
Si Si4 0.869079 0.410382 0.935478
Si Si5 0.401467 0.918434 0.887196
Si Si6 0.124767 0.414320 0.385782
Si Si7 0.315232 0.417195 0.557259
Si Si8 0.488882 0.912331 0.143559
O O1 0.368397 0.750000 0.676210
O O2 0.446198 0.952521 0.662173
O O3 0.374143 0.952655 0.794629
O O4 0.337113 0.007218 0.642749
O O5 0.490782 0.250000 0.273313
O O6 0.443934 0.429764 0.384753
O O7 0.469749 0.517175 0.233053
O O8 0.750000 0.443858 0.751831
O O9 0.832102 0.250000 0.761105
O O10 0.834332 0.485991 0.858148
O O11 0.848688 0.496143 0.690637
O O12 0.845972 0.250000 0.935107
O O13 0.936117 0.418231 0.920078
O O14 0.860680 0.470126 0.033368
O O15 0.414080 0.750000 0.895661
O O16 0.460257 0.000477 0.898239
O O17 0.143233 0.250000 0.373502
O O18 0.148264 0.472601 0.476171
O O19 0.250000 0.457983 0.541449
O O20 0.323331 0.250000 0.571074
O O21 0.508097 0.750000 0.161009
#
# Coordination Sequence:
#
# PCOD8239120 Si02
#       8
#     8   8   8   8   8   8   8   8
#     4   9  19  35  54  78 107 136 173 219 263 308
#     4   9  18  33  53  79 110 140 169 207 262 318
#     4  10  20  34  52  76 108 142 176 217 262 308
#     4   9  17  30  48  73 104 138 174 211 253 302
#     4   9  18  33  51  72 105 140 173 213 258 306
#     4  10  20  36  58  80 105 137 173 211 259 321
#     4  10  22  39  57  77 102 135 176 219 264 313
#     4  10  17  27  47  76 108 137 172 210 249 305
#
# _framework density 18.604603999999998
#
# number of rings (size 3 to 8) (size 9 to 14) (size 15 to 20)
#    0.000    2.500    1.250    1.875    0.000    4.000 
#    0.000    1.875    0.000    2.250    0.000    0.000 
#    0.000    0.000    0.000    0.000    0.000    0.000 
#
# Total GULP energy -793194.026377 kJ/mol
# GULP energy per Si atom -12393.656662 kJ/mol
# Density = 1.856226 g / cm^3
# Si number density = 18.604604 Si / 1000 Ang^3
#
#
#
# Elastic Constant Matrix: (Units=GPa)
#
#
# Indices 1 2 3 4 5 6 
#
# 1 46.4643 20.6632 35.9640 0.0000 0.0000 0.0000
# 2 20.6632 45.1917 28.6679 0.0000 0.0000 0.0000
# 3 35.9640 28.6679 105.3058 0.0000 0.0000 0.0000
# 4 0.0000 0.0000 0.0000 23.1708 0.0000 0.0000
# 5 0.0000 0.0000 0.0000 0.0000 24.7746 0.0000
# 6 0.0000 0.0000 0.0000 0.0000 0.0000 23.3475
#
#
#
# Elastic Compliance Matrix: (Units=1/GPa)
#
#
# Indices 1 2 3 4 5 6 
#
# 1 0.032237 -0.009375 -0.008458 0.000000 0.000000 0.000000
# 2 -0.009375 0.029473 -0.004822 0.000000 0.000000 0.000000
# 3 -0.008458 -0.004822 0.013697 0.000000 0.000000 0.000000
# 4 0.000000 0.000000 0.000000 0.043158 0.000000 0.000000
# 5 0.000000 0.000000 0.000000 0.000000 0.040364 0.000000
# 6 0.000000 0.000000 0.000000 0.000000 0.000000 0.042831
#
#
# Mechanical properties :
#
#
# Convention : Reuss Voigt Hill
#
# Bulk Modulus (GPa) = 33.22346 40.83910 37.03128
# Shear Modulus (GPa) = 19.44752 21.70304 20.57528
#
# Velocity S-wave (km/s) = 3.23663 3.41917 3.32915
# Velocity P-wave (km/s) = 5.64483 6.13077 5.89281
#
# Compressibility (1/GPa) = 0.03009921
#
# Stress axis : x y z
#
# Youngs Moduli (GPa) = 31.02002 33.92895 73.00728
#
# Poissons Ratio (x) = 0.31808 0.61746
# Poissons Ratio (y) = 0.29081 0.35204
# Poissons Ratio (z) = 0.26235 0.16360
#
# Static dielectric constant tensor:
#      x y z
#    x 3.363720 0.000000 0.000000 
#    y 0.000000 3.293910 0.000000 
#    z 0.000000 0.000000 3.517500 
# 
# 
# High freq. dielectric constant tensor:
#      x y z
#    x 1.708420 0.000000 0.000000 
#    y 0.000000 1.703860 0.000000 
#    z 0.000000 0.000000 1.725400 
# 
# From -- ./inp_files/24782.got.cif
#   From: 2010.03.12/outbox.cif.g09.slc.cpg/sg59_13_cif.got.tgz:24782.got - 2010.04.16 16:29:54.
