data_PCOD8239984
_publ_section_title
;
Structure prediction by ZEFSAII (Michael W. Deem and Ramdas Pophale) SiO2 
 PCOD8239984
Probable space group: P M M N
;
_chemical_formula_sum "Si O2"
_cell_formula_units_Z 64
_cell_length_a 25.043264
_cell_length_b 9.186525
_cell_length_c 14.892857
_cell_angle_alpha 90.000000
_cell_angle_beta 90.000000
_cell_angle_gamma 90.000000
_cell_volume 3426.259183
_symmetry_space_group_name_H-M "P M M N"
_symmetry_group_IT_number 59
_space_group.IT_coordinate_system_code '2'
_symmetry_cell_setting 'orthorhombic'
loop_
_space_group_symop_operation_xyz
x,y,z
1/2-x,1/2-y,z
1/2+x,-y,-z
-x,1/2+y,-z
-x,-y,-z
1/2+x,1/2+y,-z
1/2-x,y,z
x,1/2-y,z
loop_
_atom_site_type_symbol
_atom_site_label
_atom_site_fract_x
_atom_site_fract_y
_atom_site_fract_z
Si Si1 0.189005 0.918172 0.882779
Si Si2 0.807487 0.417694 0.631555
Si Si3 0.369696 0.916025 0.532881
Si Si4 0.882871 0.076442 0.788291
Si Si5 0.607236 0.422697 0.268473
Si Si6 0.987730 0.911780 0.754815
Si Si7 0.188268 0.080221 0.066029
Si Si8 0.457291 0.090952 0.449244
O O1 0.250000 0.934021 0.849434
O O2 0.176761 0.750000 0.907914
O O3 0.150603 0.975202 0.803540
O O4 0.177547 0.021480 0.966429
O O5 0.750000 0.492167 0.653683
O O6 0.804557 0.250000 0.658969
O O7 0.814262 0.429119 0.522219
O O8 0.854715 0.480922 0.695807
O O9 0.390384 0.750000 0.535963
O O10 0.372613 0.981778 0.633611
O O11 0.402772 0.007333 0.461216
O O12 0.886451 0.250000 0.794752
O O13 0.943418 0.015846 0.799366
O O14 0.848139 0.014307 0.869151
O O15 0.605434 0.250000 0.273781
O O16 0.548023 0.479203 0.240030
O O17 0.986006 0.750000 0.799660
O O18 0.973735 0.895204 0.652145
O O19 0.250000 0.056516 0.092626
O O20 0.172565 0.250000 0.070523
O O21 0.452763 0.250000 0.493341
O O22 0.500000 0.000000 0.500000
#
# Coordination Sequence:
#
# PCOD8239984 Si02
#       8
#     8   8   8   8   8   8   8   8
#     4   9  18  35  60  86 108 134 175 225 273 322
#     4   9  18  30  47  75 109 142 176 219 269 318
#     4  10  18  32  51  74 107 143 182 223 265 315
#     4  11  21  34  55  81 111 142 181 229 272 321
#     4   9  18  33  54  80 110 143 178 223 272 318
#     4  10  20  34  51  74 110 148 183 222 270 326
#     4  10  21  38  60  84 109 140 177 218 271 331
#     4  11  20  31  50  73 102 141 187 230 267 307
#
# _framework density 18.679264
#
# number of rings (size 3 to 8) (size 9 to 14) (size 15 to 20)
#    0.000    2.125    2.500    1.500    0.000    2.250 
#    0.000    4.375    0.000    1.125    0.000    0.000 
#    0.000    0.000    0.000    0.000    0.000    0.000 
#
# Total GULP energy -792866.878443 kJ/mol
# GULP energy per Si atom -12388.544976 kJ/mol
# Density = 1.863675 g / cm^3
# Si number density = 18.679264 Si / 1000 Ang^3
#
#
#
# Elastic Constant Matrix: (Units=GPa)
#
#
# Indices 1 2 3 4 5 6 
#
# 1 121.8929 35.6424 64.4258 0.0000 0.0000 0.0000
# 2 35.6424 64.2831 28.8883 0.0000 0.0000 0.0000
# 3 64.4258 28.8883 92.9690 0.0000 0.0000 0.0000
# 4 0.0000 0.0000 0.0000 20.3096 0.0000 0.0000
# 5 0.0000 0.0000 0.0000 0.0000 33.4811 0.0000
# 6 0.0000 0.0000 0.0000 0.0000 0.0000 20.5407
#
#
#
# Elastic Compliance Matrix: (Units=1/GPa)
#
#
# Indices 1 2 3 4 5 6 
#
# 1 0.013730 -0.003879 -0.008309 0.000000 0.000000 0.000000
# 2 -0.003879 0.019177 -0.003271 0.000000 0.000000 0.000000
# 3 -0.008309 -0.003271 0.017531 0.000000 0.000000 0.000000
# 4 0.000000 0.000000 0.000000 0.049238 0.000000 0.000000
# 5 0.000000 0.000000 0.000000 0.000000 0.029868 0.000000
# 6 0.000000 0.000000 0.000000 0.000000 0.000000 0.048684
#
#
# Mechanical properties :
#
#
# Convention : Reuss Voigt Hill
#
# Bulk Modulus (GPa) = 51.23054 59.67312 55.45183
# Shear Modulus (GPa) = 23.18558 24.87884 24.03221
#
# Velocity S-wave (km/s) = 3.52696 3.65347 3.59077
# Velocity P-wave (km/s) = 6.63866 7.05781 6.85144
#
# Compressibility (1/GPa) = 0.01951961
#
# Stress axis : x y z
#
# Youngs Moduli (GPa) = 72.83361 52.14677 57.04197
#
# Poissons Ratio (x) = 0.20225 0.47399
# Poissons Ratio (y) = 0.28249 0.18659
# Poissons Ratio (z) = 0.60520 0.17057
#
# Static dielectric constant tensor:
#      x y z
#    x 3.677670 0.000000 0.000000 
#    y 0.000000 3.277510 0.000000 
#    z 0.000000 0.000000 3.328060 
# 
# 
# High freq. dielectric constant tensor:
#      x y z
#    x 1.730170 0.000000 0.000000 
#    y 0.000000 1.701000 0.000000 
#    z 0.000000 0.000000 1.713570 
# 
# From -- ./inp_files/24794.got.cif
#   From: 2010.03.12/outbox.cif.g09.slc.cpg/sg59_13_cif.got.tgz:24794.got - 2010.04.16 16:29:54.
