data_PCOD8239471
_publ_section_title
;
Structure prediction by ZEFSAII (Michael W. Deem and Ramdas Pophale) SiO2 
 PCOD8239471
Probable space group: P M M N
;
_chemical_formula_sum "Si O2"
_cell_formula_units_Z 56
_cell_length_a 20.751713
_cell_length_b 20.147203
_cell_length_c 8.110650
_cell_angle_alpha 90.000000
_cell_angle_beta 90.000000
_cell_angle_gamma 90.000000
_cell_volume 3390.973340
_symmetry_space_group_name_H-M "P M M N"
_symmetry_group_IT_number 59
_space_group.IT_coordinate_system_code '2'
_symmetry_cell_setting 'orthorhombic'
loop_
_space_group_symop_operation_xyz
x,y,z
1/2-x,1/2-y,z
1/2+x,-y,-z
-x,1/2+y,-z
-x,-y,-z
1/2+x,1/2+y,-z
1/2-x,y,z
x,1/2-y,z
loop_
_atom_site_type_symbol
_atom_site_label
_atom_site_fract_x
_atom_site_fract_y
_atom_site_fract_z
Si Si1 0.924893 0.036468 0.844543
Si Si2 0.435649 0.542235 0.512733
Si Si3 0.323938 0.444397 0.017545
Si Si4 0.898306 0.826123 0.852583
Si Si5 0.677379 0.956258 0.357287
Si Si6 0.822687 0.823075 0.522799
Si Si7 0.981567 0.087774 0.159518
O O1 0.925388 0.076103 0.668605
O O2 0.857284 0.997744 0.862797
O O3 0.935767 0.087148 0.997041
O O4 0.980849 0.981565 0.839192
O O5 0.500000 0.500000 0.500000
O O6 0.373538 0.495926 0.535348
O O7 0.441280 0.593096 0.667611
O O8 0.250000 0.437953 0.070044
O O9 0.356798 0.372013 0.025637
O O10 0.333249 0.471833 0.833828
O O11 0.893033 0.750000 0.911156
O O12 0.872112 0.836584 0.669221
O O13 0.972697 0.848448 0.854049
O O14 0.750000 0.976159 0.411365
O O15 0.666002 0.877518 0.382144
O O16 0.750000 0.827779 0.594271
O O17 0.834864 0.750000 0.445581
#
# Coordination Sequence:
#
# PCOD8239471 Si02
#       7
#     8   8   8   8   8   8   8
#     4   9  17  29  47  68  89 119 153 195 241 286
#     4  10  18  28  49  69  88 123 159 197 247 295
#     4  10  19  30  46  68  99 130 160 199 241 289
#     4  10  20  32  46  64  90 128 167 203 235 274
#     4  10  19  30  44  67  99 128 161 206 246 286
#     4   9  17  29  42  57  83 123 168 202 230 273
#     4   9  17  31  45  65  92 113 155 200 236 282
#
# _framework density 16.514431999999999
#
# number of rings (size 3 to 8) (size 9 to 14) (size 15 to 20)
#    0.000    2.429    1.429    3.000    2.000    3.143 
#    0.000    1.429    0.000    0.000    0.000    0.000 
#    0.000    2.286    0.000    2.571    0.000    0.000 
#
# Total GULP energy -694005.848604 kJ/mol
# GULP energy per Si atom -12392.961582 kJ/mol
# Density = 1.647684 g / cm^3
# Si number density = 16.514432 Si / 1000 Ang^3
#
#
#
# Elastic Constant Matrix: (Units=GPa)
#
#
# Indices 1 2 3 4 5 6 
#
# 1 91.0189 36.8749 43.8865 0.0000 0.0000 0.0000
# 2 36.8749 29.1841 21.1496 0.0000 0.0000 0.0000
# 3 43.8865 21.1496 111.7841 0.0000 0.0000 0.0000
# 4 0.0000 0.0000 0.0000 15.3366 0.0000 0.0000
# 5 0.0000 0.0000 0.0000 0.0000 25.1455 0.0000
# 6 0.0000 0.0000 0.0000 0.0000 0.0000 19.6049
#
#
#
# Elastic Compliance Matrix: (Units=1/GPa)
#
#
# Indices 1 2 3 4 5 6 
#
# 1 0.024171 -0.027423 -0.004301 0.000000 0.000000 0.000000
# 2 -0.027423 0.070824 -0.002633 0.000000 0.000000 0.000000
# 3 -0.004301 -0.002633 0.011133 0.000000 0.000000 0.000000
# 4 0.000000 0.000000 0.000000 0.065204 0.000000 0.000000
# 5 0.000000 0.000000 0.000000 0.000000 0.039769 0.000000
# 6 0.000000 0.000000 0.000000 0.000000 0.000000 0.051008
#
#
# Mechanical properties :
#
#
# Convention : Reuss Voigt Hill
#
# Bulk Modulus (GPa) = 26.72965 48.42321 37.57643
# Shear Modulus (GPa) = 14.56481 20.68914 17.62697
#
# Velocity S-wave (km/s) = 2.97298 3.54332 3.27060
# Velocity P-wave (km/s) = 5.29203 6.79158 6.08815
#
# Compressibility (1/GPa) = 0.03741164
#
# Stress axis : x y z
#
# Youngs Moduli (GPa) = 41.37241 14.11951 89.82629
#
# Poissons Ratio (x) = 0.38721 0.38633
# Poissons Ratio (y) = 1.13458 0.23655
# Poissons Ratio (z) = 0.17794 0.03718
#
# Static dielectric constant tensor:
#      x y z
#    x 3.122280 0.000000 0.000000 
#    y 0.000000 2.707120 0.000000 
#    z 0.000000 0.000000 3.439900 
# 
# 
# High freq. dielectric constant tensor:
#      x y z
#    x 1.630880 0.000000 0.000000 
#    y 0.000000 1.574950 0.000000 
#    z 0.000000 0.000000 1.649410 
# 
# From -- ./inp_files/10618.got.cif
#   From: 2010.03.12/outbox.cif.g09.slc.cpg/sg59_6_cif.got.tgz:10618.got - 2010.04.16 16:29:54.
