data_PCOD8239902
_publ_section_title
;
Structure prediction by ZEFSAII (Michael W. Deem and Ramdas Pophale) SiO2 
 PCOD8239902
Probable space group: P M M N
;
_chemical_formula_sum "Si O2"
_cell_formula_units_Z 64
_cell_length_a 29.397888
_cell_length_b 8.971618
_cell_length_c 12.697695
_cell_angle_alpha 90.000000
_cell_angle_beta 90.000000
_cell_angle_gamma 90.000000
_cell_volume 3348.974153
_symmetry_space_group_name_H-M "P M M N"
_symmetry_group_IT_number 59
_space_group.IT_coordinate_system_code '2'
_symmetry_cell_setting 'orthorhombic'
loop_
_space_group_symop_operation_xyz
x,y,z
1/2-x,1/2-y,z
1/2+x,-y,-z
-x,1/2+y,-z
-x,-y,-z
1/2+x,1/2+y,-z
1/2-x,y,z
x,1/2-y,z
loop_
_atom_site_type_symbol
_atom_site_label
_atom_site_fract_x
_atom_site_fract_y
_atom_site_fract_z
Si Si1 0.669583 0.082073 0.165458
Si Si2 0.417892 0.076049 0.900123
Si Si3 0.396468 0.573556 0.108748
Si Si4 0.962419 0.573663 0.308420
Si Si5 0.201741 0.579242 0.060228
Si Si6 0.110862 0.426728 0.525202
Si Si7 0.699136 0.077965 0.395322
Si Si8 0.936124 0.073678 0.667992
O O1 0.648857 0.250000 0.168075
O O2 0.697560 0.047860 0.270554
O O3 0.629731 0.962012 0.155017
O O4 0.702696 0.065725 0.066139
O O5 0.420383 0.250000 0.924592
O O6 0.455618 0.026293 0.813742
O O7 0.425050 0.990210 0.010113
O O8 0.395037 0.750000 0.093685
O O9 0.344587 0.506766 0.107095
O O10 0.420353 0.525336 0.215813
O O11 0.959676 0.750000 0.315305
O O12 0.923194 0.507632 0.384970
O O13 0.011881 0.518810 0.346786
O O14 0.250000 0.505892 0.099802
O O15 0.202061 0.750000 0.096237
O O16 0.109483 0.250000 0.521949
O O17 0.162319 0.478280 0.544820
O O18 0.095596 0.489141 0.413232
O O19 0.750000 0.034927 0.433955
O O20 0.688739 0.250000 0.421054
O O21 0.931204 0.250000 0.651805
#
# Coordination Sequence:
#
# PCOD8239902 Si02
#       8
#     8   8   8   8   8   8   8   8
#     4   9  16  28  48  76 107 138 171 214 262 314
#     4  10  18  31  52  78 111 145 172 212 273 333
#     4   9  19  34  52  76 105 139 181 227 273 322
#     4   9  19  35  56  81 109 142 178 226 285 336
#     4   8  13  24  45  72  99 128 165 209 258 308
#     4  11  22  38  57  80 111 143 183 230 279 331
#     4  10  20  34  55  83 112 144 182 221 267 325
#     4  10  21  39  58  76 104 144 190 236 279 326
#
# _framework density 19.110330000000001
#
# number of rings (size 3 to 8) (size 9 to 14) (size 15 to 20)
#    0.000    2.500    1.250    2.250    0.000    2.750 
#    0.000    2.500    0.000   11.250    0.000    0.000 
#    0.000    0.000    0.000    0.000    0.000    0.000 
#
# Total GULP energy -793198.909666 kJ/mol
# GULP energy per Si atom -12393.732964 kJ/mol
# Density = 1.906683 g / cm^3
# Si number density = 19.110330 Si / 1000 Ang^3
#
#
#
# Elastic Constant Matrix: (Units=GPa)
#
#
# Indices 1 2 3 4 5 6 
#
# 1 114.4379 28.6613 56.1619 0.0000 0.0000 0.0000
# 2 28.6613 40.3159 37.9202 0.0000 0.0000 0.0000
# 3 56.1619 37.9202 111.3174 0.0000 0.0000 0.0000
# 4 0.0000 0.0000 0.0000 25.7916 0.0000 0.0000
# 5 0.0000 0.0000 0.0000 0.0000 17.4790 0.0000
# 6 0.0000 0.0000 0.0000 0.0000 0.0000 20.6848
#
#
#
# Elastic Compliance Matrix: (Units=1/GPa)
#
#
# Indices 1 2 3 4 5 6 
#
# 1 0.012079 -0.004201 -0.004663 0.000000 0.000000 0.000000
# 2 -0.004201 0.037960 -0.010811 0.000000 0.000000 0.000000
# 3 -0.004663 -0.010811 0.015019 0.000000 0.000000 0.000000
# 4 0.000000 0.000000 0.000000 0.038772 0.000000 0.000000
# 5 0.000000 0.000000 0.000000 0.000000 0.057212 0.000000
# 6 0.000000 0.000000 0.000000 0.000000 0.000000 0.048345
#
#
# Mechanical properties :
#
#
# Convention : Reuss Voigt Hill
#
# Bulk Modulus (GPa) = 38.90087 56.83979 47.87033
# Shear Modulus (GPa) = 19.43212 22.34627 20.88919
#
# Velocity S-wave (km/s) = 3.19225 3.42326 3.30977
# Velocity P-wave (km/s) = 5.82987 6.74036 6.30158
#
# Compressibility (1/GPa) = 0.02570637
#
# Stress axis : x y z
#
# Youngs Moduli (GPa) = 82.78840 26.34367 66.58357
#
# Poissons Ratio (x) = 0.11068 0.31047
# Poissons Ratio (y) = 0.34782 0.71986
# Poissons Ratio (z) = 0.38604 0.28481
#
# Static dielectric constant tensor:
#      x y z
#    x 3.712230 0.000000 0.000000 
#    y 0.000000 3.183920 0.000000 
#    z 0.000000 0.000000 3.452220 
# 
# 
# High freq. dielectric constant tensor:
#      x y z
#    x 1.747970 0.000000 0.000000 
#    y 0.000000 1.708160 0.000000 
#    z 0.000000 0.000000 1.733760 
# 
# From -- ./inp_files/19210.got.cif
#   From: 2010.03.12/outbox.cif.g09.slc.cpg/sg59_10_cif.got.tgz:19210.got - 2010.04.16 16:29:54.
