data_PCOD8239712
_publ_section_title
;
Structure prediction by ZEFSAII (Michael W. Deem and Ramdas Pophale) SiO2 
 PCOD8239712
Probable space group: P M M N
;
_chemical_formula_sum "Si O2"
_cell_formula_units_Z 64
_cell_length_a 9.111603
_cell_length_b 18.767303
_cell_length_c 19.718170
_cell_angle_alpha 90.000000
_cell_angle_beta 90.000000
_cell_angle_gamma 90.000000
_cell_volume 3371.811296
_symmetry_space_group_name_H-M "P M M N"
_symmetry_group_IT_number 59
_space_group.IT_coordinate_system_code '2'
_symmetry_cell_setting 'orthorhombic'
loop_
_space_group_symop_operation_xyz
x,y,z
1/2-x,1/2-y,z
1/2+x,-y,-z
-x,1/2+y,-z
-x,-y,-z
1/2+x,1/2+y,-z
1/2-x,y,z
x,1/2-y,z
loop_
_atom_site_type_symbol
_atom_site_label
_atom_site_fract_x
_atom_site_fract_y
_atom_site_fract_z
Si Si1 0.582952 0.570241 0.416311
Si Si2 0.577467 0.455981 0.716297
Si Si3 0.575487 0.573544 0.142223
Si Si4 0.584644 0.405195 0.454883
Si Si5 0.915572 0.828920 0.811823
Si Si6 0.584745 0.614688 0.671914
Si Si7 0.077136 0.832796 0.039106
Si Si8 0.078336 0.577175 0.912087
O O1 0.750000 0.596220 0.406942
O O2 0.493148 0.585899 0.347461
O O3 0.576245 0.487878 0.436195
O O4 0.507417 0.613458 0.477737
O O5 0.750000 0.438504 0.720927
O O6 0.497558 0.431253 0.784380
O O7 0.546027 0.539150 0.706034
O O8 0.750000 0.579696 0.150888
O O9 0.510479 0.643585 0.106159
O O10 0.532007 0.505530 0.094754
O O11 0.750000 0.379747 0.467403
O O12 0.518652 0.363319 0.390533
O O13 0.750000 0.853068 0.829644
O O14 0.947593 0.750000 0.839609
O O15 0.936798 0.827313 0.730679
O O16 0.025793 0.883924 0.844643
O O17 0.750000 0.612526 0.643302
O O18 0.250000 0.844673 0.050767
O O19 0.042759 0.750000 0.023514
O O20 0.014260 0.882501 0.978090
O O21 0.250000 0.585432 0.914452
#
# Coordination Sequence:
#
# PCOD8239712 Si02
#       8
#     8   8   8   8   8   8   8   8
#     4   9  16  26  41  65  98 131 166 211 259 309
#     4  10  18  30  49  72 102 138 173 213 261 314
#     4  11  22  35  55  83 110 139 176 220 268 319
#     4   9  16  25  40  63  92 130 171 211 256 310
#     4  10  20  33  50  74 104 140 182 225 270 321
#     4   9  17  29  44  65  96 135 174 216 263 310
#     4  10  22  40  59  79 106 141 178 217 265 320
#     4  10  21  37  57  80 107 139 176 218 266 321
#
# _framework density 18.980896000000001
#
# number of rings (size 3 to 8) (size 9 to 14) (size 15 to 20)
#    0.000    2.250    1.250    2.250    0.000    6.000 
#    0.000    0.000    0.000    0.000    0.000    0.875 
#    0.000    5.000    0.000    0.000    0.000    0.000 
#
# Total GULP energy -793490.847354 kJ/mol
# GULP energy per Si atom -12398.294490 kJ/mol
# Density = 1.893769 g / cm^3
# Si number density = 18.980896 Si / 1000 Ang^3
#
#
#
# Elastic Constant Matrix: (Units=GPa)
#
#
# Indices 1 2 3 4 5 6 
#
# 1 70.8218 22.4377 57.9396 0.0000 0.0000 0.0000
# 2 22.4377 42.2590 30.8817 0.0000 0.0000 0.0000
# 3 57.9396 30.8817 122.9408 0.0000 0.0000 0.0000
# 4 0.0000 0.0000 0.0000 8.1832 0.0000 0.0000
# 5 0.0000 0.0000 0.0000 0.0000 38.6988 0.0000
# 6 0.0000 0.0000 0.0000 0.0000 0.0000 14.8512
#
#
#
# Elastic Compliance Matrix: (Units=1/GPa)
#
#
# Indices 1 2 3 4 5 6 
#
# 1 0.023972 -0.005478 -0.009922 0.000000 0.000000 0.000000
# 2 -0.005478 0.030236 -0.005013 0.000000 0.000000 0.000000
# 3 -0.009922 -0.005013 0.014069 0.000000 0.000000 0.000000
# 4 0.000000 0.000000 0.000000 0.122202 0.000000 0.000000
# 5 0.000000 0.000000 0.000000 0.000000 0.025841 0.000000
# 6 0.000000 0.000000 0.000000 0.000000 0.000000 0.067335
#
#
# Mechanical properties :
#
#
# Convention : Reuss Voigt Hill
#
# Bulk Modulus (GPa) = 36.42787 50.94885 43.68836
# Shear Modulus (GPa) = 14.98660 20.66414 17.82537
#
# Velocity S-wave (km/s) = 2.81296 3.30310 3.06783
# Velocity P-wave (km/s) = 5.45746 6.43799 5.96790
#
# Compressibility (1/GPa) = 0.02745151
#
# Stress axis : x y z
#
# Youngs Moduli (GPa) = 41.71448 33.07351 71.07701
#
# Poissons Ratio (x) = 0.18117 0.70521
# Poissons Ratio (y) = 0.22850 0.35633
# Poissons Ratio (z) = 0.41388 0.16581
#
# Static dielectric constant tensor:
#      x y z
#    x 3.489760 0.000000 0.000000 
#    y 0.000000 3.096630 0.000000 
#    z 0.000000 0.000000 3.567780 
# 
# 
# High freq. dielectric constant tensor:
#      x y z
#    x 1.741190 0.000000 0.000000 
#    y 0.000000 1.688960 0.000000 
#    z 0.000000 0.000000 1.746960 
# 
# From -- ./inp_files/26359.got.cif
#   From: 2010.03.12/outbox.cif.g09.slc.cpg/sg59_14_cif.got.tgz:26359.got - 2010.04.16 16:29:54.
