data_PCOD8239856
_publ_section_title
;
Structure prediction by ZEFSAII (Michael W. Deem and Ramdas Pophale) SiO2 
 PCOD8239856
Probable space group: P M M N
;
_chemical_formula_sum "Si O2"
_cell_formula_units_Z 40
_cell_length_a 8.843511
_cell_length_b 28.042172
_cell_length_c 10.221869
_cell_angle_alpha 90.000000
_cell_angle_beta 90.000000
_cell_angle_gamma 90.000000
_cell_volume 2534.934138
_symmetry_space_group_name_H-M "P M M N"
_symmetry_group_IT_number 59
_space_group.IT_coordinate_system_code '2'
_symmetry_cell_setting 'orthorhombic'
loop_
_space_group_symop_operation_xyz
x,y,z
1/2-x,1/2-y,z
1/2+x,-y,-z
-x,1/2+y,-z
-x,-y,-z
1/2+x,1/2+y,-z
1/2-x,y,z
x,1/2-y,z
loop_
_atom_site_type_symbol
_atom_site_label
_atom_site_fract_x
_atom_site_fract_y
_atom_site_fract_z
Si Si1 0.921160 0.131760 0.357359
Si Si2 0.921205 0.128292 0.644162
Si Si3 0.428669 0.448352 0.496340
Si Si4 0.929342 0.303964 0.872332
Si Si5 0.572438 0.695275 0.859273
O O1 0.750000 0.124780 0.305912
O O2 0.921310 0.155503 0.503058
O O3 0.003298 0.080027 0.370236
O O4 0.012944 0.165178 0.261398
O O5 0.750000 0.113079 0.680939
O O6 0.989835 0.163035 0.754268
O O7 0.023046 0.080372 0.629070
O O8 0.500000 0.500000 0.500000
O O9 0.250000 0.452012 0.485139
O O10 0.750000 0.305787 0.881493
O O11 0.985833 0.250000 0.846478
O O12 0.998194 0.323790 0.007020
O O13 0.750000 0.688844 0.870644
O O14 0.525446 0.750000 0.835558
#
# Coordination Sequence:
#
# PCOD8239856 Si02
#       5
#     8   8   8   8   8
#     4   9  18  32  50  73  96 125 163 201 241 285
#     4   8  17  31  48  73  98 124 162 202 239 284
#     4  10  18  31  51  73  98 125 156 197 245 292
#     4   9  17  31  50  70  96 132 167 197 233 280
#     4  10  20  32  46  69 101 134 166 199 237 282
#
# _framework density 15.779503
#
# number of rings (size 3 to 8) (size 9 to 14) (size 15 to 20)
#    1.200    1.600    0.000    2.400    0.000    2.800 
#    0.000    2.000    0.000    1.200    0.000    0.000 
#    0.000    0.000    0.000    0.000    0.000    0.000 
#
# Total GULP energy -495622.806358 kJ/mol
# GULP energy per Si atom -12390.570159 kJ/mol
# Density = 1.574359 g / cm^3
# Si number density = 15.779503 Si / 1000 Ang^3
#
#
#
# Elastic Constant Matrix: (Units=GPa)
#
#
# Indices 1 2 3 4 5 6 
#
# 1 52.4913 35.8096 22.0492 0.0000 0.0000 0.0000
# 2 35.8096 97.3432 57.9468 0.0000 0.0000 0.0000
# 3 22.0492 57.9468 86.9846 0.0000 0.0000 0.0000
# 4 0.0000 0.0000 0.0000 3.7401 0.0000 0.0000
# 5 0.0000 0.0000 0.0000 0.0000 24.2451 0.0000
# 6 0.0000 0.0000 0.0000 0.0000 0.0000 26.7532
#
#
#
# Elastic Compliance Matrix: (Units=1/GPa)
#
#
# Indices 1 2 3 4 5 6 
#
# 1 0.025440 -0.009147 -0.000355 0.000000 0.000000 0.000000
# 2 -0.009147 0.020313 -0.011213 0.000000 0.000000 0.000000
# 3 -0.000355 -0.011213 0.019056 0.000000 0.000000 0.000000
# 4 0.000000 0.000000 0.000000 0.267370 0.000000 0.000000
# 5 0.000000 0.000000 0.000000 0.000000 0.041245 0.000000
# 6 0.000000 0.000000 0.000000 0.000000 0.000000 0.037379
#
#
# Mechanical properties :
#
#
# Convention : Reuss Voigt Hill
#
# Bulk Modulus (GPa) = 42.77474 52.04782 47.41128
# Shear Modulus (GPa) = 10.86892 19.01524 14.94208
#
# Velocity S-wave (km/s) = 2.62735 3.47516 3.08056
# Velocity P-wave (km/s) = 6.03080 7.01131 6.53946
#
# Compressibility (1/GPa) = 0.02337829
#
# Stress axis : x y z
#
# Youngs Moduli (GPa) = 39.30780 49.22935 52.47614
#
# Poissons Ratio (x) = 0.45032 0.01863
# Poissons Ratio (y) = 0.35956 0.58843
# Poissons Ratio (z) = 0.01395 0.55202
#
# Static dielectric constant tensor:
#      x y z
#    x 3.026250 0.000000 0.000000 
#    y 0.000000 2.848960 0.000000 
#    z 0.000000 0.000000 2.914050 
# 
# 
# High freq. dielectric constant tensor:
#      x y z
#    x 1.615220 0.000000 0.000000 
#    y 0.000000 1.587030 0.000000 
#    z 0.000000 0.000000 1.590090 
# 
# From -- ./inp_files/6042.got.cif
#   From: 2010.03.12/outbox.cif.g09.slc.cpg/sg59_4_cif.got.tgz:6042.got - 2010.04.16 16:29:54.
