data_PCOD8239062
_publ_section_title
;
Structure prediction by ZEFSAII (Michael W. Deem and Ramdas Pophale) SiO2 
 PCOD8239062
Probable space group: P M M N
;
_chemical_formula_sum "Si O2"
_cell_formula_units_Z 56
_cell_length_a 9.443049
_cell_length_b 14.031514
_cell_length_c 26.412458
_cell_angle_alpha 90.000000
_cell_angle_beta 90.000000
_cell_angle_gamma 90.000000
_cell_volume 3499.657929
_symmetry_space_group_name_H-M "P M M N"
_symmetry_group_IT_number 59
_space_group.IT_coordinate_system_code '2'
_symmetry_cell_setting 'orthorhombic'
loop_
_space_group_symop_operation_xyz
x,y,z
1/2-x,1/2-y,z
1/2+x,-y,-z
-x,1/2+y,-z
-x,-y,-z
1/2+x,1/2+y,-z
1/2-x,y,z
x,1/2-y,z
loop_
_atom_site_type_symbol
_atom_site_label
_atom_site_fract_x
_atom_site_fract_y
_atom_site_fract_z
Si Si1 0.585861 0.141984 0.014835
Si Si2 0.087904 0.361331 0.419728
Si Si3 0.918373 0.982293 0.375093
Si Si4 0.415838 0.456363 0.928141
Si Si5 0.918199 0.855204 0.467449
Si Si6 0.582070 0.856627 0.171124
Si Si7 0.918323 0.856943 0.282844
O O1 0.750000 0.133913 0.999609
O O2 0.548468 0.250000 0.032243
O O3 0.494821 0.114238 0.966241
O O4 0.550547 0.067642 0.060273
O O5 0.250000 0.393231 0.412639
O O6 0.070879 0.250000 0.409598
O O7 0.033417 0.387593 0.476448
O O8 0.990655 0.414490 0.378485
O O9 0.750000 0.993389 0.374276
O O10 0.974577 0.925072 0.424152
O O11 0.976389 0.929863 0.324821
O O12 0.250000 0.434754 0.933924
O O13 0.470429 0.431287 0.871544
O O14 0.750000 0.850509 0.466342
O O15 0.979095 0.750000 0.455799
O O16 0.750000 0.854291 0.172218
O O17 0.525752 0.750000 0.158594
O O18 0.527801 0.888742 0.226860
O O19 0.750000 0.856857 0.284927
O O20 0.972993 0.750000 0.294789
#
# Coordination Sequence:
#
# PCOD8239062 Si02
#       7
#     8   8   8   8   8   8   8
#     4   9  17  27  38  57  86 112 133 165 208 243
#     4   9  18  31  43  55  77 110 140 163 194 240
#     4  10  17  25  43  66  83 101 129 168 205 234
#     4   9  16  26  42  61  80 108 144 171 192 231
#     4   8  14  25  41  61  83 106 132 159 192 242
#     4   8  13  22  38  60  83 105 132 165 195 229
#     4   8  14  24  39  62  88 108 127 157 201 245
#
# _framework density 16.001563000000001
#
# number of rings (size 3 to 8) (size 9 to 14) (size 15 to 20)
#    0.000    3.286    0.000    3.000    0.000    2.857 
#    0.000    0.000    0.000    4.286    0.000    6.000 
#    0.000    0.000    0.000    0.000    0.000    0.000 
#
# Total GULP energy -693950.786870 kJ/mol
# GULP energy per Si atom -12391.978337 kJ/mol
# Density = 1.596514 g / cm^3
# Si number density = 16.001563 Si / 1000 Ang^3
#
#
#
# Elastic Constant Matrix: (Units=GPa)
#
#
# Indices 1 2 3 4 5 6 
#
# 1 22.4072 28.1600 27.0981 0.0000 0.0000 0.0000
# 2 28.1600 103.1501 75.8768 0.0000 0.0000 0.0000
# 3 27.0981 75.8768 127.1469 0.0000 0.0000 0.0000
# 4 0.0000 0.0000 0.0000 27.9794 0.0000 0.0000
# 5 0.0000 0.0000 0.0000 0.0000 14.8840 0.0000
# 6 0.0000 0.0000 0.0000 0.0000 0.0000 20.2672
#
#
#
# Elastic Compliance Matrix: (Units=1/GPa)
#
#
# Indices 1 2 3 4 5 6 
#
# 1 0.070680 -0.014643 -0.006325 0.000000 0.000000 0.000000
# 2 -0.014643 0.020314 -0.009002 0.000000 0.000000 0.000000
# 3 -0.006325 -0.009002 0.014585 0.000000 0.000000 0.000000
# 4 0.000000 0.000000 0.000000 0.035741 0.000000 0.000000
# 5 0.000000 0.000000 0.000000 0.000000 0.067186 0.000000
# 6 0.000000 0.000000 0.000000 0.000000 0.000000 0.049341
#
#
# Mechanical properties :
#
#
# Convention : Reuss Voigt Hill
#
# Bulk Modulus (GPa) = 21.91110 57.21934 39.56522
# Shear Modulus (GPa) = 15.01505 20.73076 17.87290
#
# Velocity S-wave (km/s) = 3.06657 3.60327 3.34570
# Velocity P-wave (km/s) = 5.12458 7.29024 6.30115
#
# Compressibility (1/GPa) = 0.04563897
#
# Stress axis : x y z
#
# Youngs Moduli (GPa) = 14.14824 49.22765 68.56364
#
# Poissons Ratio (x) = 0.72083 0.43369
# Poissons Ratio (y) = 0.20717 0.61720
# Poissons Ratio (z) = 0.08949 0.44314
#
# Static dielectric constant tensor:
#      x y z
#    x 2.628460 0.000000 0.000000 
#    y 0.000000 3.120640 0.000000 
#    z 0.000000 0.000000 3.280030 
# 
# 
# High freq. dielectric constant tensor:
#      x y z
#    x 1.572230 0.000000 0.000000 
#    y 0.000000 1.612180 0.000000 
#    z 0.000000 0.000000 1.606080 
# 
# From -- ./inp_files/31912.got.cif
#   From: 2010.03.12/outbox.cif.g09.slc.cpg/sg59_16_cif.got.tgz:31912.got - 2010.04.16 16:29:54.
