data_PCOD8239487
_publ_section_title
;
Structure prediction by ZEFSAII (Michael W. Deem and Ramdas Pophale) SiO2 
 PCOD8239487
Probable space group: P M M N
;
_chemical_formula_sum "Si O2"
_cell_formula_units_Z 64
_cell_length_a 22.564763
_cell_length_b 9.114436
_cell_length_c 20.229943
_cell_angle_alpha 90.000000
_cell_angle_beta 90.000000
_cell_angle_gamma 90.000000
_cell_volume 4160.593012
_symmetry_space_group_name_H-M "P M M N"
_symmetry_group_IT_number 59
_space_group.IT_coordinate_system_code '2'
_symmetry_cell_setting 'orthorhombic'
loop_
_space_group_symop_operation_xyz
x,y,z
1/2-x,1/2-y,z
1/2+x,-y,-z
-x,1/2+y,-z
-x,-y,-z
1/2+x,1/2+y,-z
1/2-x,y,z
x,1/2-y,z
loop_
_atom_site_type_symbol
_atom_site_label
_atom_site_fract_x
_atom_site_fract_y
_atom_site_fract_z
Si Si1 0.908774 0.412537 0.609941
Si Si2 0.980450 0.423939 0.225097
Si Si3 0.184229 0.923868 0.128058
Si Si4 0.038783 0.419945 0.905519
Si Si5 0.414017 0.920046 0.027391
Si Si6 0.454317 0.086769 0.650547
Si Si7 0.061857 0.079093 0.508888
Si Si8 0.395582 0.576853 0.246948
O O1 0.889624 0.250000 0.588085
O O2 0.893424 0.517834 0.547638
O O3 0.874771 0.458631 0.677647
O O4 0.977714 0.417955 0.628205
O O5 0.981682 0.250000 0.220420
O O6 0.947998 0.490419 0.161131
O O7 0.943189 0.472013 0.290343
O O8 0.046521 0.486129 0.227977
O O9 0.250000 0.992384 0.120842
O O10 0.187425 0.750000 0.126171
O O11 0.143075 0.977542 0.067738
O O12 0.156925 0.973022 0.198340
O O13 0.053479 0.250000 0.894157
O O14 0.970712 0.444014 0.925980
O O15 0.082005 0.482428 0.961892
O O16 0.408560 0.750000 0.007014
O O17 0.438452 0.250000 0.676239
O O18 0.415512 0.049283 0.584379
O O19 0.052359 0.250000 0.496645
O O20 0.000000 0.000000 0.500000
O O21 0.410990 0.750000 0.239363
#
# Coordination Sequence:
#
# PCOD8239487 Si02
#       8
#     8   8   8   8   8   8   8   8
#     4   8  14  22  34  48  68  97 128 163 196 227
#     4  11  19  25  38  59  79 103 135 170 203 241
#     4   9  16  28  47  65  81 105 137 173 210 246
#     4  10  18  29  44  59  81 109 132 167 210 248
#     4   9  17  29  44  63  81 101 134 172 204 246
#     4   8  15  25  34  47  71 102 130 160 198 237
#     4   9  15  22  32  46  67  95 129 162 192 227
#     4   9  16  28  40  55  78 104 135 168 205 246
#
# _framework density 15.382422
#
# number of rings (size 3 to 8) (size 9 to 14) (size 15 to 20)
#    0.000    2.875    1.250    3.375    0.000    5.500 
#    0.000    0.000    0.000    1.500    0.000    0.000 
#    0.000    0.000    0.000    1.125    0.000   22.125 
#
# Total GULP energy -793051.538510 kJ/mol
# GULP energy per Si atom -12391.430289 kJ/mol
# Density = 1.534741 g / cm^3
# Si number density = 15.382422 Si / 1000 Ang^3
#
#
#
# Elastic Constant Matrix: (Units=GPa)
#
#
# Indices 1 2 3 4 5 6 
#
# 1 44.9045 18.7043 43.2655 0.0000 0.0000 0.0000
# 2 18.7043 88.5189 68.8697 0.0000 0.0000 0.0000
# 3 43.2655 68.8697 148.6514 0.0000 0.0000 0.0000
# 4 0.0000 0.0000 0.0000 30.3742 0.0000 0.0000
# 5 0.0000 0.0000 0.0000 0.0000 11.7597 0.0000
# 6 0.0000 0.0000 0.0000 0.0000 0.0000 7.7289
#
#
#
# Elastic Compliance Matrix: (Units=1/GPa)
#
#
# Indices 1 2 3 4 5 6 
#
# 1 0.030979 0.000734 -0.009356 0.000000 0.000000 0.000000
# 2 0.000734 0.017682 -0.008405 0.000000 0.000000 0.000000
# 3 -0.009356 -0.008405 0.013344 0.000000 0.000000 0.000000
# 4 0.000000 0.000000 0.000000 0.032923 0.000000 0.000000
# 5 0.000000 0.000000 0.000000 0.000000 0.085036 0.000000
# 6 0.000000 0.000000 0.000000 0.000000 0.000000 0.129385
#
#
# Mechanical properties :
#
#
# Convention : Reuss Voigt Hill
#
# Bulk Modulus (GPa) = 35.77998 60.41708 48.09853
# Shear Modulus (GPa) = 14.17554 20.05492 17.11523
#
# Velocity S-wave (km/s) = 3.03898 3.61467 3.33926
# Velocity P-wave (km/s) = 5.96864 7.53546 6.79735
#
# Compressibility (1/GPa) = 0.02794859
#
# Stress axis : x y z
#
# Youngs Moduli (GPa) = 32.28022 56.55620 74.93742
#
# Poissons Ratio (x) = -0.04148 0.70114
# Poissons Ratio (y) = -0.02368 0.62987
# Poissons Ratio (z) = 0.30202 0.47537
#
# Static dielectric constant tensor:
#      x y z
#    x 2.540860 0.000000 0.000000 
#    y 0.000000 2.976150 0.000000 
#    z 0.000000 0.000000 3.634720 
# 
# 
# High freq. dielectric constant tensor:
#      x y z
#    x 1.506000 0.000000 0.000000 
#    y 0.000000 1.583700 0.000000 
#    z 0.000000 0.000000 1.612180 
# 
# From -- ./inp_files/31042.got.cif
#   From: 2010.03.12/outbox.cif.g09.slc.cpg/sg59_16_cif.got.tgz:31042.got - 2010.04.16 16:29:54.
