data_PCOD8239783
_publ_section_title
;
Structure prediction by ZEFSAII (Michael W. Deem and Ramdas Pophale) SiO2 
 PCOD8239783
Probable space group: P M M N
;
_chemical_formula_sum "Si O2"
_cell_formula_units_Z 64
_cell_length_a 33.163684
_cell_length_b 9.148894
_cell_length_c 11.257241
_cell_angle_alpha 90.000000
_cell_angle_beta 90.000000
_cell_angle_gamma 90.000000
_cell_volume 3415.571082
_symmetry_space_group_name_H-M "P M M N"
_symmetry_group_IT_number 59
_space_group.IT_coordinate_system_code '2'
_symmetry_cell_setting 'orthorhombic'
loop_
_space_group_symop_operation_xyz
x,y,z
1/2-x,1/2-y,z
1/2+x,-y,-z
-x,1/2+y,-z
-x,-y,-z
1/2+x,1/2+y,-z
1/2-x,y,z
x,1/2-y,z
loop_
_atom_site_type_symbol
_atom_site_label
_atom_site_fract_x
_atom_site_fract_y
_atom_site_fract_z
Si Si1 0.627845 0.076989 0.351728
Si Si2 0.936828 0.579307 0.211664
Si Si3 0.930102 0.582626 0.940617
Si Si4 0.419370 0.583325 0.411450
Si Si5 0.015011 0.077869 0.278005
Si Si6 0.364545 0.916005 0.184028
Si Si7 0.295957 0.084772 0.289889
Si Si8 0.704210 0.578763 0.438420
O O1 0.629858 0.250000 0.331203
O O2 0.602393 0.034307 0.468421
O O3 0.605557 0.997870 0.242404
O O4 0.673231 0.015079 0.359817
O O5 0.934908 0.750000 0.244092
O O6 0.972158 0.502070 0.286305
O O7 0.946069 0.554719 0.072741
O O8 0.918506 0.750000 0.918737
O O9 0.964608 0.534775 0.847702
O O10 0.889538 0.490771 0.921240
O O11 0.434782 0.750000 0.418603
O O12 0.457557 0.479175 0.386745
O O13 0.387108 0.563372 0.308045
O O14 0.008145 0.250000 0.291845
O O15 0.358453 0.750000 0.147080
O O16 0.320826 0.987363 0.197870
O O17 0.250000 0.074544 0.248356
O O18 0.311952 0.250000 0.282059
O O19 0.300435 0.028859 0.424949
O O20 0.750000 0.546510 0.395524
O O21 0.694508 0.750000 0.424885
#
# Coordination Sequence:
#
# PCOD8239783 Si02
#       8
#     8   8   8   8   8   8   8   8
#     4  11  22  36  54  78 111 144 179 220 260 311
#     4  11  23  38  55  76 104 140 180 220 265 314
#     4   9  20  37  56  77 101 134 176 220 265 316
#     4   9  19  34  50  74 107 141 173 209 260 315
#     4  10  20  35  57  81 103 132 173 222 270 314
#     4  10  18  30  51  78 106 136 170 214 263 309
#     4   9  17  29  48  76 109 141 171 206 253 313
#     4   9  18  33  54  80 109 142 178 214 256 309
#
# _framework density 18.737715000000001
#
# number of rings (size 3 to 8) (size 9 to 14) (size 15 to 20)
#    0.000    2.250    1.250    2.625    0.000    4.000 
#    0.000    1.250    0.000    0.750    0.000    5.250 
#    0.000    0.000    0.000    0.000    0.000    0.000 
#
# Total GULP energy -793750.651100 kJ/mol
# GULP energy per Si atom -12402.353923 kJ/mol
# Density = 1.869507 g / cm^3
# Si number density = 18.737715 Si / 1000 Ang^3
#
#
#
# Elastic Constant Matrix: (Units=GPa)
#
#
# Indices 1 2 3 4 5 6 
#
# 1 112.2265 58.3061 16.2467 0.0000 0.0000 0.0000
# 2 58.3061 95.7874 19.9441 0.0000 0.0000 0.0000
# 3 16.2467 19.9441 28.8587 0.0000 0.0000 0.0000
# 4 0.0000 0.0000 0.0000 23.2359 0.0000 0.0000
# 5 0.0000 0.0000 0.0000 0.0000 25.7219 0.0000
# 6 0.0000 0.0000 0.0000 0.0000 0.0000 38.1726
#
#
#
# Elastic Compliance Matrix: (Units=1/GPa)
#
#
# Indices 1 2 3 4 5 6 
#
# 1 0.013149 -0.007549 -0.002186 0.000000 0.000000 0.000000
# 2 -0.007549 0.016528 -0.007173 0.000000 0.000000 0.000000
# 3 -0.002186 -0.007173 0.040839 0.000000 0.000000 0.000000
# 4 0.000000 0.000000 0.000000 0.043037 0.000000 0.000000
# 5 0.000000 0.000000 0.000000 0.000000 0.038877 0.000000
# 6 0.000000 0.000000 0.000000 0.000000 0.000000 0.026197
#
#
# Mechanical properties :
#
#
# Convention : Reuss Voigt Hill
#
# Bulk Modulus (GPa) = 27.24651 47.31849 37.28250
# Shear Modulus (GPa) = 22.25434 26.91778 24.58606
#
# Velocity S-wave (km/s) = 3.45001 3.79430 3.62624
# Velocity P-wave (km/s) = 5.51748 6.67110 6.12153
#
# Compressibility (1/GPa) = 0.03670195
#
# Stress axis : x y z
#
# Youngs Moduli (GPa) = 76.05274 60.50294 24.48629
#
# Poissons Ratio (x) = 0.45671 0.05352
# Poissons Ratio (y) = 0.57409 0.17564
# Poissons Ratio (z) = 0.16622 0.43398
#
# Static dielectric constant tensor:
#      x y z
#    x 3.378430 0.000000 0.000000 
#    y 0.000000 3.416140 0.000000 
#    z 0.000000 0.000000 3.184930 
# 
# 
# High freq. dielectric constant tensor:
#      x y z
#    x 1.727870 0.000000 0.000000 
#    y 0.000000 1.732490 0.000000 
#    z 0.000000 0.000000 1.697440 
# 
# From -- ./inp_files/19310.got.cif
#   From: 2010.03.12/outbox.cif.g09.slc.cpg/sg59_10_cif.got.tgz:19310.got - 2010.04.16 16:29:54.
