data_PCOD8239396
_publ_section_title
;
Structure prediction by ZEFSAII (Michael W. Deem and Ramdas Pophale) SiO2 
 PCOD8239396
Probable space group: P M M N
;
_chemical_formula_sum "Si O2"
_cell_formula_units_Z 64
_cell_length_a 8.603109
_cell_length_b 19.216447
_cell_length_c 21.575528
_cell_angle_alpha 90.000000
_cell_angle_beta 90.000000
_cell_angle_gamma 90.000000
_cell_volume 3566.891924
_symmetry_space_group_name_H-M "P M M N"
_symmetry_group_IT_number 59
_space_group.IT_coordinate_system_code '2'
_symmetry_cell_setting 'orthorhombic'
loop_
_space_group_symop_operation_xyz
x,y,z
1/2-x,1/2-y,z
1/2+x,-y,-z
-x,1/2+y,-z
-x,-y,-z
1/2+x,1/2+y,-z
1/2-x,y,z
x,1/2-y,z
loop_
_atom_site_type_symbol
_atom_site_label
_atom_site_fract_x
_atom_site_fract_y
_atom_site_fract_z
Si Si1 0.929945 0.636264 0.226775
Si Si2 0.429763 0.496985 0.185511
Si Si3 0.565709 0.094475 0.651763
Si Si4 0.567055 0.173004 0.395993
Si Si5 0.065469 0.671771 0.467705
Si Si6 0.927534 0.559115 0.688136
Si Si7 0.569441 0.326418 0.895815
Si Si8 0.566257 0.970635 0.063156
O O1 0.750000 0.656852 0.224592
O O2 0.954734 0.556624 0.208050
O O3 0.994793 0.646276 0.296345
O O4 0.022478 0.681723 0.176415
O O5 0.250000 0.522476 0.184516
O O6 0.446722 0.435642 0.236618
O O7 0.487238 0.479893 0.116087
O O8 0.750000 0.099535 0.657415
O O9 0.501391 0.119478 0.584937
O O10 0.510782 0.015110 0.662772
O O11 0.750000 0.177885 0.399317
O O12 0.499468 0.250000 0.381137
O O13 0.505793 0.148084 0.463959
O O14 0.523201 0.120833 0.341815
O O15 0.250000 0.670302 0.465644
O O16 0.006356 0.750000 0.454028
O O17 0.750000 0.568938 0.668409
O O18 0.750000 0.345409 0.901288
O O19 0.536076 0.250000 0.926372
O O20 0.474851 0.388619 0.929004
O O21 0.750000 0.979660 0.065242
O O22 0.500000 0.000000 0.000000
#
# Coordination Sequence:
#
# PCOD8239396 Si02
#       8
#     8   8   8   8   8   8   8   8
#     4  10  18  28  44  68  98 128 159 197 242 289
#     4   9  17  32  51  72  99 126 158 197 235 282
#     4   9  17  30  46  66  94 126 162 200 239 290
#     4   9  18  32  49  68  89 117 158 205 250 300
#     4   8  15  29  47  64  85 119 161 201 242 292
#     4   9  18  30  47  71  97 124 153 195 247 291
#     4  10  20  34  52  74 102 137 176 213 248 290
#     4  11  21  34  55  81 109 140 173 206 245 293
#
# _framework density 17.942793000000002
#
# number of rings (size 3 to 8) (size 9 to 14) (size 15 to 20)
#    0.000    2.625    0.000    6.000    0.000    4.750 
#    0.000    1.875    0.000    1.500    0.000    3.500 
#    0.000    0.000    0.000    0.000    0.000    0.000 
#
# Total GULP energy -792930.904019 kJ/mol
# GULP energy per Si atom -12389.545375 kJ/mol
# Density = 1.790195 g / cm^3
# Si number density = 17.942793 Si / 1000 Ang^3
#
#
#
# Elastic Constant Matrix: (Units=GPa)
#
#
# Indices 1 2 3 4 5 6 
#
# 1 56.1080 20.8660 29.1697 0.0000 0.0000 0.0000
# 2 20.8660 77.5711 61.6420 0.0000 0.0000 0.0000
# 3 29.1697 61.6420 141.0442 0.0000 0.0000 0.0000
# 4 0.0000 0.0000 0.0000 19.0648 0.0000 0.0000
# 5 0.0000 0.0000 0.0000 0.0000 25.5965 0.0000
# 6 0.0000 0.0000 0.0000 0.0000 0.0000 20.1241
#
#
#
# Elastic Compliance Matrix: (Units=1/GPa)
#
#
# Indices 1 2 3 4 5 6 
#
# 1 0.020503 -0.003287 -0.002804 0.000000 0.000000 0.000000
# 2 -0.003287 0.020278 -0.008182 0.000000 0.000000 0.000000
# 3 -0.002804 -0.008182 0.011246 0.000000 0.000000 0.000000
# 4 0.000000 0.000000 0.000000 0.052453 0.000000 0.000000
# 5 0.000000 0.000000 0.000000 0.000000 0.039068 0.000000
# 6 0.000000 0.000000 0.000000 0.000000 0.000000 0.049692
#
#
# Mechanical properties :
#
#
# Convention : Reuss Voigt Hill
#
# Bulk Modulus (GPa) = 42.58937 55.34208 48.96573
# Shear Modulus (GPa) = 21.77590 23.82679 22.80134
#
# Velocity S-wave (km/s) = 3.48750 3.64803 3.56867
# Velocity P-wave (km/s) = 6.32492 6.97530 6.65805
#
# Compressibility (1/GPa) = 0.02348003
#
# Stress axis : x y z
#
# Youngs Moduli (GPa) = 48.77388 49.31506 88.92191
#
# Poissons Ratio (x) = 0.16211 0.24930
# Poissons Ratio (y) = 0.16033 0.72759
# Poissons Ratio (z) = 0.13674 0.40351
#
# Static dielectric constant tensor:
#      x y z
#    x 3.156610 0.000000 0.000000 
#    y 0.000000 3.183250 0.000000 
#    z 0.000000 0.000000 3.667080 
# 
# 
# High freq. dielectric constant tensor:
#      x y z
#    x 1.684710 0.000000 0.000000 
#    y 0.000000 1.666000 0.000000 
#    z 0.000000 0.000000 1.694140 
# 
# From -- ./inp_files/29759.got.cif
#   From: 2010.03.12/outbox.cif.g09.slc.cpg/sg59_15_cif.got.tgz:29759.got - 2010.04.16 16:29:54.
