data_PCOD8239427
_publ_section_title
;
Structure prediction by ZEFSAII (Michael W. Deem and Ramdas Pophale) SiO2 
 PCOD8239427
Probable space group: P M M N
;
_chemical_formula_sum "Si O2"
_cell_formula_units_Z 64
_cell_length_a 9.199581
_cell_length_b 18.649548
_cell_length_c 20.884847
_cell_angle_alpha 90.000000
_cell_angle_beta 90.000000
_cell_angle_gamma 90.000000
_cell_volume 3583.172003
_symmetry_space_group_name_H-M "P M M N"
_symmetry_group_IT_number 59
_space_group.IT_coordinate_system_code '2'
_symmetry_cell_setting 'orthorhombic'
loop_
_space_group_symop_operation_xyz
x,y,z
1/2-x,1/2-y,z
1/2+x,-y,-z
-x,1/2+y,-z
-x,-y,-z
1/2+x,1/2+y,-z
1/2-x,y,z
x,1/2-y,z
loop_
_atom_site_type_symbol
_atom_site_label
_atom_site_fract_x
_atom_site_fract_y
_atom_site_fract_z
Si Si1 0.077444 0.922816 0.123413
Si Si2 0.088674 0.584980 0.367718
Si Si3 0.579634 0.425185 0.493134
Si Si4 0.586179 0.586372 0.627240
Si Si5 0.912471 0.585186 0.248864
Si Si6 0.921845 0.170228 0.997332
Si Si7 0.910768 0.085549 0.253030
Si Si8 0.921987 0.072024 0.112633
O O1 0.250000 0.931010 0.130803
O O2 0.031590 0.867597 0.068276
O O3 0.011704 0.891210 0.189175
O O4 0.009959 0.998861 0.104617
O O5 0.250000 0.607317 0.345752
O O6 0.056700 0.616594 0.439094
O O7 0.078793 0.499202 0.371799
O O8 0.977703 0.616484 0.315290
O O9 0.500000 0.500000 0.500000
O O10 0.750000 0.437737 0.479411
O O11 0.507024 0.383436 0.433181
O O12 0.750000 0.614811 0.620837
O O13 0.520291 0.616734 0.693783
O O14 0.750000 0.615868 0.240191
O O15 0.910956 0.500057 0.253057
O O16 0.750000 0.174879 0.001950
O O17 0.989938 0.250000 0.999082
O O18 0.979479 0.125409 0.058025
O O19 0.750000 0.114203 0.269851
O O20 0.956349 0.109460 0.181299
O O21 0.750000 0.054699 0.107260
#
# Coordination Sequence:
#
# PCOD8239427 Si02
#       8
#     8   8   8   8   8   8   8   8
#     4  10  18  28  46  68  89 114 144 181 220 260
#     4   8  14  22  31  46  69  98 134 173 211 250
#     4   9  15  21  29  42  64  96 132 169 206 247
#     4   9  15  21  30  45  67  97 132 169 206 246
#     4   9  16  25  38  55  77 105 138 177 215 253
#     4   9  18  32  49  69  91 115 144 178 218 263
#     4   8  14  23  35  52  73  99 132 170 210 247
#     4   9  17  30  48  67  87 113 146 183 219 259
#
# _framework density 17.861267999999999
#
# number of rings (size 3 to 8) (size 9 to 14) (size 15 to 20)
#    0.000    3.125    0.000    3.375    0.000    6.500 
#    0.000    0.625    0.000    3.375    0.000    0.000 
#    0.000    0.000    0.000    1.125    0.000   24.750 
#
# Total GULP energy -793093.438418 kJ/mol
# GULP energy per Si atom -12392.084975 kJ/mol
# Density = 1.782062 g / cm^3
# Si number density = 17.861268 Si / 1000 Ang^3
#
#
#
# Elastic Constant Matrix: (Units=GPa)
#
#
# Indices 1 2 3 4 5 6 
#
# 1 112.9954 24.0558 80.8203 0.0000 0.0000 0.0000
# 2 24.0558 34.4106 35.7382 0.0000 0.0000 0.0000
# 3 80.8203 35.7382 175.1620 0.0000 0.0000 0.0000
# 4 0.0000 0.0000 0.0000 0.2082 0.0000 0.0000
# 5 0.0000 0.0000 0.0000 0.0000 30.9981 0.0000
# 6 0.0000 0.0000 0.0000 0.0000 0.0000 6.7257
#
#
#
# Elastic Compliance Matrix: (Units=1/GPa)
#
#
# Indices 1 2 3 4 5 6 
#
# 1 0.013588 -0.003791 -0.005496 0.000000 0.000000 0.000000
# 2 -0.003791 0.037932 -0.005990 0.000000 0.000000 0.000000
# 3 -0.005496 -0.005990 0.009467 0.000000 0.000000 0.000000
# 4 0.000000 0.000000 0.000000 4.803490 0.000000 0.000000
# 5 0.000000 0.000000 0.000000 0.000000 0.032260 0.000000
# 6 0.000000 0.000000 0.000000 0.000000 0.000000 0.148684
#
#
# Mechanical properties :
#
#
# Convention : Reuss Voigt Hill
#
# Bulk Modulus (GPa) = 32.85911 67.08851 49.97381
# Shear Modulus (GPa) = 0.98307 19.71663 10.34985
#
# Velocity S-wave (km/s) = 0.74269 3.32607 2.40980
# Velocity P-wave (km/s) = 4.37861 7.23828 5.98185
#
# Compressibility (1/GPa) = 0.03043296
#
# Stress axis : x y z
#
# Youngs Moduli (GPa) = 73.59374 26.36280 105.62914
#
# Poissons Ratio (x) = 0.09994 0.58055
# Poissons Ratio (y) = 0.27899 0.63273
# Poissons Ratio (z) = 0.40448 0.15792
#
# Static dielectric constant tensor:
#      x y z
#    x 3.364800 0.000000 0.000000 
#    y 0.000000 2.634590 0.000000 
#    z 0.000000 0.000000 3.957910 
# 
# 
# High freq. dielectric constant tensor:
#      x y z
#    x 1.688930 0.000000 0.000000 
#    y 0.000000 1.600750 0.000000 
#    z 0.000000 0.000000 1.719130 
# 
# From -- ./inp_files/29744.got.cif
#   From: 2010.03.12/outbox.cif.g09.slc.cpg/sg59_15_cif.got.tgz:29744.got - 2010.04.16 16:29:54.
