data_PCOD8239466
_publ_section_title
;
Structure prediction by ZEFSAII (Michael W. Deem and Ramdas Pophale) SiO2 
 PCOD8239466
Probable space group: P M M N
;
_chemical_formula_sum "Si O2"
_cell_formula_units_Z 64
_cell_length_a 9.368833
_cell_length_b 14.370144
_cell_length_c 27.886289
_cell_angle_alpha 90.000000
_cell_angle_beta 90.000000
_cell_angle_gamma 90.000000
_cell_volume 3754.372341
_symmetry_space_group_name_H-M "P M M N"
_symmetry_group_IT_number 59
_space_group.IT_coordinate_system_code '2'
_symmetry_cell_setting 'orthorhombic'
loop_
_space_group_symop_operation_xyz
x,y,z
1/2-x,1/2-y,z
1/2+x,-y,-z
-x,1/2+y,-z
-x,-y,-z
1/2+x,1/2+y,-z
1/2-x,y,z
x,1/2-y,z
loop_
_atom_site_type_symbol
_atom_site_label
_atom_site_fract_x
_atom_site_fract_y
_atom_site_fract_z
Si Si1 0.081659 0.479051 0.114367
Si Si2 0.585212 0.145768 0.569387
Si Si3 0.416167 0.357180 0.920910
Si Si4 0.915458 0.537153 0.618956
Si Si5 0.917662 0.142918 0.300383
Si Si6 0.580486 0.852709 0.971245
Si Si7 0.913917 0.856675 0.794873
Si Si8 0.085816 0.357233 0.476396
O O1 0.250000 0.493958 0.111152
O O2 0.020638 0.424305 0.067969
O O3 0.039175 0.422015 0.161497
O O4 0.005474 0.579222 0.115771
O O5 0.750000 0.144772 0.554740
O O6 0.536500 0.250000 0.585139
O O7 0.502194 0.110434 0.522602
O O8 0.558313 0.073969 0.613097
O O9 0.250000 0.378888 0.914332
O O10 0.448853 0.250000 0.908741
O O11 0.466832 0.381067 0.975131
O O12 0.750000 0.559672 0.630564
O O13 0.963805 0.585081 0.569623
O O14 0.013999 0.574577 0.661002
O O15 0.750000 0.124113 0.297738
O O16 0.951265 0.250000 0.314090
O O17 0.985415 0.117872 0.249365
O O18 0.750000 0.849104 0.968605
O O19 0.520067 0.750000 0.959212
O O20 0.750000 0.874669 0.779918
O O21 0.934900 0.750000 0.811179
O O22 0.250000 0.376366 0.488331
O O23 0.055774 0.250000 0.464541
#
# Coordination Sequence:
#
# PCOD8239466 Si02
#       8
#     8   8   8   8   8   8   8   8
#     4  10  18  28  48  74  94 118 157 200 235 270
#     4   9  18  31  46  67  96 128 161 196 231 267
#     4   9  18  31  45  63  93 133 166 191 228 276
#     4  10  19  31  49  70  94 127 162 194 232 278
#     4  10  21  35  51  73  98 121 148 187 234 281
#     4   8  14  26  44  67  96 127 158 191 229 278
#     4   9  18  33  52  73  97 123 149 181 229 287
#     4   9  17  28  43  66  95 126 160 195 231 274
#
# _framework density 17.046790999999999
#
# number of rings (size 3 to 8) (size 9 to 14) (size 15 to 20)
#    0.000    2.750    0.000    2.625    0.000    4.500 
#    0.000    1.250    0.000    2.625    0.000    1.750 
#    0.000    0.000    0.000    0.000    0.000    0.000 
#
# Total GULP energy -793534.458625 kJ/mol
# GULP energy per Si atom -12398.975916 kJ/mol
# Density = 1.700799 g / cm^3
# Si number density = 17.046791 Si / 1000 Ang^3
#
#
#
# Elastic Constant Matrix: (Units=GPa)
#
#
# Indices 1 2 3 4 5 6 
#
# 1 60.6816 49.7242 56.0381 0.0000 0.0000 0.0000
# 2 49.7242 104.2126 72.5326 0.0000 0.0000 0.0000
# 3 56.0381 72.5326 102.2453 0.0000 0.0000 0.0000
# 4 0.0000 0.0000 0.0000 27.9549 0.0000 0.0000
# 5 0.0000 0.0000 0.0000 0.0000 25.5133 0.0000
# 6 0.0000 0.0000 0.0000 0.0000 0.0000 25.7515
#
#
#
# Elastic Compliance Matrix: (Units=1/GPa)
#
#
# Indices 1 2 3 4 5 6 
#
# 1 0.035607 -0.006730 -0.014742 0.000000 0.000000 0.000000
# 2 -0.006730 0.020226 -0.010660 0.000000 0.000000 0.000000
# 3 -0.014742 -0.010660 0.025422 0.000000 0.000000 0.000000
# 4 0.000000 0.000000 0.000000 0.035772 0.000000 0.000000
# 5 0.000000 0.000000 0.000000 0.000000 0.039195 0.000000
# 6 0.000000 0.000000 0.000000 0.000000 0.000000 0.038833
#
#
# Mechanical properties :
#
#
# Convention : Reuss Voigt Hill
#
# Bulk Modulus (GPa) = 58.84694 69.30325 64.07510
# Shear Modulus (GPa) = 18.86915 21.76691 20.31803
#
# Velocity S-wave (km/s) = 3.33062 3.57724 3.45613
# Velocity P-wave (km/s) = 7.02755 7.60297 7.32092
#
# Compressibility (1/GPa) = 0.01699324
#
# Stress axis : x y z
#
# Youngs Moduli (GPa) = 28.08407 49.44066 39.33561
#
# Poissons Ratio (x) = 0.33271 0.57987
# Poissons Ratio (y) = 0.18899 0.41933
# Poissons Ratio (z) = 0.41400 0.52705
#
# Static dielectric constant tensor:
#      x y z
#    x 3.014960 0.000000 0.000000 
#    y 0.000000 3.320110 0.000000 
#    z 0.000000 0.000000 3.051500 
# 
# 
# High freq. dielectric constant tensor:
#      x y z
#    x 1.643970 0.000000 0.000000 
#    y 0.000000 1.661480 0.000000 
#    z 0.000000 0.000000 1.636710 
# 
# From -- ./inp_files/31661.got.cif
#   From: 2010.03.12/outbox.cif.g09.slc.cpg/sg59_16_cif.got.tgz:31661.got - 2010.04.16 16:29:54.
