data_PCOD8239873
_publ_section_title
;
Structure prediction by ZEFSAII (Michael W. Deem and Ramdas Pophale) SiO2 
 PCOD8239873
Probable space group: P M M N
;
_chemical_formula_sum "Si O2"
_cell_formula_units_Z 64
_cell_length_a 8.956744
_cell_length_b 29.232409
_cell_length_c 12.398454
_cell_angle_alpha 90.000000
_cell_angle_beta 90.000000
_cell_angle_gamma 90.000000
_cell_volume 3246.252544
_symmetry_space_group_name_H-M "P M M N"
_symmetry_group_IT_number 59
_space_group.IT_coordinate_system_code '2'
_symmetry_cell_setting 'orthorhombic'
loop_
_space_group_symop_operation_xyz
x,y,z
1/2-x,1/2-y,z
1/2+x,-y,-z
-x,1/2+y,-z
-x,-y,-z
1/2+x,1/2+y,-z
1/2-x,y,z
x,1/2-y,z
loop_
_atom_site_type_symbol
_atom_site_label
_atom_site_fract_x
_atom_site_fract_y
_atom_site_fract_z
Si Si1 0.422846 0.861472 0.293992
Si Si2 0.425962 0.139072 0.316663
Si Si3 0.418132 0.299744 0.117329
Si Si4 0.078386 0.657948 0.054683
Si Si5 0.076420 0.947915 0.768085
Si Si6 0.072374 0.697215 0.494915
Si Si7 0.575474 0.569432 0.989118
Si Si8 0.578170 0.950840 0.226955
O O1 0.250000 0.870299 0.313125
O O2 0.454490 0.835755 0.181088
O O3 0.485100 0.827745 0.385969
O O4 0.494891 0.911989 0.295977
O O5 0.250000 0.137336 0.338653
O O6 0.467009 0.162582 0.204011
O O7 0.489129 0.087400 0.309198
O O8 0.503329 0.168471 0.408590
O O9 0.250000 0.308924 0.077004
O O10 0.429128 0.250000 0.173406
O O11 0.531784 0.297846 0.014713
O O12 0.250000 0.643898 0.036343
O O13 0.964752 0.622326 0.000657
O O14 0.250000 0.934366 0.769956
O O15 0.017267 0.950743 0.890184
O O16 0.053336 0.999201 0.719834
O O17 0.250000 0.695941 0.503837
O O18 0.016231 0.750000 0.495664
O O19 0.750000 0.563082 0.964216
O O20 0.523683 0.546391 0.101969
O O21 0.750000 0.936326 0.226598
#
# Coordination Sequence:
#
# PCOD8239873 Si02
#       8
#     8   8   8   8   8   8   8   8
#     4   9  20  38  60  86 116 149 190 240 288 339
#     4  11  23  39  59  84 114 150 193 241 290 343
#     4  10  21  36  53  76 111 149 183 229 290 349
#     4  10  19  32  53  82 114 149 187 229 279 340
#     4  11  21  34  54  83 117 154 196 237 282 338
#     4  10  22  42  66  88 112 146 190 242 296 346
#     4  10  18  31  51  78 115 157 193 230 276 328
#     4   9  20  35  54  83 119 156 194 237 282 335
#
# _framework density 19.715039999999998
#
# number of rings (size 3 to 8) (size 9 to 14) (size 15 to 20)
#    0.000    2.000    1.250    2.250    0.000    4.500 
#    0.000    1.875    0.000    0.000    0.000    0.000 
#    0.000    0.000    0.000    0.000    0.000    0.000 
#
# Total GULP energy -793304.713568 kJ/mol
# GULP energy per Si atom -12395.386150 kJ/mol
# Density = 1.967017 g / cm^3
# Si number density = 19.715040 Si / 1000 Ang^3
#
#
#
# Elastic Constant Matrix: (Units=GPa)
#
#
# Indices 1 2 3 4 5 6 
#
# 1 47.7500 35.4938 37.9957 0.0000 0.0000 0.0000
# 2 35.4938 120.4533 61.6601 0.0000 0.0000 0.0000
# 3 37.9957 61.6601 98.6442 0.0000 0.0000 0.0000
# 4 0.0000 0.0000 0.0000 11.9341 0.0000 0.0000
# 5 0.0000 0.0000 0.0000 0.0000 27.4915 0.0000
# 6 0.0000 0.0000 0.0000 0.0000 0.0000 29.4580
#
#
#
# Elastic Compliance Matrix: (Units=1/GPa)
#
#
# Indices 1 2 3 4 5 6 
#
# 1 0.031816 -0.004561 -0.009403 0.000000 0.000000 0.000000
# 2 -0.004561 0.012862 -0.006283 0.000000 0.000000 0.000000
# 3 -0.009403 -0.006283 0.017687 0.000000 0.000000 0.000000
# 4 0.000000 0.000000 0.000000 0.083793 0.000000 0.000000
# 5 0.000000 0.000000 0.000000 0.000000 0.036375 0.000000
# 6 0.000000 0.000000 0.000000 0.000000 0.000000 0.033947
#
#
# Mechanical properties :
#
#
# Convention : Reuss Voigt Hill
#
# Bulk Modulus (GPa) = 45.72685 59.68298 52.70491
# Shear Modulus (GPa) = 18.92041 22.55658 20.73850
#
# Velocity S-wave (km/s) = 3.10125 3.38617 3.24684
# Velocity P-wave (km/s) = 6.00566 6.75476 6.39119
#
# Compressibility (1/GPa) = 0.02186899
#
# Stress axis : x y z
#
# Youngs Moduli (GPa) = 31.43115 77.74643 56.53932
#
# Poissons Ratio (x) = 0.35463 0.53167
# Poissons Ratio (y) = 0.14337 0.35523
# Poissons Ratio (z) = 0.29556 0.48848
#
# Static dielectric constant tensor:
#      x y z
#    x 3.523800 0.000000 0.000000 
#    y 0.000000 3.703940 0.000000 
#    z 0.000000 0.000000 3.554270 
# 
# 
# High freq. dielectric constant tensor:
#      x y z
#    x 1.767140 0.000000 0.000000 
#    y 0.000000 1.776350 0.000000 
#    z 0.000000 0.000000 1.748120 
# 
# From -- ./inp_files/15083.got.cif
#   From: 2010.03.12/outbox.cif.g09.slc.cpg/sg59_8_cif.got.tgz:15083.got - 2010.04.16 16:29:54.
