data_PCOD8239821
_publ_section_title
;
Structure prediction by ZEFSAII (Michael W. Deem and Ramdas Pophale) SiO2 
 PCOD8239821
Probable space group: P M M N
;
_chemical_formula_sum "Si O2"
_cell_formula_units_Z 64
_cell_length_a 9.077464
_cell_length_b 23.295284
_cell_length_c 18.963550
_cell_angle_alpha 90.000000
_cell_angle_beta 90.000000
_cell_angle_gamma 90.000000
_cell_volume 4010.072142
_symmetry_space_group_name_H-M "P M M N"
_symmetry_group_IT_number 59
_space_group.IT_coordinate_system_code '2'
_symmetry_cell_setting 'orthorhombic'
loop_
_space_group_symop_operation_xyz
x,y,z
1/2-x,1/2-y,z
1/2+x,-y,-z
-x,1/2+y,-z
-x,-y,-z
1/2+x,1/2+y,-z
1/2-x,y,z
x,1/2-y,z
loop_
_atom_site_type_symbol
_atom_site_label
_atom_site_fract_x
_atom_site_fract_y
_atom_site_fract_z
Si Si1 0.580861 0.026311 0.097190
Si Si2 0.420751 0.002331 0.747580
Si Si3 0.578205 0.316724 0.891997
Si Si4 0.923803 0.687237 0.389465
Si Si5 0.421204 0.418800 0.526121
Si Si6 0.078444 0.016823 0.390045
Si Si7 0.924869 0.633379 0.243453
Si Si8 0.578227 0.909633 0.019645
O O1 0.750000 0.040409 0.078955
O O2 0.549004 0.031976 0.180261
O O3 0.544937 0.961151 0.074108
O O4 0.478116 0.071974 0.057651
O O5 0.250000 0.002471 0.727643
O O6 0.506141 0.969518 0.685263
O O7 0.476917 0.067439 0.756133
O O8 0.750000 0.331393 0.886788
O O9 0.551296 0.250000 0.908891
O O10 0.502006 0.332214 0.818675
O O11 0.507336 0.353192 0.955366
O O12 0.750000 0.692755 0.384183
O O13 0.994946 0.750000 0.402253
O O14 0.966991 0.646347 0.455161
O O15 0.981073 0.661288 0.316065
O O16 0.250000 0.430322 0.543507
O O17 0.454931 0.430610 0.443853
O O18 0.513466 0.459143 0.577301
O O19 0.250000 0.007749 0.378624
O O20 0.750000 0.637816 0.232309
O O21 0.750000 0.895136 0.015556
#
# Coordination Sequence:
#
# PCOD8239821 Si02
#       8
#     8   8   8   8   8   8   8   8
#     4   9  18  32  49  70  95 123 154 191 242 289
#     4  10  18  31  49  69  96 126 153 188 232 283
#     4  11  23  35  47  67  98 133 164 196 233 274
#     4   9  16  27  46  67  87 119 160 196 229 267
#     4   9  17  31  45  62  91 121 154 196 236 279
#     4  10  19  28  44  67  91 121 155 193 235 279
#     4  10  18  31  48  67  92 125 164 197 225 270
#     4  10  19  33  51  71  93 122 159 199 235 276
#
# _framework density 15.959813
#
# number of rings (size 3 to 8) (size 9 to 14) (size 15 to 20)
#    0.000    2.250    2.500    1.500    0.000    3.500 
#    0.000    0.000    0.000    0.375    0.000    0.875 
#    0.000    3.000    0.000    0.000    0.000    0.000 
#
# Total GULP energy -793572.372679 kJ/mol
# GULP energy per Si atom -12399.568323 kJ/mol
# Density = 1.592349 g / cm^3
# Si number density = 15.959813 Si / 1000 Ang^3
#
#
#
# Elastic Constant Matrix: (Units=GPa)
#
#
# Indices 1 2 3 4 5 6 
#
# 1 60.3796 35.4567 46.2618 0.0000 0.0000 0.0000
# 2 35.4567 87.8651 55.1465 0.0000 0.0000 0.0000
# 3 46.2618 55.1465 112.8438 0.0000 0.0000 0.0000
# 4 0.0000 0.0000 0.0000 23.4457 0.0000 0.0000
# 5 0.0000 0.0000 0.0000 0.0000 28.9134 0.0000
# 6 0.0000 0.0000 0.0000 0.0000 0.0000 18.0565
#
#
#
# Elastic Compliance Matrix: (Units=1/GPa)
#
#
# Indices 1 2 3 4 5 6 
#
# 1 0.025837 -0.005450 -0.007929 0.000000 0.000000 0.000000
# 2 -0.005450 0.017566 -0.006350 0.000000 0.000000 0.000000
# 3 -0.007929 -0.006350 0.015216 0.000000 0.000000 0.000000
# 4 0.000000 0.000000 0.000000 0.042652 0.000000 0.000000
# 5 0.000000 0.000000 0.000000 0.000000 0.034586 0.000000
# 6 0.000000 0.000000 0.000000 0.000000 0.000000 0.055382
#
#
# Mechanical properties :
#
#
# Convention : Reuss Voigt Hill
#
# Bulk Modulus (GPa) = 52.18979 59.42427 55.80703
# Shear Modulus (GPa) = 21.08966 22.36470 21.72718
#
# Velocity S-wave (km/s) = 3.63908 3.74747 3.69367
# Velocity P-wave (km/s) = 7.10134 7.48594 7.29617
#
# Compressibility (1/GPa) = 0.01916084
#
# Stress axis : x y z
#
# Youngs Moduli (GPa) = 38.70381 56.92885 65.72156
#
# Poissons Ratio (x) = 0.31025 0.52111
# Poissons Ratio (y) = 0.21093 0.41734
# Poissons Ratio (z) = 0.30688 0.36151
#
# Static dielectric constant tensor:
#      x y z
#    x 2.977060 0.000000 0.000000 
#    y 0.000000 3.020880 0.000000 
#    z 0.000000 0.000000 3.090460 
# 
# 
# High freq. dielectric constant tensor:
#      x y z
#    x 1.607810 0.000000 0.000000 
#    y 0.000000 1.587580 0.000000 
#    z 0.000000 0.000000 1.610880 
# 
# From -- ./inp_files/26483.got.cif
#   From: 2010.03.12/outbox.cif.g09.slc.cpg/sg59_14_cif.got.tgz:26483.got - 2010.04.16 16:29:54.
