data_PCOD8239788
_publ_section_title
;
Structure prediction by ZEFSAII (Michael W. Deem and Ramdas Pophale) SiO2 
 PCOD8239788
Probable space group: P M M N
;
_chemical_formula_sum "Si O2"
_cell_formula_units_Z 56
_cell_length_a 18.620527
_cell_length_b 8.919038
_cell_length_c 20.873853
_cell_angle_alpha 90.000000
_cell_angle_beta 90.000000
_cell_angle_gamma 90.000000
_cell_volume 3466.670807
_symmetry_space_group_name_H-M "P M M N"
_symmetry_group_IT_number 59
_space_group.IT_coordinate_system_code '2'
_symmetry_cell_setting 'orthorhombic'
loop_
_space_group_symop_operation_xyz
x,y,z
1/2-x,1/2-y,z
1/2+x,-y,-z
-x,1/2+y,-z
-x,-y,-z
1/2+x,1/2+y,-z
1/2-x,y,z
x,1/2-y,z
loop_
_atom_site_type_symbol
_atom_site_label
_atom_site_fract_x
_atom_site_fract_y
_atom_site_fract_z
Si Si1 0.332238 0.577318 0.997704
Si Si2 0.331672 0.424871 0.132826
Si Si3 0.535075 0.578784 0.316640
Si Si4 0.037787 0.573068 0.187193
Si Si5 0.458196 0.426873 0.941543
Si Si6 0.169390 0.078545 0.612267
Si Si7 0.458298 0.573315 0.558056
O O1 0.250000 0.557473 0.978171
O O2 0.355739 0.750000 0.000767
O O3 0.377178 0.490268 0.943596
O O4 0.348890 0.508749 0.066928
O O5 0.250000 0.455705 0.155133
O O6 0.345726 0.250000 0.122205
O O7 0.385040 0.490601 0.186618
O O8 0.509611 0.750000 0.326140
O O9 0.506452 0.516695 0.249143
O O10 0.622998 0.569013 0.321108
O O11 0.503337 0.479968 0.375464
O O12 0.050604 0.750000 0.188684
O O13 0.992520 0.523188 0.125412
O O14 0.457897 0.250000 0.949528
O O15 0.500000 0.500000 0.000000
O O16 0.250000 0.014063 0.622365
O O17 0.173206 0.250000 0.588503
O O18 0.125275 0.983125 0.558796
O O19 0.500000 0.500000 0.500000
O O20 0.461145 0.750000 0.551290
#
# Coordination Sequence:
#
# PCOD8239788 Si02
#       7
#     8   8   8   8   8   8   8
#     4  10  20  34  50  68  93 126 165 210 260 309
#     4  10  20  32  49  72  95 123 163 210 259 312
#     4   8  17  33  50  74 103 134 169 206 246 297
#     4  10  20  34  52  73 100 131 168 208 253 306
#     4  11  21  32  49  74  98 128 166 210 257 307
#     4   8  15  30  52  76 104 137 170 205 246 293
#     4  10  18  30  51  79 107 136 169 206 244 288
#
# _framework density 16.153827
#
# number of rings (size 3 to 8) (size 9 to 14) (size 15 to 20)
#    0.857    1.571    1.429    2.143    0.000    3.143 
#    0.000    0.714    0.000    3.429    0.000    4.000 
#    0.000    0.000    0.000    0.000    0.000    0.000 
#
# Total GULP energy -693957.514919 kJ/mol
# GULP energy per Si atom -12392.098481 kJ/mol
# Density = 1.611706 g / cm^3
# Si number density = 16.153827 Si / 1000 Ang^3
#
#
#
# Elastic Constant Matrix: (Units=GPa)
#
#
# Indices 1 2 3 4 5 6 
#
# 1 117.0887 49.8112 64.8927 0.0000 0.0000 0.0000
# 2 49.8112 83.4647 50.2305 0.0000 0.0000 0.0000
# 3 64.8927 50.2305 110.4316 0.0000 0.0000 0.0000
# 4 0.0000 0.0000 0.0000 22.9233 0.0000 0.0000
# 5 0.0000 0.0000 0.0000 0.0000 24.5984 0.0000
# 6 0.0000 0.0000 0.0000 0.0000 0.0000 28.9709
#
#
#
# Elastic Compliance Matrix: (Units=1/GPa)
#
#
# Indices 1 2 3 4 5 6 
#
# 1 0.013858 -0.004640 -0.006033 0.000000 0.000000 0.000000
# 2 -0.004640 0.018050 -0.005484 0.000000 0.000000 0.000000
# 3 -0.006033 -0.005484 0.015095 0.000000 0.000000 0.000000
# 4 0.000000 0.000000 0.000000 0.043624 0.000000 0.000000
# 5 0.000000 0.000000 0.000000 0.000000 0.040653 0.000000
# 6 0.000000 0.000000 0.000000 0.000000 0.000000 0.034517
#
#
# Mechanical properties :
#
#
# Convention : Reuss Voigt Hill
#
# Bulk Modulus (GPa) = 68.07269 71.20595 69.63932
# Shear Modulus (GPa) = 24.62974 25.03525 24.83249
#
# Velocity S-wave (km/s) = 3.90898 3.94102 3.92503
# Velocity P-wave (km/s) = 7.91235 8.05509 7.98404
#
# Compressibility (1/GPa) = 0.01469018
#
# Stress axis : x y z
#
# Youngs Moduli (GPa) = 72.16144 55.40074 66.24747
#
# Poissons Ratio (x) = 0.25703 0.39967
# Poissons Ratio (y) = 0.33480 0.36330
# Poissons Ratio (z) = 0.43534 0.30382
#
# Static dielectric constant tensor:
#      x y z
#    x 3.409540 0.000000 0.000000 
#    y 0.000000 3.095510 0.000000 
#    z 0.000000 0.000000 2.880470 
# 
# 
# High freq. dielectric constant tensor:
#      x y z
#    x 1.620650 0.000000 0.000000 
#    y 0.000000 1.628790 0.000000 
#    z 0.000000 0.000000 1.587110 
# 
# From -- ./inp_files/30876.got.cif
#   From: 2010.03.12/outbox.cif.g09.slc.cpg/sg59_16_cif.got.tgz:30876.got - 2010.04.16 16:29:54.
