data_PCOD8239801
_publ_section_title
;
Structure prediction by ZEFSAII (Michael W. Deem and Ramdas Pophale) SiO2 
 PCOD8239801
Probable space group: P M M N
;
_chemical_formula_sum "Si O2"
_cell_formula_units_Z 64
_cell_length_a 19.482540
_cell_length_b 9.097482
_cell_length_c 19.830539
_cell_angle_alpha 90.000000
_cell_angle_beta 90.000000
_cell_angle_gamma 90.000000
_cell_volume 3514.805523
_symmetry_space_group_name_H-M "P M M N"
_symmetry_group_IT_number 59
_space_group.IT_coordinate_system_code '2'
_symmetry_cell_setting 'orthorhombic'
loop_
_space_group_symop_operation_xyz
x,y,z
1/2-x,1/2-y,z
1/2+x,-y,-z
-x,1/2+y,-z
-x,-y,-z
1/2+x,1/2+y,-z
1/2-x,y,z
x,1/2-y,z
loop_
_atom_site_type_symbol
_atom_site_label
_atom_site_fract_x
_atom_site_fract_y
_atom_site_fract_z
Si Si1 0.099344 0.416964 0.729191
Si Si2 0.590289 0.420195 0.035122
Si Si3 0.442626 0.422264 0.094078
Si Si4 0.922329 0.422447 0.402425
Si Si5 0.170747 0.088969 0.861378
Si Si6 0.444598 0.919053 0.231451
Si Si7 0.170760 0.420944 0.487795
Si Si8 0.574428 0.920235 0.634284
O O1 0.109400 0.250000 0.703249
O O2 0.111261 0.527286 0.667693
O O3 0.154003 0.462562 0.785621
O O4 0.025671 0.437844 0.763057
O O5 0.594409 0.250000 0.016570
O O6 0.520619 0.459971 0.074456
O O7 0.649910 0.465545 0.085662
O O8 0.602335 0.511313 0.966591
O O9 0.428786 0.250000 0.100618
O O10 0.420565 0.497573 0.164059
O O11 0.914618 0.250000 0.411247
O O12 0.879232 0.495913 0.461536
O O13 0.002987 0.470899 0.402271
O O14 0.250000 0.109642 0.868443
O O15 0.135232 0.250000 0.874603
O O16 0.421668 0.750000 0.226583
O O17 0.410136 0.989319 0.297842
O O18 0.250000 0.477840 0.490139
O O19 0.168373 0.250000 0.506457
O O20 0.139503 0.448427 0.413687
O O21 0.566865 0.750000 0.654193
#
# Coordination Sequence:
#
# PCOD8239801 Si02
#       8
#     8   8   8   8   8   8   8   8
#     4   9  18  32  49  72 103 136 172 209 248 303
#     4  10  20  32  49  74 103 134 170 213 259 303
#     4  10  19  31  51  76 104 134 166 211 262 309
#     4  10  20  33  53  79 107 136 170 218 269 313
#     4  10  20  34  51  70  99 140 179 212 249 302
#     4  10  18  30  52  79 106 133 166 211 261 310
#     4  10  21  37  56  76 102 139 179 216 258 315
#     4   9  19  35  54  78 107 137 172 216 266 318
#
# _framework density 18.208687999999999
#
# number of rings (size 3 to 8) (size 9 to 14) (size 15 to 20)
#    0.000    2.250    1.250    1.875    0.000    4.000 
#    0.000    1.250    0.000    0.750    0.000    1.750 
#    0.000    0.000    0.000    0.000    0.000    0.000 
#
# Total GULP energy -793535.611818 kJ/mol
# GULP energy per Si atom -12398.993935 kJ/mol
# Density = 1.816724 g / cm^3
# Si number density = 18.208688 Si / 1000 Ang^3
#
#
#
# Elastic Constant Matrix: (Units=GPa)
#
#
# Indices 1 2 3 4 5 6 
#
# 1 50.5866 24.2732 32.1734 0.0000 0.0000 0.0000
# 2 24.2732 78.2627 58.5684 0.0000 0.0000 0.0000
# 3 32.1734 58.5684 107.9747 0.0000 0.0000 0.0000
# 4 0.0000 0.0000 0.0000 34.2714 0.0000 0.0000
# 5 0.0000 0.0000 0.0000 0.0000 15.0675 0.0000
# 6 0.0000 0.0000 0.0000 0.0000 0.0000 18.1091
#
#
#
# Elastic Compliance Matrix: (Units=1/GPa)
#
#
# Indices 1 2 3 4 5 6 
#
# 1 0.025001 -0.003668 -0.005460 0.000000 0.000000 0.000000
# 2 -0.003668 0.022046 -0.010866 0.000000 0.000000 0.000000
# 3 -0.005460 -0.010866 0.016782 0.000000 0.000000 0.000000
# 4 0.000000 0.000000 0.000000 0.029179 0.000000 0.000000
# 5 0.000000 0.000000 0.000000 0.000000 0.066368 0.000000
# 6 0.000000 0.000000 0.000000 0.000000 0.000000 0.055221
#
#
# Mechanical properties :
#
#
# Convention : Reuss Voigt Hill
#
# Bulk Modulus (GPa) = 41.94242 51.87266 46.90754
# Shear Modulus (GPa) = 19.04535 21.61022 20.32779
#
# Velocity S-wave (km/s) = 3.23762 3.44875 3.34485
# Velocity P-wave (km/s) = 6.08774 6.66395 6.38235
#
# Compressibility (1/GPa) = 0.02384221
#
# Stress axis : x y z
#
# Youngs Moduli (GPa) = 39.99898 45.35873 59.58727
#
# Poissons Ratio (x) = 0.16638 0.32534
# Poissons Ratio (y) = 0.14672 0.64745
# Poissons Ratio (z) = 0.21839 0.49285
#
# Static dielectric constant tensor:
#      x y z
#    x 3.108810 0.000000 0.000000 
#    y 0.000000 3.402960 0.000000 
#    z 0.000000 0.000000 3.394900 
# 
# 
# High freq. dielectric constant tensor:
#      x y z
#    x 1.668770 0.000000 0.000000 
#    y 0.000000 1.710030 0.000000 
#    z 0.000000 0.000000 1.713730 
# 
# From -- ./inp_files/28219.got.cif
#   From: 2010.03.12/outbox.cif.g09.slc.cpg/sg59_15_cif.got.tgz:28219.got - 2010.04.16 16:29:54.
