data_PCOD8239257
_publ_section_title
;
Structure prediction by ZEFSAII (Michael W. Deem and Ramdas Pophale) SiO2 
 PCOD8239257
Probable space group: P M M N
;
_chemical_formula_sum "Si O2"
_cell_formula_units_Z 56
_cell_length_a 21.853156
_cell_length_b 9.139757
_cell_length_c 17.708470
_cell_angle_alpha 90.000000
_cell_angle_beta 90.000000
_cell_angle_gamma 90.000000
_cell_volume 3536.957613
_symmetry_space_group_name_H-M "P M M N"
_symmetry_group_IT_number 59
_space_group.IT_coordinate_system_code '2'
_symmetry_cell_setting 'orthorhombic'
loop_
_space_group_symop_operation_xyz
x,y,z
1/2-x,1/2-y,z
1/2+x,-y,-z
-x,1/2+y,-z
-x,-y,-z
1/2+x,1/2+y,-z
1/2-x,y,z
x,1/2-y,z
loop_
_atom_site_type_symbol
_atom_site_label
_atom_site_fract_x
_atom_site_fract_y
_atom_site_fract_z
Si Si1 0.566552 0.083356 0.440208
Si Si2 0.105994 0.584820 0.716724
Si Si3 0.045767 0.920348 0.103497
Si Si4 0.318981 0.422835 0.837397
Si Si5 0.964072 0.920452 0.745135
Si Si6 0.413409 0.079899 0.961877
Si Si7 0.448097 0.582841 0.398494
O O1 0.539243 0.250000 0.432483
O O2 0.617050 0.064327 0.373741
O O3 0.594094 0.063526 0.525449
O O4 0.515488 0.961271 0.426227
O O5 0.119613 0.750000 0.742489
O O6 0.152448 0.481085 0.760046
O O7 0.035808 0.544137 0.735741
O O8 0.060017 0.750000 0.111155
O O9 0.975267 0.951784 0.084017
O O10 0.062144 0.999092 0.181509
O O11 0.088855 0.986718 0.038405
O O12 0.250000 0.481524 0.846553
O O13 0.321044 0.250000 0.831841
O O14 0.357666 0.475403 0.909849
O O15 0.950512 0.750000 0.752889
O O16 0.927507 0.982134 0.671814
O O17 0.407960 0.250000 0.983144
O O18 0.448280 0.750000 0.370411
#
# Coordination Sequence:
#
# PCOD8239257 Si02
#       7
#     8   8   8   8   8   8   8
#     4   8  15  26  37  54  80 111 142 174 208 244
#     4   9  17  28  42  59  82 112 146 179 214 254
#     4  10  18  28  45  65  84 111 146 179 216 265
#     4  10  20  33  47  63  85 113 147 184 220 259
#     4  10  18  27  40  60  88 116 143 176 215 258
#     4   9  18  31  44  61  85 111 141 179 223 263
#     4   9  15  23  37  56  81 111 143 173 204 245
#
# _framework density 15.832815999999999
#
# number of rings (size 3 to 8) (size 9 to 14) (size 15 to 20)
#    0.000    2.714    1.429    2.143    0.000    4.286 
#    0.000    0.000    0.000    0.000    0.000    0.000 
#    0.000    1.143    0.000    8.286    0.000    4.429 
#
# Total GULP energy -694026.768800 kJ/mol
# GULP energy per Si atom -12393.335157 kJ/mol
# Density = 1.579678 g / cm^3
# Si number density = 15.832816 Si / 1000 Ang^3
#
#
#
# Elastic Constant Matrix: (Units=GPa)
#
#
# Indices 1 2 3 4 5 6 
#
# 1 46.8942 17.9727 38.2969 0.0000 0.0000 0.0000
# 2 17.9727 66.1706 60.6716 0.0000 0.0000 0.0000
# 3 38.2969 60.6716 161.0772 0.0000 0.0000 0.0000
# 4 0.0000 0.0000 0.0000 32.8386 0.0000 0.0000
# 5 0.0000 0.0000 0.0000 0.0000 12.5516 0.0000
# 6 0.0000 0.0000 0.0000 0.0000 0.0000 12.3677
#
#
#
# Elastic Compliance Matrix: (Units=1/GPa)
#
#
# Indices 1 2 3 4 5 6 
#
# 1 0.026668 -0.002184 -0.005518 0.000000 0.000000 0.000000
# 2 -0.002184 0.023264 -0.008243 0.000000 0.000000 0.000000
# 3 -0.005518 -0.008243 0.010625 0.000000 0.000000 0.000000
# 4 0.000000 0.000000 0.000000 0.030452 0.000000 0.000000
# 5 0.000000 0.000000 0.000000 0.000000 0.079671 0.000000
# 6 0.000000 0.000000 0.000000 0.000000 0.000000 0.080856
#
#
# Mechanical properties :
#
#
# Convention : Reuss Voigt Hill
#
# Bulk Modulus (GPa) = 34.88397 56.44716 45.66556
# Shear Modulus (GPa) = 17.06592 22.03163 19.54877
#
# Velocity S-wave (km/s) = 3.28667 3.73435 3.51764
# Velocity P-wave (km/s) = 6.04016 7.37043 6.73820
#
# Compressibility (1/GPa) = 0.02866646
#
# Stress axis : x y z
#
# Youngs Moduli (GPa) = 37.49839 42.98484 94.11716
#
# Poissons Ratio (x) = 0.09388 0.51932
# Poissons Ratio (y) = 0.08190 0.77585
# Poissons Ratio (z) = 0.20691 0.35434
#
# Static dielectric constant tensor:
#      x y z
#    x 2.541420 0.000000 0.000000 
#    y 0.000000 3.054120 0.000000 
#    z 0.000000 0.000000 3.379450 
# 
# 
# High freq. dielectric constant tensor:
#      x y z
#    x 1.525250 0.000000 0.000000 
#    y 0.000000 1.618270 0.000000 
#    z 0.000000 0.000000 1.630170 
# 
# From -- ./inp_files/26092.got.cif
#   From: 2010.03.12/outbox.cif.g09.slc.cpg/sg59_14_cif.got.tgz:26092.got - 2010.04.16 16:29:54.
