data_PCOD8239407
_publ_section_title
;
Structure prediction by ZEFSAII (Michael W. Deem and Ramdas Pophale) SiO2 
 PCOD8239407
Probable space group: P M M N
;
_chemical_formula_sum "Si O2"
_cell_formula_units_Z 64
_cell_length_a 9.017454
_cell_length_b 20.161441
_cell_length_c 19.945057
_cell_angle_alpha 90.000000
_cell_angle_beta 90.000000
_cell_angle_gamma 90.000000
_cell_volume 3626.108431
_symmetry_space_group_name_H-M "P M M N"
_symmetry_group_IT_number 59
_space_group.IT_coordinate_system_code '2'
_symmetry_cell_setting 'orthorhombic'
loop_
_space_group_symop_operation_xyz
x,y,z
1/2-x,1/2-y,z
1/2+x,-y,-z
-x,1/2+y,-z
-x,-y,-z
1/2+x,1/2+y,-z
1/2-x,y,z
x,1/2-y,z
loop_
_atom_site_type_symbol
_atom_site_label
_atom_site_fract_x
_atom_site_fract_y
_atom_site_fract_z
Si Si1 0.922887 0.440701 0.907162
Si Si2 0.918251 0.921545 0.740552
Si Si3 0.075503 0.321245 0.151437
Si Si4 0.076323 0.085378 0.037526
Si Si5 0.575425 0.674233 0.486849
Si Si6 0.923772 0.571686 0.377392
Si Si7 0.076498 0.050575 0.771853
Si Si8 0.579891 0.937420 0.588233
O O1 0.750000 0.426287 0.902490
O O2 0.961005 0.516235 0.926059
O O3 0.993484 0.418069 0.836005
O O4 0.993358 0.399172 0.967929
O O5 0.750000 0.945462 0.758681
O O6 0.958885 0.853607 0.776957
O O7 0.934533 0.908206 0.662352
O O8 0.035746 0.973620 0.768466
O O9 0.250000 0.315784 0.140948
O O10 0.997854 0.250000 0.152116
O O11 0.010824 0.361274 0.088901
O O12 0.250000 0.090898 0.023259
O O13 0.750000 0.680506 0.497476
O O14 0.508059 0.750000 0.491483
O O15 0.537788 0.640775 0.414841
O O16 0.511746 0.621339 0.541541
O O17 0.750000 0.556406 0.378940
O O18 0.976967 0.581064 0.300034
O O19 0.997616 0.508675 0.415569
O O20 0.250000 0.060729 0.782804
O O21 0.750000 0.950955 0.567548
#
# Coordination Sequence:
#
# PCOD8239407 Si02
#       8
#     8   8   8   8   8   8   8   8
#     4  10  18  29  47  69  92 117 145 189 238 273
#     4   9  16  28  43  66  95 120 151 187 226 274
#     4   9  16  27  44  64  90 123 153 183 218 262
#     4   9  17  29  44  66  92 118 150 185 222 271
#     4   9  17  30  48  71  98 126 160 203 246 287
#     4   9  18  31  48  70  96 127 161 198 242 289
#     4  10  18  28  45  68  92 119 152 193 237 280
#     4   9  17  28  48  73  97 125 158 199 240 283
#
# _framework density 17.649775999999999
#
# number of rings (size 3 to 8) (size 9 to 14) (size 15 to 20)
#    0.000    2.750    1.250    1.125    0.000    1.500 
#    0.000    2.500    0.000    3.750    0.000    7.000 
#    0.000    0.000    0.000    0.000    0.000    0.000 
#
# Total GULP energy -793010.149016 kJ/mol
# GULP energy per Si atom -12390.783578 kJ/mol
# Density = 1.760960 g / cm^3
# Si number density = 17.649776 Si / 1000 Ang^3
#
#
#
# Elastic Constant Matrix: (Units=GPa)
#
#
# Indices 1 2 3 4 5 6 
#
# 1 36.2643 13.5571 23.9834 0.0000 0.0000 0.0000
# 2 13.5571 86.4052 38.9242 0.0000 0.0000 0.0000
# 3 23.9834 38.9242 107.7084 0.0000 0.0000 0.0000
# 4 0.0000 0.0000 0.0000 20.4306 0.0000 0.0000
# 5 0.0000 0.0000 0.0000 0.0000 22.0481 0.0000
# 6 0.0000 0.0000 0.0000 0.0000 0.0000 14.1366
#
#
#
# Elastic Compliance Matrix: (Units=1/GPa)
#
#
# Indices 1 2 3 4 5 6 
#
# 1 0.032687 -0.002210 -0.006480 0.000000 0.000000 0.000000
# 2 -0.002210 0.013973 -0.004558 0.000000 0.000000 0.000000
# 3 -0.006480 -0.004558 0.012374 0.000000 0.000000 0.000000
# 4 0.000000 0.000000 0.000000 0.048946 0.000000 0.000000
# 5 0.000000 0.000000 0.000000 0.000000 0.045355 0.000000
# 6 0.000000 0.000000 0.000000 0.000000 0.000000 0.070738
#
#
# Mechanical properties :
#
#
# Convention : Reuss Voigt Hill
#
# Bulk Modulus (GPa) = 30.73133 42.58971 36.66052
# Shear Modulus (GPa) = 19.12667 21.58396 20.35531
#
# Velocity S-wave (km/s) = 3.29550 3.50080 3.39970
# Velocity P-wave (km/s) = 5.65066 6.36582 6.01887
#
# Compressibility (1/GPa) = 0.03254008
#
# Stress axis : x y z
#
# Youngs Moduli (GPa) = 30.59338 71.56538 80.81267
#
# Poissons Ratio (x) = 0.15813 0.52366
# Poissons Ratio (y) = 0.06760 0.36832
# Poissons Ratio (z) = 0.19824 0.32618
#
# Static dielectric constant tensor:
#      x y z
#    x 3.051200 0.000000 0.000000 
#    y 0.000000 3.267060 0.000000 
#    z 0.000000 0.000000 3.616920 
# 
# 
# High freq. dielectric constant tensor:
#      x y z
#    x 1.653300 0.000000 0.000000 
#    y 0.000000 1.647440 0.000000 
#    z 0.000000 0.000000 1.702160 
# 
# From -- ./inp_files/29796.got.cif
#   From: 2010.03.12/outbox.cif.g09.slc.cpg/sg59_15_cif.got.tgz:29796.got - 2010.04.16 16:29:54.
