data_PCOD8239627
_publ_section_title
;
Structure prediction by ZEFSAII (Michael W. Deem and Ramdas Pophale) SiO2 
 PCOD8239627
Probable space group: P M M N
;
_chemical_formula_sum "Si O2"
_cell_formula_units_Z 48
_cell_length_a 18.824081
_cell_length_b 13.648287
_cell_length_c 10.347321
_cell_angle_alpha 90.000000
_cell_angle_beta 90.000000
_cell_angle_gamma 90.000000
_cell_volume 2658.397082
_symmetry_space_group_name_H-M "P M M N"
_symmetry_group_IT_number 59
_space_group.IT_coordinate_system_code '2'
_symmetry_cell_setting 'orthorhombic'
loop_
_space_group_symop_operation_xyz
x,y,z
1/2-x,1/2-y,z
1/2+x,-y,-z
-x,1/2+y,-z
-x,-y,-z
1/2+x,1/2+y,-z
1/2-x,y,z
x,1/2-y,z
loop_
_atom_site_type_symbol
_atom_site_label
_atom_site_fract_x
_atom_site_fract_y
_atom_site_fract_z
Si Si1 0.084601 0.450817 0.596778
Si Si2 0.332321 0.858485 0.225519
Si Si3 0.939030 0.362214 0.543904
Si Si4 0.830957 0.636313 0.636558
Si Si5 0.166704 0.052485 0.096246
Si Si6 0.334411 0.137348 0.830446
O O1 0.071776 0.567948 0.581568
O O2 0.119903 0.418417 0.463597
O O3 0.134913 0.429573 0.717046
O O4 0.011199 0.392839 0.617415
O O5 0.250000 0.871142 0.262952
O O6 0.348150 0.750000 0.169260
O O7 0.374688 0.876884 0.356819
O O8 0.353542 0.937943 0.116231
O O9 0.943597 0.250000 0.495668
O O10 0.750000 0.598226 0.623217
O O11 0.835403 0.750000 0.606390
O O12 0.860364 0.614075 0.780242
O O13 0.250000 0.067832 0.082725
O O14 0.133107 0.095295 0.964669
O O15 0.250000 0.128594 0.824424
O O16 0.358345 0.250000 0.813715
#
# Coordination Sequence:
#
# PCOD8239627 Si02
#       6
#     8   8   8   8   8   8
#     4  11  21  34  54  77 105 140 173 212 260 314
#     4   9  17  32  55  77  98 133 179 219 256 305
#     4  10  21  36  54  76 105 137 173 219 266 306
#     4  10  18  29  50  78 104 133 174 217 254 302
#     4   9  17  31  50  76 105 133 170 214 257 300
#     4  10  20  34  53  79 112 144 170 206 261 316
#
# _framework density 18.055993999999998
#
# number of rings (size 3 to 8) (size 9 to 14) (size 15 to 20)
#    0.000    2.167    1.667    2.500    0.000    4.000 
#    0.000    1.667    0.000    1.000    0.000    0.000 
#    0.000    0.000    0.000    0.000    0.000    0.000 
#
# Total GULP energy -595079.069728 kJ/mol
# GULP energy per Si atom -12397.480619 kJ/mol
# Density = 1.801490 g / cm^3
# Si number density = 18.055994 Si / 1000 Ang^3
#
#
#
# Elastic Constant Matrix: (Units=GPa)
#
#
# Indices 1 2 3 4 5 6 
#
# 1 46.6337 33.9901 20.9512 0.0000 0.0000 0.0000
# 2 33.9901 120.7655 48.8755 0.0000 0.0000 0.0000
# 3 20.9512 48.8755 94.8449 0.0000 0.0000 0.0000
# 4 0.0000 0.0000 0.0000 28.1001 0.0000 0.0000
# 5 0.0000 0.0000 0.0000 0.0000 -3.6821 0.0000
# 6 0.0000 0.0000 0.0000 0.0000 0.0000 22.2787
#
#
#
# Elastic Compliance Matrix: (Units=1/GPa)
#
#
# Indices 1 2 3 4 5 6 
#
# 1 0.027490 -0.006671 -0.002635 0.000000 0.000000 0.000000
# 2 -0.006671 0.012081 -0.004752 0.000000 0.000000 0.000000
# 3 -0.002635 -0.004752 0.013574 0.000000 0.000000 0.000000
# 4 0.000000 0.000000 0.000000 0.035587 0.000000 0.000000
# 5 0.000000 0.000000 0.000000 0.000000 -0.271581 0.000000
# 6 0.000000 0.000000 0.000000 0.000000 0.000000 0.044886
#
#
# Mechanical properties :
#
#
# Convention : Reuss Voigt Hill
#
# Bulk Modulus (GPa) = 39.95236 52.20861 46.08049
# Shear Modulus (GPa) = -49.25934 19.90117 -14.67908
#
# Velocity S-wave (km/s) = -5.22883 3.32353 -2.85437
# Velocity P-wave (km/s) = 3.77879 6.61101 3.83576
#
# Compressibility (1/GPa) = 0.02502981
#
# Stress axis : x y z
#
# Youngs Moduli (GPa) = 36.37740 82.77268 73.66777
#
# Poissons Ratio (x) = 0.55215 0.19411
# Poissons Ratio (y) = 0.24266 0.35008
# Poissons Ratio (z) = 0.09585 0.39335
#
# Static dielectric constant tensor:
#      x y z
#    x 3.263760 0.000000 0.000000 
#    y 0.000000 3.665460 0.000000 
#    z 0.000000 0.000000 3.249050 
# 
# 
# High freq. dielectric constant tensor:
#      x y z
#    x 1.682910 0.000000 0.000000 
#    y 0.000000 1.716620 0.000000 
#    z 0.000000 0.000000 1.678160 
# 
# From -- ./inp_files/9195.got.cif
#   From: 2010.03.12/outbox.cif.g09.slc.cpg/sg59_5_cif.got.tgz:9195.got - 2010.04.16 16:29:54.
