data_PCOD8239696
_publ_section_title
;
Structure prediction by ZEFSAII (Michael W. Deem and Ramdas Pophale) SiO2 
 PCOD8239696
Probable space group: P M M N
;
_chemical_formula_sum "Si O2"
_cell_formula_units_Z 40
_cell_length_a 24.686681
_cell_length_b 8.986530
_cell_length_c 10.392462
_cell_angle_alpha 90.000000
_cell_angle_beta 90.000000
_cell_angle_gamma 90.000000
_cell_volume 2305.542747
_symmetry_space_group_name_H-M "P M M N"
_symmetry_group_IT_number 59
_space_group.IT_coordinate_system_code '2'
_symmetry_cell_setting 'orthorhombic'
loop_
_space_group_symop_operation_xyz
x,y,z
1/2-x,1/2-y,z
1/2+x,-y,-z
-x,1/2+y,-z
-x,-y,-z
1/2+x,1/2+y,-z
1/2-x,y,z
x,1/2-y,z
loop_
_atom_site_type_symbol
_atom_site_label
_atom_site_fract_x
_atom_site_fract_y
_atom_site_fract_z
Si Si1 0.250000 0.912723 0.020634
Si Si2 0.140637 0.075410 0.729348
Si Si3 0.863797 0.425297 0.001420
Si Si4 0.750000 0.415862 0.285196
Si Si5 0.026175 0.423664 0.621905
Si Si6 0.026796 0.922258 0.119435
O O1 0.250000 0.750000 0.084231
O O2 0.193042 0.990744 0.058436
O O3 0.250000 0.905248 0.866904
O O4 0.151251 0.250000 0.746265
O O5 0.090575 0.044140 0.632324
O O6 0.122201 0.010163 0.867088
O O7 0.195130 0.001265 0.671203
O O8 0.856816 0.250000 0.035452
O O9 0.908776 0.449832 0.892353
O O10 0.750000 0.250000 0.346274
O O11 0.014630 0.250000 0.609914
O O12 0.000000 0.500000 0.500000
O O13 0.995155 0.489101 0.747213
O O14 0.011376 0.750000 0.110934
O O15 0.000000 0.000000 0.000000
#
# Coordination Sequence:
#
# PCOD8239696 Si02
#       6
#     4   8   8   4   8   8
#     4   7  12  23  39  66  95 120 152 190 236 294
#     4  10  18  30  48  73 103 131 166 212 255 299
#     4   9  16  27  47  71  99 131 163 202 252 308
#     4   9  17  29  47  72  99 130 168 206 252 306
#     4  10  22  36  50  72 104 140 178 216 257 308
#     4  10  19  32  50  74 100 131 170 212 256 306
#
# _framework density 17.349495000000001
#
# number of rings (size 3 to 8) (size 9 to 14) (size 15 to 20)
#    0.000    2.600    2.000    2.100    0.000    2.400 
#    0.000    0.000    0.000    1.200    0.000    2.800 
#    0.000    0.000    0.000    0.000    0.000    0.000 
#
# Total GULP energy -495619.406378 kJ/mol
# GULP energy per Si atom -12390.485159 kJ/mol
# Density = 1.731001 g / cm^3
# Si number density = 17.349495 Si / 1000 Ang^3
#
#
#
# Elastic Constant Matrix: (Units=GPa)
#
#
# Indices 1 2 3 4 5 6 
#
# 1 159.3382 51.9566 62.9801 0.0000 0.0000 0.0000
# 2 51.9566 67.2223 33.2218 0.0000 0.0000 0.0000
# 3 62.9801 33.2218 90.1018 0.0000 0.0000 0.0000
# 4 0.0000 0.0000 0.0000 21.0564 0.0000 0.0000
# 5 0.0000 0.0000 0.0000 0.0000 20.9624 0.0000
# 6 0.0000 0.0000 0.0000 0.0000 0.0000 26.5262
#
#
#
# Elastic Compliance Matrix: (Units=1/GPa)
#
#
# Indices 1 2 3 4 5 6 
#
# 1 0.009971 -0.005212 -0.005048 0.000000 0.000000 0.000000
# 2 -0.005212 0.020915 -0.004069 0.000000 0.000000 0.000000
# 3 -0.005048 -0.004069 0.016127 0.000000 0.000000 0.000000
# 4 0.000000 0.000000 0.000000 0.047491 0.000000 0.000000
# 5 0.000000 0.000000 0.000000 0.000000 0.047704 0.000000
# 6 0.000000 0.000000 0.000000 0.000000 0.000000 0.037699
#
#
# Mechanical properties :
#
#
# Convention : Reuss Voigt Hill
#
# Bulk Modulus (GPa) = 54.47708 68.10880 61.29294
# Shear Modulus (GPa) = 23.29028 24.94260 24.11644
#
# Velocity S-wave (km/s) = 3.66788 3.79576 3.73236
# Velocity P-wave (km/s) = 7.02892 7.65196 7.34705
#
# Compressibility (1/GPa) = 0.01835634
#
# Stress axis : x y z
#
# Youngs Moduli (GPa) = 100.29580 47.81264 62.00778
#
# Poissons Ratio (x) = 0.24918 0.31299
# Poissons Ratio (y) = 0.52271 0.25229
# Poissons Ratio (z) = 0.50626 0.19454
#
# Static dielectric constant tensor:
#      x y z
#    x 4.415180 0.000000 0.000000 
#    y 0.000000 3.146380 0.000000 
#    z 0.000000 0.000000 2.889610 
# 
# 
# High freq. dielectric constant tensor:
#      x y z
#    x 1.699920 0.000000 0.000000 
#    y 0.000000 1.660390 0.000000 
#    z 0.000000 0.000000 1.612550 
# 
# From -- ./inp_files/12410.got.cif
#   From: 2010.03.12/outbox.cif.g09.slc.cpg/sg59_7_cif.got.tgz:12410.got - 2010.04.16 16:29:54.
