data_PCOD8239154
_publ_section_title
;
Structure prediction by ZEFSAII (Michael W. Deem and Ramdas Pophale) SiO2 
 PCOD8239154
Probable space group: P M M N
;
_chemical_formula_sum "Si O2"
_cell_formula_units_Z 56
_cell_length_a 9.441653
_cell_length_b 24.275582
_cell_length_c 14.975088
_cell_angle_alpha 90.000000
_cell_angle_beta 90.000000
_cell_angle_gamma 90.000000
_cell_volume 3432.314453
_symmetry_space_group_name_H-M "P M M N"
_symmetry_group_IT_number 59
_space_group.IT_coordinate_system_code '2'
_symmetry_cell_setting 'orthorhombic'
loop_
_space_group_symop_operation_xyz
x,y,z
1/2-x,1/2-y,z
1/2+x,-y,-z
-x,1/2+y,-z
-x,-y,-z
1/2+x,1/2+y,-z
1/2-x,y,z
x,1/2-y,z
loop_
_atom_site_type_symbol
_atom_site_label
_atom_site_fract_x
_atom_site_fract_y
_atom_site_fract_z
Si Si1 0.412161 0.045736 0.883017
Si Si2 0.417641 0.863247 0.787051
Si Si3 0.418157 0.566320 0.620639
Si Si4 0.912059 0.423591 0.043505
Si Si5 0.585994 0.629552 0.469074
Si Si6 0.584558 0.550302 0.315645
Si Si7 0.086578 0.250000 0.473847
Si Si8 0.917931 0.250000 0.292087
O O1 0.250000 0.065466 0.886688
O O2 0.499006 0.082669 0.953015
O O3 0.479918 0.054472 0.784209
O O4 0.427407 0.982469 0.909732
O O5 0.250000 0.867351 0.790188
O O6 0.471967 0.904324 0.710697
O O7 0.470032 0.802132 0.764449
O O8 0.475159 0.880218 0.884575
O O9 0.250000 0.571853 0.606576
O O10 0.492075 0.596292 0.538612
O O11 0.470383 0.502948 0.628784
O O12 0.750000 0.411156 0.018708
O O13 0.750000 0.618602 0.492507
O O14 0.550130 0.605829 0.370603
O O15 0.552096 0.694978 0.468883
O O16 0.750000 0.540443 0.301254
O O17 0.250000 0.250000 0.443512
O O18 0.988877 0.250000 0.387942
O O19 0.750000 0.250000 0.308077
#
# Coordination Sequence:
#
# PCOD8239154 Si02
#       8
#     8   8   8   8   8   8   4   4
#     4   9  16  28  46  66  87 115 149 180 215 265
#     4   9  16  27  46  69  91 116 147 181 220 269
#     4  10  17  29  48  69  92 119 149 187 229 272
#     4   9  16  28  45  66  91 115 140 179 225 264
#     4  10  20  32  45  64  92 125 156 188 227 270
#     4   9  17  30  48  67  91 123 155 186 227 276
#     4  10  20  32  44  63  92 122 154 193 228 257
#     4  10  18  30  50  69  86 118 160 187 214 269
#
# _framework density 16.315522000000001
#
# number of rings (size 3 to 8) (size 9 to 14) (size 15 to 20)
#    0.000    2.571    2.857    0.429    0.000    0.000 
#    0.000    2.857    0.000    0.857    0.000    1.000 
#    0.000    0.000    0.000    0.000    0.000    0.000 
#
# Total GULP energy -694151.000529 kJ/mol
# GULP energy per Si atom -12395.553581 kJ/mol
# Density = 1.627839 g / cm^3
# Si number density = 16.315522 Si / 1000 Ang^3
#
#
#
# Elastic Constant Matrix: (Units=GPa)
#
#
# Indices 1 2 3 4 5 6 
#
# 1 37.4706 28.3100 39.7739 0.0000 0.0000 0.0000
# 2 28.3100 107.2610 64.4433 0.0000 0.0000 0.0000
# 3 39.7739 64.4433 130.5446 0.0000 0.0000 0.0000
# 4 0.0000 0.0000 0.0000 21.2661 0.0000 0.0000
# 5 0.0000 0.0000 0.0000 0.0000 24.9856 0.0000
# 6 0.0000 0.0000 0.0000 0.0000 0.0000 12.6794
#
#
#
# Elastic Compliance Matrix: (Units=1/GPa)
#
#
# Indices 1 2 3 4 5 6 
#
# 1 0.041060 -0.004721 -0.010179 0.000000 0.000000 0.000000
# 2 -0.004721 0.013797 -0.005372 0.000000 0.000000 0.000000
# 3 -0.010179 -0.005372 0.013414 0.000000 0.000000 0.000000
# 4 0.000000 0.000000 0.000000 0.047023 0.000000 0.000000
# 5 0.000000 0.000000 0.000000 0.000000 0.040023 0.000000
# 6 0.000000 0.000000 0.000000 0.000000 0.000000 0.078868
#
#
# Mechanical properties :
#
#
# Convention : Reuss Voigt Hill
#
# Bulk Modulus (GPa) = 36.06935 60.03672 48.05304
# Shear Modulus (GPa) = 17.60739 21.30284 19.45512
#
# Velocity S-wave (km/s) = 3.28865 3.61734 3.45690
# Velocity P-wave (km/s) = 6.04778 7.37048 6.74165
#
# Compressibility (1/GPa) = 0.02772437
#
# Stress axis : x y z
#
# Youngs Moduli (GPa) = 24.35481 72.47977 74.55093
#
# Poissons Ratio (x) = 0.34220 0.75887
# Poissons Ratio (y) = 0.11499 0.40052
# Poissons Ratio (z) = 0.24791 0.38939
#
# Static dielectric constant tensor:
#      x y z
#    x 3.058660 0.000000 0.000000 
#    y 0.000000 3.565050 0.000000 
#    z 0.000000 0.000000 3.210630 
# 
# 
# High freq. dielectric constant tensor:
#      x y z
#    x 1.597770 0.000000 0.000000 
#    y 0.000000 1.617220 0.000000 
#    z 0.000000 0.000000 1.627870 
# 
# From -- ./inp_files/16216.got.cif
#   From: 2010.03.12/outbox.cif.g09.slc.cpg/sg59_9_cif.got.tgz:16216.got - 2010.04.16 16:29:54.
