data_PCOD8239884
_publ_section_title
;
Structure prediction by ZEFSAII (Michael W. Deem and Ramdas Pophale) SiO2 
 PCOD8239884
Probable space group: P M M N
;
_chemical_formula_sum "Si O2"
_cell_formula_units_Z 48
_cell_length_a 15.838331
_cell_length_b 9.361311
_cell_length_c 17.194164
_cell_angle_alpha 90.000000
_cell_angle_beta 90.000000
_cell_angle_gamma 90.000000
_cell_volume 2549.336437
_symmetry_space_group_name_H-M "P M M N"
_symmetry_group_IT_number 59
_space_group.IT_coordinate_system_code '2'
_symmetry_cell_setting 'orthorhombic'
loop_
_space_group_symop_operation_xyz
x,y,z
1/2-x,1/2-y,z
1/2+x,-y,-z
-x,1/2+y,-z
-x,-y,-z
1/2+x,1/2+y,-z
1/2-x,y,z
x,1/2-y,z
loop_
_atom_site_type_symbol
_atom_site_label
_atom_site_fract_x
_atom_site_fract_y
_atom_site_fract_z
Si Si1 0.347887 0.914012 0.509055
Si Si2 0.657003 0.080819 0.819139
Si Si3 0.155936 0.419351 0.813174
Si Si4 0.501244 0.579358 0.081068
Si Si5 0.605328 0.410502 0.656530
Si Si6 0.090565 0.410604 0.651214
O O1 0.250000 0.929758 0.527133
O O2 0.378270 0.750000 0.511040
O O3 0.370138 0.985645 0.425205
O O4 0.398407 0.995439 0.575145
O O5 0.750000 0.039172 0.852172
O O6 0.646100 0.250000 0.812355
O O7 0.582962 0.024144 0.874819
O O8 0.648126 0.015201 0.731840
O O9 0.250000 0.468511 0.840132
O O10 0.148861 0.250000 0.809588
O O11 0.139620 0.476844 0.725569
O O12 0.084756 0.474788 0.872891
O O13 0.501556 0.750000 0.069325
O O14 0.500000 0.500000 0.000000
O O15 0.641075 0.250000 0.649057
O O16 0.506721 0.410528 0.673755
O O17 0.122422 0.250000 0.633298
#
# Coordination Sequence:
#
# PCOD8239884 Si02
#       6
#     8   8   8   8   8   8
#     4  10  20  31  44  69 104 136 166 203 250 297
#     4   9  16  29  52  78 101 128 166 209 247 289
#     4   9  17  31  52  75  99 131 169 204 239 288
#     4  10  20  35  54  77 102 128 161 203 250 300
#     4   9  16  29  49  72  98 130 169 208 245 289
#     4  10  18  31  52  74  96 128 173 213 241 281
#
# _framework density 18.828430000000001
#
# number of rings (size 3 to 8) (size 9 to 14) (size 15 to 20)
#    0.000    2.500    1.667    1.500    0.000    3.667 
#    0.000    0.833    0.000    2.000    0.000    0.000 
#    0.000    0.000    0.000    0.000    0.000    0.000 
#
# Total GULP energy -594930.008631 kJ/mol
# GULP energy per Si atom -12394.375180 kJ/mol
# Density = 1.878558 g / cm^3
# Si number density = 18.828430 Si / 1000 Ang^3
#
#
#
# Elastic Constant Matrix: (Units=GPa)
#
#
# Indices 1 2 3 4 5 6 
#
# 1 126.4505 15.9541 65.2603 0.0000 0.0000 0.0000
# 2 15.9541 24.9752 27.5656 0.0000 0.0000 0.0000
# 3 65.2603 27.5656 155.9385 0.0000 0.0000 0.0000
# 4 0.0000 0.0000 0.0000 27.5220 0.0000 0.0000
# 5 0.0000 0.0000 0.0000 0.0000 24.9348 0.0000
# 6 0.0000 0.0000 0.0000 0.0000 0.0000 8.9894
#
#
#
# Elastic Compliance Matrix: (Units=1/GPa)
#
#
# Indices 1 2 3 4 5 6 
#
# 1 0.010187 -0.002239 -0.003867 0.000000 0.000000 0.000000
# 2 -0.002239 0.050237 -0.007944 0.000000 0.000000 0.000000
# 3 -0.003867 -0.007944 0.009436 0.000000 0.000000 0.000000
# 4 0.000000 0.000000 0.000000 0.036335 0.000000 0.000000
# 5 0.000000 0.000000 0.000000 0.000000 0.040105 0.000000
# 6 0.000000 0.000000 0.000000 0.000000 0.000000 0.111243
#
#
# Mechanical properties :
#
#
# Convention : Reuss Voigt Hill
#
# Bulk Modulus (GPa) = 23.94636 58.32492 41.13564
# Shear Modulus (GPa) = 16.69111 25.52818 21.10964
#
# Velocity S-wave (km/s) = 2.98062 3.68616 3.35200
# Velocity P-wave (km/s) = 4.95896 7.01151 6.07258
#
# Compressibility (1/GPa) = 0.04176001
#
# Stress axis : x y z
#
# Youngs Moduli (GPa) = 98.16819 19.90549 105.98269
#
# Poissons Ratio (x) = 0.04456 0.40987
# Poissons Ratio (y) = 0.21977 0.84189
# Poissons Ratio (z) = 0.37965 0.15812
#
# Static dielectric constant tensor:
#      x y z
#    x 3.621490 0.000000 0.000000 
#    y 0.000000 2.909920 0.000000 
#    z 0.000000 0.000000 3.525630 
# 
# 
# High freq. dielectric constant tensor:
#      x y z
#    x 1.748810 0.000000 0.000000 
#    y 0.000000 1.657800 0.000000 
#    z 0.000000 0.000000 1.740700 
# 
# From -- ./inp_files/23171.got.cif
#   From: 2010.03.12/outbox.cif.g09.slc.cpg/sg59_12_cif.got.tgz:23171.got - 2010.04.16 16:29:54.
