data_PCOD8239909
_publ_section_title
;
Structure prediction by ZEFSAII (Michael W. Deem and Ramdas Pophale) SiO2 
 PCOD8239909
Probable space group: P M M N
;
_chemical_formula_sum "Si O2"
_cell_formula_units_Z 64
_cell_length_a 16.841653
_cell_length_b 21.478828
_cell_length_c 9.595422
_cell_angle_alpha 90.000000
_cell_angle_beta 90.000000
_cell_angle_gamma 90.000000
_cell_volume 3471.038052
_symmetry_space_group_name_H-M "P M M N"
_symmetry_group_IT_number 59
_space_group.IT_coordinate_system_code '2'
_symmetry_cell_setting 'orthorhombic'
loop_
_space_group_symop_operation_xyz
x,y,z
1/2-x,1/2-y,z
1/2+x,-y,-z
-x,1/2+y,-z
-x,-y,-z
1/2+x,1/2+y,-z
1/2-x,y,z
x,1/2-y,z
loop_
_atom_site_type_symbol
_atom_site_label
_atom_site_fract_x
_atom_site_fract_y
_atom_site_fract_z
Si Si1 0.442543 0.091070 0.129657
Si Si2 0.384580 0.559372 0.439374
Si Si3 0.338254 0.867793 0.195288
Si Si4 0.657920 0.582349 0.612313
Si Si5 0.837518 0.012984 0.979858
Si Si6 0.900255 0.462906 0.256198
Si Si7 0.498546 0.320981 0.886817
Si Si8 0.942313 0.907568 0.354078
O O1 0.376395 0.111231 0.243234
O O2 0.513811 0.063271 0.218911
O O3 0.472598 0.147022 0.031613
O O4 0.405318 0.039072 0.027901
O O5 0.343893 0.618150 0.361047
O O6 0.352556 0.492554 0.387335
O O7 0.367042 0.569028 0.603553
O O8 0.478495 0.562194 0.416705
O O9 0.250000 0.842120 0.157966
O O10 0.405682 0.822087 0.136083
O O11 0.356340 0.935851 0.135272
O O12 0.750000 0.599951 0.603036
O O13 0.613010 0.614761 0.482118
O O14 0.750000 0.984079 0.956473
O O15 0.840779 0.048850 0.127932
O O16 0.898930 0.537277 0.273279
O O17 0.470818 0.250000 0.896302
O O18 0.456885 0.351135 0.752108
#
# Coordination Sequence:
#
# PCOD8239909 Si02
#       8
#     8   8   8   8   8   8   8   8
#     4  12  19  36  55  80 117 146 191 231 271 330
#     4  10  18  31  52  85 119 145 168 207 274 362
#     4  10  20  35  58  88 118 142 174 227 287 343
#     4  11  20  32  57  88 116 144 177 225 288 345
#     4  11  21  31  50  85 120 147 170 215 286 346
#     4  11  18  31  56  83 112 150 173 219 284 347
#     4  11  24  40  60  78 103 154 206 239 269 319
#     4  10  19  36  54  80 116 143 184 225 284 339
#
# _framework density 18.438289000000001
#
# number of rings (size 3 to 8) (size 9 to 14) (size 15 to 20)
#    0.000    1.250    6.250    2.625    0.000    2.750 
#    0.000    0.625    0.000    4.125    0.000    0.000 
#    0.000    0.000    0.000    0.000    0.000    0.000 
#
# Total GULP energy -793339.790133 kJ/mol
# GULP energy per Si atom -12395.934221 kJ/mol
# Density = 1.839632 g / cm^3
# Si number density = 18.438289 Si / 1000 Ang^3
#
#
#
# Elastic Constant Matrix: (Units=GPa)
#
#
# Indices 1 2 3 4 5 6 
#
# 1 77.2804 24.4346 34.4363 0.0000 0.0000 0.0000
# 2 24.4346 54.7929 34.9785 0.0000 0.0000 0.0000
# 3 34.4363 34.9785 127.1706 0.0000 0.0000 0.0000
# 4 0.0000 0.0000 0.0000 11.2912 0.0000 0.0000
# 5 0.0000 0.0000 0.0000 0.0000 25.2978 0.0000
# 6 0.0000 0.0000 0.0000 0.0000 0.0000 10.6813
#
#
#
# Elastic Compliance Matrix: (Units=1/GPa)
#
#
# Indices 1 2 3 4 5 6 
#
# 1 0.015873 -0.005258 -0.002852 0.000000 0.000000 0.000000
# 2 -0.005258 0.023879 -0.005144 0.000000 0.000000 0.000000
# 3 -0.002852 -0.005144 0.010051 0.000000 0.000000 0.000000
# 4 0.000000 0.000000 0.000000 0.088565 0.000000 0.000000
# 5 0.000000 0.000000 0.000000 0.000000 0.039529 0.000000
# 6 0.000000 0.000000 0.000000 0.000000 0.000000 0.093622
#
#
# Mechanical properties :
#
#
# Convention : Reuss Voigt Hill
#
# Bulk Modulus (GPa) = 42.92818 49.66031 46.29425
# Shear Modulus (GPa) = 16.35097 20.48034 18.41566
#
# Velocity S-wave (km/s) = 2.98114 3.33641 3.16376
# Velocity P-wave (km/s) = 5.93146 6.46791 6.20549
#
# Compressibility (1/GPa) = 0.02329472
#
# Stress axis : x y z
#
# Youngs Moduli (GPa) = 62.99915 41.87736 99.49554
#
# Poissons Ratio (x) = 0.22019 0.28377
# Poissons Ratio (y) = 0.33124 0.51183
# Poissons Ratio (z) = 0.17968 0.21543
#
# Static dielectric constant tensor:
#      x y z
#    x 3.427500 0.000000 0.000000 
#    y 0.000000 2.796040 0.000000 
#    z 0.000000 0.000000 3.709860 
# 
# 
# High freq. dielectric constant tensor:
#      x y z
#    x 1.718820 0.000000 0.000000 
#    y 0.000000 1.644120 0.000000 
#    z 0.000000 0.000000 1.739770 
# 
# From -- ./inp_files/10787.got.cif
#   From: 2010.03.12/outbox.cif.g09.slc.cpg/sg59_6_cif.got.tgz:10787.got - 2010.04.16 16:29:54.
