data_PCOD8239901
_publ_section_title
;
Structure prediction by ZEFSAII (Michael W. Deem and Ramdas Pophale) SiO2 
 PCOD8239901
Probable space group: P M M N
;
_chemical_formula_sum "Si O2"
_cell_formula_units_Z 64
_cell_length_a 8.646463
_cell_length_b 14.508619
_cell_length_c 24.863174
_cell_angle_alpha 90.000000
_cell_angle_beta 90.000000
_cell_angle_gamma 90.000000
_cell_volume 3119.041354
_symmetry_space_group_name_H-M "P M M N"
_symmetry_group_IT_number 59
_space_group.IT_coordinate_system_code '2'
_symmetry_cell_setting 'orthorhombic'
loop_
_space_group_symop_operation_xyz
x,y,z
1/2-x,1/2-y,z
1/2+x,-y,-z
-x,1/2+y,-z
-x,-y,-z
1/2+x,1/2+y,-z
1/2-x,y,z
x,1/2-y,z
loop_
_atom_site_type_symbol
_atom_site_label
_atom_site_fract_x
_atom_site_fract_y
_atom_site_fract_z
Si Si1 0.575893 0.149261 0.593970
Si Si2 0.071381 0.038331 0.680825
Si Si3 0.433656 0.649527 0.634680
Si Si4 0.931645 0.540943 0.122494
Si Si5 0.072167 0.906853 0.519801
Si Si6 0.930445 0.142849 0.777931
Si Si7 0.566706 0.403218 0.982470
Si Si8 0.070804 0.350866 0.086711
O O1 0.750000 0.111617 0.604067
O O2 0.556437 0.250000 0.620449
O O3 0.453494 0.080302 0.621301
O O4 0.546309 0.162048 0.530194
O O5 0.250000 0.047782 0.698026
O O6 0.963195 0.095519 0.720868
O O7 0.019311 0.930664 0.677153
O O8 0.250000 0.651267 0.630190
O O9 0.494153 0.750000 0.654834
O O10 0.504489 0.631019 0.574978
O O11 0.750000 0.539774 0.113314
O O12 0.971972 0.583801 0.179688
O O13 0.008552 0.610265 0.078639
O O14 0.988339 0.434233 0.118640
O O15 0.250000 0.924229 0.532370
O O16 0.000000 0.000000 0.500000
O O17 0.750000 0.135008 0.791454
O O18 0.982953 0.250000 0.777518
O O19 0.750000 0.397550 0.983797
O O20 0.500000 0.500000 0.000000
O O21 0.497107 0.334140 0.026506
O O22 0.250000 0.377874 0.082596
O O23 0.049147 0.250000 0.115388
#
# Coordination Sequence:
#
# PCOD8239901 Si02
#       8
#     8   8   8   8   8   8   8   8
#     4  10  20  33  52  78 109 147 185 221 270 333
#     4  11  22  37  59  85 110 140 182 235 287 333
#     4   9  18  34  56  81 111 148 187 225 271 332
#     4  11  22  38  61  88 120 155 195 247 301 353
#     4  10  18  31  52  78 110 147 185 224 270 325
#     4  11  25  45  66  85 109 145 188 235 291 354
#     4  10  18  31  53  81 118 160 201 243 287 339
#     4  10  20  35  57  87 125 167 207 245 287 339
#
# _framework density 20.519124000000001
#
# number of rings (size 3 to 8) (size 9 to 14) (size 15 to 20)
#    0.000    1.750    1.250    5.625    0.000    5.750 
#    0.000    0.625    0.000    6.375    0.000    0.000 
#    0.000    0.000    0.000    0.000    0.000    0.000 
#
# Total GULP energy -793074.299788 kJ/mol
# GULP energy per Si atom -12391.785934 kJ/mol
# Density = 2.047242 g / cm^3
# Si number density = 20.519124 Si / 1000 Ang^3
#
#
#
# Elastic Constant Matrix: (Units=GPa)
#
#
# Indices 1 2 3 4 5 6 
#
# 1 90.1295 34.2681 22.4335 0.0000 0.0000 0.0000
# 2 34.2681 143.8305 40.3721 0.0000 0.0000 0.0000
# 3 22.4335 40.3721 74.8498 0.0000 0.0000 0.0000
# 4 0.0000 0.0000 0.0000 27.7328 0.0000 0.0000
# 5 0.0000 0.0000 0.0000 0.0000 29.7754 0.0000
# 6 0.0000 0.0000 0.0000 0.0000 0.0000 23.7475
#
#
#
# Elastic Compliance Matrix: (Units=1/GPa)
#
#
# Indices 1 2 3 4 5 6 
#
# 1 0.012598 -0.002288 -0.002542 0.000000 0.000000 0.000000
# 2 -0.002288 0.008609 -0.003958 0.000000 0.000000 0.000000
# 3 -0.002542 -0.003958 0.016256 0.000000 0.000000 0.000000
# 4 0.000000 0.000000 0.000000 0.036058 0.000000 0.000000
# 5 0.000000 0.000000 0.000000 0.000000 0.033585 0.000000
# 6 0.000000 0.000000 0.000000 0.000000 0.000000 0.042110
#
#
# Mechanical properties :
#
#
# Convention : Reuss Voigt Hill
#
# Bulk Modulus (GPa) = 50.28046 55.88412 53.08229
# Shear Modulus (GPa) = 28.83184 30.36687 29.59936
#
# Velocity S-wave (km/s) = 3.75256 3.85116 3.80218
# Velocity P-wave (km/s) = 6.58278 6.86072 6.72319
#
# Compressibility (1/GPa) = 0.01988844
#
# Stress axis : x y z
#
# Youngs Moduli (GPa) = 79.37962 116.16286 61.51420
#
# Poissons Ratio (x) = 0.26578 0.15634
# Poissons Ratio (y) = 0.18162 0.24344
# Poissons Ratio (z) = 0.20175 0.45972
#
# Static dielectric constant tensor:
#      x y z
#    x 3.560250 0.000000 0.000000 
#    y 0.000000 4.273070 0.000000 
#    z 0.000000 0.000000 3.748100 
# 
# 
# High freq. dielectric constant tensor:
#      x y z
#    x 1.789980 0.000000 0.000000 
#    y 0.000000 1.810640 0.000000 
#    z 0.000000 0.000000 1.785770 
# 
# From -- ./inp_files/31500.got.cif
#   From: 2010.03.12/outbox.cif.g09.slc.cpg/sg59_16_cif.got.tgz:31500.got - 2010.04.16 16:29:54.
