data_PCOD8239641
_publ_section_title
;
Structure prediction by ZEFSAII (Michael W. Deem and Ramdas Pophale) SiO2 
 PCOD8239641
Probable space group: P M M N
;
_chemical_formula_sum "Si O2"
_cell_formula_units_Z 64
_cell_length_a 9.342935
_cell_length_b 23.386808
_cell_length_c 19.071508
_cell_angle_alpha 90.000000
_cell_angle_beta 90.000000
_cell_angle_gamma 90.000000
_cell_volume 4167.151713
_symmetry_space_group_name_H-M "P M M N"
_symmetry_group_IT_number 59
_space_group.IT_coordinate_system_code '2'
_symmetry_cell_setting 'orthorhombic'
loop_
_space_group_symop_operation_xyz
x,y,z
1/2-x,1/2-y,z
1/2+x,-y,-z
-x,1/2+y,-z
-x,-y,-z
1/2+x,1/2+y,-z
1/2-x,y,z
x,1/2-y,z
loop_
_atom_site_type_symbol
_atom_site_label
_atom_site_fract_x
_atom_site_fract_y
_atom_site_fract_z
Si Si1 0.414431 0.971457 0.596399
Si Si2 0.914406 0.011983 0.102594
Si Si3 0.420624 0.630755 0.255525
Si Si4 0.416956 0.916246 0.024334
Si Si5 0.084377 0.085786 0.516089
Si Si6 0.580864 0.187104 0.889438
Si Si7 0.415280 0.184376 0.618684
Si Si8 0.084765 0.486889 0.743816
O O1 0.250000 0.958437 0.581155
O O2 0.502328 0.921698 0.557548
O O3 0.449298 0.970608 0.679337
O O4 0.457645 0.034204 0.568206
O O5 0.750000 0.995338 0.089507
O O6 0.944131 0.022646 0.184810
O O7 0.953297 0.068749 0.056886
O O8 0.007684 0.959322 0.077217
O O9 0.250000 0.628165 0.262882
O O10 0.471503 0.658061 0.182307
O O11 0.484124 0.670846 0.315803
O O12 0.482739 0.567411 0.260781
O O13 0.250000 0.922742 0.040257
O O14 0.467194 0.852056 0.044174
O O15 0.250000 0.085345 0.497395
O O16 0.038926 0.145030 0.552839
O O17 0.750000 0.193367 0.887196
O O18 0.510705 0.250000 0.897974
O O19 0.250000 0.171657 0.638968
O O20 0.437229 0.250000 0.596267
O O21 0.250000 0.466018 0.739250
#
# Coordination Sequence:
#
# PCOD8239641 Si02
#       8
#     8   8   8   8   8   8   8   8
#     4   9  17  29  45  62  85 114 142 178 222 263
#     4   9  17  27  44  64  85 112 143 180 218 259
#     4  11  20  29  43  64  91 120 153 184 212 250
#     4   9  16  28  43  62  85 112 146 181 218 256
#     4   9  17  30  45  64  86 110 145 181 213 258
#     4   9  17  28  41  59  87 119 148 179 213 249
#     4  10  20  34  49  64  88 122 152 180 216 256
#     4  10  18  30  45  64  90 118 148 178 220 270
#
# _framework density 15.358212999999999
#
# number of rings (size 3 to 8) (size 9 to 14) (size 15 to 20)
#    0.000    2.500    2.500    0.750    0.000    1.750 
#    0.000    0.000    0.000    1.125    0.000    0.875 
#    0.000    3.000    0.000    0.000    0.000    0.000 
#
# Total GULP energy -793340.463910 kJ/mol
# GULP energy per Si atom -12395.944749 kJ/mol
# Density = 1.532326 g / cm^3
# Si number density = 15.358213 Si / 1000 Ang^3
#
#
#
# Elastic Constant Matrix: (Units=GPa)
#
#
# Indices 1 2 3 4 5 6 
#
# 1 40.6392 30.9411 37.0901 0.0000 0.0000 0.0000
# 2 30.9411 88.8246 62.3302 0.0000 0.0000 0.0000
# 3 37.0901 62.3302 122.9675 0.0000 0.0000 0.0000
# 4 0.0000 0.0000 0.0000 22.3029 0.0000 0.0000
# 5 0.0000 0.0000 0.0000 0.0000 20.1959 0.0000
# 6 0.0000 0.0000 0.0000 0.0000 0.0000 15.9174
#
#
#
# Elastic Compliance Matrix: (Units=1/GPa)
#
#
# Indices 1 2 3 4 5 6 
#
# 1 0.037207 -0.007893 -0.007222 0.000000 0.000000 0.000000
# 2 -0.007893 0.019148 -0.007325 0.000000 0.000000 0.000000
# 3 -0.007222 -0.007325 0.014023 0.000000 0.000000 0.000000
# 4 0.000000 0.000000 0.000000 0.044837 0.000000 0.000000
# 5 0.000000 0.000000 0.000000 0.000000 0.049515 0.000000
# 6 0.000000 0.000000 0.000000 0.000000 0.000000 0.062824
#
#
# Mechanical properties :
#
#
# Convention : Reuss Voigt Hill
#
# Bulk Modulus (GPa) = 39.21744 57.01713 48.11729
# Shear Modulus (GPa) = 17.79777 19.82123 18.80950
#
# Velocity S-wave (km/s) = 3.40787 3.59638 3.50340
# Velocity P-wave (km/s) = 6.40901 7.37907 6.91108
#
# Compressibility (1/GPa) = 0.02549886
#
# Stress axis : x y z
#
# Youngs Moduli (GPa) = 26.87635 52.22579 71.30953
#
# Poissons Ratio (x) = 0.41222 0.51499
# Poissons Ratio (y) = 0.21214 0.52233
# Poissons Ratio (z) = 0.19410 0.38255
#
# Static dielectric constant tensor:
#      x y z
#    x 2.904290 0.000000 0.000000 
#    y 0.000000 2.956100 0.000000 
#    z 0.000000 0.000000 3.128230 
# 
# 
# High freq. dielectric constant tensor:
#      x y z
#    x 1.582280 0.000000 0.000000 
#    y 0.000000 1.562230 0.000000 
#    z 0.000000 0.000000 1.586480 
# 
# From -- ./inp_files/29860.got.cif
#   From: 2010.03.12/outbox.cif.g09.slc.cpg/sg59_15_cif.got.tgz:29860.got - 2010.04.16 16:29:54.
