data_PCOD8239281
_publ_section_title
;
Structure prediction by ZEFSAII (Michael W. Deem and Ramdas Pophale) SiO2 
 PCOD8239281
Probable space group: P M M N
;
_chemical_formula_sum "Si O2"
_cell_formula_units_Z 56
_cell_length_a 9.294139
_cell_length_b 21.397706
_cell_length_c 17.623543
_cell_angle_alpha 90.000000
_cell_angle_beta 90.000000
_cell_angle_gamma 90.000000
_cell_volume 3504.851341
_symmetry_space_group_name_H-M "P M M N"
_symmetry_group_IT_number 59
_space_group.IT_coordinate_system_code '2'
_symmetry_cell_setting 'orthorhombic'
loop_
_space_group_symop_operation_xyz
x,y,z
1/2-x,1/2-y,z
1/2+x,-y,-z
-x,1/2+y,-z
-x,-y,-z
1/2+x,1/2+y,-z
1/2-x,y,z
x,1/2-y,z
loop_
_atom_site_type_symbol
_atom_site_label
_atom_site_fract_x
_atom_site_fract_y
_atom_site_fract_z
Si Si1 0.582520 0.091041 0.042826
Si Si2 0.582237 0.595425 0.702405
Si Si3 0.090541 0.435534 0.580903
Si Si4 0.588484 0.083416 0.442959
Si Si5 0.584638 0.822289 0.845280
Si Si6 0.583333 0.527511 0.260132
Si Si7 0.085776 0.452133 0.906687
O O1 0.750000 0.104828 0.035231
O O2 0.513315 0.145654 0.091750
O O3 0.549150 0.025200 0.082808
O O4 0.515399 0.090947 0.958335
O O5 0.750000 0.584783 0.685106
O O6 0.503495 0.614836 0.624258
O O7 0.554863 0.650690 0.761780
O O8 0.518518 0.532421 0.737844
O O9 0.250000 0.409439 0.564084
O O10 0.086812 0.509532 0.568028
O O11 0.048432 0.425539 0.669625
O O12 0.981002 0.400190 0.524907
O O13 0.750000 0.110336 0.441587
O O14 0.750000 0.833283 0.868284
O O15 0.543414 0.750000 0.842900
O O16 0.750000 0.504676 0.265699
O O17 0.557143 0.564410 0.181532
O O18 0.250000 0.438866 0.930200
#
# Coordination Sequence:
#
# PCOD8239281 Si02
#       7
#     8   8   8   8   8   8   8
#     4  10  19  30  46  66  87 113 148 185 223 267
#     4  10  18  27  42  60  80 109 146 182 217 258
#     4   8  14  23  36  55  80 109 141 171 202 241
#     4   9  16  25  37  53  79 111 141 172 206 247
#     4  10  21  35  48  63  86 116 150 188 229 269
#     4   9  16  27  42  61  86 115 144 177 214 256
#     4   9  17  29  45  64  90 118 145 179 221 270
#
# _framework density 15.977853
#
# number of rings (size 3 to 8) (size 9 to 14) (size 15 to 20)
#    0.000    2.714    1.429    2.143    0.000    5.429 
#    0.000    0.000    0.000    0.000    0.000    0.000 
#    0.000    1.143    0.000    9.143    0.000    4.429 
#
# Total GULP energy -694247.698951 kJ/mol
# GULP energy per Si atom -12397.280338 kJ/mol
# Density = 1.594149 g / cm^3
# Si number density = 15.977853 Si / 1000 Ang^3
#
#
#
# Elastic Constant Matrix: (Units=GPa)
#
#
# Indices 1 2 3 4 5 6 
#
# 1 114.1289 39.3890 78.8437 0.0000 0.0000 0.0000
# 2 39.3890 42.3452 36.9766 0.0000 0.0000 0.0000
# 3 78.8437 36.9766 153.0851 0.0000 0.0000 0.0000
# 4 0.0000 0.0000 0.0000 13.4200 0.0000 0.0000
# 5 0.0000 0.0000 0.0000 0.0000 29.2687 0.0000
# 6 0.0000 0.0000 0.0000 0.0000 0.0000 14.4701
#
#
#
# Elastic Compliance Matrix: (Units=1/GPa)
#
#
# Indices 1 2 3 4 5 6 
#
# 1 0.016357 -0.009960 -0.006019 0.000000 0.000000 0.000000
# 2 -0.009960 0.035992 -0.003564 0.000000 0.000000 0.000000
# 3 -0.006019 -0.003564 0.010493 0.000000 0.000000 0.000000
# 4 0.000000 0.000000 0.000000 0.074515 0.000000 0.000000
# 5 0.000000 0.000000 0.000000 0.000000 0.034166 0.000000
# 6 0.000000 0.000000 0.000000 0.000000 0.000000 0.069108
#
#
# Mechanical properties :
#
#
# Convention : Reuss Voigt Hill
#
# Bulk Modulus (GPa) = 42.09235 68.88642 55.48939
# Shear Modulus (GPa) = 17.38303 21.72174 19.55238
#
# Velocity S-wave (km/s) = 3.30198 3.69113 3.50196
# Velocity P-wave (km/s) = 6.39834 7.83410 7.15234
#
# Compressibility (1/GPa) = 0.02375729
#
# Stress axis : x y z
#
# Youngs Moduli (GPa) = 61.13425 27.78391 95.30053
#
# Poissons Ratio (x) = 0.27672 0.57361
# Poissons Ratio (y) = 0.60888 0.33966
# Poissons Ratio (z) = 0.36796 0.09902
#
# Static dielectric constant tensor:
#      x y z
#    x 3.177920 0.000000 0.000000 
#    y 0.000000 2.435260 0.000000 
#    z 0.000000 0.000000 3.382110 
# 
# 
# High freq. dielectric constant tensor:
#      x y z
#    x 1.625390 0.000000 0.000000 
#    y 0.000000 1.534760 0.000000 
#    z 0.000000 0.000000 1.632160 
# 
# From -- ./inp_files/26093.got.cif
#   From: 2010.03.12/outbox.cif.g09.slc.cpg/sg59_14_cif.got.tgz:26093.got - 2010.04.16 16:29:54.
