data_PCOD8239612
_publ_section_title
;
Structure prediction by ZEFSAII (Michael W. Deem and Ramdas Pophale) SiO2 
 PCOD8239612
Probable space group: P M M N
;
_chemical_formula_sum "Si O2"
_cell_formula_units_Z 48
_cell_length_a 9.023162
_cell_length_b 20.473174
_cell_length_c 14.816505
_cell_angle_alpha 90.000000
_cell_angle_beta 90.000000
_cell_angle_gamma 90.000000
_cell_volume 2737.093946
_symmetry_space_group_name_H-M "P M M N"
_symmetry_group_IT_number 59
_space_group.IT_coordinate_system_code '2'
_symmetry_cell_setting 'orthorhombic'
loop_
_space_group_symop_operation_xyz
x,y,z
1/2-x,1/2-y,z
1/2+x,-y,-z
-x,1/2+y,-z
-x,-y,-z
1/2+x,1/2+y,-z
1/2-x,y,z
x,1/2-y,z
loop_
_atom_site_type_symbol
_atom_site_label
_atom_site_fract_x
_atom_site_fract_y
_atom_site_fract_z
Si Si1 0.922276 0.046612 0.429346
Si Si2 0.578505 0.849058 0.814006
Si Si3 0.420076 0.445077 0.940786
Si Si4 0.577852 0.822415 0.610748
Si Si5 0.417503 0.974333 0.773805
Si Si6 0.080920 0.821686 0.989386
O O1 0.750000 0.049613 0.452088
O O2 0.983849 0.120722 0.437121
O O3 0.954298 0.014427 0.331430
O O4 0.000000 0.000000 0.500000
O O5 0.750000 0.840475 0.837858
O O6 0.539826 0.819503 0.716725
O O7 0.482835 0.812736 0.888900
O O8 0.535348 0.924991 0.816606
O O9 0.250000 0.442734 0.972144
O O10 0.432576 0.460218 0.833449
O O11 0.500000 0.500000 0.000000
O O12 0.490061 0.373968 0.953067
O O13 0.750000 0.839305 0.596176
O O14 0.540167 0.750000 0.571025
O O15 0.250000 0.945901 0.782026
O O16 0.250000 0.845719 0.983650
O O17 0.070055 0.750000 0.035776
#
# Coordination Sequence:
#
# PCOD8239612 Si02
#       6
#     8   8   8   8   8   8
#     4  10  20  35  55  79 106 136 172 215 263 315
#     4  10  18  29  49  75 103 136 172 210 254 308
#     4  11  21  34  54  77 103 136 176 217 256 306
#     4   9  18  32  50  75 107 138 169 209 259 315
#     4   9  19  34  52  75 104 135 170 212 260 311
#     4  11  23  35  47  68 103 143 180 220 264 307
#
# _framework density 17.536847000000002
#
# number of rings (size 3 to 8) (size 9 to 14) (size 15 to 20)
#    0.000    2.000    1.667    2.500    0.000    4.333 
#    0.000    0.000    0.000    1.000    0.000    2.333 
#    0.000    0.000    0.000    0.000    0.000    0.000 
#
# Total GULP energy -595030.912288 kJ/mol
# GULP energy per Si atom -12396.477339 kJ/mol
# Density = 1.749693 g / cm^3
# Si number density = 17.536847 Si / 1000 Ang^3
#
#
#
# Elastic Constant Matrix: (Units=GPa)
#
#
# Indices 1 2 3 4 5 6 
#
# 1 109.3368 65.2005 37.9156 0.0000 0.0000 0.0000
# 2 65.2005 128.4614 54.7349 0.0000 0.0000 0.0000
# 3 37.9156 54.7349 67.7490 0.0000 0.0000 0.0000
# 4 0.0000 0.0000 0.0000 18.7864 0.0000 0.0000
# 5 0.0000 0.0000 0.0000 0.0000 25.3150 0.0000
# 6 0.0000 0.0000 0.0000 0.0000 0.0000 29.3683
#
#
#
# Elastic Compliance Matrix: (Units=1/GPa)
#
#
# Indices 1 2 3 4 5 6 
#
# 1 0.013526 -0.005550 -0.003086 0.000000 0.000000 0.000000
# 2 -0.005550 0.014148 -0.008324 0.000000 0.000000 0.000000
# 3 -0.003086 -0.008324 0.023212 0.000000 0.000000 0.000000
# 4 0.000000 0.000000 0.000000 0.053230 0.000000 0.000000
# 5 0.000000 0.000000 0.000000 0.000000 0.039502 0.000000
# 6 0.000000 0.000000 0.000000 0.000000 0.000000 0.034050
#
#
# Mechanical properties :
#
#
# Convention : Reuss Voigt Hill
#
# Bulk Modulus (GPa) = 58.94056 69.02769 63.98413
# Shear Modulus (GPa) = 23.01550 24.54037 23.77793
#
# Velocity S-wave (km/s) = 3.62665 3.74486 3.68623
# Velocity P-wave (km/s) = 7.15676 7.62533 7.39476
#
# Compressibility (1/GPa) = 0.01696624
#
# Stress axis : x y z
#
# Youngs Moduli (GPa) = 73.93235 70.67963 43.08033
#
# Poissons Ratio (x) = 0.39230 0.13293
# Poissons Ratio (y) = 0.41035 0.35861
# Poissons Ratio (z) = 0.22812 0.58836
#
# Static dielectric constant tensor:
#      x y z
#    x 3.405370 0.000000 0.000000 
#    y 0.000000 0.960690 0.000000 
#    z 0.000000 0.000000 3.107610 
# 
# 
# High freq. dielectric constant tensor:
#      x y z
#    x 1.691850 0.000000 0.000000 
#    y 0.000000 1.673930 0.000000 
#    z 0.000000 0.000000 1.645900 
# 
# From -- ./inp_files/20715.got.cif
#   From: 2010.03.12/outbox.cif.g09.slc.cpg/sg59_11_cif.got.tgz:20715.got - 2010.04.16 16:29:54.
