data_PCOD8239838
_publ_section_title
;
Structure prediction by ZEFSAII (Michael W. Deem and Ramdas Pophale) SiO2 
 PCOD8239838
Probable space group: P M M N
;
_chemical_formula_sum "Si O2"
_cell_formula_units_Z 56
_cell_length_a 21.705201
_cell_length_b 8.884795
_cell_length_c 16.918051
_cell_angle_alpha 90.000000
_cell_angle_beta 90.000000
_cell_angle_gamma 90.000000
_cell_volume 3262.582884
_symmetry_space_group_name_H-M "P M M N"
_symmetry_group_IT_number 59
_space_group.IT_coordinate_system_code '2'
_symmetry_cell_setting 'orthorhombic'
loop_
_space_group_symop_operation_xyz
x,y,z
1/2-x,1/2-y,z
1/2+x,-y,-z
-x,1/2+y,-z
-x,-y,-z
1/2+x,1/2+y,-z
1/2-x,y,z
x,1/2-y,z
loop_
_atom_site_type_symbol
_atom_site_label
_atom_site_fract_x
_atom_site_fract_y
_atom_site_fract_z
Si Si1 0.182123 0.570784 0.357229
Si Si2 0.818780 0.071312 0.962257
Si Si3 0.557226 0.070790 0.048142
Si Si4 0.030417 0.072667 0.619807
Si Si5 0.375534 0.571584 0.198275
Si Si6 0.484649 0.428618 0.797944
Si Si7 0.913558 0.073492 0.519061
O O1 0.250000 0.502582 0.361224
O O2 0.182538 0.750000 0.349874
O O3 0.148625 0.501612 0.280333
O O4 0.148943 0.523008 0.438118
O O5 0.750000 0.010863 0.987488
O O6 0.817497 0.250000 0.964156
O O7 0.832855 0.014018 0.873335
O O8 0.875650 0.015112 0.016611
O O9 0.551221 0.250000 0.041392
O O10 0.556965 0.016111 0.138784
O O11 0.500000 0.000000 0.000000
O O12 0.034774 0.250000 0.620004
O O13 0.034070 0.015484 0.710066
O O14 0.967535 0.018267 0.578070
O O15 0.085504 0.005106 0.566823
O O16 0.373404 0.750000 0.203984
O O17 0.445537 0.521384 0.184282
O O18 0.475725 0.250000 0.807289
O O19 0.917957 0.250000 0.505036
#
# Coordination Sequence:
#
# PCOD8239838 Si02
#       7
#     8   8   8   8   8   8   8
#     4   9  15  23  40  68  98 125 154 191 235 281
#     4   9  17  29  47  71  97 126 162 202 240 284
#     4  11  21  33  51  75 102 130 163 203 247 294
#     4   9  17  29  46  66  91 122 154 192 235 277
#     4   9  14  24  43  69  98 125 153 189 235 287
#     4  10  18  31  50  72  99 127 160 201 244 288
#     4   9  16  27  44  67  94 120 152 191 231 277
#
# _framework density 17.164314999999998
#
# number of rings (size 3 to 8) (size 9 to 14) (size 15 to 20)
#    0.000    2.571    2.857    0.857    0.000    2.286 
#    0.000    0.000    0.000    3.000    0.000    6.000 
#    0.000    0.000    0.000    0.000    0.000    0.000 
#
# Total GULP energy -693981.876115 kJ/mol
# GULP energy per Si atom -12392.533502 kJ/mol
# Density = 1.712525 g / cm^3
# Si number density = 17.164315 Si / 1000 Ang^3
#
#
#
# Elastic Constant Matrix: (Units=GPa)
#
#
# Indices 1 2 3 4 5 6 
#
# 1 121.8960 15.8046 68.3176 0.0000 0.0000 0.0000
# 2 15.8046 17.2114 22.8060 0.0000 0.0000 0.0000
# 3 68.3176 22.8060 135.9956 0.0000 0.0000 0.0000
# 4 0.0000 0.0000 0.0000 26.5126 0.0000 0.0000
# 5 0.0000 0.0000 0.0000 0.0000 27.6198 0.0000
# 6 0.0000 0.0000 0.0000 0.0000 0.0000 15.5560
#
#
#
# Elastic Compliance Matrix: (Units=1/GPa)
#
#
# Indices 1 2 3 4 5 6 
#
# 1 0.011606 -0.003769 -0.005198 0.000000 0.000000 0.000000
# 2 -0.003769 0.075924 -0.010839 0.000000 0.000000 0.000000
# 3 -0.005198 -0.010839 0.011782 0.000000 0.000000 0.000000
# 4 0.000000 0.000000 0.000000 0.037718 0.000000 0.000000
# 5 0.000000 0.000000 0.000000 0.000000 0.036206 0.000000
# 6 0.000000 0.000000 0.000000 0.000000 0.000000 0.064284
#
#
# Mechanical properties :
#
#
# Convention : Reuss Voigt Hill
#
# Bulk Modulus (GPa) = 16.75053 54.32884 35.53968
# Shear Modulus (GPa) = 16.83321 25.14932 20.99127
#
# Velocity S-wave (km/s) = 3.13503 3.83196 3.50088
# Velocity P-wave (km/s) = 4.78379 7.16236 6.09032
#
# Compressibility (1/GPa) = 0.05969960
#
# Stress axis : x y z
#
# Youngs Moduli (GPa) = 86.16429 13.17105 84.87500
#
# Poissons Ratio (x) = 0.04965 0.44118
# Poissons Ratio (y) = 0.32479 0.91993
# Poissons Ratio (z) = 0.44789 0.14276
#
# Static dielectric constant tensor:
#      x y z
#    x 3.356380 0.000000 0.000000 
#    y 0.000000 2.779130 0.000000 
#    z 0.000000 0.000000 3.427030 
# 
# 
# High freq. dielectric constant tensor:
#      x y z
#    x 1.648700 0.000000 0.000000 
#    y 0.000000 1.615830 0.000000 
#    z 0.000000 0.000000 1.668420 
# 
# From -- ./inp_files/26028.got.cif
#   From: 2010.03.12/outbox.cif.g09.slc.cpg/sg59_14_cif.got.tgz:26028.got - 2010.04.16 16:29:54.
