data_PCOD8239393
_publ_section_title
;
Structure prediction by ZEFSAII (Michael W. Deem and Ramdas Pophale) SiO2 
 PCOD8239393
Probable space group: P M M N
;
_chemical_formula_sum "Si O2"
_cell_formula_units_Z 64
_cell_length_a 28.722589
_cell_length_b 9.747379
_cell_length_c 14.970198
_cell_angle_alpha 90.000000
_cell_angle_beta 90.000000
_cell_angle_gamma 90.000000
_cell_volume 4191.205748
_symmetry_space_group_name_H-M "P M M N"
_symmetry_group_IT_number 59
_space_group.IT_coordinate_system_code '2'
_symmetry_cell_setting 'orthorhombic'
loop_
_space_group_symop_operation_xyz
x,y,z
1/2-x,1/2-y,z
1/2+x,-y,-z
-x,1/2+y,-z
-x,-y,-z
1/2+x,1/2+y,-z
1/2-x,y,z
x,1/2-y,z
loop_
_atom_site_type_symbol
_atom_site_label
_atom_site_fract_x
_atom_site_fract_y
_atom_site_fract_z
Si Si1 0.942438 0.405345 0.059169
Si Si2 0.476762 0.907240 0.126454
Si Si3 0.534120 0.090956 0.673363
Si Si4 0.053770 0.590288 0.636246
Si Si5 0.875931 0.405450 0.208512
Si Si6 0.802822 0.910181 0.493013
Si Si7 0.886464 0.409040 0.536546
Si Si8 0.303008 0.096069 0.712412
O O1 0.959934 0.250000 0.075802
O O2 0.892430 0.425971 0.105997
O O3 0.978128 0.503657 0.108356
O O4 0.939011 0.435542 0.952663
O O5 0.493073 0.750000 0.125216
O O6 0.455603 0.944971 0.222841
O O7 0.520037 0.250000 0.660246
O O8 0.581532 0.057601 0.621614
O O9 0.492776 0.999612 0.633401
O O10 0.039564 0.750000 0.632169
O O11 0.081885 0.553773 0.725798
O O12 0.085604 0.549130 0.552365
O O13 0.860523 0.250000 0.227931
O O14 0.831588 0.499649 0.222134
O O15 0.750000 0.941722 0.525383
O O16 0.814011 0.750000 0.506840
O O17 0.807750 0.952208 0.389573
O O18 0.839645 0.001264 0.547674
O O19 0.871861 0.250000 0.533183
O O20 0.250000 0.087938 0.744040
O O21 0.322204 0.250000 0.722179
#
# Coordination Sequence:
#
# PCOD8239393 Si02
#       8
#     8   8   8   8   8   8   8   8
#     4   9  17  29  44  62  86 113 143 179 216 254
#     4   9  17  29  44  62  84 113 147 182 217 248
#     4  10  20  31  44  63  88 119 155 188 215 250
#     4  10  19  30  42  61  91 123 151 178 211 254
#     4  10  18  28  44  66  90 117 146 177 216 261
#     4   9  18  32  48  66  87 112 145 182 219 261
#     4  10  20  32  44  63  90 119 150 181 216 260
#     4   9  18  31  46  65  89 115 143 178 218 261
#
# _framework density 15.270068999999999
#
# number of rings (size 3 to 8) (size 9 to 14) (size 15 to 20)
#    0.000    2.500    2.500    1.125    0.000    2.500 
#    0.000    1.250    0.000    0.000    0.000    0.875 
#    0.000    7.000    0.000    0.000    0.000    0.000 
#
# Total GULP energy -793459.705727 kJ/mol
# GULP energy per Si atom -12397.807902 kJ/mol
# Density = 1.523531 g / cm^3
# Si number density = 15.270069 Si / 1000 Ang^3
#
#
#
# Elastic Constant Matrix: (Units=GPa)
#
#
# Indices 1 2 3 4 5 6 
#
# 1 91.4871 54.7463 43.0740 0.0000 0.0000 0.0000
# 2 54.7463 63.3263 33.6772 0.0000 0.0000 0.0000
# 3 43.0740 33.6772 78.2566 0.0000 0.0000 0.0000
# 4 0.0000 0.0000 0.0000 17.3924 0.0000 0.0000
# 5 0.0000 0.0000 0.0000 0.0000 18.6939 0.0000
# 6 0.0000 0.0000 0.0000 0.0000 0.0000 32.3658
#
#
#
# Elastic Compliance Matrix: (Units=1/GPa)
#
#
# Indices 1 2 3 4 5 6 
#
# 1 0.024433 -0.018117 -0.005652 0.000000 0.000000 0.000000
# 2 -0.018117 0.033911 -0.004622 0.000000 0.000000 0.000000
# 3 -0.005652 -0.004622 0.017878 0.000000 0.000000 0.000000
# 4 0.000000 0.000000 0.000000 0.057496 0.000000 0.000000
# 5 0.000000 0.000000 0.000000 0.000000 0.053494 0.000000
# 6 0.000000 0.000000 0.000000 0.000000 0.000000 0.030897
#
#
# Mechanical properties :
#
#
# Convention : Reuss Voigt Hill
#
# Bulk Modulus (GPa) = 51.43573 55.11833 53.27703
# Shear Modulus (GPa) = 17.77026 20.46192 19.11609
#
# Velocity S-wave (km/s) = 3.41505 3.66457 3.54201
# Velocity P-wave (km/s) = 7.02191 7.35388 7.18981
#
# Compressibility (1/GPa) = 0.01944174
#
# Stress axis : x y z
#
# Youngs Moduli (GPa) = 40.92905 29.48895 55.93387
#
# Poissons Ratio (x) = 0.53424 0.31613
# Poissons Ratio (y) = 0.74149 0.25851
# Poissons Ratio (z) = 0.23132 0.13629
#
# Static dielectric constant tensor:
#      x y z
#    x 2.730200 0.000000 0.000000 
#    y 0.000000 2.964630 0.000000 
#    z 0.000000 0.000000 3.022370 
# 
# 
# High freq. dielectric constant tensor:
#      x y z
#    x 1.561400 0.000000 0.000000 
#    y 0.000000 1.591860 0.000000 
#    z 0.000000 0.000000 1.573200 
# 
# From -- ./inp_files/21855.got.cif
#   From: 2010.03.12/outbox.cif.g09.slc.cpg/sg59_11_cif.got.tgz:21855.got - 2010.04.16 16:29:54.
