data_PCOD8239225
_publ_section_title
;
Structure prediction by ZEFSAII (Michael W. Deem and Ramdas Pophale) SiO2 
 PCOD8239225
Probable space group: P M M N
;
_chemical_formula_sum "Si O2"
_cell_formula_units_Z 56
_cell_length_a 24.239200
_cell_length_b 9.309977
_cell_length_c 16.235034
_cell_angle_alpha 90.000000
_cell_angle_beta 90.000000
_cell_angle_gamma 90.000000
_cell_volume 3663.701587
_symmetry_space_group_name_H-M "P M M N"
_symmetry_group_IT_number 59
_space_group.IT_coordinate_system_code '2'
_symmetry_cell_setting 'orthorhombic'
loop_
_space_group_symop_operation_xyz
x,y,z
1/2-x,1/2-y,z
1/2+x,-y,-z
-x,1/2+y,-z
-x,-y,-z
1/2+x,1/2+y,-z
1/2-x,y,z
x,1/2-y,z
loop_
_atom_site_type_symbol
_atom_site_label
_atom_site_fract_x
_atom_site_fract_y
_atom_site_fract_z
Si Si1 0.495620 0.083957 0.195337
Si Si2 0.399176 0.417945 0.870667
Si Si3 0.584942 0.918381 0.472758
Si Si4 0.493725 0.415835 0.380206
Si Si5 0.550872 0.913885 0.967799
Si Si6 0.812914 0.417923 0.417022
Si Si7 0.813865 0.411326 0.227963
O O1 0.514042 0.250000 0.190632
O O2 0.475172 0.046612 0.287197
O O3 0.444340 0.054062 0.130867
O O4 0.548194 0.988724 0.172857
O O5 0.400850 0.250000 0.851260
O O6 0.343661 0.481513 0.833808
O O7 0.398052 0.449030 0.970613
O O8 0.590177 0.750000 0.454865
O O9 0.558302 0.950809 0.561824
O O10 0.546590 0.988304 0.402653
O O11 0.645492 0.989224 0.472573
O O12 0.511564 0.250000 0.389952
O O13 0.534776 0.750000 0.980929
O O14 0.500000 0.000000 0.000000
O O15 0.750000 0.457312 0.441256
O O16 0.823576 0.250000 0.432243
O O17 0.823995 0.458048 0.322043
O O18 0.750000 0.418949 0.206028
O O19 0.836284 0.250000 0.214814
#
# Coordination Sequence:
#
# PCOD8239225 Si02
#       7
#     8   8   8   8   8   8   8
#     4   9  16  28  44  58  78 112 145 164 187 234
#     4  10  18  26  39  62  88 107 128 166 209 238
#     4  10  19  29  42  63  88 110 136 173 213 247
#     4   9  18  30  43  60  84 115 145 170 200 245
#     4   8  15  26  39  57  80 105 132 161 192 228
#     4   9  18  32  47  61  80 109 142 172 203 245
#     4   9  18  31  44  58  78 107 141 167 190 234
#
# _framework density 15.285088
#
# number of rings (size 3 to 8) (size 9 to 14) (size 15 to 20)
#    0.000    2.857    0.000    2.571    0.000    6.286 
#    0.000    1.429    0.000    0.000    0.000    1.000 
#    0.000    8.000    0.000    0.000    0.000    0.000 
#
# Total GULP energy -693864.344751 kJ/mol
# GULP energy per Si atom -12390.434728 kJ/mol
# Density = 1.525030 g / cm^3
# Si number density = 15.285088 Si / 1000 Ang^3
#
#
#
# Elastic Constant Matrix: (Units=GPa)
#
#
# Indices 1 2 3 4 5 6 
#
# 1 78.9460 41.5054 46.6654 0.0000 0.0000 0.0000
# 2 41.5054 62.9258 40.0280 0.0000 0.0000 0.0000
# 3 46.6654 40.0280 108.7054 0.0000 0.0000 0.0000
# 4 0.0000 0.0000 0.0000 20.3835 0.0000 0.0000
# 5 0.0000 0.0000 0.0000 0.0000 23.0368 0.0000
# 6 0.0000 0.0000 0.0000 0.0000 0.0000 26.2251
#
#
#
# Elastic Compliance Matrix: (Units=1/GPa)
#
#
# Indices 1 2 3 4 5 6 
#
# 1 0.021442 -0.010823 -0.005220 0.000000 0.000000 0.000000
# 2 -0.010823 0.026216 -0.005007 0.000000 0.000000 0.000000
# 3 -0.005220 -0.005007 0.013284 0.000000 0.000000 0.000000
# 4 0.000000 0.000000 0.000000 0.049059 0.000000 0.000000
# 5 0.000000 0.000000 0.000000 0.000000 0.043409 0.000000
# 6 0.000000 0.000000 0.000000 0.000000 0.000000 0.038131
#
#
# Mechanical properties :
#
#
# Convention : Reuss Voigt Hill
#
# Bulk Modulus (GPa) = 53.07222 56.33050 54.70136
# Shear Modulus (GPa) = 20.84021 22.08764 21.46392
#
# Velocity S-wave (km/s) = 3.69648 3.80550 3.75138
# Velocity P-wave (km/s) = 7.28118 7.49949 7.39114
#
# Compressibility (1/GPa) = 0.01884225
#
# Stress axis : x y z
#
# Youngs Moduli (GPa) = 46.63685 38.14530 75.28096
#
# Poissons Ratio (x) = 0.41284 0.39293
# Poissons Ratio (y) = 0.50475 0.37694
# Poissons Ratio (z) = 0.24342 0.19100
#
# Static dielectric constant tensor:
#      x y z
#    x 2.714800 0.000000 0.000000 
#    y 0.000000 2.903300 0.000000 
#    z 0.000000 0.000000 3.284510 
# 
# 
# High freq. dielectric constant tensor:
#      x y z
#    x 1.553460 0.000000 0.000000 
#    y 0.000000 1.594090 0.000000 
#    z 0.000000 0.000000 1.583720 
# 
# From -- ./inp_files/28083.got.cif
#   From: 2010.03.12/outbox.cif.g09.slc.cpg/sg59_15_cif.got.tgz:28083.got - 2010.04.16 16:29:54.
