data_PCOD8239752
_publ_section_title
;
Structure prediction by ZEFSAII (Michael W. Deem and Ramdas Pophale) SiO2 
 PCOD8239752
Probable space group: P M M N
;
_chemical_formula_sum "Si O2"
_cell_formula_units_Z 48
_cell_length_a 16.731116
_cell_length_b 8.466320
_cell_length_c 18.548004
_cell_angle_alpha 90.000000
_cell_angle_beta 90.000000
_cell_angle_gamma 90.000000
_cell_volume 2627.342981
_symmetry_space_group_name_H-M "P M M N"
_symmetry_group_IT_number 59
_space_group.IT_coordinate_system_code '2'
_symmetry_cell_setting 'orthorhombic'
loop_
_space_group_symop_operation_xyz
x,y,z
1/2-x,1/2-y,z
1/2+x,-y,-z
-x,1/2+y,-z
-x,-y,-z
1/2+x,1/2+y,-z
1/2-x,y,z
x,1/2-y,z
loop_
_atom_site_type_symbol
_atom_site_label
_atom_site_fract_x
_atom_site_fract_y
_atom_site_fract_z
Si Si1 0.572585 0.431473 0.199869
Si Si2 0.567008 0.065890 0.710401
Si Si3 0.662458 0.437626 0.334275
Si Si4 0.991405 0.437522 0.420203
Si Si5 0.518514 0.066563 0.922249
Si Si6 0.839469 0.933947 0.828841
O O1 0.581789 0.250000 0.176368
O O2 0.495487 0.451715 0.250008
O O3 0.646253 0.487991 0.250548
O O4 0.559783 0.534405 0.127737
O O5 0.545580 0.250000 0.718584
O O6 0.564217 0.013928 0.626497
O O7 0.649233 0.027552 0.752479
O O8 0.750000 0.504140 0.356745
O O9 0.661569 0.250000 0.338165
O O10 0.593706 0.500488 0.388275
O O11 0.997786 0.250000 0.418550
O O12 0.000000 0.500000 0.500000
O O13 0.535409 0.250000 0.927142
O O14 0.597723 0.986291 0.889891
O O15 0.500000 0.000000 0.000000
O O16 0.750000 0.971680 0.856640
O O17 0.850824 0.750000 0.813828
#
# Coordination Sequence:
#
# PCOD8239752 Si02
#       6
#     8   8   8   8   8   8
#     4   9  16  29  50  73  97 126 162 203 246 296
#     4  10  18  30  50  73  98 129 166 203 241 297
#     4   8  15  29  50  74  97 124 161 205 250 295
#     4  10  19  32  51  73 100 133 169 210 255 306
#     4  11  21  34  53  75 103 137 173 210 250 303
#     4  10  20  35  55  78 104 132 166 213 263 306
#
# _framework density 18.269406
#
# number of rings (size 3 to 8) (size 9 to 14) (size 15 to 20)
#    0.000    2.333    0.000    7.500    0.000    1.333 
#    0.000    1.667    0.000   24.000    0.000    0.000 
#    0.000    0.000    0.000    0.000    0.000    0.000 
#
# Total GULP energy -594752.634358 kJ/mol
# GULP energy per Si atom -12390.679882 kJ/mol
# Density = 1.822782 g / cm^3
# Si number density = 18.269406 Si / 1000 Ang^3
#
#
#
# Elastic Constant Matrix: (Units=GPa)
#
#
# Indices 1 2 3 4 5 6 
#
# 1 95.6313 30.9383 55.6820 0.0000 0.0000 0.0000
# 2 30.9383 74.1129 34.7689 0.0000 0.0000 0.0000
# 3 55.6820 34.7689 152.9960 0.0000 0.0000 0.0000
# 4 0.0000 0.0000 0.0000 33.3492 0.0000 0.0000
# 5 0.0000 0.0000 0.0000 0.0000 21.2170 0.0000
# 6 0.0000 0.0000 0.0000 0.0000 0.0000 15.3913
#
#
#
# Elastic Compliance Matrix: (Units=1/GPa)
#
#
# Indices 1 2 3 4 5 6 
#
# 1 0.014221 -0.003927 -0.004283 0.000000 0.000000 0.000000
# 2 -0.003927 0.016188 -0.002249 0.000000 0.000000 0.000000
# 3 -0.004283 -0.002249 0.008606 0.000000 0.000000 0.000000
# 4 0.000000 0.000000 0.000000 0.029986 0.000000 0.000000
# 5 0.000000 0.000000 0.000000 0.000000 0.047132 0.000000
# 6 0.000000 0.000000 0.000000 0.000000 0.000000 0.064972
#
#
# Mechanical properties :
#
#
# Convention : Reuss Voigt Hill
#
# Bulk Modulus (GPa) = 55.26303 62.83539 59.04921
# Shear Modulus (GPa) = 24.03196 27.41491 25.72344
#
# Velocity S-wave (km/s) = 3.63081 3.87795 3.75641
# Velocity P-wave (km/s) = 6.92038 7.38375 7.15582
#
# Compressibility (1/GPa) = 0.01809528
#
# Stress axis : x y z
#
# Youngs Moduli (GPa) = 70.31700 61.77567 116.19554
#
# Poissons Ratio (x) = 0.24261 0.49770
# Poissons Ratio (y) = 0.27615 0.26137
# Poissons Ratio (z) = 0.30119 0.13896
#
# Static dielectric constant tensor:
#      x y z
#    x 3.651460 0.000000 0.000000 
#    y 0.000000 3.319660 0.000000 
#    z 0.000000 0.000000 3.591800 
# 
# 
# High freq. dielectric constant tensor:
#      x y z
#    x 1.683460 0.000000 0.000000 
#    y 0.000000 1.708630 0.000000 
#    z 0.000000 0.000000 1.704200 
# 
# From -- ./inp_files/27779.got.cif
#   From: 2010.03.12/outbox.cif.g09.slc.cpg/sg59_14_cif.got.tgz:27779.got - 2010.04.16 16:29:54.
