data_PCOD8239317
_publ_section_title
;
Structure prediction by ZEFSAII (Michael W. Deem and Ramdas Pophale) SiO2 
 PCOD8239317
Probable space group: P M M N
;
_chemical_formula_sum "Si O2"
_cell_formula_units_Z 48
_cell_length_a 25.127723
_cell_length_b 21.597666
_cell_length_c 5.152819
_cell_angle_alpha 90.000000
_cell_angle_beta 90.000000
_cell_angle_gamma 90.000000
_cell_volume 2796.435741
_symmetry_space_group_name_H-M "P M M N"
_symmetry_group_IT_number 59
_space_group.IT_coordinate_system_code '2'
_symmetry_cell_setting 'orthorhombic'
loop_
_space_group_symop_operation_xyz
x,y,z
1/2-x,1/2-y,z
1/2+x,-y,-z
-x,1/2+y,-z
-x,-y,-z
1/2+x,1/2+y,-z
1/2-x,y,z
x,1/2-y,z
loop_
_atom_site_type_symbol
_atom_site_label
_atom_site_fract_x
_atom_site_fract_y
_atom_site_fract_z
Si Si1 0.864638 0.030347 0.983074
Si Si2 0.308621 0.181019 0.776160
Si Si3 0.575139 0.051215 0.485339
Si Si4 0.250000 0.410186 0.478323
Si Si5 0.750000 0.506901 0.021666
Si Si6 0.460562 0.409922 0.514826
Si Si7 0.900525 0.610898 0.982744
O O1 0.887816 0.064829 0.732190
O O2 0.800952 0.037171 0.985188
O O3 0.877307 0.957796 0.982501
O O4 0.890410 0.064018 0.229824
O O5 0.250000 0.181523 0.914714
O O6 0.323004 0.250000 0.675574
O O7 0.303187 0.132468 0.531535
O O8 0.352159 0.158695 0.981994
O O9 0.524255 0.096677 0.487512
O O10 0.555088 0.981325 0.496759
O O11 0.250000 0.437456 0.190514
O O12 0.250000 0.465383 0.689236
O O13 0.431438 0.373477 0.281974
O O14 0.442490 0.379935 0.784443
#
# Coordination Sequence:
#
# PCOD8239317 Si02
#       7
#     8   8   8   4   4   8   8
#     4  10  18  27  44  62  84 108 134 169 209 252
#     4   9  19  35  47  62  83 110 145 187 230 269
#     4   9  17  29  42  61  82 104 129 168 213 251
#     4  10  21  32  46  56  82 110 144 182 218 264
#     4  12  20  30  45  66  84 112 144 176 209 266
#     4   9  18  29  44  61  79 100 133 171 215 258
#     4  10  18  29  45  60  78 105 136 178 219 255
#
# _framework density 17.164705999999999
#
# number of rings (size 3 to 8) (size 9 to 14) (size 15 to 20)
#    0.500    1.833    1.667    2.000    4.667    4.000 
#    0.000    4.167    0.000    0.000    0.000    0.000 
#    0.000    0.000    0.000    0.000    0.000    0.000 
#
# Total GULP energy -594958.156139 kJ/mol
# GULP energy per Si atom -12394.961586 kJ/mol
# Density = 1.712564 g / cm^3
# Si number density = 17.164706 Si / 1000 Ang^3
#
#
#
# Elastic Constant Matrix: (Units=GPa)
#
#
# Indices 1 2 3 4 5 6 
#
# 1 122.2288 14.8065 32.9014 0.0000 0.0000 0.0000
# 2 14.8065 13.8648 0.5510 0.0000 0.0000 0.0000
# 3 32.9014 0.5510 85.1563 0.0000 0.0000 0.0000
# 4 0.0000 0.0000 0.0000 5.6233 0.0000 0.0000
# 5 0.0000 0.0000 0.0000 0.0000 22.9387 0.0000
# 6 0.0000 0.0000 0.0000 0.0000 0.0000 14.3129
#
#
#
# Elastic Compliance Matrix: (Units=1/GPa)
#
#
# Indices 1 2 3 4 5 6 
#
# 1 0.010621 -0.011182 -0.004031 0.000000 0.000000 0.000000
# 2 -0.011182 0.083917 0.003777 0.000000 0.000000 0.000000
# 3 -0.004031 0.003777 0.013276 0.000000 0.000000 0.000000
# 4 0.000000 0.000000 0.000000 0.177831 0.000000 0.000000
# 5 0.000000 0.000000 0.000000 0.000000 0.043594 0.000000
# 6 0.000000 0.000000 0.000000 0.000000 0.000000 0.069867
#
#
# Mechanical properties :
#
#
# Convention : Reuss Voigt Hill
#
# Bulk Modulus (GPa) = 11.77274 35.30754 23.54014
# Shear Modulus (GPa) = 11.10388 20.10772 15.60580
#
# Velocity S-wave (km/s) = 2.54619 3.42637 3.01853
# Velocity P-wave (km/s) = 3.93925 6.02228 5.08849
#
# Compressibility (1/GPa) = 0.08494202
#
# Stress axis : x y z
#
# Youngs Moduli (GPa) = 94.15212 11.91654 75.32273
#
# Poissons Ratio (x) = 0.13325 0.30365
# Poissons Ratio (y) = 1.05284 -0.28453
# Poissons Ratio (z) = 0.37955 -0.04501
#
# Static dielectric constant tensor:
#      x y z
#    x 3.399380 0.000000 0.000000 
#    y 0.000000 2.530910 0.000000 
#    z 0.000000 0.000000 3.308130 
# 
# 
# High freq. dielectric constant tensor:
#      x y z
#    x 1.668920 0.000000 0.000000 
#    y 0.000000 1.567280 0.000000 
#    z 0.000000 0.000000 1.673710 
# 
# From -- ./inp_files/3422.got.cif
#   From: 2010.03.12/outbox.cif.g09.slc.cpg/sg59_2_cif.got.tgz:3422.got - 2010.04.16 16:29:54.
