data_PCOD8239882
_publ_section_title
;
Structure prediction by ZEFSAII (Michael W. Deem and Ramdas Pophale) SiO2 
 PCOD8239882
Probable space group: P M M N
;
_chemical_formula_sum "Si O2"
_cell_formula_units_Z 56
_cell_length_a 28.931508
_cell_length_b 8.929730
_cell_length_c 12.671550
_cell_angle_alpha 90.000000
_cell_angle_beta 90.000000
_cell_angle_gamma 90.000000
_cell_volume 3273.701974
_symmetry_space_group_name_H-M "P M M N"
_symmetry_group_IT_number 59
_space_group.IT_coordinate_system_code '2'
_symmetry_cell_setting 'orthorhombic'
loop_
_space_group_symop_operation_xyz
x,y,z
1/2-x,1/2-y,z
1/2+x,-y,-z
-x,1/2+y,-z
-x,-y,-z
1/2+x,1/2+y,-z
1/2-x,y,z
x,1/2-y,z
loop_
_atom_site_type_symbol
_atom_site_label
_atom_site_fract_x
_atom_site_fract_y
_atom_site_fract_z
Si Si1 0.391137 0.926702 0.699348
Si Si2 0.799641 0.927172 0.613021
Si Si3 0.955708 0.921914 0.885120
Si Si4 0.049848 0.075771 0.874971
Si Si5 0.802238 0.924854 0.374425
Si Si6 0.550005 0.072668 0.502655
Si Si7 0.895782 0.924402 0.689306
O O1 0.390121 0.750000 0.703898
O O2 0.420477 0.982919 0.598213
O O3 0.413565 0.986752 0.806079
O O4 0.338734 0.986182 0.696493
O O5 0.750000 0.990444 0.655286
O O6 0.796392 0.750000 0.609746
O O7 0.807935 0.984102 0.494034
O O8 0.842286 0.978894 0.685982
O O9 0.972383 0.750000 0.878824
O O10 0.912870 0.953073 0.807887
O O11 0.939256 0.961761 0.002888
O O12 0.998050 0.024105 0.847439
O O13 0.054334 0.250000 0.849356
O O14 0.750000 0.957036 0.334346
O O15 0.813713 0.750000 0.366517
O O16 0.544429 0.250000 0.502111
O O17 0.500000 0.000000 0.500000
O O18 0.574821 0.022044 0.608986
O O19 0.900415 0.750000 0.657212
#
# Coordination Sequence:
#
# PCOD8239882 Si02
#       7
#     8   8   8   8   8   8   8
#     4  11  22  34  49  72 102 133 167 206 247 293
#     4   8  14  26  47  74  99 124 156 191 233 290
#     4   9  19  34  51  74  99 126 166 213 254 294
#     4  10  20  34  52  71  96 132 172 211 250 295
#     4   9  17  31  52  76 100 128 165 203 240 293
#     4  11  23  34  45  68 101 132 162 198 242 295
#     4  10  18  31  52  73  98 128 158 198 246 295
#
# _framework density 17.106017999999999
#
# number of rings (size 3 to 8) (size 9 to 14) (size 15 to 20)
#    0.000    2.286    1.429    3.000    0.000    6.571 
#    0.000    0.000    0.000    1.286    0.000    4.000 
#    0.000    0.000    0.000    0.000    0.000    0.000 
#
# Total GULP energy -694342.180439 kJ/mol
# GULP energy per Si atom -12398.967508 kJ/mol
# Density = 1.706708 g / cm^3
# Si number density = 17.106018 Si / 1000 Ang^3
#
#
#
# Elastic Constant Matrix: (Units=GPa)
#
#
# Indices 1 2 3 4 5 6 
#
# 1 151.4309 42.3017 67.9878 0.0000 0.0000 0.0000
# 2 42.3017 51.7601 30.5352 0.0000 0.0000 0.0000
# 3 67.9878 30.5352 87.9129 0.0000 0.0000 0.0000
# 4 0.0000 0.0000 0.0000 22.7518 0.0000 0.0000
# 5 0.0000 0.0000 0.0000 0.0000 23.9584 0.0000
# 6 0.0000 0.0000 0.0000 0.0000 0.0000 26.1565
#
#
#
# Elastic Compliance Matrix: (Units=1/GPa)
#
#
# Indices 1 2 3 4 5 6 
#
# 1 0.011066 -0.005025 -0.006813 0.000000 0.000000 0.000000
# 2 -0.005025 0.026581 -0.005346 0.000000 0.000000 0.000000
# 3 -0.006813 -0.005346 0.018500 0.000000 0.000000 0.000000
# 4 0.000000 0.000000 0.000000 0.043953 0.000000 0.000000
# 5 0.000000 0.000000 0.000000 0.000000 0.041739 0.000000
# 6 0.000000 0.000000 0.000000 0.000000 0.000000 0.038231
#
#
# Mechanical properties :
#
#
# Convention : Reuss Voigt Hill
#
# Bulk Modulus (GPa) = 45.91512 63.63926 54.77719
# Shear Modulus (GPa) = 22.55326 24.59195 23.57261
#
# Velocity S-wave (km/s) = 3.63497 3.79571 3.71621
# Velocity P-wave (km/s) = 6.67212 7.51622 7.10671
#
# Compressibility (1/GPa) = 0.02177932
#
# Stress axis : x y z
#
# Youngs Moduli (GPa) = 90.36681 37.62151 54.05271
#
# Poissons Ratio (x) = 0.18904 0.36824
# Poissons Ratio (y) = 0.45408 0.28899
# Poissons Ratio (z) = 0.61564 0.20114
#
# Static dielectric constant tensor:
#      x y z
#    x 2.720680 0.000000 0.000000 
#    y 0.000000 3.088960 0.000000 
#    z 0.000000 0.000000 3.123720 
# 
# 
# High freq. dielectric constant tensor:
#      x y z
#    x 1.665870 0.000000 0.000000 
#    y 0.000000 1.650600 0.000000 
#    z 0.000000 0.000000 1.641180 
# 
# From -- ./inp_files/24981.got.cif
#   From: 2010.03.12/outbox.cif.g09.slc.cpg/sg59_13_cif.got.tgz:24981.got - 2010.04.16 16:29:54.
