data_PCOD8239159
_publ_section_title
;
Structure prediction by ZEFSAII (Michael W. Deem and Ramdas Pophale) SiO2 
 PCOD8239159
Probable space group: P M M N
;
_chemical_formula_sum "Si O2"
_cell_formula_units_Z 48
_cell_length_a 10.179978
_cell_length_b 19.502549
_cell_length_c 13.779939
_cell_angle_alpha 90.000000
_cell_angle_beta 90.000000
_cell_angle_gamma 90.000000
_cell_volume 2735.807352
_symmetry_space_group_name_H-M "P M M N"
_symmetry_group_IT_number 59
_space_group.IT_coordinate_system_code '2'
_symmetry_cell_setting 'orthorhombic'
loop_
_space_group_symop_operation_xyz
x,y,z
1/2-x,1/2-y,z
1/2+x,-y,-z
-x,1/2+y,-z
-x,-y,-z
1/2+x,1/2+y,-z
1/2-x,y,z
x,1/2-y,z
loop_
_atom_site_type_symbol
_atom_site_label
_atom_site_fract_x
_atom_site_fract_y
_atom_site_fract_z
Si Si1 0.399437 0.671800 0.113336
Si Si2 0.595288 0.057757 0.042925
Si Si3 0.989026 0.445380 0.257944
Si Si4 0.250000 0.404908 0.580194
Si Si5 0.250000 0.430167 0.362449
Si Si6 0.750000 0.434000 0.385027
Si Si7 0.494851 0.393880 0.704564
Si Si8 0.250000 0.590650 0.403216
O O1 0.250000 0.660439 0.150855
O O2 0.425053 0.750000 0.083160
O O3 0.501708 0.651044 0.197700
O O4 0.423803 0.626233 0.018889
O O5 0.750000 0.034385 0.044210
O O6 0.543139 0.076920 0.149094
O O7 0.500000 0.000000 0.000000
O O8 0.878387 0.413200 0.326070
O O9 0.990003 0.527386 0.263144
O O10 0.124603 0.412640 0.295949
O O11 0.250000 0.387720 0.464525
O O12 0.250000 0.485904 0.592105
O O13 0.374892 0.372871 0.635159
O O14 0.250000 0.509538 0.388725
O O15 0.750000 0.390941 0.483573
O O16 0.623000 0.375641 0.643466
#
# Coordination Sequence:
#
# PCOD8239159 Si02
#       8
#     8   8   8   4   4   4   8   4
#     4  10  21  37  55  77 105 141 182 221 264 324
#     4  11  22  34  55  80 106 141 181 229 278 325
#     4  10  18  29  47  74 105 136 172 212 266 311
#     4   9  18  28  44  73 107 136 158 202 260 310
#     4   9  18  28  44  72 108 135 164 202 258 317
#     4   9  16  28  42  70 106 131 168 216 252 301
#     4  10  17  29  49  72 101 138 170 207 257 314
#     4   9  16  26  46  69  99 138 170 204 250 300
#
# _framework density 17.545095
#
# number of rings (size 3 to 8) (size 9 to 14) (size 15 to 20)
#    0.000    2.167    3.333    1.000    1.167    4.000 
#    0.000    0.417    0.000    0.000    0.000    7.000 
#    0.000    0.000    0.000    0.000    0.000    0.000 
#
# Total GULP energy -595058.479955 kJ/mol
# GULP energy per Si atom -12397.051666 kJ/mol
# Density = 1.750516 g / cm^3
# Si number density = 17.545095 Si / 1000 Ang^3
#
#
#
# Elastic Constant Matrix: (Units=GPa)
#
#
# Indices 1 2 3 4 5 6 
#
# 1 152.8050 30.3471 80.5877 0.0000 0.0000 0.0000
# 2 30.3471 50.2724 37.5053 0.0000 0.0000 0.0000
# 3 80.5877 37.5053 166.2055 0.0000 0.0000 0.0000
# 4 0.0000 0.0000 0.0000 14.5653 0.0000 0.0000
# 5 0.0000 0.0000 0.0000 0.0000 34.8278 0.0000
# 6 0.0000 0.0000 0.0000 0.0000 0.0000 10.8268
#
#
#
# Elastic Compliance Matrix: (Units=1/GPa)
#
#
# Indices 1 2 3 4 5 6 
#
# 1 0.009075 -0.002640 -0.003804 0.000000 0.000000 0.000000
# 2 -0.002640 0.024686 -0.004291 0.000000 0.000000 0.000000
# 3 -0.003804 -0.004291 0.008830 0.000000 0.000000 0.000000
# 4 0.000000 0.000000 0.000000 0.068656 0.000000 0.000000
# 5 0.000000 0.000000 0.000000 0.000000 0.028713 0.000000
# 6 0.000000 0.000000 0.000000 0.000000 0.000000 0.092363
#
#
# Mechanical properties :
#
#
# Convention : Reuss Voigt Hill
#
# Bulk Modulus (GPa) = 47.34667 74.01812 60.68240
# Shear Modulus (GPa) = 19.16934 26.76683 22.96809
#
# Velocity S-wave (km/s) = 3.30900 3.91013 3.62206
# Velocity P-wave (km/s) = 6.45318 7.91609 7.22177
#
# Compressibility (1/GPa) = 0.02112081
#
# Stress axis : x y z
#
# Youngs Moduli (GPa) = 110.19279 40.50850 113.25648
#
# Poissons Ratio (x) = 0.10694 0.43088
# Poissons Ratio (y) = 0.29089 0.48594
# Poissons Ratio (z) = 0.41923 0.17381
#
# Static dielectric constant tensor:
#      x y z
#    x 3.484560 0.000000 0.000000 
#    y 0.000000 2.679550 0.000000 
#    z 0.000000 0.000000 3.459400 
# 
# 
# High freq. dielectric constant tensor:
#      x y z
#    x 1.688920 0.000000 0.000000 
#    y 0.000000 1.610360 0.000000 
#    z 0.000000 0.000000 1.696170 
# 
# From -- ./inp_files/20629.got.cif
#   From: 2010.03.12/outbox.cif.g09.slc.cpg/sg59_11_cif.got.tgz:20629.got - 2010.04.16 16:29:54.
