data_PCOD8239589
_publ_section_title
;
Structure prediction by ZEFSAII (Michael W. Deem and Ramdas Pophale) SiO2 
 PCOD8239589
Probable space group: P M M N
;
_chemical_formula_sum "Si O2"
_cell_formula_units_Z 40
_cell_length_a 20.835001
_cell_length_b 9.374556
_cell_length_c 11.412081
_cell_angle_alpha 90.000000
_cell_angle_beta 90.000000
_cell_angle_gamma 90.000000
_cell_volume 2228.994921
_symmetry_space_group_name_H-M "P M M N"
_symmetry_group_IT_number 59
_space_group.IT_coordinate_system_code '2'
_symmetry_cell_setting 'orthorhombic'
loop_
_space_group_symop_operation_xyz
x,y,z
1/2-x,1/2-y,z
1/2+x,-y,-z
-x,1/2+y,-z
-x,-y,-z
1/2+x,1/2+y,-z
1/2-x,y,z
x,1/2-y,z
loop_
_atom_site_type_symbol
_atom_site_label
_atom_site_fract_x
_atom_site_fract_y
_atom_site_fract_z
Si Si1 0.590089 0.407595 0.036018
Si Si2 0.823211 0.918404 0.621523
Si Si3 0.506242 0.906691 0.178758
Si Si4 0.946728 0.080142 0.576089
Si Si5 0.676618 0.595091 0.888670
O O1 0.611364 0.250000 0.073735
O O2 0.564001 0.483790 0.153704
O O3 0.537467 0.403288 0.935191
O O4 0.651139 0.488275 0.985845
O O5 0.750000 0.955214 0.580527
O O6 0.835963 0.750000 0.603630
O O7 0.831562 0.962932 0.757066
O O8 0.876239 0.011085 0.550449
O O9 0.535776 0.750000 0.202067
O O10 0.464531 0.954582 0.289641
O O11 0.945078 0.250000 0.549479
O O12 0.000000 0.000000 0.500000
O O13 0.750000 0.615867 0.918510
O O14 0.641838 0.750000 0.899835
#
# Coordination Sequence:
#
# PCOD8239589 Si02
#       5
#     8   8   8   8   8
#     4  10  18  29  48  73 100 130 165 205 247 297
#     4   9  18  33  53  77 105 137 173 214 262 314
#     4   9  19  33  47  69 100 133 166 201 249 303
#     4  11  22  36  54  78 107 139 178 221 265 313
#     4   9  17  29  47  72 103 137 168 202 251 309
#
# _framework density 17.945307
#
# number of rings (size 3 to 8) (size 9 to 14) (size 15 to 20)
#    0.000    2.400    2.000    2.400    0.000    3.200 
#    0.000    2.000    0.000    1.200    0.000    8.400 
#    0.000    0.000    0.000    0.000    0.000    0.000 
#
# Total GULP energy -495715.456819 kJ/mol
# GULP energy per Si atom -12392.886420 kJ/mol
# Density = 1.790446 g / cm^3
# Si number density = 17.945307 Si / 1000 Ang^3
#
#
#
# Elastic Constant Matrix: (Units=GPa)
#
#
# Indices 1 2 3 4 5 6 
#
# 1 108.1699 66.1862 29.4137 0.0000 0.0000 0.0000
# 2 66.1862 113.9919 32.5549 0.0000 0.0000 0.0000
# 3 29.4137 32.5549 29.5159 0.0000 0.0000 0.0000
# 4 0.0000 0.0000 0.0000 21.3569 0.0000 0.0000
# 5 0.0000 0.0000 0.0000 0.0000 30.7380 0.0000
# 6 0.0000 0.0000 0.0000 0.0000 0.0000 34.9089
#
#
#
# Elastic Compliance Matrix: (Units=1/GPa)
#
#
# Indices 1 2 3 4 5 6 
#
# 1 0.015558 -0.006723 -0.008089 0.000000 0.000000 0.000000
# 2 -0.006723 0.015712 -0.010630 0.000000 0.000000 0.000000
# 3 -0.008089 -0.010630 0.053665 0.000000 0.000000 0.000000
# 4 0.000000 0.000000 0.000000 0.046823 0.000000 0.000000
# 5 0.000000 0.000000 0.000000 0.000000 0.032533 0.000000
# 6 0.000000 0.000000 0.000000 0.000000 0.000000 0.028646
#
#
# Mechanical properties :
#
#
# Convention : Reuss Voigt Hill
#
# Bulk Modulus (GPa) = 29.36724 56.44304 42.90514
# Shear Modulus (GPa) = 19.59474 25.63563 22.61519
#
# Velocity S-wave (km/s) = 3.30800 3.78371 3.55382
# Velocity P-wave (km/s) = 5.56694 7.11405 6.38751
#
# Compressibility (1/GPa) = 0.03405155
#
# Stress axis : x y z
#
# Youngs Moduli (GPa) = 64.27580 63.64573 18.63422
#
# Poissons Ratio (x) = 0.42791 0.15072
# Poissons Ratio (y) = 0.43214 0.19808
# Poissons Ratio (z) = 0.51990 0.67654
#
# Static dielectric constant tensor:
#      x y z
#    x 3.234360 0.000000 0.000000 
#    y 0.000000 3.928570 0.000000 
#    z 0.000000 0.000000 3.043140 
# 
# 
# High freq. dielectric constant tensor:
#      x y z
#    x 1.684430 0.000000 0.000000 
#    y 0.000000 1.705210 0.000000 
#    z 0.000000 0.000000 1.653820 
# 
# From -- ./inp_files/14039.got.cif
#   From: 2010.03.12/outbox.cif.g09.slc.cpg/sg59_8_cif.got.tgz:14039.got - 2010.04.16 16:29:54.
