data_PCOD8239812
_publ_section_title
;
Structure prediction by ZEFSAII (Michael W. Deem and Ramdas Pophale) SiO2 
 PCOD8239812
Probable space group: P M M N
;
_chemical_formula_sum "Si O2"
_cell_formula_units_Z 48
_cell_length_a 30.989040
_cell_length_b 8.654249
_cell_length_c 9.119438
_cell_angle_alpha 90.000000
_cell_angle_beta 90.000000
_cell_angle_gamma 90.000000
_cell_volume 2445.713519
_symmetry_space_group_name_H-M "P M M N"
_symmetry_group_IT_number 59
_space_group.IT_coordinate_system_code '2'
_symmetry_cell_setting 'orthorhombic'
loop_
_space_group_symop_operation_xyz
x,y,z
1/2-x,1/2-y,z
1/2+x,-y,-z
-x,1/2+y,-z
-x,-y,-z
1/2+x,1/2+y,-z
1/2-x,y,z
x,1/2-y,z
loop_
_atom_site_type_symbol
_atom_site_label
_atom_site_fract_x
_atom_site_fract_y
_atom_site_fract_z
Si Si1 0.839157 0.070156 0.827231
Si Si2 0.750000 0.073751 0.137382
Si Si3 0.419520 0.067987 0.328750
Si Si4 0.580418 0.930875 0.340697
Si Si5 0.750000 0.570241 0.834151
Si Si6 0.499475 0.567506 0.160892
Si Si7 0.656504 0.424247 0.172201
O O1 0.845053 0.250000 0.790226
O O2 0.873681 0.968634 0.741719
O O3 0.792544 0.012967 0.770179
O O4 0.844801 0.037677 0.999900
O O5 0.750000 0.250000 0.069593
O O6 0.794045 0.052014 0.230735
O O7 0.750000 0.948279 0.009250
O O8 0.428429 0.250000 0.320742
O O9 0.419811 0.002783 0.494719
O O10 0.455857 0.978094 0.240776
O O11 0.574531 0.750000 0.350023
O O12 0.540358 0.001915 0.249893
O O13 0.625479 0.964115 0.261102
O O14 0.750000 0.750000 0.791752
O O15 0.502533 0.750000 0.148823
O O16 0.500000 0.500000 0.000000
O O17 0.640880 0.250000 0.201089
#
# Coordination Sequence:
#
# PCOD8239812 Si02
#       7
#     8   4   8   8   4   8   8
#     4  10  20  36  57  83 113 148 188 232 279 331
#     4   8  16  32  51  78 113 146 184 234 280 324
#     4  11  23  39  57  81 112 147 186 231 277 329
#     4  10  23  39  55  79 114 148 181 224 279 334
#     4  10  18  30  53  84 113 146 186 232 280 326
#     4  11  23  40  61  85 111 144 183 228 278 332
#     4   9  18  33  56  81 108 143 186 230 274 325
#
# _framework density 19.626173999999999
#
# number of rings (size 3 to 8) (size 9 to 14) (size 15 to 20)
#    0.000    2.000    0.000    4.750    0.000    8.667 
#    0.000    0.833    0.000    4.000    0.000    0.000 
#    0.000    0.000    0.000    0.000    0.000    0.000 
#
# Total GULP energy -595195.994975 kJ/mol
# GULP energy per Si atom -12399.916562 kJ/mol
# Density = 1.958150 g / cm^3
# Si number density = 19.626174 Si / 1000 Ang^3
#
#
#
# Elastic Constant Matrix: (Units=GPa)
#
#
# Indices 1 2 3 4 5 6 
#
# 1 152.5005 16.5180 62.4323 0.0000 0.0000 0.0000
# 2 16.5180 49.8792 23.0805 0.0000 0.0000 0.0000
# 3 62.4323 23.0805 106.0450 0.0000 0.0000 0.0000
# 4 0.0000 0.0000 0.0000 25.7279 0.0000 0.0000
# 5 0.0000 0.0000 0.0000 0.0000 -5.4135 0.0000
# 6 0.0000 0.0000 0.0000 0.0000 0.0000 36.6356
#
#
#
# Elastic Compliance Matrix: (Units=1/GPa)
#
#
# Indices 1 2 3 4 5 6 
#
# 1 0.008654 -0.000565 -0.004972 0.000000 0.000000 0.000000
# 2 -0.000565 0.022331 -0.004527 0.000000 0.000000 0.000000
# 3 -0.004972 -0.004527 0.013342 0.000000 0.000000 0.000000
# 4 0.000000 0.000000 0.000000 0.038868 0.000000 0.000000
# 5 0.000000 0.000000 0.000000 0.000000 -0.184724 0.000000
# 6 0.000000 0.000000 0.000000 0.000000 0.000000 0.027296
#
#
# Mechanical properties :
#
#
# Convention : Reuss Voigt Hill
#
# Bulk Modulus (GPa) = 41.32583 56.94291 49.13437
# Shear Modulus (GPa) = -108.60597 25.14959 -41.72819
#
# Velocity S-wave (km/s) = -7.44698 3.58359 -4.61602
# Velocity P-wave (km/s) = 7.26919 6.79703 1.82229
#
# Compressibility (1/GPa) = 0.02419794
#
# Stress axis : x y z
#
# Youngs Moduli (GPa) = 115.55314 44.78163 74.94860
#
# Poissons Ratio (x) = 0.02531 0.37264
# Poissons Ratio (y) = 0.06531 0.33933
# Poissons Ratio (z) = 0.57452 0.20275
#
# Static dielectric constant tensor:
#      x y z
#    x 3.663880 0.000000 0.000000 
#    y 0.000000 3.468510 0.000000 
#    z 0.000000 0.000000 3.592650 
# 
# 
# High freq. dielectric constant tensor:
#      x y z
#    x 1.787100 0.000000 0.000000 
#    y 0.000000 1.762330 0.000000 
#    z 0.000000 0.000000 1.741800 
# 
# From -- ./inp_files/13032.got.cif
#   From: 2010.03.12/outbox.cif.g09.slc.cpg/sg59_7_cif.got.tgz:13032.got - 2010.04.16 16:29:54.
