data_PCOD8239133
_publ_section_title
;
Structure prediction by ZEFSAII (Michael W. Deem and Ramdas Pophale) SiO2 
 PCOD8239133
Probable space group: P M M N
;
_chemical_formula_sum "Si O2"
_cell_formula_units_Z 56
_cell_length_a 21.275583
_cell_length_b 17.424030
_cell_length_c 9.715786
_cell_angle_alpha 90.000000
_cell_angle_beta 90.000000
_cell_angle_gamma 90.000000
_cell_volume 3601.704017
_symmetry_space_group_name_H-M "P M M N"
_symmetry_group_IT_number 59
_space_group.IT_coordinate_system_code '2'
_symmetry_cell_setting 'orthorhombic'
loop_
_space_group_symop_operation_xyz
x,y,z
1/2-x,1/2-y,z
1/2+x,-y,-z
-x,1/2+y,-z
-x,-y,-z
1/2+x,1/2+y,-z
1/2-x,y,z
x,1/2-y,z
loop_
_atom_site_type_symbol
_atom_site_label
_atom_site_fract_x
_atom_site_fract_y
_atom_site_fract_z
Si Si1 0.507623 0.903052 0.864994
Si Si2 0.574722 0.060364 0.900102
Si Si3 0.319546 0.448567 0.056042
Si Si4 0.493448 0.661455 0.296645
Si Si5 0.319645 0.161490 0.316683
Si Si6 0.455501 0.159710 0.414829
Si Si7 0.901841 0.835909 0.073222
O O1 0.502627 0.877326 0.706926
O O2 0.527456 0.991188 0.869972
O O3 0.443412 0.897317 0.955036
O O4 0.559209 0.846864 0.932279
O O5 0.566405 0.117808 0.770307
O O6 0.645104 0.028306 0.911152
O O7 0.250000 0.473667 0.016478
O O8 0.322429 0.391836 0.184487
O O9 0.347838 0.401130 0.926327
O O10 0.474229 0.750000 0.305763
O O11 0.513229 0.627912 0.445135
O O12 0.554288 0.648532 0.202616
O O13 0.250000 0.149676 0.388555
O O14 0.325946 0.250000 0.269617
O O15 0.380246 0.139199 0.410911
O O16 0.464030 0.250000 0.408497
O O17 0.873396 0.750000 0.077593
#
# Coordination Sequence:
#
# PCOD8239133 Si02
#       7
#     8   8   8   8   8   8   8
#     4   9  16  26  44  64  86 117 149 176 216 262
#     4   9  17  30  43  63  90 116 143 186 233 266
#     4  10  18  28  45  66  87 116 154 186 212 260
#     4   9  19  30  44  65  92 117 144 185 232 270
#     4   9  16  26  41  62  90 122 151 177 204 245
#     4  10  17  28  44  68  92 116 151 185 213 258
#     4   9  15  27  43  65  93 118 141 174 216 259
#
# _framework density 15.548196000000001
#
# number of rings (size 3 to 8) (size 9 to 14) (size 15 to 20)
#    0.000    2.714    2.857    1.714    0.000    2.000 
#    0.000    0.714    0.000    3.000    0.000    0.000 
#    0.000    1.143    0.000    0.000    0.000    0.000 
#
# Total GULP energy -693785.711800 kJ/mol
# GULP energy per Si atom -12389.030568 kJ/mol
# Density = 1.551281 g / cm^3
# Si number density = 15.548196 Si / 1000 Ang^3
#
#
#
# Elastic Constant Matrix: (Units=GPa)
#
#
# Indices 1 2 3 4 5 6 
#
# 1 85.3231 37.4509 30.3545 0.0000 0.0000 0.0000
# 2 37.4509 42.1495 30.5787 0.0000 0.0000 0.0000
# 3 30.3545 30.5787 95.3624 0.0000 0.0000 0.0000
# 4 0.0000 0.0000 0.0000 17.0243 0.0000 0.0000
# 5 0.0000 0.0000 0.0000 0.0000 11.9821 0.0000
# 6 0.0000 0.0000 0.0000 0.0000 0.0000 21.0560
#
#
#
# Elastic Compliance Matrix: (Units=1/GPa)
#
#
# Indices 1 2 3 4 5 6 
#
# 1 0.019265 -0.016509 -0.000838 0.000000 0.000000 0.000000
# 2 -0.016509 0.045065 -0.009195 0.000000 0.000000 0.000000
# 3 -0.000838 -0.009195 0.013702 0.000000 0.000000 0.000000
# 4 0.000000 0.000000 0.000000 0.058740 0.000000 0.000000
# 5 0.000000 0.000000 0.000000 0.000000 0.083458 0.000000
# 6 0.000000 0.000000 0.000000 0.000000 0.000000 0.047492
#
#
# Mechanical properties :
#
#
# Convention : Reuss Voigt Hill
#
# Bulk Modulus (GPa) = 40.08705 46.62259 43.35482
# Shear Modulus (GPa) = 15.19194 18.30921 16.75058
#
# Velocity S-wave (km/s) = 3.12923 3.43531 3.28584
# Velocity P-wave (km/s) = 6.23655 6.76654 6.50694
#
# Compressibility (1/GPa) = 0.02494571
#
# Stress axis : x y z
#
# Youngs Moduli (GPa) = 51.90843 22.19026 72.98329
#
# Poissons Ratio (x) = 0.36634 0.06119
# Poissons Ratio (y) = 0.85695 0.67112
# Poissons Ratio (z) = 0.04352 0.20405
#
# Static dielectric constant tensor:
#      x y z
#    x 3.034980 0.000000 0.000000 
#    y 0.000000 2.997440 0.000000 
#    z 0.000000 0.000000 3.028290 
# 
# 
# High freq. dielectric constant tensor:
#      x y z
#    x 1.566990 0.000000 0.000000 
#    y 0.000000 1.586540 0.000000 
#    z 0.000000 0.000000 1.581930 
# 
# From -- ./inp_files/10606.got.cif
#   From: 2010.03.12/outbox.cif.g09.slc.cpg/sg59_6_cif.got.tgz:10606.got - 2010.04.16 16:29:54.
