data_PCOD8239235
_publ_section_title
;
Structure prediction by ZEFSAII (Michael W. Deem and Ramdas Pophale) SiO2 
 PCOD8239235
Probable space group: P M M N
;
_chemical_formula_sum "Si O2"
_cell_formula_units_Z 40
_cell_length_a 8.806168
_cell_length_b 24.847941
_cell_length_c 10.337970
_cell_angle_alpha 90.000000
_cell_angle_beta 90.000000
_cell_angle_gamma 90.000000
_cell_volume 2262.104383
_symmetry_space_group_name_H-M "P M M N"
_symmetry_group_IT_number 59
_space_group.IT_coordinate_system_code '2'
_symmetry_cell_setting 'orthorhombic'
loop_
_space_group_symop_operation_xyz
x,y,z
1/2-x,1/2-y,z
1/2+x,-y,-z
-x,1/2+y,-z
-x,-y,-z
1/2+x,1/2+y,-z
1/2-x,y,z
x,1/2-y,z
loop_
_atom_site_type_symbol
_atom_site_label
_atom_site_fract_x
_atom_site_fract_y
_atom_site_fract_z
Si Si1 0.572652 0.134222 0.732160
Si Si2 0.072409 0.971616 0.876857
Si Si3 0.574488 0.143548 0.022412
Si Si4 0.430396 0.523795 0.371409
Si Si5 0.072953 0.250000 0.022754
Si Si6 0.426856 0.750000 0.253662
O O1 0.750000 0.123225 0.740761
O O2 0.507171 0.131593 0.878487
O O3 0.506824 0.085376 0.645997
O O4 0.537658 0.193880 0.669886
O O5 0.250000 0.986323 0.869032
O O6 0.047780 0.907620 0.886851
O O7 0.985256 0.989012 0.749156
O O8 0.000000 0.000000 0.000000
O O9 0.750000 0.158341 0.009373
O O10 0.492725 0.195318 0.086771
O O11 0.500000 0.500000 0.500000
O O12 0.250000 0.521079 0.381119
O O13 0.250000 0.250000 0.043396
O O14 0.028838 0.250000 0.872835
O O15 0.250000 0.750000 0.211660
#
# Coordination Sequence:
#
# PCOD8239235 Si02
#       6
#     8   8   8   8   4   4
#     4   8  14  28  50  73  99 131 171 214 256 313
#     4  11  21  35  56  81 107 141 180 222 268 319
#     4   9  17  32  51  72 102 140 176 212 262 322
#     4  11  22  37  53  77 109 144 183 224 274 326
#     4  10  18  26  42  75 108 133 166 216 268 310
#     4   8  14  28  48  69  96 133 168 208 262 316
#
# _framework density 17.682651
#
# number of rings (size 3 to 8) (size 9 to 14) (size 15 to 20)
#    0.000    2.400    2.000    3.300    0.000    1.600 
#    0.000    1.000    0.000    1.200    0.000    7.000 
#    0.000    0.000    0.000    0.000    0.000    0.000 
#
# Total GULP energy -495606.262505 kJ/mol
# GULP energy per Si atom -12390.156563 kJ/mol
# Density = 1.764240 g / cm^3
# Si number density = 17.682651 Si / 1000 Ang^3
#
#
#
# Elastic Constant Matrix: (Units=GPa)
#
#
# Indices 1 2 3 4 5 6 
#
# 1 77.4482 52.2542 29.6497 0.0000 0.0000 0.0000
# 2 52.2542 176.9172 58.0778 0.0000 0.0000 0.0000
# 3 29.6497 58.0778 88.5211 0.0000 0.0000 0.0000
# 4 0.0000 0.0000 0.0000 18.2183 0.0000 0.0000
# 5 0.0000 0.0000 0.0000 0.0000 24.1930 0.0000
# 6 0.0000 0.0000 0.0000 0.0000 0.0000 27.4036
#
#
#
# Elastic Compliance Matrix: (Units=1/GPa)
#
#
# Indices 1 2 3 4 5 6 
#
# 1 0.016732 -0.003954 -0.003010 0.000000 0.000000 0.000000
# 2 -0.003954 0.008138 -0.004015 0.000000 0.000000 0.000000
# 3 -0.003010 -0.004015 0.014939 0.000000 0.000000 0.000000
# 4 0.000000 0.000000 0.000000 0.054890 0.000000 0.000000
# 5 0.000000 0.000000 0.000000 0.000000 0.041334 0.000000
# 6 0.000000 0.000000 0.000000 0.000000 0.000000 0.036492
#
#
# Mechanical properties :
#
#
# Convention : Reuss Voigt Hill
#
# Bulk Modulus (GPa) = 56.01876 69.20553 62.61214
# Shear Modulus (GPa) = 24.94593 27.48998 26.21795
#
# Velocity S-wave (km/s) = 3.76008 3.94716 3.85475
# Velocity P-wave (km/s) = 7.11335 7.74570 7.43625
#
# Compressibility (1/GPa) = 0.01785116
#
# Stress axis : x y z
#
# Youngs Moduli (GPa) = 59.76625 122.87740 66.93762
#
# Poissons Ratio (x) = 0.48582 0.20150
# Poissons Ratio (y) = 0.23630 0.26876
# Poissons Ratio (z) = 0.17991 0.49337
#
# Static dielectric constant tensor:
#      x y z
#    x 3.155130 0.000000 0.000000 
#    y 0.000000 3.973800 0.000000 
#    z 0.000000 0.000000 2.925550 
# 
# 
# High freq. dielectric constant tensor:
#      x y z
#    x 1.670620 0.000000 0.000000 
#    y 0.000000 1.715300 0.000000 
#    z 0.000000 0.000000 1.624940 
# 
# From -- ./inp_files/14437.got.cif
#   From: 2010.03.12/outbox.cif.g09.slc.cpg/sg59_8_cif.got.tgz:14437.got - 2010.04.16 16:29:54.
