data_PCOD8239015
_publ_section_title
;
Structure prediction by ZEFSAII (Michael W. Deem and Ramdas Pophale) SiO2 
 PCOD8239015
Probable space group: P N N M
;
_chemical_formula_sum "Si O2"
_cell_formula_units_Z 64
_cell_length_a 24.000000
_cell_length_b 15.000000
_cell_length_c 9.000000
_cell_angle_alpha 90.000000
_cell_angle_beta 90.000000
_cell_angle_gamma 90.000000
_cell_volume 3240.000000
_symmetry_space_group_name_H-M "P N N M"
_symmetry_group_IT_number 58
_symmetry_cell_setting 'orthorhombic'
loop_
_space_group_symop_operation_xyz
x,y,z
-x,-y,z
1/2+x,1/2-y,1/2-z
1/2-x,1/2+y,1/2-z
-x,-y,-z
x,y,-z
1/2-x,1/2+y,1/2+z
1/2+x,1/2-y,1/2+z
loop_
_atom_site_type_symbol
_atom_site_label
_atom_site_fract_x
_atom_site_fract_y
_atom_site_fract_z
Si Si1 0.933869 0.260497 0.326466
Si Si2 0.746263 0.065161 0.174192
Si Si3 0.443785 0.054707 0.332925
Si Si4 0.990976 0.899797 0.325213
Si Si5 0.809354 0.212541 0.330036
Si Si6 0.221120 0.135202 0.170792
Si Si7 0.131624 0.395037 0.822909
Si Si8 0.615456 0.287984 0.825892
O O1 0.946776 0.268380 0.500000
O O2 0.951959 0.354975 0.258531
O O3 0.870138 0.245471 0.288756
O O4 0.966564 0.174680 0.259706
O O5 0.796388 0.130329 0.220839
O O6 0.694808 0.101140 0.269313
O O7 0.760907 0.964117 0.217473
O O8 0.733185 0.073927 0.000000
O O9 0.427202 0.081986 0.500000
O O10 0.500000 0.000000 0.330628
O O11 0.397731 0.986191 0.266473
O O12 0.000867 0.907214 0.500000
O O13 0.930020 0.862918 0.285141
O O14 0.000000 0.000000 0.256465
O O15 0.805051 0.178963 0.500000
O O16 0.772256 0.299212 0.302438
O O17 0.173089 0.168662 0.277886
O O18 0.200738 0.137412 0.000000
O O19 0.103051 0.305890 0.756192
O O20 0.128567 0.386792 0.000000
O O21 0.616149 0.267183 0.000000
#
# Coordination Sequence:
#
# PCOD8239015 Si02
#       8
#     8   8   8   8   8   8   8   8
#     4  10  21  38  62  88 117 157 200 249 301 348
#     4  11  23  38  59  87 117 153 198 244 291 353
#     4  10  22  39  60  87 119 157 196 240 299 360
#     4   9  20  38  59  87 121 155 199 250 295 346
#     4  10  21  38  60  86 118 158 196 238 300 356
#     4  10  22  39  57  83 122 157 191 245 302 353
#     4  11  22  38  60  86 121 159 192 241 302 355
#     4  11  22  36  61  90 116 155 202 245 292 351
#
# _framework density 19.753086
#
# number of rings (size 3 to 8) (size 9 to 14) (size 15 to 20)
#    0.000    1.750    1.250    2.625    1.750    3.750 
#    0.000    0.625    0.000    1.875    0.000    0.000 
#    0.000    0.000    0.000    0.000    0.000    0.000 
#
# Total GULP energy -793605.959847 kJ/mol
# GULP energy per Si atom -12400.093123 kJ/mol
# Density = 1.970813 g / cm^3
# Si number density = 19.753086 Si / 1000 Ang^3
#
#
#
# Elastic Constant Matrix: (Units=GPa)
#
#
# Indices 1 2 3 4 5 6 
#
# 1 83.7264 45.2657 25.7194 0.0000 0.0000 0.0000
# 2 45.2657 189.8141 46.9470 0.0000 0.0000 0.0000
# 3 25.7194 46.9470 59.9365 0.0000 0.0000 0.0000
# 4 0.0000 0.0000 0.0000 32.2598 0.0000 0.0000
# 5 0.0000 0.0000 0.0000 0.0000 20.6544 0.0000
# 6 0.0000 0.0000 0.0000 0.0000 0.0000 34.1973
#
#
#
# Elastic Compliance Matrix: (Units=1/GPa)
#
#
# Indices 1 2 3 4 5 6 
#
# 1 0.014584 -0.002394 -0.004383 0.000000 0.000000 0.000000
# 2 -0.002394 0.006927 -0.004399 0.000000 0.000000 0.000000
# 3 -0.004383 -0.004399 0.022011 0.000000 0.000000 0.000000
# 4 0.000000 0.000000 0.000000 0.030998 0.000000 0.000000
# 5 0.000000 0.000000 0.000000 0.000000 0.048416 0.000000
# 6 0.000000 0.000000 0.000000 0.000000 0.000000 0.029242
#
#
# Mechanical properties :
#
#
# Convention : Reuss Voigt Hill
#
# Bulk Modulus (GPa) = 47.23538 63.26013 55.24776
# Shear Modulus (GPa) = 27.53509 31.79195 29.66352
#
# Velocity S-wave (km/s) = 3.73763 4.01617 3.87940
# Velocity P-wave (km/s) = 6.52621 7.32128 6.93515
#
# Compressibility (1/GPa) = 0.02117057
#
# Stress axis : x y z
#
# Youngs Moduli (GPa) = 68.56667 144.36039 45.43276
#
# Poissons Ratio (x) = 0.34558 0.19914
# Poissons Ratio (y) = 0.16414 0.19984
# Poissons Ratio (z) = 0.30054 0.63499
#
# Static dielectric constant tensor:
#      x y z
#    x 3.593780 0.000000 0.000000 
#    y 0.000000 4.079340 0.000000 
#    z 0.000000 0.000000 3.473900 
# 
# 
# High freq. dielectric constant tensor:
#      x y z
#    x 1.772570 0.000000 0.000000 
#    y 0.000000 1.799900 0.000000 
#    z 0.000000 0.000000 1.753280 
# 
# From -- ./inp_files/10093.got.cif
#   From: 2010.06.25/outbox.ucp.g09.slc.cvg/sg58_6_cif.got.tgz:10093.got - 2010.06.28 15:54:47.
