data_PCOD8239268
_publ_section_title
;
Structure prediction by ZEFSAII (Michael W. Deem and Ramdas Pophale) SiO2 
 PCOD8239268
Probable space group: P M M N
;
_chemical_formula_sum "Si O2"
_cell_formula_units_Z 64
_cell_length_a 9.210524
_cell_length_b 24.455614
_cell_length_c 18.446170
_cell_angle_alpha 90.000000
_cell_angle_beta 90.000000
_cell_angle_gamma 90.000000
_cell_volume 4154.981709
_symmetry_space_group_name_H-M "P M M N"
_symmetry_group_IT_number 59
_space_group.IT_coordinate_system_code '2'
_symmetry_cell_setting 'orthorhombic'
loop_
_space_group_symop_operation_xyz
x,y,z
1/2-x,1/2-y,z
1/2+x,-y,-z
-x,1/2+y,-z
-x,-y,-z
1/2+x,1/2+y,-z
1/2-x,y,z
x,1/2-y,z
loop_
_atom_site_type_symbol
_atom_site_label
_atom_site_fract_x
_atom_site_fract_y
_atom_site_fract_z
Si Si1 0.414031 0.578391 0.965792
Si Si2 0.082831 0.386379 0.166265
Si Si3 0.411185 0.686626 0.728591
Si Si4 0.582946 0.005687 0.772563
Si Si5 0.413963 0.456791 0.903432
Si Si6 0.419502 0.987252 0.393629
Si Si7 0.580421 0.312296 0.437674
Si Si8 0.079780 0.414094 0.496219
O O1 0.250000 0.599075 0.976830
O O2 0.494231 0.617473 0.908591
O O3 0.416741 0.517243 0.935769
O O4 0.496528 0.582381 0.042597
O O5 0.250000 0.376826 0.147260
O O6 0.056780 0.443302 0.206319
O O7 0.029880 0.339803 0.220014
O O8 0.250000 0.661534 0.741843
O O9 0.406961 0.750000 0.746969
O O10 0.458844 0.677208 0.645948
O O11 0.750000 0.022348 0.783303
O O12 0.487198 0.044616 0.824084
O O13 0.532770 0.012676 0.689941
O O14 0.250000 0.434872 0.896787
O O15 0.250000 0.974044 0.403258
O O16 0.511286 0.939967 0.431743
O O17 0.455565 0.046560 0.427941
O O18 0.750000 0.322658 0.451488
O O19 0.539583 0.250000 0.459485
O O20 0.487928 0.354298 0.485238
O O21 0.250000 0.407303 0.508382
#
# Coordination Sequence:
#
# PCOD8239268 Si02
#       8
#     8   8   8   8   8   8   8   8
#     4   9  16  26  39  55  78 109 140 166 198 240
#     4  10  18  27  41  61  84 109 140 177 212 247
#     4   9  18  31  44  59  81 109 141 175 210 250
#     4   9  17  28  41  58  82 112 143 173 208 252
#     4   9  16  25  38  57  80 105 135 171 205 236
#     4   9  18  31  44  60  86 119 149 177 215 264
#     4   9  18  32  48  64  84 113 146 179 218 263
#     4  10  19  30  45  65  87 112 145 184 222 258
#
# _framework density 15.403197
#
# number of rings (size 3 to 8) (size 9 to 14) (size 15 to 20)
#    0.000    2.750    0.000    3.000    0.000    6.500 
#    0.000    1.250    0.000    0.000    0.000    0.000 
#    0.000    1.000    0.000    8.750    0.000    5.125 
#
# Total GULP energy -793579.883612 kJ/mol
# GULP energy per Si atom -12399.685681 kJ/mol
# Density = 1.536814 g / cm^3
# Si number density = 15.403197 Si / 1000 Ang^3
#
#
#
# Elastic Constant Matrix: (Units=GPa)
#
#
# Indices 1 2 3 4 5 6 
#
# 1 98.3291 39.0311 61.0480 0.0000 0.0000 0.0000
# 2 39.0311 54.9679 33.6741 0.0000 0.0000 0.0000
# 3 61.0480 33.6741 110.7095 0.0000 0.0000 0.0000
# 4 0.0000 0.0000 0.0000 19.7620 0.0000 0.0000
# 5 0.0000 0.0000 0.0000 0.0000 27.4521 0.0000
# 6 0.0000 0.0000 0.0000 0.0000 0.0000 22.4744
#
#
#
# Elastic Compliance Matrix: (Units=1/GPa)
#
#
# Indices 1 2 3 4 5 6 
#
# 1 0.018082 -0.008273 -0.007455 0.000000 0.000000 0.000000
# 2 -0.008273 0.026144 -0.003390 0.000000 0.000000 0.000000
# 3 -0.007455 -0.003390 0.014174 0.000000 0.000000 0.000000
# 4 0.000000 0.000000 0.000000 0.050602 0.000000 0.000000
# 5 0.000000 0.000000 0.000000 0.000000 0.036427 0.000000
# 6 0.000000 0.000000 0.000000 0.000000 0.000000 0.044495
#
#
# Mechanical properties :
#
#
# Convention : Reuss Voigt Hill
#
# Bulk Modulus (GPa) = 49.59085 59.05698 54.32392
# Shear Modulus (GPa) = 21.28738 22.62123 21.95430
#
# Velocity S-wave (km/s) = 3.72157 3.83640 3.77942
# Velocity P-wave (km/s) = 7.12263 7.61892 7.37495
#
# Compressibility (1/GPa) = 0.02016501
#
# Stress axis : x y z
#
# Youngs Moduli (GPa) = 55.30390 38.25039 70.54935
#
# Poissons Ratio (x) = 0.31643 0.52591
# Poissons Ratio (y) = 0.45751 0.23918
# Poissons Ratio (z) = 0.41227 0.12968
#
# Static dielectric constant tensor:
#      x y z
#    x 3.052600 0.000000 0.000000 
#    y 0.000000 2.596850 0.000000 
#    z 0.000000 0.000000 2.958250 
# 
# 
# High freq. dielectric constant tensor:
#      x y z
#    x 1.603090 0.000000 0.000000 
#    y 0.000000 1.544820 0.000000 
#    z 0.000000 0.000000 1.584560 
# 
# From -- ./inp_files/26550.got.cif
#   From: 2010.03.12/outbox.cif.g09.slc.cpg/sg59_14_cif.got.tgz:26550.got - 2010.04.16 16:29:54.
