data_PCOD8239921
_publ_section_title
;
Structure prediction by ZEFSAII (Michael W. Deem and Ramdas Pophale) SiO2 
 PCOD8239921
Probable space group: P M M N
;
_chemical_formula_sum "Si O2"
_cell_formula_units_Z 64
_cell_length_a 18.635698
_cell_length_b 9.087591
_cell_length_c 20.191634
_cell_angle_alpha 90.000000
_cell_angle_beta 90.000000
_cell_angle_gamma 90.000000
_cell_volume 3419.525937
_symmetry_space_group_name_H-M "P M M N"
_symmetry_group_IT_number 59
_space_group.IT_coordinate_system_code '2'
_symmetry_cell_setting 'orthorhombic'
loop_
_space_group_symop_operation_xyz
x,y,z
1/2-x,1/2-y,z
1/2+x,-y,-z
-x,1/2+y,-z
-x,-y,-z
1/2+x,1/2+y,-z
1/2-x,y,z
x,1/2-y,z
loop_
_atom_site_type_symbol
_atom_site_label
_atom_site_fract_x
_atom_site_fract_y
_atom_site_fract_z
Si Si1 0.670436 0.923508 0.919283
Si Si2 0.930976 0.578572 0.182978
Si Si3 0.432230 0.077898 0.967478
Si Si4 0.923073 0.925055 0.797885
Si Si5 0.829058 0.575438 0.678041
Si Si6 0.421641 0.922602 0.580874
Si Si7 0.915872 0.921634 0.552886
Si Si8 0.667327 0.922319 0.303789
O O1 0.750000 0.993723 0.912775
O O2 0.676591 0.750000 0.909397
O O3 0.616694 0.985946 0.863448
O O4 0.638690 0.963927 0.991018
O O5 0.949883 0.750000 0.184993
O O6 0.915719 0.527296 0.107563
O O7 0.863217 0.543003 0.230204
O O8 0.998197 0.489266 0.209953
O O9 0.448473 0.250000 0.971559
O O10 0.500000 0.000000 0.000000
O O11 0.929310 0.750000 0.798303
O O12 0.878763 0.987133 0.735913
O O13 0.750000 0.508061 0.686571
O O14 0.827000 0.750000 0.683739
O O15 0.858606 0.528011 0.607019
O O16 0.406613 0.750000 0.583272
O O17 0.506238 0.959611 0.583507
O O18 0.393591 0.987125 0.511656
O O19 0.380199 0.994818 0.641927
O O20 0.911442 0.750000 0.534879
O O21 0.750000 0.976160 0.306342
O O22 0.662300 0.750000 0.319284
#
# Coordination Sequence:
#
# PCOD8239921 Si02
#       8
#     8   8   8   8   8   8   8   8
#     4   9  17  29  49  78 106 134 172 216 259 303
#     4  10  21  35  54  78 105 137 174 217 263 313
#     4  10  19  33  53  78 106 137 174 217 262 313
#     4  10  18  31  53  78 104 136 173 214 257 308
#     4   9  17  29  48  75 104 133 170 214 253 296
#     4  10  20  35  56  81 107 136 175 225 269 314
#     4   9  18  33  53  78 108 142 178 214 261 319
#     4  10  22  39  56  76 105 142 182 224 274 328
#
# _framework density 18.716045000000001
#
# number of rings (size 3 to 8) (size 9 to 14) (size 15 to 20)
#    0.000    2.375    1.250    1.500    0.000    4.750 
#    0.000    4.375    0.000    3.375    0.000    1.750 
#    0.000    0.000    0.000    0.000    0.000    0.000 
#
# Total GULP energy -793503.206758 kJ/mol
# GULP energy per Si atom -12398.487606 kJ/mol
# Density = 1.867345 g / cm^3
# Si number density = 18.716045 Si / 1000 Ang^3
#
#
#
# Elastic Constant Matrix: (Units=GPa)
#
#
# Indices 1 2 3 4 5 6 
#
# 1 94.5104 27.8579 50.5132 0.0000 0.0000 0.0000
# 2 27.8579 34.7728 37.2884 0.0000 0.0000 0.0000
# 3 50.5132 37.2884 134.7594 0.0000 0.0000 0.0000
# 4 0.0000 0.0000 0.0000 22.1261 0.0000 0.0000
# 5 0.0000 0.0000 0.0000 0.0000 30.1353 0.0000
# 6 0.0000 0.0000 0.0000 0.0000 0.0000 22.5316
#
#
#
# Elastic Compliance Matrix: (Units=1/GPa)
#
#
# Indices 1 2 3 4 5 6 
#
# 1 0.014772 -0.008384 -0.003217 0.000000 0.000000 0.000000
# 2 -0.008384 0.045651 -0.009489 0.000000 0.000000 0.000000
# 3 -0.003217 -0.009489 0.011252 0.000000 0.000000 0.000000
# 4 0.000000 0.000000 0.000000 0.045195 0.000000 0.000000
# 5 0.000000 0.000000 0.000000 0.000000 0.033184 0.000000
# 6 0.000000 0.000000 0.000000 0.000000 0.000000 0.044382
#
#
# Mechanical properties :
#
#
# Convention : Reuss Voigt Hill
#
# Bulk Modulus (GPa) = 33.90552 55.04020 44.47286
# Shear Modulus (GPa) = 20.28830 24.85081 22.56955
#
# Velocity S-wave (km/s) = 3.29600 3.64783 3.47636
# Velocity P-wave (km/s) = 5.71313 6.87125 6.31878
#
# Compressibility (1/GPa) = 0.02949372
#
# Stress axis : x y z
#
# Youngs Moduli (GPa) = 67.69721 21.90551 88.87234
#
# Poissons Ratio (x) = 0.18367 0.28590
# Poissons Ratio (y) = 0.56760 0.84330
# Poissons Ratio (z) = 0.21778 0.20786
#
# Static dielectric constant tensor:
#      x y z
#    x 3.568210 0.000000 0.000000 
#    y 0.000000 3.140170 0.000000 
#    z 0.000000 0.000000 3.667950 
# 
# 
# High freq. dielectric constant tensor:
#      x y z
#    x 1.728470 0.000000 0.000000 
#    y 0.000000 1.691070 0.000000 
#    z 0.000000 0.000000 1.743080 
# 
# From -- ./inp_files/26284.got.cif
#   From: 2010.03.12/outbox.cif.g09.slc.cpg/sg59_14_cif.got.tgz:26284.got - 2010.04.16 16:29:54.
