data_PCOD8239517
_publ_section_title
;
Structure prediction by ZEFSAII (Michael W. Deem and Ramdas Pophale) SiO2 
 PCOD8239517
Probable space group: P M M N
;
_chemical_formula_sum "Si O2"
_cell_formula_units_Z 64
_cell_length_a 8.991576
_cell_length_b 22.867290
_cell_length_c 17.865260
_cell_angle_alpha 90.000000
_cell_angle_beta 90.000000
_cell_angle_gamma 90.000000
_cell_volume 3673.329275
_symmetry_space_group_name_H-M "P M M N"
_symmetry_group_IT_number 59
_space_group.IT_coordinate_system_code '2'
_symmetry_cell_setting 'orthorhombic'
loop_
_space_group_symop_operation_xyz
x,y,z
1/2-x,1/2-y,z
1/2+x,-y,-z
-x,1/2+y,-z
-x,-y,-z
1/2+x,1/2+y,-z
1/2-x,y,z
x,1/2-y,z
loop_
_atom_site_type_symbol
_atom_site_label
_atom_site_fract_x
_atom_site_fract_y
_atom_site_fract_z
Si Si1 0.425633 0.935674 0.772780
Si Si2 0.575720 0.317800 0.497635
Si Si3 0.413431 0.510790 0.425845
Si Si4 0.082835 0.067439 0.075745
Si Si5 0.585248 0.884924 0.637173
Si Si6 0.420951 0.430435 0.782955
Si Si7 0.078933 0.117556 0.629311
Si Si8 0.916301 0.428605 0.930958
O O1 0.250000 0.928946 0.769838
O O2 0.485357 0.914327 0.852931
O O3 0.491464 0.888539 0.713515
O O4 0.473977 0.003718 0.758351
O O5 0.750000 0.330910 0.495158
O O6 0.539702 0.250000 0.487987
O O7 0.499021 0.351337 0.429246
O O8 0.514580 0.337181 0.579302
O O9 0.500000 0.500000 0.500000
O O10 0.250000 0.539347 0.440484
O O11 0.390549 0.451418 0.383410
O O12 0.520820 0.552439 0.380566
O O13 0.250000 0.091819 0.084975
O O14 0.085078 0.998160 0.067487
O O15 0.009999 0.095555 0.001394
O O16 0.750000 0.856671 0.649386
O O17 0.250000 0.436173 0.807316
O O18 0.439257 0.379311 0.719504
O O19 0.512740 0.406625 0.853369
O O20 0.250000 0.123505 0.604243
O O21 0.750000 0.403328 0.936352
#
# Coordination Sequence:
#
# PCOD8239517 Si02
#       8
#     8   8   8   8   8   8   8   8
#     4  10  18  29  45  67  98 130 163 202 242 288
#     4  11  25  42  57  72  93 126 166 208 254 301
#     4  11  21  31  48  73 100 127 159 198 246 297
#     4   9  16  26  39  58  89 128 168 202 235 281
#     4  11  22  34  51  74  99 128 163 203 248 296
#     4   9  18  29  43  66  96 128 161 198 241 287
#     4  11  21  34  52  74  99 129 164 204 250 296
#     4   9  16  25  39  59  87 127 168 200 235 280
#
# _framework density 17.422886999999999
#
# number of rings (size 3 to 8) (size 9 to 14) (size 15 to 20)
#    0.000    1.875    2.500    2.625    0.000    6.500 
#    0.000    0.000    0.000    0.000    0.000    0.000 
#    0.000    1.000    0.000    7.250    0.000    6.000 
#
# Total GULP energy -793048.677180 kJ/mol
# GULP energy per Si atom -12391.385581 kJ/mol
# Density = 1.738323 g / cm^3
# Si number density = 17.422887 Si / 1000 Ang^3
#
#
#
# Elastic Constant Matrix: (Units=GPa)
#
#
# Indices 1 2 3 4 5 6 
#
# 1 105.6891 18.9795 62.6691 0.0000 0.0000 0.0000
# 2 18.9795 39.0930 20.1718 0.0000 0.0000 0.0000
# 3 62.6691 20.1718 120.3894 0.0000 0.0000 0.0000
# 4 0.0000 0.0000 0.0000 3.6237 0.0000 0.0000
# 5 0.0000 0.0000 0.0000 0.0000 35.1625 0.0000
# 6 0.0000 0.0000 0.0000 0.0000 0.0000 15.1035
#
#
#
# Elastic Compliance Matrix: (Units=1/GPa)
#
#
# Indices 1 2 3 4 5 6 
#
# 1 0.014074 -0.003341 -0.006766 0.000000 0.000000 0.000000
# 2 -0.003341 0.028794 -0.003085 0.000000 0.000000 0.000000
# 3 -0.006766 -0.003085 0.012346 0.000000 0.000000 0.000000
# 4 0.000000 0.000000 0.000000 0.275960 0.000000 0.000000
# 5 0.000000 0.000000 0.000000 0.000000 0.028439 0.000000
# 6 0.000000 0.000000 0.000000 0.000000 0.000000 0.066210
#
#
# Mechanical properties :
#
#
# Convention : Reuss Voigt Hill
#
# Bulk Modulus (GPa) = 34.68883 52.09025 43.38954
# Shear Modulus (GPa) = 10.82677 21.66802 16.24740
#
# Velocity S-wave (km/s) = 2.49552 3.53037 3.05705
# Velocity P-wave (km/s) = 5.31570 6.82499 6.11707
#
# Compressibility (1/GPa) = 0.02882772
#
# Stress axis : x y z
#
# Youngs Moduli (GPa) = 71.05339 34.72919 81.00075
#
# Poissons Ratio (x) = 0.11605 0.54808
# Poissons Ratio (y) = 0.23742 0.24990
# Poissons Ratio (z) = 0.48077 0.10715
#
# Static dielectric constant tensor:
#      x y z
#    x 3.542510 0.000000 0.000000 
#    y 0.000000 2.707520 0.000000 
#    z 0.000000 0.000000 3.395400 
# 
# 
# High freq. dielectric constant tensor:
#      x y z
#    x 1.695520 0.000000 0.000000 
#    y 0.000000 1.595310 0.000000 
#    z 0.000000 0.000000 1.686230 
# 
# From -- ./inp_files/26524.got.cif
#   From: 2010.03.12/outbox.cif.g09.slc.cpg/sg59_14_cif.got.tgz:26524.got - 2010.04.16 16:29:54.
