data_PCOD8239229
_publ_section_title
;
Structure prediction by ZEFSAII (Michael W. Deem and Ramdas Pophale) SiO2 
 PCOD8239229
Probable space group: P M M N
;
_chemical_formula_sum "Si O2"
_cell_formula_units_Z 64
_cell_length_a 8.961581
_cell_length_b 22.576164
_cell_length_c 20.160064
_cell_angle_alpha 90.000000
_cell_angle_beta 90.000000
_cell_angle_gamma 90.000000
_cell_volume 4078.746295
_symmetry_space_group_name_H-M "P M M N"
_symmetry_group_IT_number 59
_space_group.IT_coordinate_system_code '2'
_symmetry_cell_setting 'orthorhombic'
loop_
_space_group_symop_operation_xyz
x,y,z
1/2-x,1/2-y,z
1/2+x,-y,-z
-x,1/2+y,-z
-x,-y,-z
1/2+x,1/2+y,-z
1/2-x,y,z
x,1/2-y,z
loop_
_atom_site_type_symbol
_atom_site_label
_atom_site_fract_x
_atom_site_fract_y
_atom_site_fract_z
Si Si1 0.924306 0.394621 0.104828
Si Si2 0.919561 0.973272 0.155594
Si Si3 0.575986 0.561625 0.015054
Si Si4 0.078485 0.180185 0.215678
Si Si5 0.584762 0.443547 0.577669
Si Si6 0.583881 0.581806 0.545750
Si Si7 0.427225 0.606045 0.676137
Si Si8 0.925404 0.015378 0.715083
O O1 0.750000 0.380367 0.100664
O O2 0.955852 0.459798 0.133476
O O3 0.003762 0.346795 0.150497
O O4 0.995392 0.389128 0.030682
O O5 0.750000 0.969185 0.180817
O O6 0.945267 0.927668 0.094219
O O7 0.028139 0.954232 0.215695
O O8 0.750000 0.558308 0.996760
O O9 0.500000 0.500000 0.000000
O O10 0.250000 0.159346 0.220192
O O11 0.064986 0.250000 0.210071
O O12 0.991521 0.160159 0.281524
O O13 0.750000 0.416937 0.569096
O O14 0.585082 0.512373 0.559228
O O15 0.477761 0.406739 0.528663
O O16 0.532580 0.439867 0.654629
O O17 0.750000 0.608430 0.550015
O O18 0.481005 0.613799 0.600248
O O19 0.250000 0.606771 0.678476
O O20 0.484559 0.545513 0.708748
O O21 0.750000 0.000927 0.712913
#
# Coordination Sequence:
#
# PCOD8239229 Si02
#       8
#     8   8   8   8   8   8   8   8
#     4  10  19  31  46  63  82 107 139 176 218 261
#     4   9  17  27  40  61  85 111 142 174 211 252
#     4   9  17  28  42  60  83 109 140 176 211 253
#     4  11  23  36  49  64  82 107 142 183 223 261
#     4   8  15  25  35  54  79 105 137 170 203 240
#     4   9  16  26  40  56  75 102 137 172 206 244
#     4  11  20  30  44  59  79 107 138 175 215 255
#     4  10  18  26  40  59  83 113 143 174 208 247
#
# _framework density 15.691096
#
# number of rings (size 3 to 8) (size 9 to 14) (size 15 to 20)
#    0.000    2.375    1.250    4.500    0.000    7.000 
#    0.000    0.000    0.000    0.000    0.000    0.000 
#    0.000    0.000    0.000    1.125    0.000   19.250 
#
# Total GULP energy -793293.233777 kJ/mol
# GULP energy per Si atom -12395.206778 kJ/mol
# Density = 1.565538 g / cm^3
# Si number density = 15.691096 Si / 1000 Ang^3
#
#
#
# Elastic Constant Matrix: (Units=GPa)
#
#
# Indices 1 2 3 4 5 6 
#
# 1 127.1842 27.3475 73.3195 0.0000 0.0000 0.0000
# 2 27.3475 26.8084 30.1241 0.0000 0.0000 0.0000
# 3 73.3195 30.1241 141.0307 0.0000 0.0000 0.0000
# 4 0.0000 0.0000 0.0000 13.4872 0.0000 0.0000
# 5 0.0000 0.0000 0.0000 0.0000 34.1198 0.0000
# 6 0.0000 0.0000 0.0000 0.0000 0.0000 13.2829
#
#
#
# Elastic Compliance Matrix: (Units=1/GPa)
#
#
# Indices 1 2 3 4 5 6 
#
# 1 0.012141 -0.006964 -0.004825 0.000000 0.000000 0.000000
# 2 -0.006964 0.053077 -0.007717 0.000000 0.000000 0.000000
# 3 -0.004825 -0.007717 0.011247 0.000000 0.000000 0.000000
# 4 0.000000 0.000000 0.000000 0.074144 0.000000 0.000000
# 5 0.000000 0.000000 0.000000 0.000000 0.029308 0.000000
# 6 0.000000 0.000000 0.000000 0.000000 0.000000 0.075285
#
#
# Mechanical properties :
#
#
# Convention : Reuss Voigt Hill
#
# Bulk Modulus (GPa) = 26.69891 61.84505 44.27198
# Shear Modulus (GPa) = 16.30262 23.12680 19.71471
#
# Velocity S-wave (km/s) = 3.22681 3.84328 3.54846
# Velocity P-wave (km/s) = 5.56195 7.69377 6.71302
#
# Compressibility (1/GPa) = 0.03745471
#
# Stress axis : x y z
#
# Youngs Moduli (GPa) = 82.36323 18.84050 88.91176
#
# Poissons Ratio (x) = 0.13121 0.42896
# Poissons Ratio (y) = 0.57360 0.68610
# Poissons Ratio (z) = 0.39736 0.14539
#
# Static dielectric constant tensor:
#      x y z
#    x 3.200760 0.000000 0.000000 
#    y 0.000000 2.383770 0.000000 
#    z 0.000000 0.000000 3.486120 
# 
# 
# High freq. dielectric constant tensor:
#      x y z
#    x 1.621100 0.000000 0.000000 
#    y 0.000000 1.514180 0.000000 
#    z 0.000000 0.000000 1.620840 
# 
# From -- ./inp_files/29666.got.cif
#   From: 2010.03.12/outbox.cif.g09.slc.cpg/sg59_15_cif.got.tgz:29666.got - 2010.04.16 16:29:54.
