data_PCOD8239467
_publ_section_title
;
Structure prediction by ZEFSAII (Michael W. Deem and Ramdas Pophale) SiO2 
 PCOD8239467
Probable space group: P M M N
;
_chemical_formula_sum "Si O2"
_cell_formula_units_Z 64
_cell_length_a 14.428752
_cell_length_b 9.205803
_cell_length_c 27.945986
_cell_angle_alpha 90.000000
_cell_angle_beta 90.000000
_cell_angle_gamma 90.000000
_cell_volume 3712.016372
_symmetry_space_group_name_H-M "P M M N"
_symmetry_group_IT_number 59
_space_group.IT_coordinate_system_code '2'
_symmetry_cell_setting 'orthorhombic'
loop_
_space_group_symop_operation_xyz
x,y,z
1/2-x,1/2-y,z
1/2+x,-y,-z
-x,1/2+y,-z
-x,-y,-z
1/2+x,1/2+y,-z
1/2-x,y,z
x,1/2-y,z
loop_
_atom_site_type_symbol
_atom_site_label
_atom_site_fract_x
_atom_site_fract_y
_atom_site_fract_z
Si Si1 0.147522 0.577369 0.528834
Si Si2 0.022762 0.921624 0.614483
Si Si3 0.143770 0.919798 0.421351
Si Si4 0.086444 0.914118 0.983546
Si Si5 0.143461 0.079402 0.801484
Si Si6 0.648422 0.418043 0.917117
Si Si7 0.534419 0.078806 0.116527
Si Si8 0.856240 0.417149 0.295150
O O1 0.250000 0.517222 0.540977
O O2 0.150097 0.750000 0.531117
O O3 0.076595 0.515492 0.568049
O O4 0.119564 0.527986 0.475364
O O5 0.011522 0.750000 0.611631
O O6 0.078524 0.967695 0.661615
O O7 0.921422 0.993954 0.615568
O O8 0.250000 0.957147 0.408964
O O9 0.125101 0.750000 0.415427
O O10 0.053355 0.750000 0.982323
O O11 0.106200 0.955931 0.927878
O O12 0.162643 0.940125 0.024823
O O13 0.000000 0.000000 0.000000
O O14 0.250000 0.043405 0.814604
O O15 0.124238 0.250000 0.802142
O O16 0.075021 0.002319 0.838124
O O17 0.119164 0.018759 0.749343
O O18 0.750000 0.455992 0.895124
O O19 0.622319 0.250000 0.906595
O O20 0.569356 0.520000 0.894643
O O21 0.527628 0.250000 0.127413
O O22 0.750000 0.437848 0.311526
O O23 0.874713 0.250000 0.280860
#
# Coordination Sequence:
#
# PCOD8239467 Si02
#       8
#     8   8   8   8   8   8   8   8
#     4   8  14  26  44  67  96 128 160 192 228 275
#     4  10  18  28  48  74  95 120 156 197 238 277
#     4   9  18  31  45  63  93 133 168 194 225 270
#     4   8  15  27  43  65  93 126 162 197 233 273
#     4  10  21  36  53  73  97 125 157 195 241 292
#     4   9  17  30  48  70 100 137 171 202 237 279
#     4  10  19  31  50  74 100 130 164 203 243 285
#     4   9  18  33  52  74  98 121 148 187 239 296
#
# _framework density 17.241302999999998
#
# number of rings (size 3 to 8) (size 9 to 14) (size 15 to 20)
#    0.000    2.875    0.000    2.250    0.000    4.250 
#    0.000    1.250    0.000    2.625    0.000    3.500 
#    0.000    0.000    0.000    0.000    0.000    0.000 
#
# Total GULP energy -792930.246377 kJ/mol
# GULP energy per Si atom -12389.535100 kJ/mol
# Density = 1.720206 g / cm^3
# Si number density = 17.241303 Si / 1000 Ang^3
#
#
#
# Elastic Constant Matrix: (Units=GPa)
#
#
# Indices 1 2 3 4 5 6 
#
# 1 102.0430 46.4746 68.9497 0.0000 0.0000 0.0000
# 2 46.4746 59.7135 50.2026 0.0000 0.0000 0.0000
# 3 68.9497 50.2026 104.3575 0.0000 0.0000 0.0000
# 4 0.0000 0.0000 0.0000 23.7529 0.0000 0.0000
# 5 0.0000 0.0000 0.0000 0.0000 26.1137 0.0000
# 6 0.0000 0.0000 0.0000 0.0000 0.0000 25.6368
#
#
#
# Elastic Compliance Matrix: (Units=1/GPa)
#
#
# Indices 1 2 3 4 5 6 
#
# 1 0.019414 -0.007263 -0.009333 0.000000 0.000000 0.000000
# 2 -0.007263 0.030837 -0.010035 0.000000 0.000000 0.000000
# 3 -0.009333 -0.010035 0.020576 0.000000 0.000000 0.000000
# 4 0.000000 0.000000 0.000000 0.042100 0.000000 0.000000
# 5 0.000000 0.000000 0.000000 0.000000 0.038294 0.000000
# 6 0.000000 0.000000 0.000000 0.000000 0.000000 0.039006
#
#
# Mechanical properties :
#
#
# Convention : Reuss Voigt Hill
#
# Bulk Modulus (GPa) = 56.93539 66.37420 61.65479
# Shear Modulus (GPa) = 20.05251 21.79982 20.92617
#
# Velocity S-wave (km/s) = 3.41405 3.55969 3.48763
# Velocity P-wave (km/s) = 6.97391 7.44822 7.21496
#
# Compressibility (1/GPa) = 0.01756377
#
# Stress axis : x y z
#
# Youngs Moduli (GPa) = 51.50949 32.42881 48.59962
#
# Poissons Ratio (x) = 0.23555 0.45356
# Poissons Ratio (y) = 0.37414 0.48772
# Poissons Ratio (z) = 0.48072 0.32544
#
# Static dielectric constant tensor:
#      x y z
#    x 2.991300 0.000000 0.000000 
#    y 0.000000 3.072450 0.000000 
#    z 0.000000 0.000000 3.614770 
# 
# 
# High freq. dielectric constant tensor:
#      x y z
#    x 1.657270 0.000000 0.000000 
#    y 0.000000 1.655460 0.000000 
#    z 0.000000 0.000000 1.652630 
# 
# From -- ./inp_files/32238.got.cif
#   From: 2010.03.12/outbox.cif.g09.slc.cpg/sg59_17_cif.got.tgz:32238.got - 2010.04.16 16:29:54.
