data_PCOD8239911
_publ_section_title
;
Structure prediction by ZEFSAII (Michael W. Deem and Ramdas Pophale) SiO2 
 PCOD8239911
Probable space group: P M M N
;
_chemical_formula_sum "Si O2"
_cell_formula_units_Z 64
_cell_length_a 18.934655
_cell_length_b 9.205007
_cell_length_c 20.011289
_cell_angle_alpha 90.000000
_cell_angle_beta 90.000000
_cell_angle_gamma 90.000000
_cell_volume 3487.840237
_symmetry_space_group_name_H-M "P M M N"
_symmetry_group_IT_number 59
_space_group.IT_coordinate_system_code '2'
_symmetry_cell_setting 'orthorhombic'
loop_
_space_group_symop_operation_xyz
x,y,z
1/2-x,1/2-y,z
1/2+x,-y,-z
-x,1/2+y,-z
-x,-y,-z
1/2+x,1/2+y,-z
1/2-x,y,z
x,1/2-y,z
loop_
_atom_site_type_symbol
_atom_site_label
_atom_site_fract_x
_atom_site_fract_y
_atom_site_fract_z
Si Si1 0.058557 0.079036 0.786963
Si Si2 0.944885 0.921330 0.365442
Si Si3 0.670995 0.921214 0.468885
Si Si4 0.583647 0.577141 0.596273
Si Si5 0.671772 0.921776 0.108094
Si Si6 0.671795 0.577849 0.723135
Si Si7 0.927353 0.918146 0.991383
Si Si8 0.574456 0.582266 0.840827
O O1 0.046150 0.250000 0.789241
O O2 0.061001 0.023127 0.710777
O O3 0.131362 0.035430 0.823672
O O4 0.996170 0.006830 0.828394
O O5 0.959528 0.750000 0.369379
O O6 0.871332 0.962014 0.401605
O O7 0.007292 0.002849 0.404195
O O8 0.750000 0.989935 0.466095
O O9 0.678252 0.750000 0.476323
O O10 0.627879 0.979829 0.532790
O O11 0.573280 0.750000 0.595250
O O12 0.625142 0.521809 0.661590
O O13 0.750000 0.991862 0.110233
O O14 0.678143 0.750000 0.101938
O O15 0.630182 0.981895 0.043115
O O16 0.750000 0.508954 0.718991
O O17 0.677621 0.750000 0.720091
O O18 0.635994 0.525682 0.791944
O O19 0.941980 0.750000 0.007012
O O20 0.898441 0.940670 0.916293
O O21 0.000000 0.000000 0.000000
O O22 0.556981 0.750000 0.825971
#
# Coordination Sequence:
#
# PCOD8239911 Si02
#       8
#     8   8   8   8   8   8   8   8
#     4  10  19  32  51  73  99 133 166 201 247 297
#     4  10  20  32  50  76 102 129 164 207 251 294
#     4   9  18  32  50  74 102 130 165 208 250 293
#     4  10  18  31  53  75  97 131 167 202 244 294
#     4   9  18  32  50  74 101 129 166 208 247 289
#     4   9  17  29  47  73 100 125 159 201 243 287
#     4  10  19  31  51  75  99 130 164 202 248 296
#     4  10  19  31  50  75  99 127 163 204 247 291
#
# _framework density 18.349464000000001
#
# number of rings (size 3 to 8) (size 9 to 14) (size 15 to 20)
#    0.000    2.375    2.500    0.750    0.000    2.500 
#    0.000    5.000    0.000    5.250    0.000    3.500 
#    0.000    0.000    0.000    0.000    0.000    0.000 
#
# Total GULP energy -793533.244952 kJ/mol
# GULP energy per Si atom -12398.956952 kJ/mol
# Density = 1.830770 g / cm^3
# Si number density = 18.349464 Si / 1000 Ang^3
#
#
#
# Elastic Constant Matrix: (Units=GPa)
#
#
# Indices 1 2 3 4 5 6 
#
# 1 152.4870 22.9773 59.2929 0.0000 0.0000 0.0000
# 2 22.9773 19.0049 16.6356 0.0000 0.0000 0.0000
# 3 59.2929 16.6356 116.9324 0.0000 0.0000 0.0000
# 4 0.0000 0.0000 0.0000 17.1517 0.0000 0.0000
# 5 0.0000 0.0000 0.0000 0.0000 32.9564 0.0000
# 6 0.0000 0.0000 0.0000 0.0000 0.0000 21.4486
#
#
#
# Elastic Compliance Matrix: (Units=1/GPa)
#
#
# Indices 1 2 3 4 5 6 
#
# 1 0.009115 -0.007966 -0.003488 0.000000 0.000000 0.000000
# 2 -0.007966 0.067065 -0.005502 0.000000 0.000000 0.000000
# 3 -0.003488 -0.005502 0.011104 0.000000 0.000000 0.000000
# 4 0.000000 0.000000 0.000000 0.058303 0.000000 0.000000
# 5 0.000000 0.000000 0.000000 0.000000 0.030343 0.000000
# 6 0.000000 0.000000 0.000000 0.000000 0.000000 0.046623
#
#
# Mechanical properties :
#
#
# Convention : Reuss Voigt Hill
#
# Bulk Modulus (GPa) = 18.73689 54.02623 36.38156
# Shear Modulus (GPa) = 18.23110 26.94591 22.58850
#
# Velocity S-wave (km/s) = 3.15548 3.83624 3.51239
# Velocity P-wave (km/s) = 4.84865 7.00922 6.02655
#
# Compressibility (1/GPa) = 0.05337065
#
# Stress axis : x y z
#
# Youngs Moduli (GPa) = 109.71162 14.91081 90.06119
#
# Poissons Ratio (x) = 0.11879 0.31418
# Poissons Ratio (y) = 0.87401 0.49549
# Poissons Ratio (z) = 0.38273 0.08203
#
# Static dielectric constant tensor:
#      x y z
#    x 3.616750 0.000000 0.000000 
#    y 0.000000 2.947250 0.000000 
#    z 0.000000 0.000000 3.714320 
# 
# 
# High freq. dielectric constant tensor:
#      x y z
#    x 1.714840 0.000000 0.000000 
#    y 0.000000 1.660460 0.000000 
#    z 0.000000 0.000000 1.729870 
# 
# From -- ./inp_files/29591.got.cif
#   From: 2010.03.12/outbox.cif.g09.slc.cpg/sg59_15_cif.got.tgz:29591.got - 2010.04.16 16:29:54.
