data_PCOD8239883
_publ_section_title
;
Structure prediction by ZEFSAII (Michael W. Deem and Ramdas Pophale) SiO2 
 PCOD8239883
Probable space group: P M M N
;
_chemical_formula_sum "Si O2"
_cell_formula_units_Z 64
_cell_length_a 8.827685
_cell_length_b 18.484103
_cell_length_c 20.170078
_cell_angle_alpha 90.000000
_cell_angle_beta 90.000000
_cell_angle_gamma 90.000000
_cell_volume 3291.188716
_symmetry_space_group_name_H-M "P M M N"
_symmetry_group_IT_number 59
_space_group.IT_coordinate_system_code '2'
_symmetry_cell_setting 'orthorhombic'
loop_
_space_group_symop_operation_xyz
x,y,z
1/2-x,1/2-y,z
1/2+x,-y,-z
-x,1/2+y,-z
-x,-y,-z
1/2+x,1/2+y,-z
1/2-x,y,z
x,1/2-y,z
loop_
_atom_site_type_symbol
_atom_site_label
_atom_site_fract_x
_atom_site_fract_y
_atom_site_fract_z
Si Si1 0.423018 0.585935 0.546724
Si Si2 0.570451 0.669041 0.895241
Si Si3 0.570606 0.167481 0.863828
Si Si4 0.070435 0.580741 0.260477
Si Si5 0.576885 0.330678 0.329814
Si Si6 0.428224 0.943267 0.404948
Si Si7 0.071876 0.424834 0.224449
Si Si8 0.429258 0.423303 0.979881
O O1 0.250000 0.558284 0.544056
O O2 0.439478 0.657832 0.590849
O O3 0.519284 0.524940 0.583637
O O4 0.478068 0.601984 0.470901
O O5 0.750000 0.672665 0.888054
O O6 0.501700 0.750000 0.890218
O O7 0.499515 0.618708 0.837445
O O8 0.523546 0.635112 0.965082
O O9 0.750000 0.161163 0.873716
O O10 0.515396 0.250000 0.877003
O O11 0.523712 0.146529 0.788096
O O12 0.492551 0.109013 0.911532
O O13 0.250000 0.575516 0.264573
O O14 0.004146 0.589813 0.335850
O O15 0.006672 0.506163 0.228411
O O16 0.750000 0.344375 0.307692
O O17 0.524683 0.250000 0.313140
O O18 0.466927 0.384592 0.292166
O O19 0.250000 0.943802 0.396493
O O20 0.250000 0.427407 0.215102
O O21 0.250000 0.433295 0.974460
O O22 0.500000 0.500000 0.000000
#
# Coordination Sequence:
#
# PCOD8239883 Si02
#       8
#     8   8   8   8   8   8   8   8
#     4   9  17  29  46  69  97 130 169 213 263 315
#     4   9  18  32  51  75 102 133 168 208 255 304
#     4  10  21  38  59  83 113 146 179 221 276 332
#     4   9  17  31  52  78 105 134 172 219 264 307
#     4  10  20  32  44  65 103 140 166 204 262 318
#     4   9  16  29  50  72  95 127 170 218 261 306
#     4  10  18  31  52  74  96 128 172 214 247 296
#     4  11  22  38  60  83 109 141 180 226 271 322
#
# _framework density 19.44586
#
# number of rings (size 3 to 8) (size 9 to 14) (size 15 to 20)
#    0.000    2.375    1.250    1.875    0.000    3.500 
#    0.000    4.375    0.000    6.750    0.000    0.000 
#    0.000    3.000    0.000    0.000    0.000    0.000 
#
# Total GULP energy -793092.254560 kJ/mol
# GULP energy per Si atom -12392.066477 kJ/mol
# Density = 1.940160 g / cm^3
# Si number density = 19.445860 Si / 1000 Ang^3
#
#
#
# Elastic Constant Matrix: (Units=GPa)
#
#
# Indices 1 2 3 4 5 6 
#
# 1 18.4230 14.9658 17.7797 0.0000 0.0000 0.0000
# 2 14.9658 90.2395 40.6979 0.0000 0.0000 0.0000
# 3 17.7797 40.6979 142.1880 0.0000 0.0000 0.0000
# 4 0.0000 0.0000 0.0000 29.1594 0.0000 0.0000
# 5 0.0000 0.0000 0.0000 0.0000 23.2325 0.0000
# 6 0.0000 0.0000 0.0000 0.0000 0.0000 18.1536
#
#
#
# Elastic Compliance Matrix: (Units=1/GPa)
#
#
# Indices 1 2 3 4 5 6 
#
# 1 0.066851 -0.008402 -0.005955 0.000000 0.000000 0.000000
# 2 -0.008402 0.013780 -0.002894 0.000000 0.000000 0.000000
# 3 -0.005955 -0.002894 0.008606 0.000000 0.000000 0.000000
# 4 0.000000 0.000000 0.000000 0.034294 0.000000 0.000000
# 5 0.000000 0.000000 0.000000 0.000000 0.043043 0.000000
# 6 0.000000 0.000000 0.000000 0.000000 0.000000 0.055085
#
#
# Mechanical properties :
#
#
# Convention : Reuss Voigt Hill
#
# Bulk Modulus (GPa) = 18.26894 44.19306 31.23100
# Shear Modulus (GPa) = 18.22120 25.93625 22.07873
#
# Velocity S-wave (km/s) = 3.06440 3.65604 3.37322
# Velocity P-wave (km/s) = 4.68358 6.37163 5.59167
#
# Compressibility (1/GPa) = 0.05473772
#
# Stress axis : x y z
#
# Youngs Moduli (GPa) = 14.95853 72.56890 116.20121
#
# Poissons Ratio (x) = 0.60969 0.69193
# Poissons Ratio (y) = 0.12567 0.33624
# Poissons Ratio (z) = 0.08907 0.20999
#
# Static dielectric constant tensor:
#      x y z
#    x 3.195820 0.000000 0.000000 
#    y 0.000000 3.595560 0.000000 
#    z 0.000000 0.000000 4.021920 
# 
# 
# High freq. dielectric constant tensor:
#      x y z
#    x 1.718400 0.000000 0.000000 
#    y 0.000000 1.743550 0.000000 
#    z 0.000000 0.000000 1.777510 
# 
# From -- ./inp_files/29520.got.cif
#   From: 2010.03.12/outbox.cif.g09.slc.cpg/sg59_15_cif.got.tgz:29520.got - 2010.04.16 16:29:54.
