data_PCOD8239771
_publ_section_title
;
Structure prediction by ZEFSAII (Michael W. Deem and Ramdas Pophale) SiO2 
 PCOD8239771
Probable space group: P M M N
;
_chemical_formula_sum "Si O2"
_cell_formula_units_Z 56
_cell_length_a 14.361169
_cell_length_b 8.691956
_cell_length_c 23.026853
_cell_angle_alpha 90.000000
_cell_angle_beta 90.000000
_cell_angle_gamma 90.000000
_cell_volume 2874.364898
_symmetry_space_group_name_H-M "P M M N"
_symmetry_group_IT_number 59
_space_group.IT_coordinate_system_code '2'
_symmetry_cell_setting 'orthorhombic'
loop_
_space_group_symop_operation_xyz
x,y,z
1/2-x,1/2-y,z
1/2+x,-y,-z
-x,1/2+y,-z
-x,-y,-z
1/2+x,1/2+y,-z
1/2-x,y,z
x,1/2-y,z
loop_
_atom_site_type_symbol
_atom_site_label
_atom_site_fract_x
_atom_site_fract_y
_atom_site_fract_z
Si Si1 0.641590 0.923097 0.037672
Si Si2 0.144473 0.933576 0.746289
Si Si3 0.648126 0.566622 0.907614
Si Si4 0.642606 0.927531 0.465112
Si Si5 0.971552 0.069513 0.363914
Si Si6 0.539081 0.430562 0.141836
Si Si7 0.855170 0.428978 0.588729
O O1 0.750000 0.924474 0.051968
O O2 0.602081 0.750000 0.044364
O O3 0.591987 0.034763 0.082595
O O4 0.623783 0.988955 0.972931
O O5 0.250000 0.998304 0.744995
O O6 0.146924 0.750000 0.747822
O O7 0.089581 0.992999 0.689728
O O8 0.091313 0.003453 0.802583
O O9 0.750000 0.502930 0.888081
O O10 0.652039 0.750000 0.909450
O O11 0.567776 0.507626 0.863622
O O12 0.750000 0.955867 0.449412
O O13 0.614319 0.750000 0.457554
O O14 0.581418 0.031875 0.423203
O O15 0.622035 0.977056 0.530644
O O16 0.988167 0.250000 0.358627
O O17 0.072311 0.986234 0.362451
O O18 0.536819 0.250000 0.150884
O O19 0.750000 0.463047 0.610386
O O20 0.869033 0.250000 0.575486
#
# Coordination Sequence:
#
# PCOD8239771 Si02
#       7
#     8   8   8   8   8   8   8
#     4   9  17  29  45  68 100 133 160 194 249 308
#     4   9  19  34  50  72 102 131 161 202 250 294
#     4   8  15  28  46  70 100 130 160 198 247 301
#     4  10  20  34  54  81 110 137 169 210 252 299
#     4  11  21  34  53  74 101 138 175 210 251 300
#     4  10  18  30  51  74  95 126 169 211 246 285
#     4  10  21  37  56  78 105 135 166 204 253 305
#
# _framework density 19.482564
#
# number of rings (size 3 to 8) (size 9 to 14) (size 15 to 20)
#    0.000    2.429    0.000    3.857    0.000    3.143 
#    0.000    2.143    0.000    7.286    0.000    0.000 
#    0.000    0.000    0.000    0.000    0.000    0.000 
#
# Total GULP energy -694280.790088 kJ/mol
# GULP energy per Si atom -12397.871252 kJ/mol
# Density = 1.943822 g / cm^3
# Si number density = 19.482564 Si / 1000 Ang^3
#
#
#
# Elastic Constant Matrix: (Units=GPa)
#
#
# Indices 1 2 3 4 5 6 
#
# 1 155.1484 21.3171 87.0987 0.0000 0.0000 0.0000
# 2 21.3171 26.9090 11.3285 0.0000 0.0000 0.0000
# 3 87.0987 11.3285 83.3428 0.0000 0.0000 0.0000
# 4 0.0000 0.0000 0.0000 19.0042 0.0000 0.0000
# 5 0.0000 0.0000 0.0000 0.0000 36.0404 0.0000
# 6 0.0000 0.0000 0.0000 0.0000 0.0000 25.2781
#
#
#
# Elastic Compliance Matrix: (Units=1/GPa)
#
#
# Indices 1 2 3 4 5 6 
#
# 1 0.016506 -0.006167 -0.016412 0.000000 0.000000 0.000000
# 2 -0.006167 0.041722 0.000774 0.000000 0.000000 0.000000
# 3 -0.016412 0.000774 0.029045 0.000000 0.000000 0.000000
# 4 0.000000 0.000000 0.000000 0.052620 0.000000 0.000000
# 5 0.000000 0.000000 0.000000 0.000000 0.027747 0.000000
# 6 0.000000 0.000000 0.000000 0.000000 0.000000 0.039560
#
#
# Mechanical properties :
#
#
# Convention : Reuss Voigt Hill
#
# Bulk Modulus (GPa) = 22.90272 56.09876 39.50074
# Shear Modulus (GPa) = 18.84207 25.77493 22.30850
#
# Velocity S-wave (km/s) = 3.11324 3.64122 3.38753
# Velocity P-wave (km/s) = 4.97031 6.82164 5.96820
#
# Compressibility (1/GPa) = 0.04366293
#
# Stress axis : x y z
#
# Youngs Moduli (GPa) = 60.58358 23.96824 34.42956
#
# Poissons Ratio (x) = 0.14781 0.56505
# Poissons Ratio (y) = 0.37361 -0.02663
# Poissons Ratio (z) = 0.99428 -0.01854
#
# Static dielectric constant tensor:
#      x y z
#    x 4.014520 0.000000 0.000000 
#    y 0.000000 3.217960 0.000000 
#    z 0.000000 0.000000 3.480400 
# 
# 
# High freq. dielectric constant tensor:
#      x y z
#    x 1.778880 0.000000 0.000000 
#    y 0.000000 1.726980 0.000000 
#    z 0.000000 0.000000 1.737040 
# 
# From -- ./inp_files/30307.got.cif
#   From: 2010.03.12/outbox.cif.g09.slc.cpg/sg59_16_cif.got.tgz:30307.got - 2010.04.16 16:29:54.
