data_PCOD8239963
_publ_section_title
;
Structure prediction by ZEFSAII (Michael W. Deem and Ramdas Pophale) SiO2 
 PCOD8239963
Probable space group: P M M N
;
_chemical_formula_sum "Si O2"
_cell_formula_units_Z 40
_cell_length_a 9.611377
_cell_length_b 10.187979
_cell_length_c 24.262813
_cell_angle_alpha 90.000000
_cell_angle_beta 90.000000
_cell_angle_gamma 90.000000
_cell_volume 2375.826951
_symmetry_space_group_name_H-M "P M M N"
_symmetry_group_IT_number 59
_space_group.IT_coordinate_system_code '2'
_symmetry_cell_setting 'orthorhombic'
loop_
_space_group_symop_operation_xyz
x,y,z
1/2-x,1/2-y,z
1/2+x,-y,-z
-x,1/2+y,-z
-x,-y,-z
1/2+x,1/2+y,-z
1/2-x,y,z
x,1/2-y,z
loop_
_atom_site_type_symbol
_atom_site_label
_atom_site_fract_x
_atom_site_fract_y
_atom_site_fract_z
Si Si1 0.913948 0.598564 0.037506
Si Si2 0.092610 0.906170 0.259141
Si Si3 0.584144 0.250000 0.546221
Si Si4 0.403243 0.405024 0.838304
Si Si5 0.086892 0.250000 0.434940
Si Si6 0.913361 0.016853 0.623118
O O1 0.750000 0.577560 0.028078
O O2 0.953792 0.750000 0.024424
O O3 0.955504 0.562129 0.100209
O O4 0.000000 0.500000 0.000000
O O5 0.250000 0.956268 0.251503
O O6 0.087355 0.750000 0.261691
O O7 0.024469 0.961465 0.315705
O O8 0.007014 0.963974 0.207404
O O9 0.750000 0.250000 0.535984
O O10 0.506239 0.250000 0.488668
O O11 0.530737 0.376684 0.579683
O O12 0.250000 0.465721 0.828611
O O13 0.394694 0.250000 0.831494
O O14 0.250000 0.250000 0.451043
O O15 0.045887 0.374093 0.398112
O O16 0.750000 0.038943 0.628334
#
# Coordination Sequence:
#
# PCOD8239963 Si02
#       6
#     8   8   4   8   4   8
#     4   9  18  32  50  73 102 133 166 203 244 291
#     4   9  15  26  46  68  86 112 155 194 222 266
#     4  10  18  32  50  66  88 118 149 184 225 268
#     4   8  15  28  45  68  97 124 150 191 241 275
#     4  10  20  32  46  66  92 118 147 184 225 272
#     4   9  17  30  48  67  89 118 149 184 227 270
#
# _framework density 16.836241999999999
#
# number of rings (size 3 to 8) (size 9 to 14) (size 15 to 20)
#    0.000    3.000    1.000    1.800    0.000    1.200 
#    0.000    4.000    2.200    0.000    0.000    0.000 
#    0.000    0.000    0.000    0.000    0.000    0.000 
#
# Total GULP energy -495813.849176 kJ/mol
# GULP energy per Si atom -12395.346229 kJ/mol
# Density = 1.679792 g / cm^3
# Si number density = 16.836242 Si / 1000 Ang^3
#
#
#
# Elastic Constant Matrix: (Units=GPa)
#
#
# Indices 1 2 3 4 5 6 
#
# 1 60.6940 33.4897 69.4507 0.0000 0.0000 0.0000
# 2 33.4897 84.0338 55.3438 0.0000 0.0000 0.0000
# 3 69.4507 55.3438 162.5152 0.0000 0.0000 0.0000
# 4 0.0000 0.0000 0.0000 25.0640 0.0000 0.0000
# 5 0.0000 0.0000 0.0000 0.0000 33.6466 0.0000
# 6 0.0000 0.0000 0.0000 0.0000 0.0000 13.9970
#
#
#
# Elastic Compliance Matrix: (Units=1/GPa)
#
#
# Indices 1 2 3 4 5 6 
#
# 1 0.033865 -0.005111 -0.012731 0.000000 0.000000 0.000000
# 2 -0.005111 0.016112 -0.003303 0.000000 0.000000 0.000000
# 3 -0.012731 -0.003303 0.012719 0.000000 0.000000 0.000000
# 4 0.000000 0.000000 0.000000 0.039898 0.000000 0.000000
# 5 0.000000 0.000000 0.000000 0.000000 0.029721 0.000000
# 6 0.000000 0.000000 0.000000 0.000000 0.000000 0.071444
#
#
# Mechanical properties :
#
#
# Convention : Reuss Voigt Hill
#
# Bulk Modulus (GPa) = 49.00783 69.31239 59.16011
# Shear Modulus (GPa) = 19.77458 24.47209 22.12334
#
# Velocity S-wave (km/s) = 3.43085 3.81666 3.62889
# Velocity P-wave (km/s) = 6.69821 7.78977 7.26452
#
# Compressibility (1/GPa) = 0.02040490
#
# Stress axis : x y z
#
# Youngs Moduli (GPa) = 29.52937 62.06556 78.62435
#
# Poissons Ratio (x) = 0.31723 1.00100
# Poissons Ratio (y) = 0.15093 0.25967
# Poissons Ratio (z) = 0.37595 0.20498
#
# Static dielectric constant tensor:
#      x y z
#    x 3.429520 0.000000 0.000000 
#    y 0.000000 3.254130 0.000000 
#    z 0.000000 0.000000 3.400300 
# 
# 
# High freq. dielectric constant tensor:
#      x y z
#    x 1.626170 0.000000 0.000000 
#    y 0.000000 1.621420 0.000000 
#    z 0.000000 0.000000 1.662860 
# 
# From -- ./inp_files/28749.got.cif
#   From: 2010.03.12/outbox.cif.g09.slc.cpg/sg59_15_cif.got.tgz:28749.got - 2010.04.16 16:29:54.
