data_PCOD8239737
_publ_section_title
;
Structure prediction by ZEFSAII (Michael W. Deem and Ramdas Pophale) SiO2 
 PCOD8239737
Probable space group: P M M N
;
_chemical_formula_sum "Si O2"
_cell_formula_units_Z 48
_cell_length_a 8.834141
_cell_length_b 10.174096
_cell_length_c 29.358033
_cell_angle_alpha 90.000000
_cell_angle_beta 90.000000
_cell_angle_gamma 90.000000
_cell_volume 2638.682350
_symmetry_space_group_name_H-M "P M M N"
_symmetry_group_IT_number 59
_space_group.IT_coordinate_system_code '2'
_symmetry_cell_setting 'orthorhombic'
loop_
_space_group_symop_operation_xyz
x,y,z
1/2-x,1/2-y,z
1/2+x,-y,-z
-x,1/2+y,-z
-x,-y,-z
1/2+x,1/2+y,-z
1/2-x,y,z
x,1/2-y,z
loop_
_atom_site_type_symbol
_atom_site_label
_atom_site_fract_x
_atom_site_fract_y
_atom_site_fract_z
Si Si1 0.429657 0.895540 0.197500
Si Si2 0.073263 0.600365 0.631016
Si Si3 0.071821 0.100355 0.464876
Si Si4 0.572986 0.095917 0.701163
Si Si5 0.070074 0.997031 0.104002
Si Si6 0.429323 0.750000 0.046227
Si Si7 0.569602 0.750000 0.947330
O O1 0.250000 0.886734 0.195699
O O2 0.496351 0.750000 0.189464
O O3 0.476884 0.946006 0.247577
O O4 0.490129 0.987580 0.156342
O O5 0.250000 0.584313 0.621474
O O6 0.034723 0.750000 0.646493
O O7 0.985724 0.564139 0.585143
O O8 0.024078 0.496497 0.668818
O O9 0.250000 0.082211 0.465895
O O10 0.025185 0.250000 0.477613
O O11 0.000000 0.000000 0.500000
O O12 0.750000 0.069121 0.693030
O O13 0.536654 0.250000 0.692539
O O14 0.250000 0.000113 0.104535
O O15 0.004519 0.126322 0.080375
O O16 0.012865 0.875093 0.074279
O O17 0.250000 0.750000 0.039615
O O18 0.506866 0.750000 0.997682
O O19 0.750000 0.750000 0.949695
#
# Coordination Sequence:
#
# PCOD8239737 Si02
#       7
#     8   8   8   8   8   4   4
#     4   8  13  26  48  72  95 120 157 201 244 294
#     4  10  21  37  55  76 107 146 182 216 259 311
#     4  10  21  37  58  83 111 144 183 224 265 311
#     4   9  18  32  53  80 105 130 167 219 268 310
#     4   9  16  28  46  68  93 121 154 196 242 289
#     4  10  18  30  50  66  84 126 166 186 229 298
#     4  10  20  30  42  68 100 118 146 202 247 278
#
# _framework density 18.190898000000001
#
# number of rings (size 3 to 8) (size 9 to 14) (size 15 to 20)
#    0.000    2.667    0.833    2.500    0.000    3.000 
#    1.500    0.000    0.000    2.000    0.000    0.000 
#    0.000    0.000    0.000    0.000    0.000    0.000 
#
# Total GULP energy -594983.814821 kJ/mol
# GULP energy per Si atom -12395.496142 kJ/mol
# Density = 1.814949 g / cm^3
# Si number density = 18.190898 Si / 1000 Ang^3
#
#
#
# Elastic Constant Matrix: (Units=GPa)
#
#
# Indices 1 2 3 4 5 6 
#
# 1 36.4070 29.4900 34.9384 0.0000 0.0000 0.0000
# 2 29.4900 126.8690 88.3506 0.0000 0.0000 0.0000
# 3 34.9384 88.3506 157.9012 0.0000 0.0000 0.0000
# 4 0.0000 0.0000 0.0000 10.4420 0.0000 0.0000
# 5 0.0000 0.0000 0.0000 0.0000 27.3328 0.0000
# 6 0.0000 0.0000 0.0000 0.0000 0.0000 20.4086
#
#
#
# Elastic Compliance Matrix: (Units=1/GPa)
#
#
# Indices 1 2 3 4 5 6 
#
# 1 0.036496 -0.004685 -0.005454 0.000000 0.000000 0.000000
# 2 -0.004685 0.013516 -0.006526 0.000000 0.000000 0.000000
# 3 -0.005454 -0.006526 0.011191 0.000000 0.000000 0.000000
# 4 0.000000 0.000000 0.000000 0.095767 0.000000 0.000000
# 5 0.000000 0.000000 0.000000 0.000000 0.036586 0.000000
# 6 0.000000 0.000000 0.000000 0.000000 0.000000 0.048999
#
#
# Mechanical properties :
#
#
# Convention : Reuss Voigt Hill
#
# Bulk Modulus (GPa) = 35.87664 69.63723 52.75694
# Shear Modulus (GPa) = 17.53301 22.86322 20.19812
#
# Velocity S-wave (km/s) = 3.10794 3.54905 3.33579
# Velocity P-wave (km/s) = 5.71351 7.42690 6.62582
#
# Compressibility (1/GPa) = 0.02787329
#
# Stress axis : x y z
#
# Youngs Moduli (GPa) = 27.40010 73.98808 89.35604
#
# Poissons Ratio (x) = 0.34666 0.48733
# Poissons Ratio (y) = 0.12838 0.58311
# Poissons Ratio (z) = 0.14944 0.48283
#
# Static dielectric constant tensor:
#      x y z
#    x 3.014500 0.000000 0.000000 
#    y 0.000000 3.790080 0.000000 
#    z 0.000000 0.000000 3.496840 
# 
# 
# High freq. dielectric constant tensor:
#      x y z
#    x 1.670640 0.000000 0.000000 
#    y 0.000000 1.703860 0.000000 
#    z 0.000000 0.000000 1.718300 
# 
# From -- ./inp_files/32958.got.cif
#   From: 2010.03.12/outbox.cif.g09.slc.cpg/sg59_17_cif.got.tgz:32958.got - 2010.04.16 16:29:54.
