data_PCOD8239718
_publ_section_title
;
Structure prediction by ZEFSAII (Michael W. Deem and Ramdas Pophale) SiO2 
 PCOD8239718
Probable space group: P M M N
;
_chemical_formula_sum "Si O2"
_cell_formula_units_Z 64
_cell_length_a 8.914548
_cell_length_b 19.729085
_cell_length_c 19.939713
_cell_angle_alpha 90.000000
_cell_angle_beta 90.000000
_cell_angle_gamma 90.000000
_cell_volume 3506.914476
_symmetry_space_group_name_H-M "P M M N"
_symmetry_group_IT_number 59
_space_group.IT_coordinate_system_code '2'
_symmetry_cell_setting 'orthorhombic'
loop_
_space_group_symop_operation_xyz
x,y,z
1/2-x,1/2-y,z
1/2+x,-y,-z
-x,1/2+y,-z
-x,-y,-z
1/2+x,1/2+y,-z
1/2-x,y,z
x,1/2-y,z
loop_
_atom_site_type_symbol
_atom_site_label
_atom_site_fract_x
_atom_site_fract_y
_atom_site_fract_z
Si Si1 0.427681 0.418645 0.349640
Si Si2 0.075452 0.897806 0.882073
Si Si3 0.925487 0.553560 0.302877
Si Si4 0.574205 0.327540 0.460671
Si Si5 0.926586 0.036191 0.836768
Si Si6 0.077711 0.567317 0.022509
Si Si7 0.921715 0.673300 0.401184
Si Si8 0.078214 0.325772 0.227533
O O1 0.250000 0.423993 0.354997
O O2 0.496244 0.493262 0.343974
O O3 0.487466 0.380421 0.414625
O O4 0.478782 0.376915 0.284343
O O5 0.250000 0.913853 0.869969
O O6 0.023058 0.833571 0.838951
O O7 0.046184 0.879703 0.961601
O O8 0.977710 0.960664 0.855603
O O9 0.750000 0.537946 0.299362
O O10 0.961954 0.623471 0.340486
O O11 0.987929 0.562955 0.228095
O O12 0.750000 0.339206 0.451902
O O13 0.529245 0.250000 0.442359
O O14 0.528987 0.343738 0.536748
O O15 0.750000 0.035356 0.820657
O O16 0.968863 0.086027 0.900618
O O17 0.250000 0.548416 0.026057
O O18 0.000000 0.500000 0.000000
O O19 0.750000 0.663309 0.424681
O O20 0.949073 0.750000 0.375691
O O21 0.250000 0.340148 0.208437
O O22 0.056821 0.250000 0.255336
#
# Coordination Sequence:
#
# PCOD8239718 Si02
#       8
#     8   8   8   8   8   8   8   8
#     4  11  22  36  55  78 108 146 182 218 265 320
#     4  10  18  30  49  73 101 134 176 224 266 306
#     4  11  22  35  55  83 111 138 174 224 271 315
#     4  10  21  37  58  83 110 140 179 225 264 307
#     4  10  18  31  50  74 106 140 171 210 264 319
#     4   8  16  28  45  70  98 130 169 210 254 306
#     4   9  20  40  62  81 104 137 175 215 267 328
#     4  10  21  35  50  71 103 145 187 222 262 318
#
# _framework density 18.249661
#
# number of rings (size 3 to 8) (size 9 to 14) (size 15 to 20)
#    0.000    2.125    1.250    2.250    0.000    4.500 
#    0.000    0.000    0.000    0.750    0.000    3.500 
#    0.000    0.000    0.000    0.000    0.000    0.000 
#
# Total GULP energy -793215.504455 kJ/mol
# GULP energy per Si atom -12393.992257 kJ/mol
# Density = 1.820812 g / cm^3
# Si number density = 18.249661 Si / 1000 Ang^3
#
#
#
# Elastic Constant Matrix: (Units=GPa)
#
#
# Indices 1 2 3 4 5 6 
#
# 1 69.7358 36.8390 53.0312 0.0000 0.0000 0.0000
# 2 36.8390 85.4583 62.7092 0.0000 0.0000 0.0000
# 3 53.0312 62.7092 135.4948 0.0000 0.0000 0.0000
# 4 0.0000 0.0000 0.0000 19.9677 0.0000 0.0000
# 5 0.0000 0.0000 0.0000 0.0000 31.4538 0.0000
# 6 0.0000 0.0000 0.0000 0.0000 0.0000 23.3582
#
#
#
# Elastic Compliance Matrix: (Units=1/GPa)
#
#
# Indices 1 2 3 4 5 6 
#
# 1 0.021598 -0.004705 -0.006275 0.000000 0.000000 0.000000
# 2 -0.004705 0.018744 -0.006834 0.000000 0.000000 0.000000
# 3 -0.006275 -0.006834 0.012999 0.000000 0.000000 0.000000
# 4 0.000000 0.000000 0.000000 0.050081 0.000000 0.000000
# 5 0.000000 0.000000 0.000000 0.000000 0.031793 0.000000
# 6 0.000000 0.000000 0.000000 0.000000 0.000000 0.042811
#
#
# Mechanical properties :
#
#
# Convention : Reuss Voigt Hill
#
# Bulk Modulus (GPa) = 56.45692 66.20529 61.33111
# Shear Modulus (GPa) = 22.77288 24.16324 23.46806
#
# Velocity S-wave (km/s) = 3.53633 3.64268 3.58990
# Velocity P-wave (km/s) = 6.90487 7.35177 7.13182
#
# Compressibility (1/GPa) = 0.01771262
#
# Stress axis : x y z
#
# Youngs Moduli (GPa) = 46.30126 53.34900 76.92794
#
# Poissons Ratio (x) = 0.25103 0.48275
# Poissons Ratio (y) = 0.21786 0.52570
# Poissons Ratio (z) = 0.29056 0.36457
#
# Static dielectric constant tensor:
#      x y z
#    x 3.381620 0.000000 0.000000 
#    y 0.000000 3.181240 0.000000 
#    z 0.000000 0.000000 3.779440 
# 
# 
# High freq. dielectric constant tensor:
#      x y z
#    x 1.717240 0.000000 0.000000 
#    y 0.000000 1.673080 0.000000 
#    z 0.000000 0.000000 1.719960 
# 
# From -- ./inp_files/26258.got.cif
#   From: 2010.03.12/outbox.cif.g09.slc.cpg/sg59_14_cif.got.tgz:26258.got - 2010.04.16 16:29:54.
