data_PCOD8239449
_publ_section_title
;
Structure prediction by ZEFSAII (Michael W. Deem and Ramdas Pophale) SiO2 
 PCOD8239449
Probable space group: P M M N
;
_chemical_formula_sum "Si O2"
_cell_formula_units_Z 64
_cell_length_a 19.643691
_cell_length_b 13.444496
_cell_length_c 15.129971
_cell_angle_alpha 90.000000
_cell_angle_beta 90.000000
_cell_angle_gamma 90.000000
_cell_volume 3995.818155
_symmetry_space_group_name_H-M "P M M N"
_symmetry_group_IT_number 59
_space_group.IT_coordinate_system_code '2'
_symmetry_cell_setting 'orthorhombic'
loop_
_space_group_symop_operation_xyz
x,y,z
1/2-x,1/2-y,z
1/2+x,-y,-z
-x,1/2+y,-z
-x,-y,-z
1/2+x,1/2+y,-z
1/2-x,y,z
x,1/2-y,z
loop_
_atom_site_type_symbol
_atom_site_label
_atom_site_fract_x
_atom_site_fract_y
_atom_site_fract_z
Si Si1 0.060077 0.634122 0.274535
Si Si2 0.326699 0.134387 0.156087
Si Si3 0.586824 0.631933 0.329736
Si Si4 0.827573 0.864401 0.165757
Si Si5 0.600767 0.947620 0.009585
Si Si6 0.458840 0.635163 0.068602
Si Si7 0.171604 0.134504 0.503844
Si Si8 0.171646 0.487511 0.329228
O O1 0.068860 0.750000 0.291334
O O2 0.057569 0.611007 0.170351
O O3 0.124064 0.583495 0.321704
O O4 0.991038 0.595297 0.322007
O O5 0.250000 0.106701 0.125692
O O6 0.334241 0.250000 0.172889
O O7 0.380311 0.100547 0.083443
O O8 0.345202 0.083678 0.247950
O O9 0.591767 0.750000 0.327276
O O10 0.627517 0.591167 0.245038
O O11 0.622432 0.592888 0.419004
O O12 0.750000 0.872285 0.195871
O O13 0.846878 0.750000 0.142951
O O14 0.838562 0.932781 0.079357
O O15 0.586878 0.064934 0.994531
O O16 0.537175 0.888809 0.050407
O O17 0.442812 0.750000 0.046016
O O18 0.250000 0.119731 0.532868
O O19 0.157156 0.250000 0.483403
O O20 0.153783 0.071898 0.417530
O O21 0.250000 0.522869 0.328613
#
# Coordination Sequence:
#
# PCOD8239449 Si02
#       8
#     8   8   8   8   8   8   8   8
#     4  10  19  34  51  67  95 128 161 204 241 277
#     4  10  19  30  45  68  97 125 155 194 241 289
#     4   9  17  30  49  73  98 125 155 189 241 294
#     4  10  18  28  46  74 104 127 155 199 246 295
#     4  11  19  30  49  69  94 128 161 198 240 289
#     4  10  20  33  48  67  94 130 167 201 238 281
#     4   9  17  31  51  74 101 127 149 183 235 294
#     4  10  20  33  48  69  95 127 165 197 234 283
#
# _framework density 16.016745
#
# number of rings (size 3 to 8) (size 9 to 14) (size 15 to 20)
#    0.000    2.125    2.500    2.250    0.000    4.750 
#    0.000    0.000    0.000    1.500    0.000    0.875 
#    0.000    2.000    0.000    0.000    0.000    0.000 
#
# Total GULP energy -793593.527350 kJ/mol
# GULP energy per Si atom -12399.898865 kJ/mol
# Density = 1.598029 g / cm^3
# Si number density = 16.016745 Si / 1000 Ang^3
#
#
#
# Elastic Constant Matrix: (Units=GPa)
#
#
# Indices 1 2 3 4 5 6 
#
# 1 85.0422 44.6847 53.7965 0.0000 0.0000 0.0000
# 2 44.6847 62.1112 43.0384 0.0000 0.0000 0.0000
# 3 53.7965 43.0384 109.2769 0.0000 0.0000 0.0000
# 4 0.0000 0.0000 0.0000 17.9120 0.0000 0.0000
# 5 0.0000 0.0000 0.0000 0.0000 26.2723 0.0000
# 6 0.0000 0.0000 0.0000 0.0000 0.0000 23.5525
#
#
#
# Elastic Compliance Matrix: (Units=1/GPa)
#
#
# Indices 1 2 3 4 5 6 
#
# 1 0.021583 -0.011230 -0.006202 0.000000 0.000000 0.000000
# 2 -0.011230 0.027986 -0.005494 0.000000 0.000000 0.000000
# 3 -0.006202 -0.005494 0.014368 0.000000 0.000000 0.000000
# 4 0.000000 0.000000 0.000000 0.055828 0.000000 0.000000
# 5 0.000000 0.000000 0.000000 0.000000 0.038063 0.000000
# 6 0.000000 0.000000 0.000000 0.000000 0.000000 0.042458
#
#
# Mechanical properties :
#
#
# Convention : Reuss Voigt Hill
#
# Bulk Modulus (GPa) = 55.29366 59.94103 57.61734
# Shear Modulus (GPa) = 19.82812 21.20807 20.51810
#
# Velocity S-wave (km/s) = 3.52229 3.64279 3.58305
# Velocity P-wave (km/s) = 7.15118 7.42957 7.29170
#
# Compressibility (1/GPa) = 0.01808526
#
# Stress axis : x y z
#
# Youngs Moduli (GPa) = 46.33292 35.73226 69.59787
#
# Poissons Ratio (x) = 0.40126 0.43168
# Poissons Ratio (y) = 0.52030 0.38236
# Poissons Ratio (z) = 0.28738 0.19631
#
# Static dielectric constant tensor:
#      x y z
#    x 3.102600 0.000000 0.000000 
#    y 0.000000 2.827720 0.000000 
#    z 0.000000 0.000000 3.132630 
# 
# 
# High freq. dielectric constant tensor:
#      x y z
#    x 1.617600 0.000000 0.000000 
#    y 0.000000 1.587150 0.000000 
#    z 0.000000 0.000000 1.620520 
# 
# From -- ./inp_files/24003.got.cif
#   From: 2010.03.12/outbox.cif.g09.slc.cpg/sg59_13_cif.got.tgz:24003.got - 2010.04.16 16:29:54.
