data_PCOD8239685
_publ_section_title
;
Structure prediction by ZEFSAII (Michael W. Deem and Ramdas Pophale) SiO2 
 PCOD8239685
Probable space group: P M M N
;
_chemical_formula_sum "Si O2"
_cell_formula_units_Z 48
_cell_length_a 8.468076
_cell_length_b 21.765104
_cell_length_c 14.186032
_cell_angle_alpha 90.000000
_cell_angle_beta 90.000000
_cell_angle_gamma 90.000000
_cell_volume 2614.607057
_symmetry_space_group_name_H-M "P M M N"
_symmetry_group_IT_number 59
_space_group.IT_coordinate_system_code '2'
_symmetry_cell_setting 'orthorhombic'
loop_
_space_group_symop_operation_xyz
x,y,z
1/2-x,1/2-y,z
1/2+x,-y,-z
-x,1/2+y,-z
-x,-y,-z
1/2+x,1/2+y,-z
1/2-x,y,z
x,1/2-y,z
loop_
_atom_site_type_symbol
_atom_site_label
_atom_site_fract_x
_atom_site_fract_y
_atom_site_fract_z
Si Si1 0.433313 0.469576 0.775478
Si Si2 0.564550 0.592822 0.856617
Si Si3 0.935639 0.052130 0.570969
Si Si4 0.937141 0.064563 0.960652
Si Si5 0.567519 0.318347 0.501127
Si Si6 0.924585 0.680226 0.693440
O O1 0.250000 0.458625 0.755240
O O2 0.465018 0.536097 0.817502
O O3 0.527236 0.463807 0.678303
O O4 0.494588 0.421545 0.855728
O O5 0.750000 0.576581 0.858273
O O6 0.519503 0.647608 0.787880
O O7 0.504204 0.612430 0.961475
O O8 0.750000 0.053692 0.554073
O O9 0.006021 0.121516 0.553047
O O10 0.000000 0.000000 0.500000
O O11 0.750000 0.065914 0.955585
O O12 0.000000 0.000000 0.000000
O O13 0.750000 0.313851 0.525978
O O14 0.491332 0.250000 0.526296
O O15 0.546422 0.331882 0.390504
O O16 0.750000 0.657213 0.661367
O O17 0.918731 0.750000 0.723127
#
# Coordination Sequence:
#
# PCOD8239685 Si02
#       6
#     8   8   8   8   8   8
#     4  11  21  33  49  71 100 130 163 201 245 294
#     4  10  18  30  49  72 100 130 161 198 243 292
#     4  11  22  35  52  76 105 133 166 209 255 299
#     4  10  18  30  48  70  96 125 159 195 238 292
#     4   9  19  35  53  72  97 132 170 206 246 295
#     4   9  18  31  48  71  98 128 161 198 240 288
#
# _framework density 18.3584
#
# number of rings (size 3 to 8) (size 9 to 14) (size 15 to 20)
#    0.000    2.000    0.000    7.000    0.000    5.333 
#    0.000    0.000    0.000    1.000    0.000    0.000 
#    0.000    0.000    0.000    0.000    0.000    0.000 
#
# Total GULP energy -594668.645041 kJ/mol
# GULP energy per Si atom -12388.930105 kJ/mol
# Density = 1.831662 g / cm^3
# Si number density = 18.358400 Si / 1000 Ang^3
#
#
#
# Elastic Constant Matrix: (Units=GPa)
#
#
# Indices 1 2 3 4 5 6 
#
# 1 57.5783 17.1416 7.3073 0.0000 0.0000 0.0000
# 2 17.1416 73.3046 44.2432 0.0000 0.0000 0.0000
# 3 7.3073 44.2432 126.0512 0.0000 0.0000 0.0000
# 4 0.0000 0.0000 0.0000 27.2873 0.0000 0.0000
# 5 0.0000 0.0000 0.0000 0.0000 31.3976 0.0000
# 6 0.0000 0.0000 0.0000 0.0000 0.0000 17.8116
#
#
#
# Elastic Compliance Matrix: (Units=1/GPa)
#
#
# Indices 1 2 3 4 5 6 
#
# 1 0.018700 -0.004718 0.000572 0.000000 0.000000 0.000000
# 2 -0.004718 0.018499 -0.006219 0.000000 0.000000 0.000000
# 3 0.000572 -0.006219 0.010083 0.000000 0.000000 0.000000
# 4 0.000000 0.000000 0.000000 0.036647 0.000000 0.000000
# 5 0.000000 0.000000 0.000000 0.000000 0.031850 0.000000
# 6 0.000000 0.000000 0.000000 0.000000 0.000000 0.056143
#
#
# Mechanical properties :
#
#
# Convention : Reuss Voigt Hill
#
# Bulk Modulus (GPa) = 37.66392 43.81313 40.73852
# Shear Modulus (GPa) = 24.81361 27.84877 26.33119
#
# Velocity S-wave (km/s) = 3.68043 3.89903 3.79130
# Velocity P-wave (km/s) = 6.21459 6.64734 6.43461
#
# Compressibility (1/GPa) = 0.02655061
#
# Stress axis : x y z
#
# Youngs Moduli (GPa) = 53.47699 54.05785 99.17578
#
# Poissons Ratio (x) = 0.25504 -0.05672
# Poissons Ratio (y) = 0.25230 0.61682
# Poissons Ratio (z) = -0.03058 0.33621
#
# Static dielectric constant tensor:
#      x y z
#    x 3.448640 0.000000 0.000000 
#    y 0.000000 3.540600 0.000000 
#    z 0.000000 0.000000 3.345130 
# 
# 
# High freq. dielectric constant tensor:
#      x y z
#    x 1.714360 0.000000 0.000000 
#    y 0.000000 1.681890 0.000000 
#    z 0.000000 0.000000 1.718560 
# 
# From -- ./inp_files/20691.got.cif
#   From: 2010.03.12/outbox.cif.g09.slc.cpg/sg59_11_cif.got.tgz:20691.got - 2010.04.16 16:29:54.
