data_PCOD8239318
_publ_section_title
;
Structure prediction by ZEFSAII (Michael W. Deem and Ramdas Pophale) SiO2 
 PCOD8239318
Probable space group: P M M N
;
_chemical_formula_sum "Si O2"
_cell_formula_units_Z 64
_cell_length_a 9.017318
_cell_length_b 26.781639
_cell_length_c 16.917356
_cell_angle_alpha 90.000000
_cell_angle_beta 90.000000
_cell_angle_gamma 90.000000
_cell_volume 4085.517036
_symmetry_space_group_name_H-M "P M M N"
_symmetry_group_IT_number 59
_space_group.IT_coordinate_system_code '2'
_symmetry_cell_setting 'orthorhombic'
loop_
_space_group_symop_operation_xyz
x,y,z
1/2-x,1/2-y,z
1/2+x,-y,-z
-x,1/2+y,-z
-x,-y,-z
1/2+x,1/2+y,-z
1/2-x,y,z
x,1/2-y,z
loop_
_atom_site_type_symbol
_atom_site_label
_atom_site_fract_x
_atom_site_fract_y
_atom_site_fract_z
Si Si1 0.424288 0.305747 0.588883
Si Si2 0.576593 0.460811 0.608777
Si Si3 0.075879 0.384862 0.717236
Si Si4 0.577654 0.449556 0.024621
Si Si5 0.575916 0.538133 0.823389
Si Si6 0.077081 0.555837 0.660684
Si Si7 0.580604 0.077358 0.855682
Si Si8 0.419050 0.620171 0.518445
O O1 0.250000 0.303435 0.579769
O O2 0.491541 0.250000 0.593960
O O3 0.468788 0.334834 0.669391
O O4 0.483519 0.333302 0.510427
O O5 0.750000 0.472095 0.620116
O O6 0.517654 0.431154 0.684586
O O7 0.487152 0.512233 0.605036
O O8 0.540092 0.429456 0.530728
O O9 0.250000 0.395244 0.709987
O O10 0.024635 0.383197 0.808936
O O11 0.750000 0.459568 0.041544
O O12 0.499004 0.430228 0.104815
O O13 0.500000 0.500000 0.000000
O O14 0.557893 0.412342 0.949660
O O15 0.750000 0.547995 0.824786
O O16 0.510379 0.559790 0.742385
O O17 0.537443 0.479754 0.833766
O O18 0.250000 0.545906 0.676933
O O19 0.054379 0.607249 0.610774
O O20 0.750000 0.087589 0.831735
O O21 0.250000 0.635097 0.501891
#
# Coordination Sequence:
#
# PCOD8239318 Si02
#       8
#     8   8   8   8   8   8   8   8
#     4   9  19  35  51  67  88 113 144 184 227 269
#     4  10  18  29  42  58  86 117 147 183 219 257
#     4  10  18  27  44  66  86 114 149 182 220 264
#     4   9  17  28  41  57  81 115 152 185 217 252
#     4  10  19  29  41  59  85 119 153 185 221 255
#     4  11  20  29  42  61  87 117 151 186 219 259
#     4   9  17  28  41  59  86 115 147 184 217 253
#     4   9  20  33  45  64  86 112 147 184 222 267
#
# _framework density 15.665092
#
# number of rings (size 3 to 8) (size 9 to 14) (size 15 to 20)
#    0.000    2.375    1.250    3.000    0.000    4.750 
#    0.000    0.000    0.000    0.000    0.000    0.000 
#    0.000    1.000    0.000    7.500    0.000    3.875 
#
# Total GULP energy -793262.736801 kJ/mol
# GULP energy per Si atom -12394.730263 kJ/mol
# Density = 1.562944 g / cm^3
# Si number density = 15.665092 Si / 1000 Ang^3
#
#
#
# Elastic Constant Matrix: (Units=GPa)
#
#
# Indices 1 2 3 4 5 6 
#
# 1 72.4677 27.2928 47.0844 0.0000 0.0000 0.0000
# 2 27.2928 59.5472 36.2840 0.0000 0.0000 0.0000
# 3 47.0844 36.2840 110.8681 0.0000 0.0000 0.0000
# 4 0.0000 0.0000 0.0000 11.4034 0.0000 0.0000
# 5 0.0000 0.0000 0.0000 0.0000 29.4425 0.0000
# 6 0.0000 0.0000 0.0000 0.0000 0.0000 15.4361
#
#
#
# Elastic Compliance Matrix: (Units=1/GPa)
#
#
# Indices 1 2 3 4 5 6 
#
# 1 0.020198 -0.005035 -0.006930 0.000000 0.000000 0.000000
# 2 -0.005035 0.022232 -0.005138 0.000000 0.000000 0.000000
# 3 -0.006930 -0.005138 0.013644 0.000000 0.000000 0.000000
# 4 0.000000 0.000000 0.000000 0.087693 0.000000 0.000000
# 5 0.000000 0.000000 0.000000 0.000000 0.033964 0.000000
# 6 0.000000 0.000000 0.000000 0.000000 0.000000 0.064783
#
#
# Mechanical properties :
#
#
# Convention : Reuss Voigt Hill
#
# Bulk Modulus (GPa) = 45.72702 51.57838 48.65270
# Shear Modulus (GPa) = 17.60504 20.07119 18.83812
#
# Velocity S-wave (km/s) = 3.35601 3.58336 3.47155
# Velocity P-wave (km/s) = 6.65363 7.07939 6.86981
#
# Compressibility (1/GPa) = 0.02186891
#
# Stress axis : x y z
#
# Youngs Moduli (GPa) = 49.50930 44.98118 73.29089
#
# Poissons Ratio (x) = 0.22647 0.50792
# Poissons Ratio (y) = 0.24927 0.37653
# Poissons Ratio (z) = 0.34311 0.23109
#
# Static dielectric constant tensor:
#      x y z
#    x 3.073640 0.000000 0.000000 
#    y 0.000000 2.648860 0.000000 
#    z 0.000000 0.000000 3.295740 
# 
# 
# High freq. dielectric constant tensor:
#      x y z
#    x 1.614850 0.000000 0.000000 
#    y 0.000000 1.534720 0.000000 
#    z 0.000000 0.000000 1.609950 
# 
# From -- ./inp_files/26510.got.cif
#   From: 2010.03.12/outbox.cif.g09.slc.cpg/sg59_14_cif.got.tgz:26510.got - 2010.04.16 16:29:54.
