data_PCOD8239479
_publ_section_title
;
Structure prediction by ZEFSAII (Michael W. Deem and Ramdas Pophale) SiO2 
 PCOD8239479
Probable space group: P M M N
;
_chemical_formula_sum "Si O2"
_cell_formula_units_Z 56
_cell_length_a 26.415587
_cell_length_b 9.499165
_cell_length_c 14.214660
_cell_angle_alpha 90.000000
_cell_angle_beta 90.000000
_cell_angle_gamma 90.000000
_cell_volume 3566.828052
_symmetry_space_group_name_H-M "P M M N"
_symmetry_group_IT_number 59
_space_group.IT_coordinate_system_code '2'
_symmetry_cell_setting 'orthorhombic'
loop_
_space_group_symop_operation_xyz
x,y,z
1/2-x,1/2-y,z
1/2+x,-y,-z
-x,1/2+y,-z
-x,-y,-z
1/2+x,1/2+y,-z
1/2-x,y,z
x,1/2-y,z
loop_
_atom_site_type_symbol
_atom_site_label
_atom_site_fract_x
_atom_site_fract_y
_atom_site_fract_z
Si Si1 0.893826 0.412705 0.487156
Si Si2 0.935263 0.412458 0.295632
Si Si3 0.368867 0.407510 0.240874
Si Si4 0.461034 0.086209 0.873432
Si Si5 0.807178 0.084897 0.625329
Si Si6 0.440977 0.411986 0.083889
Si Si7 0.459089 0.408358 0.385684
O O1 0.903461 0.250000 0.509286
O O2 0.891396 0.437991 0.374302
O O3 0.841606 0.463390 0.536418
O O4 0.942489 0.493079 0.528258
O O5 0.936111 0.250000 0.262732
O O6 0.926028 0.511789 0.205500
O O7 0.987764 0.457749 0.343844
O O8 0.346319 0.250000 0.244235
O O9 0.325626 0.511974 0.278191
O O10 0.387517 0.446609 0.135173
O O11 0.418703 0.420704 0.303132
O O12 0.468174 0.250000 0.848971
O O13 0.515799 0.013534 0.875988
O O14 0.432828 0.064799 0.972887
O O15 0.750000 0.037912 0.602711
O O16 0.810925 0.250000 0.642726
O O17 0.457052 0.250000 0.105309
O O18 0.462980 0.250000 0.424729
#
# Coordination Sequence:
#
# PCOD8239479 Si02
#       7
#     8   8   8   8   8   8   8
#     4   9  18  29  43  61  82 114 149 178 216 264
#     4  10  18  29  41  57  87 121 150 181 214 251
#     4   9  16  28  46  64  86 115 146 177 215 263
#     4  10  19  27  42  64  87 119 154 181 209 251
#     4   9  18  32  47  66  91 111 136 182 229 266
#     4   9  17  31  44  60  89 120 148 182 219 249
#     4   9  16  26  40  58  84 116 142 177 218 246
#
# _framework density 15.700222999999999
#
# number of rings (size 3 to 8) (size 9 to 14) (size 15 to 20)
#    0.000    2.714    1.429    0.857    0.000    2.571 
#    0.000    0.000    0.000    0.000    0.000    1.000 
#    0.000    3.429    0.000    0.000    0.000    0.000 
#
# Total GULP energy -694195.879069 kJ/mol
# GULP energy per Si atom -12396.354983 kJ/mol
# Density = 1.566449 g / cm^3
# Si number density = 15.700223 Si / 1000 Ang^3
#
#
#
# Elastic Constant Matrix: (Units=GPa)
#
#
# Indices 1 2 3 4 5 6 
#
# 1 63.3361 28.6776 37.4780 0.0000 0.0000 0.0000
# 2 28.6776 62.1537 51.0527 0.0000 0.0000 0.0000
# 3 37.4780 51.0527 105.0688 0.0000 0.0000 0.0000
# 4 0.0000 0.0000 0.0000 28.8758 0.0000 0.0000
# 5 0.0000 0.0000 0.0000 0.0000 15.4253 0.0000
# 6 0.0000 0.0000 0.0000 0.0000 0.0000 16.4744
#
#
#
# Elastic Compliance Matrix: (Units=1/GPa)
#
#
# Indices 1 2 3 4 5 6 
#
# 1 0.021261 -0.005959 -0.004689 0.000000 0.000000 0.000000
# 2 -0.005959 0.028446 -0.011696 0.000000 0.000000 0.000000
# 3 -0.004689 -0.011696 0.016873 0.000000 0.000000 0.000000
# 4 0.000000 0.000000 0.000000 0.034631 0.000000 0.000000
# 5 0.000000 0.000000 0.000000 0.000000 0.064828 0.000000
# 6 0.000000 0.000000 0.000000 0.000000 0.000000 0.060700
#
#
# Mechanical properties :
#
#
# Convention : Reuss Voigt Hill
#
# Bulk Modulus (GPa) = 45.67661 51.66392 48.67026
# Shear Modulus (GPa) = 17.93887 19.71180 18.82534
#
# Velocity S-wave (km/s) = 3.38388 3.54716 3.46649
# Velocity P-wave (km/s) = 6.66511 7.05368 6.86215
#
# Compressibility (1/GPa) = 0.02189304
#
# Stress axis : x y z
#
# Youngs Moduli (GPa) = 47.03415 35.15466 59.26579
#
# Poissons Ratio (x) = 0.20948 0.27787
# Poissons Ratio (y) = 0.28026 0.69319
# Poissons Ratio (z) = 0.22052 0.41118
#
# Static dielectric constant tensor:
#      x y z
#    x 2.763940 0.000000 0.000000 
#    y 0.000000 3.073920 0.000000 
#    z 0.000000 0.000000 3.215640 
# 
# 
# High freq. dielectric constant tensor:
#      x y z
#    x 1.555850 0.000000 0.000000 
#    y 0.000000 1.606370 0.000000 
#    z 0.000000 0.000000 1.603420 
# 
# From -- ./inp_files/21772.got.cif
#   From: 2010.03.12/outbox.cif.g09.slc.cpg/sg59_11_cif.got.tgz:21772.got - 2010.04.16 16:29:54.
