data_PCOD8239108
_publ_section_title
;
Structure prediction by ZEFSAII (Michael W. Deem and Ramdas Pophale) SiO2 
 PCOD8239108
Probable space group: P M M N
;
_chemical_formula_sum "Si O2"
_cell_formula_units_Z 56
_cell_length_a 9.109176
_cell_length_b 27.878714
_cell_length_c 13.627093
_cell_angle_alpha 90.000000
_cell_angle_beta 90.000000
_cell_angle_gamma 90.000000
_cell_volume 3460.629054
_symmetry_space_group_name_H-M "P M M N"
_symmetry_group_IT_number 59
_space_group.IT_coordinate_system_code '2'
_symmetry_cell_setting 'orthorhombic'
loop_
_space_group_symop_operation_xyz
x,y,z
1/2-x,1/2-y,z
1/2+x,-y,-z
-x,1/2+y,-z
-x,-y,-z
1/2+x,1/2+y,-z
1/2-x,y,z
x,1/2-y,z
loop_
_atom_site_type_symbol
_atom_site_label
_atom_site_fract_x
_atom_site_fract_y
_atom_site_fract_z
Si Si1 0.918928 0.959872 0.723225
Si Si2 0.924234 0.302399 0.525567
Si Si3 0.579115 0.605723 0.211583
Si Si4 0.420332 0.895683 0.581982
Si Si5 0.084872 0.557094 0.380851
Si Si6 0.923548 0.989880 0.102054
Si Si7 0.577595 0.303631 0.748610
O O1 0.750000 0.951118 0.752540
O O2 0.986171 0.911675 0.676309
O O3 0.935750 0.001180 0.641673
O O4 0.010017 0.973154 0.819712
O O5 0.750000 0.304680 0.528283
O O6 0.977201 0.250000 0.487381
O O7 0.982441 0.343947 0.453434
O O8 0.978976 0.310354 0.636785
O O9 0.750000 0.615281 0.215763
O O10 0.526976 0.588650 0.318308
O O11 0.539279 0.564918 0.132014
O O12 0.501289 0.656160 0.184126
O O13 0.250000 0.892809 0.612389
O O14 0.444384 0.934196 0.495271
O O15 0.250000 0.574014 0.353144
O O16 0.750000 0.998458 0.095208
O O17 0.000000 0.000000 0.000000
O O18 0.750000 0.311662 0.756593
O O19 0.536140 0.250000 0.785468
#
# Coordination Sequence:
#
# PCOD8239108 Si02
#       7
#     8   8   8   8   8   8   8
#     4  10  20  31  45  67  94 122 154 192 232 280
#     4   8  14  25  42  63  88 123 165 201 229 261
#     4  10  19  29  45  70  98 124 153 193 240 284
#     4  10  17  27  44  64  91 126 162 197 229 267
#     4   9  17  29  43  61  90 128 163 190 223 269
#     4  10  21  37  54  72  93 120 154 194 241 291
#     4   9  16  28  46  66  92 129 168 197 224 269
#
# _framework density 16.182029
#
# number of rings (size 3 to 8) (size 9 to 14) (size 15 to 20)
#    0.000    2.571    1.429    2.571    0.000    3.143 
#    0.000    0.000    0.000    0.429    0.000    1.000 
#    0.000    5.714    0.000    0.000    0.000    0.000 
#
# Total GULP energy -694181.406045 kJ/mol
# GULP energy per Si atom -12396.096537 kJ/mol
# Density = 1.614520 g / cm^3
# Si number density = 16.182029 Si / 1000 Ang^3
#
#
#
# Elastic Constant Matrix: (Units=GPa)
#
#
# Indices 1 2 3 4 5 6 
#
# 1 70.8759 46.2506 41.8859 0.0000 0.0000 0.0000
# 2 46.2506 103.9043 47.6212 0.0000 0.0000 0.0000
# 3 41.8859 47.6212 76.0133 0.0000 0.0000 0.0000
# 4 0.0000 0.0000 0.0000 16.1054 0.0000 0.0000
# 5 0.0000 0.0000 0.0000 0.0000 24.0933 0.0000
# 6 0.0000 0.0000 0.0000 0.0000 0.0000 25.0638
#
#
#
# Elastic Compliance Matrix: (Units=1/GPa)
#
#
# Indices 1 2 3 4 5 6 
#
# 1 0.023591 -0.006373 -0.009007 0.000000 0.000000 0.000000
# 2 -0.006373 0.015222 -0.006025 0.000000 0.000000 0.000000
# 3 -0.009007 -0.006025 0.021893 0.000000 0.000000 0.000000
# 4 0.000000 0.000000 0.000000 0.062091 0.000000 0.000000
# 5 0.000000 0.000000 0.000000 0.000000 0.041505 0.000000
# 6 0.000000 0.000000 0.000000 0.000000 0.000000 0.039898
#
#
# Mechanical properties :
#
#
# Convention : Reuss Voigt Hill
#
# Bulk Modulus (GPa) = 55.87506 58.03431 56.95469
# Shear Modulus (GPa) = 19.76481 20.72156 20.24319
#
# Velocity S-wave (km/s) = 3.49865 3.58233 3.54074
# Velocity P-wave (km/s) = 7.13616 7.28369 7.21030
#
# Compressibility (1/GPa) = 0.01789707
#
# Stress axis : x y z
#
# Youngs Moduli (GPa) = 42.38991 65.69322 45.67655
#
# Poissons Ratio (x) = 0.41865 0.41139
# Poissons Ratio (y) = 0.27014 0.27520
# Poissons Ratio (z) = 0.38179 0.39579
#
# Static dielectric constant tensor:
#      x y z
#    x 2.994390 0.000000 0.000000 
#    y 0.000000 3.338410 0.000000 
#    z 0.000000 0.000000 2.716930 
# 
# 
# High freq. dielectric constant tensor:
#      x y z
#    x 1.615850 0.000000 0.000000 
#    y 0.000000 1.625580 0.000000 
#    z 0.000000 0.000000 1.576560 
# 
# From -- ./inp_files/21717.got.cif
#   From: 2010.03.12/outbox.cif.g09.slc.cpg/sg59_11_cif.got.tgz:21717.got - 2010.04.16 16:29:54.
