data_PCOD8239822
_publ_section_title
;
Structure prediction by ZEFSAII (Michael W. Deem and Ramdas Pophale) SiO2 
 PCOD8239822
Probable space group: P M M N
;
_chemical_formula_sum "Si O2"
_cell_formula_units_Z 48
_cell_length_a 13.200633
_cell_length_b 18.829872
_cell_length_c 10.866449
_cell_angle_alpha 90.000000
_cell_angle_beta 90.000000
_cell_angle_gamma 90.000000
_cell_volume 2701.032258
_symmetry_space_group_name_H-M "P M M N"
_symmetry_group_IT_number 59
_space_group.IT_coordinate_system_code '2'
_symmetry_cell_setting 'orthorhombic'
loop_
_space_group_symop_operation_xyz
x,y,z
1/2-x,1/2-y,z
1/2+x,-y,-z
-x,1/2+y,-z
-x,-y,-z
1/2+x,1/2+y,-z
1/2-x,y,z
x,1/2-y,z
loop_
_atom_site_type_symbol
_atom_site_label
_atom_site_fract_x
_atom_site_fract_y
_atom_site_fract_z
Si Si1 0.053669 0.887550 0.964882
Si Si2 0.632831 0.329672 0.793908
Si Si3 0.135071 0.027406 0.065502
Si Si4 0.133840 0.829438 0.717596
Si Si5 0.864817 0.469827 0.415663
Si Si6 0.441918 0.965212 0.318188
O O1 0.066858 0.850903 0.833960
O O2 0.935511 0.908334 0.981073
O O3 0.086208 0.832244 0.069520
O O4 0.120258 0.959355 0.976969
O O5 0.750000 0.354234 0.798076
O O6 0.623006 0.250000 0.742791
O O7 0.570747 0.381075 0.703425
O O8 0.250000 0.053845 0.058699
O O9 0.106280 0.007595 0.205241
O O10 0.250000 0.830975 0.760559
O O11 0.103627 0.750000 0.672302
O O12 0.115063 0.885704 0.607821
O O13 0.750000 0.490624 0.380839
O O14 0.883986 0.487609 0.558022
O O15 0.938990 0.516480 0.329973
#
# Coordination Sequence:
#
# PCOD8239822 Si02
#       6
#     8   8   8   8   8   8
#     4  10  18  31  48  75 101 132 166 206 250 305
#     4  10  20  34  54  78 104 134 167 209 260 308
#     4  10  19  31  50  74 101 133 170 211 252 296
#     4  10  19  31  49  75 105 132 161 204 256 304
#     4  10  20  33  52  78 105 135 172 211 257 300
#     4  10  19  35  53  76 104 135 172 213 252 298
#
# _framework density 17.770983999999999
#
# number of rings (size 3 to 8) (size 9 to 14) (size 15 to 20)
#    0.000    2.000    1.667    4.500    0.000    2.000 
#    0.000    1.667    0.000    3.500    0.000    0.000 
#    0.000    0.000    0.000    0.000    0.000    0.000 
#
# Total GULP energy -595181.525252 kJ/mol
# GULP energy per Si atom -12399.615109 kJ/mol
# Density = 1.773054 g / cm^3
# Si number density = 17.770984 Si / 1000 Ang^3
#
#
#
# Elastic Constant Matrix: (Units=GPa)
#
#
# Indices 1 2 3 4 5 6 
#
# 1 128.9450 53.4875 24.5110 0.0000 0.0000 0.0000
# 2 53.4875 88.8200 15.8970 0.0000 0.0000 0.0000
# 3 24.5110 15.8970 42.5904 0.0000 0.0000 0.0000
# 4 0.0000 0.0000 0.0000 18.7187 0.0000 0.0000
# 5 0.0000 0.0000 0.0000 0.0000 22.5644 0.0000
# 6 0.0000 0.0000 0.0000 0.0000 0.0000 24.1882
#
#
#
# Elastic Compliance Matrix: (Units=1/GPa)
#
#
# Indices 1 2 3 4 5 6 
#
# 1 0.010974 -0.005871 -0.004125 0.000000 0.000000 0.000000
# 2 -0.005871 0.015205 -0.002297 0.000000 0.000000 0.000000
# 3 -0.004125 -0.002297 0.026711 0.000000 0.000000 0.000000
# 4 0.000000 0.000000 0.000000 0.053422 0.000000 0.000000
# 5 0.000000 0.000000 0.000000 0.000000 0.044318 0.000000
# 6 0.000000 0.000000 0.000000 0.000000 0.000000 0.041343
#
#
# Mechanical properties :
#
#
# Convention : Reuss Voigt Hill
#
# Bulk Modulus (GPa) = 35.32821 49.79405 42.56113
# Shear Modulus (GPa) = 22.12468 24.19159 23.15813
#
# Velocity S-wave (km/s) = 3.53227 3.69358 3.61382
# Velocity P-wave (km/s) = 6.04638 6.80226 6.43543
#
# Compressibility (1/GPa) = 0.02830599
#
# Stress axis : x y z
#
# Youngs Moduli (GPa) = 91.12061 65.76745 37.43843
#
# Poissons Ratio (x) = 0.38609 0.15442
# Poissons Ratio (y) = 0.53493 0.08599
# Poissons Ratio (z) = 0.37584 0.15105
#
# Static dielectric constant tensor:
#      x y z
#    x 3.332500 0.000000 0.000000 
#    y 0.000000 3.282150 0.000000 
#    z 0.000000 0.000000 3.243690 
# 
# 
# High freq. dielectric constant tensor:
#      x y z
#    x 1.678380 0.000000 0.000000 
#    y 0.000000 1.668600 0.000000 
#    z 0.000000 0.000000 1.688530 
# 
# From -- ./inp_files/15897.got.cif
#   From: 2010.03.12/outbox.cif.g09.slc.cpg/sg59_8_cif.got.tgz:15897.got - 2010.04.16 16:29:54.
