data_PCOD8239887
_publ_section_title
;
Structure prediction by ZEFSAII (Michael W. Deem and Ramdas Pophale) SiO2 
 PCOD8239887
Probable space group: P M M N
;
_chemical_formula_sum "Si O2"
_cell_formula_units_Z 48
_cell_length_a 8.626074
_cell_length_b 16.589830
_cell_length_c 18.484120
_cell_angle_alpha 90.000000
_cell_angle_beta 90.000000
_cell_angle_gamma 90.000000
_cell_volume 2645.171864
_symmetry_space_group_name_H-M "P M M N"
_symmetry_group_IT_number 59
_space_group.IT_coordinate_system_code '2'
_symmetry_cell_setting 'orthorhombic'
loop_
_space_group_symop_operation_xyz
x,y,z
1/2-x,1/2-y,z
1/2+x,-y,-z
-x,1/2+y,-z
-x,-y,-z
1/2+x,1/2+y,-z
1/2-x,y,z
x,1/2-y,z
loop_
_atom_site_type_symbol
_atom_site_label
_atom_site_fract_x
_atom_site_fract_y
_atom_site_fract_z
Si Si1 0.566849 0.493084 0.675494
Si Si2 0.431543 0.570803 0.546998
Si Si3 0.432236 0.987256 0.832399
Si Si4 0.067868 0.837773 0.411366
Si Si5 0.933459 0.424785 0.956733
Si Si6 0.429660 0.158755 0.080945
O O1 0.750000 0.492344 0.687894
O O2 0.520790 0.568928 0.623860
O O3 0.480028 0.505819 0.749943
O O4 0.502571 0.409768 0.639277
O O5 0.500000 0.500000 0.500000
O O6 0.250000 0.558722 0.561224
O O7 0.464787 0.649528 0.497559
O O8 0.250000 0.993035 0.841068
O O9 0.486314 0.901154 0.863586
O O10 0.508046 0.063825 0.874500
O O11 0.250000 0.837585 0.398485
O O12 0.997338 0.750000 0.389790
O O13 0.750000 0.421349 0.958210
O O14 0.000000 0.500000 0.000000
O O15 0.001631 0.347417 0.999002
O O16 0.250000 0.135000 0.078964
O O17 0.454874 0.250000 0.108173
#
# Coordination Sequence:
#
# PCOD8239887 Si02
#       6
#     8   8   8   8   8   8
#     4  10  19  32  51  73 100 133 169 210 255 306
#     4   9  16  28  48  71  95 125 161 201 244 298
#     4  11  21  34  53  75 103 137 173 210 251 305
#     4   8  15  29  50  74  97 124 162 208 254 299
#     4  10  18  31  52  75 100 130 167 205 244 297
#     4  10  20  35  55  78 104 132 166 212 260 302
#
# _framework density 18.146269
#
# number of rings (size 3 to 8) (size 9 to 14) (size 15 to 20)
#    0.000    2.333    0.000    7.500    0.000    1.333 
#    0.000    1.667    0.000   24.000    0.000    0.000 
#    0.000    0.000    0.000    0.000    0.000    0.000 
#
# Total GULP energy -594725.712414 kJ/mol
# GULP energy per Si atom -12390.119009 kJ/mol
# Density = 1.810497 g / cm^3
# Si number density = 18.146269 Si / 1000 Ang^3
#
#
#
# Elastic Constant Matrix: (Units=GPa)
#
#
# Indices 1 2 3 4 5 6 
#
# 1 103.6821 25.2167 29.9070 0.0000 0.0000 0.0000
# 2 25.2167 74.2470 36.8120 0.0000 0.0000 0.0000
# 3 29.9070 36.8120 124.4250 0.0000 0.0000 0.0000
# 4 0.0000 0.0000 0.0000 19.7212 0.0000 0.0000
# 5 0.0000 0.0000 0.0000 0.0000 33.0975 0.0000
# 6 0.0000 0.0000 0.0000 0.0000 0.0000 19.6556
#
#
#
# Elastic Compliance Matrix: (Units=1/GPa)
#
#
# Indices 1 2 3 4 5 6 
#
# 1 0.010838 -0.002800 -0.001777 0.000000 0.000000 0.000000
# 2 -0.002800 0.016507 -0.004211 0.000000 0.000000 0.000000
# 3 -0.001777 -0.004211 0.009710 0.000000 0.000000 0.000000
# 4 0.000000 0.000000 0.000000 0.050707 0.000000 0.000000
# 5 0.000000 0.000000 0.000000 0.000000 0.030214 0.000000
# 6 0.000000 0.000000 0.000000 0.000000 0.000000 0.050876
#
#
# Mechanical properties :
#
#
# Convention : Reuss Voigt Hill
#
# Bulk Modulus (GPa) = 51.33402 54.02508 52.67955
# Shear Modulus (GPa) = 25.91737 28.52275 27.22006
#
# Velocity S-wave (km/s) = 3.78332 3.96893 3.87723
# Velocity P-wave (km/s) = 6.88731 7.13020 7.00981
#
# Compressibility (1/GPa) = 0.01948026
#
# Stress axis : x y z
#
# Youngs Moduli (GPa) = 92.26465 60.57929 102.98884
#
# Poissons Ratio (x) = 0.16963 0.18298
# Poissons Ratio (y) = 0.25836 0.43366
# Poissons Ratio (z) = 0.16392 0.25508
#
# Static dielectric constant tensor:
#      x y z
#    x 3.485300 0.000000 0.000000 
#    y 0.000000 3.696490 0.000000 
#    z 0.000000 0.000000 3.802690 
# 
# 
# High freq. dielectric constant tensor:
#      x y z
#    x 1.707540 0.000000 0.000000 
#    y 0.000000 1.678870 0.000000 
#    z 0.000000 0.000000 1.700990 
# 
# From -- ./inp_files/25760.got.cif
#   From: 2010.03.12/outbox.cif.g09.slc.cpg/sg59_13_cif.got.tgz:25760.got - 2010.04.16 16:29:54.
