data_PCOD8239188
_publ_section_title
;
Structure prediction by ZEFSAII (Michael W. Deem and Ramdas Pophale) SiO2 
 PCOD8239188
Probable space group: P M M N
;
_chemical_formula_sum "Si O2"
_cell_formula_units_Z 64
_cell_length_a 29.274754
_cell_length_b 9.200732
_cell_length_c 14.929112
_cell_angle_alpha 90.000000
_cell_angle_beta 90.000000
_cell_angle_gamma 90.000000
_cell_volume 4021.143865
_symmetry_space_group_name_H-M "P M M N"
_symmetry_group_IT_number 59
_space_group.IT_coordinate_system_code '2'
_symmetry_cell_setting 'orthorhombic'
loop_
_space_group_symop_operation_xyz
x,y,z
1/2-x,1/2-y,z
1/2+x,-y,-z
-x,1/2+y,-z
-x,-y,-z
1/2+x,1/2+y,-z
1/2-x,y,z
x,1/2-y,z
loop_
_atom_site_type_symbol
_atom_site_label
_atom_site_fract_x
_atom_site_fract_y
_atom_site_fract_z
Si Si1 0.956274 0.076802 0.811750
Si Si2 0.029572 0.082163 0.367736
Si Si3 0.603700 0.919936 0.951399
Si Si4 0.377775 0.416481 0.710179
Si Si5 0.198084 0.584368 0.791852
Si Si6 0.699081 0.583049 0.026387
Si Si7 0.445192 0.085745 0.561018
Si Si8 0.556153 0.921712 0.133972
O O1 0.953141 0.250000 0.808255
O O2 0.004198 0.021652 0.854736
O O3 0.950461 0.014490 0.712007
O O4 0.914770 0.013894 0.869483
O O5 0.027055 0.250000 0.337704
O O6 0.062005 0.061230 0.454907
O O7 0.979481 0.029562 0.396066
O O8 0.593482 0.750000 0.935370
O O9 0.658493 0.948960 0.955936
O O10 0.578441 0.976594 0.041435
O O11 0.366258 0.250000 0.732453
O O12 0.331706 0.508863 0.715139
O O13 0.396788 0.435025 0.609804
O O14 0.414185 0.478908 0.782375
O O15 0.250000 0.567341 0.760964
O O16 0.183255 0.750000 0.801735
O O17 0.189001 0.511212 0.886909
O O18 0.750000 0.548136 0.986526
O O19 0.696295 0.750000 0.057049
O O20 0.463860 0.250000 0.579120
O O21 0.555643 0.750000 0.136205
#
# Coordination Sequence:
#
# PCOD8239188 Si02
#       8
#     8   8   8   8   8   8   8   8
#     4  11  21  33  47  65  95 132 165 198 237 278
#     4  10  19  31  48  71  95 123 157 195 237 278
#     4  10  19  32  47  67  93 123 162 202 235 277
#     4  10  17  31  51  69  92 126 163 194 230 279
#     4  10  20  31  44  68 100 126 153 195 239 279
#     4   9  17  31  51  70  90 122 160 197 240 286
#     4   9  18  32  50  70  95 123 154 194 236 276
#     4   9  17  30  46  65  93 127 160 195 228 265
#
# _framework density 15.91587
#
# number of rings (size 3 to 8) (size 9 to 14) (size 15 to 20)
#    0.000    2.250    2.500    1.500    0.000    2.250 
#    0.000    0.625    0.000    0.000    0.000    0.875 
#    0.000    3.000    0.000    0.000    0.000    0.000 
#
# Total GULP energy -793480.274856 kJ/mol
# GULP energy per Si atom -12398.129295 kJ/mol
# Density = 1.587964 g / cm^3
# Si number density = 15.915870 Si / 1000 Ang^3
#
#
#
# Elastic Constant Matrix: (Units=GPa)
#
#
# Indices 1 2 3 4 5 6 
#
# 1 101.1968 49.9098 52.6437 0.0000 0.0000 0.0000
# 2 49.9098 76.4659 44.5390 0.0000 0.0000 0.0000
# 3 52.6437 44.5390 98.5351 0.0000 0.0000 0.0000
# 4 0.0000 0.0000 0.0000 22.8686 0.0000 0.0000
# 5 0.0000 0.0000 0.0000 0.0000 21.0085 0.0000
# 6 0.0000 0.0000 0.0000 0.0000 0.0000 23.5511
#
#
#
# Elastic Compliance Matrix: (Units=1/GPa)
#
#
# Indices 1 2 3 4 5 6 
#
# 1 0.016403 -0.007604 -0.005326 0.000000 0.000000 0.000000
# 2 -0.007604 0.021276 -0.005555 0.000000 0.000000 0.000000
# 3 -0.005326 -0.005555 0.015505 0.000000 0.000000 0.000000
# 4 0.000000 0.000000 0.000000 0.043728 0.000000 0.000000
# 5 0.000000 0.000000 0.000000 0.000000 0.047600 0.000000
# 6 0.000000 0.000000 0.000000 0.000000 0.000000 0.042461
#
#
# Mechanical properties :
#
#
# Convention : Reuss Voigt Hill
#
# Bulk Modulus (GPa) = 61.67347 63.37588 62.52467
# Shear Modulus (GPa) = 21.80102 22.09266 21.94684
#
# Velocity S-wave (km/s) = 3.70505 3.72975 3.71742
# Velocity P-wave (km/s) = 7.55890 7.64551 7.60233
#
# Compressibility (1/GPa) = 0.01621443
#
# Stress axis : x y z
#
# Youngs Moduli (GPa) = 60.96556 47.00100 64.49470
#
# Poissons Ratio (x) = 0.35738 0.34353
# Poissons Ratio (y) = 0.46356 0.35825
# Poissons Ratio (z) = 0.32473 0.26108
#
# Static dielectric constant tensor:
#      x y z
#    x 3.092000 0.000000 0.000000 
#    y 0.000000 3.019790 0.000000 
#    z 0.000000 0.000000 2.974880 
# 
# 
# High freq. dielectric constant tensor:
#      x y z
#    x 1.597030 0.000000 0.000000 
#    y 0.000000 1.610230 0.000000 
#    z 0.000000 0.000000 1.592120 
# 
# From -- ./inp_files/25009.got.cif
#   From: 2010.03.12/outbox.cif.g09.slc.cpg/sg59_13_cif.got.tgz:25009.got - 2010.04.16 16:29:54.
