data_PCOD8239153
_publ_section_title
;
Structure prediction by ZEFSAII (Michael W. Deem and Ramdas Pophale) SiO2 
 PCOD8239153
Probable space group: P M M N
;
_chemical_formula_sum "Si O2"
_cell_formula_units_Z 64
_cell_length_a 29.997845
_cell_length_b 9.124361
_cell_length_c 14.862726
_cell_angle_alpha 90.000000
_cell_angle_beta 90.000000
_cell_angle_gamma 90.000000
_cell_volume 4068.094078
_symmetry_space_group_name_H-M "P M M N"
_symmetry_group_IT_number 59
_space_group.IT_coordinate_system_code '2'
_symmetry_cell_setting 'orthorhombic'
loop_
_space_group_symop_operation_xyz
x,y,z
1/2-x,1/2-y,z
1/2+x,-y,-z
-x,1/2+y,-z
-x,-y,-z
1/2+x,1/2+y,-z
1/2-x,y,z
x,1/2-y,z
loop_
_atom_site_type_symbol
_atom_site_label
_atom_site_fract_x
_atom_site_fract_y
_atom_site_fract_z
Si Si1 0.440025 0.917953 0.039749
Si Si2 0.798467 0.076418 0.509132
Si Si3 0.538637 0.080328 0.312382
Si Si4 0.060081 0.078370 0.364164
Si Si5 0.894776 0.422932 0.467289
Si Si6 0.297904 0.576277 0.288103
Si Si7 0.466567 0.078721 0.873857
Si Si8 0.388291 0.578882 0.210541
O O1 0.443633 0.750000 0.009029
O O2 0.483505 0.963643 0.096982
O O3 0.398293 0.946211 0.105333
O O4 0.433645 0.014779 0.950456
O O5 0.750000 0.017596 0.471416
O O6 0.796166 0.250000 0.509023
O O7 0.842779 0.026174 0.454635
O O8 0.805050 0.017945 0.610678
O O9 0.541110 0.250000 0.285639
O O10 0.492790 0.046272 0.364894
O O11 0.579245 0.033754 0.377065
O O12 0.544368 0.988544 0.222230
O O13 0.070436 0.250000 0.368394
O O14 0.082894 0.001867 0.448487
O O15 0.078312 0.013689 0.271286
O O16 0.897757 0.250000 0.486519
O O17 0.250000 0.519075 0.250958
O O18 0.297876 0.750000 0.289557
O O19 0.338036 0.520244 0.225662
O O20 0.458760 0.250000 0.866708
O O21 0.394070 0.750000 0.236342
#
# Coordination Sequence:
#
# PCOD8239153 Si02
#       8
#     8   8   8   8   8   8   8   8
#     4   9  18  30  46  67  89 115 147 181 220 264
#     4   8  13  23  43  68  88 109 144 189 227 260
#     4  10  21  33  45  63  90 123 155 190 225 259
#     4  11  21  30  41  63  94 124 154 186 217 255
#     4  10  19  32  48  64  87 122 157 186 222 268
#     4   8  13  22  41  68  91 112 144 186 223 258
#     4  10  19  31  48  67  88 116 147 185 225 263
#     4  10  17  29  48  67  89 121 154 181 217 268
#
# _framework density 15.732182999999999
#
# number of rings (size 3 to 8) (size 9 to 14) (size 15 to 20)
#    0.000    2.500    2.500    1.875    0.000    2.000 
#    0.000    0.000    0.000    1.500    0.000    0.875 
#    0.000    7.000    0.000    0.000    0.000    0.000 
#
# Total GULP energy -793194.204590 kJ/mol
# GULP energy per Si atom -12393.659447 kJ/mol
# Density = 1.569638 g / cm^3
# Si number density = 15.732183 Si / 1000 Ang^3
#
#
#
# Elastic Constant Matrix: (Units=GPa)
#
#
# Indices 1 2 3 4 5 6 
#
# 1 130.3110 31.2183 55.1969 0.0000 0.0000 0.0000
# 2 31.2183 43.4268 38.9029 0.0000 0.0000 0.0000
# 3 55.1969 38.9029 89.6129 0.0000 0.0000 0.0000
# 4 0.0000 0.0000 0.0000 24.3190 0.0000 0.0000
# 5 0.0000 0.0000 0.0000 0.0000 21.1062 0.0000
# 6 0.0000 0.0000 0.0000 0.0000 0.0000 12.3564
#
#
#
# Elastic Compliance Matrix: (Units=1/GPa)
#
#
# Indices 1 2 3 4 5 6 
#
# 1 0.010601 -0.002899 -0.005271 0.000000 0.000000 0.000000
# 2 -0.002899 0.038474 -0.014917 0.000000 0.000000 0.000000
# 3 -0.005271 -0.014917 0.020882 0.000000 0.000000 0.000000
# 4 0.000000 0.000000 0.000000 0.041120 0.000000 0.000000
# 5 0.000000 0.000000 0.000000 0.000000 0.047380 0.000000
# 6 0.000000 0.000000 0.000000 0.000000 0.000000 0.080930
#
#
# Mechanical properties :
#
#
# Convention : Reuss Voigt Hill
#
# Bulk Modulus (GPa) = 42.04691 57.10965 49.57828
# Shear Modulus (GPa) = 17.03644 20.75848 18.89746
#
# Velocity S-wave (km/s) = 3.29432 3.63642 3.46959
# Velocity P-wave (km/s) = 6.42299 7.34924 6.90167
#
# Compressibility (1/GPa) = 0.02378296
#
# Stress axis : x y z
#
# Youngs Moduli (GPa) = 94.32857 25.99153 47.88849
#
# Poissons Ratio (x) = 0.07534 0.25244
# Poissons Ratio (y) = 0.27342 0.71435
# Poissons Ratio (z) = 0.49725 0.38772
#
# Static dielectric constant tensor:
#      x y z
#    x 3.435560 0.000000 0.000000 
#    y 0.000000 2.820230 0.000000 
#    z 0.000000 0.000000 2.880820 
# 
# 
# High freq. dielectric constant tensor:
#      x y z
#    x 1.599860 0.000000 0.000000 
#    y 0.000000 1.584170 0.000000 
#    z 0.000000 0.000000 1.582860 
# 
# From -- ./inp_files/25120.got.cif
#   From: 2010.03.12/outbox.cif.g09.slc.cpg/sg59_13_cif.got.tgz:25120.got - 2010.04.16 16:29:54.
