data_PCOD8239785
_publ_section_title
;
Structure prediction by ZEFSAII (Michael W. Deem and Ramdas Pophale) SiO2 
 PCOD8239785
Probable space group: P M M N
;
_chemical_formula_sum "Si O2"
_cell_formula_units_Z 40
_cell_length_a 8.678302
_cell_length_b 24.751283
_cell_length_c 10.410138
_cell_angle_alpha 90.000000
_cell_angle_beta 90.000000
_cell_angle_gamma 90.000000
_cell_volume 2236.088364
_symmetry_space_group_name_H-M "P M M N"
_symmetry_group_IT_number 59
_space_group.IT_coordinate_system_code '2'
_symmetry_cell_setting 'orthorhombic'
loop_
_space_group_symop_operation_xyz
x,y,z
1/2-x,1/2-y,z
1/2+x,-y,-z
-x,1/2+y,-z
-x,-y,-z
1/2+x,1/2+y,-z
1/2-x,y,z
x,1/2-y,z
loop_
_atom_site_type_symbol
_atom_site_label
_atom_site_fract_x
_atom_site_fract_y
_atom_site_fract_z
Si Si1 0.075028 0.250000 0.020335
Si Si2 0.926817 0.632378 0.014637
Si Si3 0.569989 0.021365 0.369576
Si Si4 0.068076 0.634777 0.736093
Si Si5 0.425371 0.750000 0.715978
Si Si6 0.569447 0.468333 0.880236
O O1 0.250000 0.250000 0.078503
O O2 0.051696 0.194875 0.938895
O O3 0.947018 0.250000 0.130654
O O4 0.750000 0.614063 0.025315
O O5 0.028020 0.594982 0.107711
O O6 0.977808 0.624348 0.867570
O O7 0.750000 0.009799 0.367969
O O8 0.534414 0.085443 0.359764
O O9 0.500000 0.000000 0.500000
O O10 0.496209 0.989897 0.252091
O O11 0.250000 0.639147 0.768258
O O12 0.007121 0.691526 0.669562
O O13 0.250000 0.750000 0.674899
O O14 0.750000 0.476522 0.880832
O O15 0.500000 0.500000 0.000000
#
# Coordination Sequence:
#
# PCOD8239785 Si02
#       6
#     4   8   8   8   4   8
#     4   8  16  28  44  73 108 139 170 212 266 320
#     4  10  18  30  51  78 109 141 176 219 268 320
#     4  11  23  38  55  78 109 145 183 224 274 326
#     4   9  17  30  50  75 105 136 173 217 265 319
#     4   8  14  26  46  73 100 131 168 214 264 312
#     4  12  23  36  55  80 108 142 182 224 271 321
#
# _framework density 17.888380000000002
#
# number of rings (size 3 to 8) (size 9 to 14) (size 15 to 20)
#    0.000    2.000    2.000    3.000    0.000    1.600 
#    0.000    0.000    0.000    1.200    0.000    4.200 
#    0.000    0.000    0.000    0.000    0.000    0.000 
#
# Total GULP energy -495622.867178 kJ/mol
# GULP energy per Si atom -12390.571679 kJ/mol
# Density = 1.784767 g / cm^3
# Si number density = 17.888380 Si / 1000 Ang^3
#
#
#
# Elastic Constant Matrix: (Units=GPa)
#
#
# Indices 1 2 3 4 5 6 
#
# 1 89.6126 53.9836 44.4879 0.0000 0.0000 0.0000
# 2 53.9836 177.0978 68.6422 0.0000 0.0000 0.0000
# 3 44.4879 68.6422 98.6625 0.0000 0.0000 0.0000
# 4 0.0000 0.0000 0.0000 19.5381 0.0000 0.0000
# 5 0.0000 0.0000 0.0000 0.0000 26.1387 0.0000
# 6 0.0000 0.0000 0.0000 0.0000 0.0000 24.9986
#
#
#
# Elastic Compliance Matrix: (Units=1/GPa)
#
#
# Indices 1 2 3 4 5 6 
#
# 1 0.015279 -0.002721 -0.004996 0.000000 0.000000 0.000000
# 2 -0.002721 0.008216 -0.004489 0.000000 0.000000 0.000000
# 3 -0.004996 -0.004489 0.015512 0.000000 0.000000 0.000000
# 4 0.000000 0.000000 0.000000 0.051182 0.000000 0.000000
# 5 0.000000 0.000000 0.000000 0.000000 0.038257 0.000000
# 6 0.000000 0.000000 0.000000 0.000000 0.000000 0.040002
#
#
# Mechanical properties :
#
#
# Convention : Reuss Voigt Hill
#
# Bulk Modulus (GPa) = 68.52323 77.73338 73.12830
# Shear Modulus (GPa) = 25.28762 27.35237 26.31999
#
# Velocity S-wave (km/s) = 3.76391 3.91456 3.83997
# Velocity P-wave (km/s) = 7.56826 7.99879 7.78650
#
# Compressibility (1/GPa) = 0.01459359
#
# Stress axis : x y z
#
# Youngs Moduli (GPa) = 65.45118 121.71442 64.46708
#
# Poissons Ratio (x) = 0.33115 0.32210
# Poissons Ratio (y) = 0.17807 0.28941
# Poissons Ratio (z) = 0.32702 0.54641
#
# Static dielectric constant tensor:
#      x y z
#    x 3.435750 0.000000 0.000000 
#    y 0.000000 4.111570 0.000000 
#    z 0.000000 0.000000 3.109000 
# 
# 
# High freq. dielectric constant tensor:
#      x y z
#    x 1.700800 0.000000 0.000000 
#    y 0.000000 1.726190 0.000000 
#    z 0.000000 0.000000 1.627270 
# 
# From -- ./inp_files/5896.got.cif
#   From: 2010.03.12/outbox.cif.g09.slc.cpg/sg59_3_cif.got.tgz:5896.got - 2010.04.16 16:29:54.
