data_PCOD8239198
_publ_section_title
;
Structure prediction by ZEFSAII (Michael W. Deem and Ramdas Pophale) SiO2 
 PCOD8239198
Probable space group: P M M N
;
_chemical_formula_sum "Si O2"
_cell_formula_units_Z 48
_cell_length_a 14.730014
_cell_length_b 8.642725
_cell_length_c 18.507395
_cell_angle_alpha 90.000000
_cell_angle_beta 90.000000
_cell_angle_gamma 90.000000
_cell_volume 2356.129453
_symmetry_space_group_name_H-M "P M M N"
_symmetry_group_IT_number 59
_space_group.IT_coordinate_system_code '2'
_symmetry_cell_setting 'orthorhombic'
loop_
_space_group_symop_operation_xyz
x,y,z
1/2-x,1/2-y,z
1/2+x,-y,-z
-x,1/2+y,-z
-x,-y,-z
1/2+x,1/2+y,-z
1/2-x,y,z
x,1/2-y,z
loop_
_atom_site_type_symbol
_atom_site_label
_atom_site_fract_x
_atom_site_fract_y
_atom_site_fract_z
Si Si1 0.250000 0.424320 0.095926
Si Si2 0.918725 0.433917 0.680481
Si Si3 0.405851 0.933461 0.479924
Si Si4 0.250000 0.933892 0.750325
Si Si5 0.250000 0.927374 0.239697
Si Si6 0.250000 0.565817 0.584679
Si Si7 0.439279 0.433809 0.793664
Si Si8 0.045451 0.429068 0.069653
O O1 0.250000 0.250000 0.128371
O O2 0.250000 0.556879 0.154963
O O3 0.154306 0.450870 0.054866
O O4 0.917374 0.250000 0.680102
O O5 0.894085 0.497551 0.601264
O O6 0.840028 0.507422 0.729644
O O7 0.014055 0.485190 0.717149
O O8 0.403095 0.750000 0.480770
O O9 0.334978 0.998623 0.538579
O O10 0.500000 0.000000 0.500000
O O11 0.250000 0.750000 0.750907
O O12 0.250000 0.997623 0.667059
O O13 0.161306 0.993076 0.793457
O O14 0.250000 0.750000 0.263193
O O15 0.250000 0.750000 0.586533
O O16 0.430003 0.250000 0.800368
O O17 0.503942 0.489548 0.859125
O O18 0.020441 0.250000 0.076301
O O19 0.000000 0.500000 0.000000
#
# Coordination Sequence:
#
# PCOD8239198 Si02
#       8
#     4   8   8   4   4   4   8   8
#     4  10  22  40  62  91 125 155 186 233 290 339
#     4   9  18  31  55  86 115 148 195 249 300 356
#     4  10  19  34  53  78 111 152 198 247 301 356
#     4  11  23  39  58  83 116 162 210 255 307 368
#     4  10  17  32  58  86 113 148 191 233 283 350
#     4   9  19  35  56  80 114 159 203 245 300 363
#     4  11  22  39  61  89 119 155 203 256 308 363
#     4  11  24  43  66  94 128 165 201 245 297 356
#
# _framework density 20.372395000000001
#
# number of rings (size 3 to 8) (size 9 to 14) (size 15 to 20)
#    0.000    1.833    1.667    2.750    0.000    3.333 
#    0.000    5.417    0.000    0.000    0.000    0.000 
#    0.000    0.000    0.000    0.000    0.000    0.000 
#
# Total GULP energy -594628.590772 kJ/mol
# GULP energy per Si atom -12388.095641 kJ/mol
# Density = 2.032603 g / cm^3
# Si number density = 20.372395 Si / 1000 Ang^3
#
#
#
# Elastic Constant Matrix: (Units=GPa)
#
#
# Indices 1 2 3 4 5 6 
#
# 1 168.6533 35.2265 50.7794 0.0000 0.0000 0.0000
# 2 35.2265 51.3407 26.2986 0.0000 0.0000 0.0000
# 3 50.7794 26.2986 108.0975 0.0000 0.0000 0.0000
# 4 0.0000 0.0000 0.0000 23.8448 0.0000 0.0000
# 5 0.0000 0.0000 0.0000 0.0000 40.3945 0.0000
# 6 0.0000 0.0000 0.0000 0.0000 0.0000 25.9795
#
#
#
# Elastic Compliance Matrix: (Units=1/GPa)
#
#
# Indices 1 2 3 4 5 6 
#
# 1 0.007510 -0.003822 -0.002598 0.000000 0.000000 0.000000
# 2 -0.003822 0.024196 -0.004091 0.000000 0.000000 0.000000
# 3 -0.002598 -0.004091 0.011467 0.000000 0.000000 0.000000
# 4 0.000000 0.000000 0.000000 0.041938 0.000000 0.000000
# 5 0.000000 0.000000 0.000000 0.000000 0.024756 0.000000
# 6 0.000000 0.000000 0.000000 0.000000 0.000000 0.038492
#
#
# Mechanical properties :
#
#
# Convention : Reuss Voigt Hill
#
# Bulk Modulus (GPa) = 45.14642 61.41117 53.27879
# Shear Modulus (GPa) = 28.28646 32.42957 30.35801
#
# Velocity S-wave (km/s) = 3.73026 3.99411 3.86444
# Velocity P-wave (km/s) = 6.38450 7.17498 6.79125
#
# Compressibility (1/GPa) = 0.02215015
#
# Stress axis : x y z
#
# Youngs Moduli (GPa) = 133.15879 41.32963 87.20973
#
# Poissons Ratio (x) = 0.15796 0.22657
# Poissons Ratio (y) = 0.50893 0.35678
# Poissons Ratio (z) = 0.34594 0.16908
#
# Static dielectric constant tensor:
#      x y z
#    x 4.109200 0.000000 0.000000 
#    y 0.000000 3.455460 0.000000 
#    z 0.000000 0.000000 3.443220 
# 
# 
# High freq. dielectric constant tensor:
#      x y z
#    x 1.816920 0.000000 0.000000 
#    y 0.000000 1.768870 0.000000 
#    z 0.000000 0.000000 1.796370 
# 
# From -- ./inp_files/27536.got.cif
#   From: 2010.03.12/outbox.cif.g09.slc.cpg/sg59_14_cif.got.tgz:27536.got - 2010.04.16 16:29:54.
