data_PCOD8239673
_publ_section_title
;
Structure prediction by ZEFSAII (Michael W. Deem and Ramdas Pophale) SiO2 
 PCOD8239673
Probable space group: P M M N
;
_chemical_formula_sum "Si O2"
_cell_formula_units_Z 56
_cell_length_a 9.655042
_cell_length_b 14.210456
_cell_length_c 23.103509
_cell_angle_alpha 90.000000
_cell_angle_beta 90.000000
_cell_angle_gamma 90.000000
_cell_volume 3169.860338
_symmetry_space_group_name_H-M "P M M N"
_symmetry_group_IT_number 59
_space_group.IT_coordinate_system_code '2'
_symmetry_cell_setting 'orthorhombic'
loop_
_space_group_symop_operation_xyz
x,y,z
1/2-x,1/2-y,z
1/2+x,-y,-z
-x,1/2+y,-z
-x,-y,-z
1/2+x,1/2+y,-z
1/2-x,y,z
x,1/2-y,z
loop_
_atom_site_type_symbol
_atom_site_label
_atom_site_fract_x
_atom_site_fract_y
_atom_site_fract_z
Si Si1 0.097406 0.353370 0.603642
Si Si2 0.092326 0.414843 0.480775
Si Si3 0.085712 0.856737 0.196073
Si Si4 0.413430 0.149191 0.357244
Si Si5 0.088657 0.548184 0.078416
Si Si6 0.586801 0.042443 0.689532
Si Si7 0.910220 0.642203 0.980591
O O1 0.250000 0.394531 0.619102
O O2 0.080841 0.250000 0.630644
O O3 0.083116 0.342704 0.534323
O O4 0.979403 0.417557 0.631173
O O5 0.250000 0.448450 0.469927
O O6 0.029529 0.371054 0.421927
O O7 0.000000 0.500000 0.500000
O O8 0.250000 0.853553 0.199672
O O9 0.027203 0.750000 0.190937
O O10 0.038893 0.920852 0.142049
O O11 0.025409 0.907255 0.253429
O O12 0.250000 0.156480 0.362372
O O13 0.474277 0.250000 0.335985
O O14 0.452109 0.068597 0.310494
O O15 0.250000 0.571390 0.068748
O O16 0.003758 0.613497 0.034669
O O17 0.060863 0.435712 0.069846
O O18 0.750000 0.059009 0.685142
O O19 0.750000 0.636690 0.999579
O O20 0.945902 0.750000 0.960445
#
# Coordination Sequence:
#
# PCOD8239673 Si02
#       7
#     8   8   8   8   8   8   8
#     4  10  20  32  47  68  94 122 149 183 233 286
#     4  10  18  30  48  68  91 118 148 185 231 281
#     4   9  17  29  46  69  95 122 155 196 236 271
#     4   9  17  30  48  68  90 118 151 187 230 278
#     4   9  17  30  48  69  95 130 165 191 226 283
#     4  10  19  32  50  70  91 119 157 197 230 267
#     4   9  17  29  46  71 101 127 154 196 242 274
#
# _framework density 17.666394
#
# number of rings (size 3 to 8) (size 9 to 14) (size 15 to 20)
#    0.000    2.571    1.429    1.286    0.000    3.429 
#    0.000    1.429    0.000    9.429    0.000    0.000 
#    0.000    2.286    0.000    0.000    0.000    0.000 
#
# Total GULP energy -693854.184193 kJ/mol
# GULP energy per Si atom -12390.253289 kJ/mol
# Density = 1.762618 g / cm^3
# Si number density = 17.666394 Si / 1000 Ang^3
#
#
#
# Elastic Constant Matrix: (Units=GPa)
#
#
# Indices 1 2 3 4 5 6 
#
# 1 32.7685 29.3072 19.0486 0.0000 0.0000 0.0000
# 2 29.3072 153.0577 61.3755 0.0000 0.0000 0.0000
# 3 19.0486 61.3755 99.2752 0.0000 0.0000 0.0000
# 4 0.0000 0.0000 0.0000 26.9643 0.0000 0.0000
# 5 0.0000 0.0000 0.0000 0.0000 18.5926 0.0000
# 6 0.0000 0.0000 0.0000 0.0000 0.0000 17.3852
#
#
#
# Elastic Compliance Matrix: (Units=1/GPa)
#
#
# Indices 1 2 3 4 5 6 
#
# 1 0.037816 -0.005759 -0.003696 0.000000 0.000000 0.000000
# 2 -0.005759 0.009564 -0.004808 0.000000 0.000000 0.000000
# 3 -0.003696 -0.004808 0.013754 0.000000 0.000000 0.000000
# 4 0.000000 0.000000 0.000000 0.037086 0.000000 0.000000
# 5 0.000000 0.000000 0.000000 0.000000 0.053785 0.000000
# 6 0.000000 0.000000 0.000000 0.000000 0.000000 0.057520
#
#
# Mechanical properties :
#
#
# Convention : Reuss Voigt Hill
#
# Bulk Modulus (GPa) = 30.66563 56.06265 43.36414
# Shear Modulus (GPa) = 20.08672 24.27977 22.18325
#
# Velocity S-wave (km/s) = 3.37560 3.71124 3.54739
# Velocity P-wave (km/s) = 5.70866 7.08289 6.43258
#
# Compressibility (1/GPa) = 0.03260980
#
# Stress axis : x y z
#
# Youngs Moduli (GPa) = 26.44373 104.55710 72.70350
#
# Poissons Ratio (x) = 0.60215 0.26868
# Poissons Ratio (y) = 0.15229 0.34955
# Poissons Ratio (z) = 0.09772 0.50270
#
# Static dielectric constant tensor:
#      x y z
#    x 3.005980 0.000000 0.000000 
#    y 0.000000 3.878880 0.000000 
#    z 0.000000 0.000000 3.352940 
# 
# 
# High freq. dielectric constant tensor:
#      x y z
#    x 1.649050 0.000000 0.000000 
#    y 0.000000 1.695440 0.000000 
#    z 0.000000 0.000000 1.665000 
# 
# From -- ./inp_files/31908.got.cif
#   From: 2010.03.12/outbox.cif.g09.slc.cpg/sg59_16_cif.got.tgz:31908.got - 2010.04.16 16:29:54.
