data_PCOD8239143
_publ_section_title
;
Structure prediction by ZEFSAII (Michael W. Deem and Ramdas Pophale) SiO2 
 PCOD8239143
Probable space group: P M M N
;
_chemical_formula_sum "Si O2"
_cell_formula_units_Z 40
_cell_length_a 8.706862
_cell_length_b 20.329088
_cell_length_c 12.741262
_cell_angle_alpha 90.000000
_cell_angle_beta 90.000000
_cell_angle_gamma 90.000000
_cell_volume 2255.236040
_symmetry_space_group_name_H-M "P M M N"
_symmetry_group_IT_number 59
_space_group.IT_coordinate_system_code '2'
_symmetry_cell_setting 'orthorhombic'
loop_
_space_group_symop_operation_xyz
x,y,z
1/2-x,1/2-y,z
1/2+x,-y,-z
-x,1/2+y,-z
-x,-y,-z
1/2+x,1/2+y,-z
1/2-x,y,z
x,1/2-y,z
loop_
_atom_site_type_symbol
_atom_site_label
_atom_site_fract_x
_atom_site_fract_y
_atom_site_fract_z
Si Si1 0.570386 0.544802 0.273403
Si Si2 0.067958 0.571615 0.477661
Si Si3 0.431214 0.404062 0.315334
Si Si4 0.428990 0.067275 0.960949
Si Si5 0.432129 0.176997 0.115940
O O1 0.750000 0.534338 0.294245
O O2 0.499317 0.592490 0.363812
O O3 0.489692 0.474093 0.273948
O O4 0.537837 0.579229 0.161965
O O5 0.250000 0.571176 0.473807
O O6 0.000000 0.500000 0.500000
O O7 0.008844 0.617110 0.573548
O O8 0.250000 0.408347 0.331178
O O9 0.479512 0.349571 0.230487
O O10 0.250000 0.061634 0.984354
O O11 0.499007 0.128829 0.025674
O O12 0.500000 0.000000 0.000000
O O13 0.250000 0.180003 0.106494
O O14 0.502508 0.250000 0.101236
#
# Coordination Sequence:
#
# PCOD8239143 Si02
#       5
#     8   8   8   8   8
#     4  10  18  28  45  71 100 127 159 201 246 291
#     4  10  18  28  44  67  97 127 157 195 241 290
#     4  10  17  28  48  70  96 126 159 200 245 293
#     4  10  19  31  50  74 100 130 165 207 249 294
#     4   9  18  32  50  73 100 131 166 204 250 300
#
# _framework density 17.736504
#
# number of rings (size 3 to 8) (size 9 to 14) (size 15 to 20)
#    0.000    2.200    2.000    5.400    0.000    0.800 
#    0.000    0.000    0.000    6.600    0.000    5.600 
#    0.000    0.000    0.000    0.000    0.000    0.000 
#
# Total GULP energy -495793.196224 kJ/mol
# GULP energy per Si atom -12394.829906 kJ/mol
# Density = 1.769614 g / cm^3
# Si number density = 17.736504 Si / 1000 Ang^3
#
#
#
# Elastic Constant Matrix: (Units=GPa)
#
#
# Indices 1 2 3 4 5 6 
#
# 1 77.7962 18.7092 54.8302 0.0000 0.0000 0.0000
# 2 18.7092 98.1165 72.7943 0.0000 0.0000 0.0000
# 3 54.8302 72.7943 172.9935 0.0000 0.0000 0.0000
# 4 0.0000 0.0000 0.0000 21.6112 0.0000 0.0000
# 5 0.0000 0.0000 0.0000 0.0000 26.2980 0.0000
# 6 0.0000 0.0000 0.0000 0.0000 0.0000 13.2037
#
#
#
# Elastic Compliance Matrix: (Units=1/GPa)
#
#
# Indices 1 2 3 4 5 6 
#
# 1 0.016629 0.001075 -0.005723 0.000000 0.000000 0.000000
# 2 0.001075 0.014888 -0.006605 0.000000 0.000000 0.000000
# 3 -0.005723 -0.006605 0.010374 0.000000 0.000000 0.000000
# 4 0.000000 0.000000 0.000000 0.046272 0.000000 0.000000
# 5 0.000000 0.000000 0.000000 0.000000 0.038026 0.000000
# 6 0.000000 0.000000 0.000000 0.000000 0.000000 0.075736
#
#
# Mechanical properties :
#
#
# Convention : Reuss Voigt Hill
#
# Bulk Modulus (GPa) = 51.58858 71.28596 61.43727
# Shear Modulus (GPa) = 21.65508 25.72741 23.69125
#
# Velocity S-wave (km/s) = 3.49798 3.81272 3.65873
# Velocity P-wave (km/s) = 6.74268 7.72408 7.25000
#
# Compressibility (1/GPa) = 0.01938414
#
# Stress axis : x y z
#
# Youngs Moduli (GPa) = 60.13575 67.17021 96.39561
#
# Poissons Ratio (x) = -0.07221 0.55167
# Poissons Ratio (y) = -0.06465 0.63672
# Poissons Ratio (z) = 0.34415 0.44368
#
# Static dielectric constant tensor:
#      x y z
#    x 3.215750 0.000000 0.000000 
#    y 0.000000 3.048750 0.000000 
#    z 0.000000 0.000000 4.238920 
# 
# 
# High freq. dielectric constant tensor:
#      x y z
#    x 1.679850 0.000000 0.000000 
#    y 0.000000 1.629320 0.000000 
#    z 0.000000 0.000000 1.713120 
# 
# From -- ./inp_files/20656.got.cif
#   From: 2010.03.12/outbox.cif.g09.slc.cpg/sg59_11_cif.got.tgz:20656.got - 2010.04.16 16:29:54.
