data_PCOD8239703
_publ_section_title
;
Structure prediction by ZEFSAII (Michael W. Deem and Ramdas Pophale) SiO2 
 PCOD8239703
Probable space group: P M M N
;
_chemical_formula_sum "Si O2"
_cell_formula_units_Z 56
_cell_length_a 17.127056
_cell_length_b 8.921778
_cell_length_c 20.840857
_cell_angle_alpha 90.000000
_cell_angle_beta 90.000000
_cell_angle_gamma 90.000000
_cell_volume 3184.561966
_symmetry_space_group_name_H-M "P M M N"
_symmetry_group_IT_number 59
_space_group.IT_coordinate_system_code '2'
_symmetry_cell_setting 'orthorhombic'
loop_
_space_group_symop_operation_xyz
x,y,z
1/2-x,1/2-y,z
1/2+x,-y,-z
-x,1/2+y,-z
-x,-y,-z
1/2+x,1/2+y,-z
1/2-x,y,z
x,1/2-y,z
loop_
_atom_site_type_symbol
_atom_site_label
_atom_site_fract_x
_atom_site_fract_y
_atom_site_fract_z
Si Si1 0.980194 0.572118 0.642521
Si Si2 0.839838 0.073505 0.566381
Si Si3 0.571367 0.929947 0.461157
Si Si4 0.028828 0.425472 0.210753
Si Si5 0.162775 0.582789 0.142411
Si Si6 0.387610 0.414842 0.023637
Si Si7 0.944716 0.415556 0.088927
O O1 0.978777 0.750000 0.629012
O O2 0.898171 0.502632 0.617809
O O3 0.992843 0.533579 0.716902
O O4 0.056501 0.494184 0.610244
O O5 0.750000 0.046589 0.587336
O O6 0.858916 0.250000 0.561972
O O7 0.851683 0.996336 0.496011
O O8 0.572477 0.750000 0.461699
O O9 0.500000 0.000000 0.500000
O O10 0.039184 0.250000 0.200306
O O11 0.112003 0.495771 0.194345
O O12 0.962024 0.481883 0.160539
O O13 0.250000 0.581557 0.169957
O O14 0.129232 0.750000 0.136306
O O15 0.164015 0.513507 0.071307
O O16 0.350651 0.250000 0.019872
O O17 0.385639 0.480986 0.951256
O O18 0.474530 0.407882 0.050798
O O19 0.907584 0.250000 0.094137
#
# Coordination Sequence:
#
# PCOD8239703 Si02
#       7
#     8   8   8   8   8   8   8
#     4  10  19  32  49  69  96 127 159 192 230 279
#     4  10  20  33  49  70  96 125 158 195 234 276
#     4  10  18  30  49  70  93 121 155 194 235 276
#     4   9  19  32  46  65  89 121 154 183 219 265
#     4  10  20  31  43  61  87 120 154 187 224 266
#     4   9  16  26  42  62  82 108 142 180 222 261
#     4   8  14  26  42  61  84 107 138 179 218 255
#
# _framework density 17.584835999999999
#
# number of rings (size 3 to 8) (size 9 to 14) (size 15 to 20)
#    0.000    2.571    0.000    5.571    0.000    7.429 
#    0.000    2.857    0.000    0.000    0.000    1.000 
#    0.000    8.000    0.000    0.000    0.000    0.000 
#
# Total GULP energy -693948.898836 kJ/mol
# GULP energy per Si atom -12391.944622 kJ/mol
# Density = 1.754481 g / cm^3
# Si number density = 17.584836 Si / 1000 Ang^3
#
#
#
# Elastic Constant Matrix: (Units=GPa)
#
#
# Indices 1 2 3 4 5 6 
#
# 1 12.2211 11.1841 13.0098 0.0000 0.0000 0.0000
# 2 11.1841 90.7962 51.6674 0.0000 0.0000 0.0000
# 3 13.0098 51.6674 129.9287 0.0000 0.0000 0.0000
# 4 0.0000 0.0000 0.0000 28.8830 0.0000 0.0000
# 5 0.0000 0.0000 0.0000 0.0000 15.5466 0.0000
# 6 0.0000 0.0000 0.0000 0.0000 0.0000 20.1875
#
#
#
# Elastic Compliance Matrix: (Units=1/GPa)
#
#
# Indices 1 2 3 4 5 6 
#
# 1 0.096115 -0.008224 -0.006354 0.000000 0.000000 0.000000
# 2 -0.008224 0.014938 -0.005117 0.000000 0.000000 0.000000
# 3 -0.006354 -0.005117 0.010368 0.000000 0.000000 0.000000
# 4 0.000000 0.000000 0.000000 0.034622 0.000000 0.000000
# 5 0.000000 0.000000 0.000000 0.000000 0.064323 0.000000
# 6 0.000000 0.000000 0.000000 0.000000 0.000000 0.049535
#
#
# Mechanical properties :
#
#
# Convention : Reuss Voigt Hill
#
# Bulk Modulus (GPa) = 12.19033 42.74097 27.46565
# Shear Modulus (GPa) = 14.85289 23.39575 19.12432
#
# Velocity S-wave (km/s) = 2.90943 3.65149 3.30137
# Velocity P-wave (km/s) = 4.27009 6.49124 5.49408
#
# Compressibility (1/GPa) = 0.08203225
#
# Stress axis : x y z
#
# Youngs Moduli (GPa) = 10.40419 66.94139 96.45468
#
# Poissons Ratio (x) = 0.55050 0.61286
# Poissons Ratio (y) = 0.08556 0.49356
# Poissons Ratio (z) = 0.06611 0.34254
#
# Static dielectric constant tensor:
#      x y z
#    x 3.049710 0.000000 0.000000 
#    y 0.000000 3.484130 0.000000 
#    z 0.000000 0.000000 3.692110 
# 
# 
# High freq. dielectric constant tensor:
#      x y z
#    x 1.632360 0.000000 0.000000 
#    y 0.000000 1.695110 0.000000 
#    z 0.000000 0.000000 1.674780 
# 
# From -- ./inp_files/28107.got.cif
#   From: 2010.03.12/outbox.cif.g09.slc.cpg/sg59_15_cif.got.tgz:28107.got - 2010.04.16 16:29:54.
