data_PCOD8239514
_publ_section_title
;
Structure prediction by ZEFSAII (Michael W. Deem and Ramdas Pophale) SiO2 
 PCOD8239514
Probable space group: P M M N
;
_chemical_formula_sum "Si O2"
_cell_formula_units_Z 64
_cell_length_a 23.449419
_cell_length_b 8.937414
_cell_length_c 19.222152
_cell_angle_alpha 90.000000
_cell_angle_beta 90.000000
_cell_angle_gamma 90.000000
_cell_volume 4028.524134
_symmetry_space_group_name_H-M "P M M N"
_symmetry_group_IT_number 59
_space_group.IT_coordinate_system_code '2'
_symmetry_cell_setting 'orthorhombic'
loop_
_space_group_symop_operation_xyz
x,y,z
1/2-x,1/2-y,z
1/2+x,-y,-z
-x,1/2+y,-z
-x,-y,-z
1/2+x,1/2+y,-z
1/2-x,y,z
x,1/2-y,z
loop_
_atom_site_type_symbol
_atom_site_label
_atom_site_fract_x
_atom_site_fract_y
_atom_site_fract_z
Si Si1 0.983368 0.923913 0.102091
Si Si2 0.085284 0.073837 0.025169
Si Si3 0.631887 0.926934 0.743000
Si Si4 0.910509 0.924465 0.526388
Si Si5 0.988225 0.421387 0.748329
Si Si6 0.187026 0.072114 0.113606
Si Si7 0.986435 0.578476 0.402090
Si Si8 0.315844 0.925096 0.392109
O O1 0.995129 0.750000 0.089539
O O2 0.973227 0.959891 0.183717
O O3 0.928887 0.973737 0.054780
O O4 0.039085 0.010274 0.078063
O O5 0.083127 0.250000 0.034505
O O6 0.147345 0.015093 0.049542
O O7 0.635734 0.750000 0.735342
O O8 0.661791 0.985026 0.813328
O O9 0.566219 0.973060 0.744371
O O10 0.665039 0.998521 0.678981
O O11 0.898985 0.750000 0.537642
O O12 0.930383 0.962028 0.447324
O O13 0.852457 0.012311 0.543044
O O14 0.960488 0.973974 0.578655
O O15 0.966757 0.250000 0.752193
O O16 0.027159 0.445900 0.679642
O O17 0.250000 0.003625 0.102650
O O18 0.189943 0.250000 0.114632
O O19 0.004229 0.750000 0.417674
O O20 0.250000 0.961994 0.407150
O O21 0.327003 0.750000 0.385114
#
# Coordination Sequence:
#
# PCOD8239514 Si02
#       8
#     8   8   8   8   8   8   8   8
#     4   9  17  27  43  64  87 115 147 183 221 266
#     4   9  16  28  43  61  85 115 151 188 223 259
#     4  11  20  30  45  66  91 120 156 189 218 258
#     4  10  19  31  48  69  89 116 154 193 228 267
#     4  10  18  29  45  66  93 122 148 177 226 279
#     4   9  17  28  42  61  87 118 151 187 223 256
#     4   9  18  31  47  66  92 121 148 185 233 279
#     4  11  23  36  48  64  91 126 157 188 228 270
#
# _framework density 15.886711999999999
#
# number of rings (size 3 to 8) (size 9 to 14) (size 15 to 20)
#    0.000    2.250    2.500    1.500    0.000    2.000 
#    0.000    0.000    0.000    1.125    0.000    0.875 
#    0.000    5.000    0.000    0.000    0.000    0.500 
#
# Total GULP energy -793269.750356 kJ/mol
# GULP energy per Si atom -12394.839849 kJ/mol
# Density = 1.585055 g / cm^3
# Si number density = 15.886712 Si / 1000 Ang^3
#
#
#
# Elastic Constant Matrix: (Units=GPa)
#
#
# Indices 1 2 3 4 5 6 
#
# 1 101.6929 31.7933 74.9012 0.0000 0.0000 0.0000
# 2 31.7933 46.5414 31.8340 0.0000 0.0000 0.0000
# 3 74.9012 31.8340 144.2566 0.0000 0.0000 0.0000
# 4 0.0000 0.0000 0.0000 15.7736 0.0000 0.0000
# 5 0.0000 0.0000 0.0000 0.0000 24.7452 0.0000
# 6 0.0000 0.0000 0.0000 0.0000 0.0000 18.9039
#
#
#
# Elastic Compliance Matrix: (Units=1/GPa)
#
#
# Indices 1 2 3 4 5 6 
#
# 1 0.017573 -0.006788 -0.007626 0.000000 0.000000 0.000000
# 2 -0.006788 0.027928 -0.002639 0.000000 0.000000 0.000000
# 3 -0.007626 -0.002639 0.011474 0.000000 0.000000 0.000000
# 4 0.000000 0.000000 0.000000 0.063397 0.000000 0.000000
# 5 0.000000 0.000000 0.000000 0.000000 0.040412 0.000000
# 6 0.000000 0.000000 0.000000 0.000000 0.000000 0.052899
#
#
# Mechanical properties :
#
#
# Convention : Reuss Voigt Hill
#
# Bulk Modulus (GPa) = 43.72683 63.28312 53.50497
# Shear Modulus (GPa) = 19.57627 22.14872 20.86250
#
# Velocity S-wave (km/s) = 3.51414 3.73790 3.62775
# Velocity P-wave (km/s) = 6.63698 7.65178 7.16237
#
# Compressibility (1/GPa) = 0.02286926
#
# Stress axis : x y z
#
# Youngs Moduli (GPa) = 56.90627 35.80638 87.15312
#
# Poissons Ratio (x) = 0.24305 0.66465
# Poissons Ratio (y) = 0.38628 0.22996
# Poissons Ratio (z) = 0.43398 0.09448
#
# Static dielectric constant tensor:
#      x y z
#    x 3.119470 0.000000 0.000000 
#    y 0.000000 3.015440 0.000000 
#    z 0.000000 0.000000 3.344740 
# 
# 
# High freq. dielectric constant tensor:
#      x y z
#    x 1.580520 0.000000 0.000000 
#    y 0.000000 1.607820 0.000000 
#    z 0.000000 0.000000 1.612330 
# 
# From -- ./inp_files/31079.got.cif
#   From: 2010.03.12/outbox.cif.g09.slc.cpg/sg59_16_cif.got.tgz:31079.got - 2010.04.16 16:29:54.
