data_PCOD8239550
_publ_section_title
;
Structure prediction by ZEFSAII (Michael W. Deem and Ramdas Pophale) SiO2 
 PCOD8239550
Probable space group: P M M N
;
_chemical_formula_sum "Si O2"
_cell_formula_units_Z 64
_cell_length_a 9.209105
_cell_length_b 23.275649
_cell_length_c 18.943845
_cell_angle_alpha 90.000000
_cell_angle_beta 90.000000
_cell_angle_gamma 90.000000
_cell_volume 4060.573310
_symmetry_space_group_name_H-M "P M M N"
_symmetry_group_IT_number 59
_space_group.IT_coordinate_system_code '2'
_symmetry_cell_setting 'orthorhombic'
loop_
_space_group_symop_operation_xyz
x,y,z
1/2-x,1/2-y,z
1/2+x,-y,-z
-x,1/2+y,-z
-x,-y,-z
1/2+x,1/2+y,-z
1/2-x,y,z
x,1/2-y,z
loop_
_atom_site_type_symbol
_atom_site_label
_atom_site_fract_x
_atom_site_fract_y
_atom_site_fract_z
Si Si1 0.079985 0.588159 0.517263
Si Si2 0.919008 0.633362 0.750500
Si Si3 0.081200 0.499335 0.260796
Si Si4 0.919707 0.974300 0.397292
Si Si5 0.081443 0.917861 0.971950
Si Si6 0.580041 0.185955 0.117539
Si Si7 0.081693 0.516031 0.105025
Si Si8 0.081635 0.316896 0.399919
O O1 0.250000 0.595332 0.502444
O O2 0.048594 0.538169 0.573952
O O3 0.000438 0.572946 0.444452
O O4 0.015760 0.647744 0.545365
O O5 0.750000 0.639685 0.767204
O O6 0.964244 0.567087 0.744458
O O7 0.962813 0.666224 0.679241
O O8 0.004251 0.662973 0.813036
O O9 0.250000 0.505115 0.281899
O O10 0.046139 0.530797 0.186320
O O11 0.983476 0.530686 0.318826
O O12 0.750000 0.959993 0.396709
O O13 0.250000 0.930111 0.960766
O O14 0.040993 0.852680 0.951129
O O15 0.037551 0.930864 0.053542
O O16 0.000918 0.959058 0.917653
O O17 0.750000 0.184565 0.133144
O O18 0.525497 0.250000 0.100103
O O19 0.250000 0.500701 0.097840
O O20 0.250000 0.332068 0.413203
O O21 0.049776 0.250000 0.412179
#
# Coordination Sequence:
#
# PCOD8239550 Si02
#       8
#     8   8   8   8   8   8   8   8
#     4  10  20  33  49  69  93 122 155 194 234 273
#     4  10  19  31  46  65  93 127 162 194 223 267
#     4  10  18  29  47  69  93 121 153 190 233 281
#     4  10  20  32  49  70  94 122 154 191 235 284
#     4   9  17  29  44  62  87 118 152 190 231 274
#     4  10  20  31  43  62  90 124 159 193 228 269
#     4   9  17  29  45  65  88 116 150 190 234 277
#     4  10  20  33  48  66  92 127 162 192 226 271
#
# _framework density 15.761321000000001
#
# number of rings (size 3 to 8) (size 9 to 14) (size 15 to 20)
#    0.000    2.250    2.500    1.125    0.000    3.500 
#    0.000    0.000    0.000    0.000    0.000    0.875 
#    0.000    3.000    0.000    0.000    0.000    0.000 
#
# Total GULP energy -793580.371091 kJ/mol
# GULP energy per Si atom -12399.693298 kJ/mol
# Density = 1.572545 g / cm^3
# Si number density = 15.761321 Si / 1000 Ang^3
#
#
#
# Elastic Constant Matrix: (Units=GPa)
#
#
# Indices 1 2 3 4 5 6 
#
# 1 58.2670 40.5588 52.5854 0.0000 0.0000 0.0000
# 2 40.5588 84.7311 63.6226 0.0000 0.0000 0.0000
# 3 52.5854 63.6226 121.6325 0.0000 0.0000 0.0000
# 4 0.0000 0.0000 0.0000 22.0933 0.0000 0.0000
# 5 0.0000 0.0000 0.0000 0.0000 25.9704 0.0000
# 6 0.0000 0.0000 0.0000 0.0000 0.0000 20.7670
#
#
#
# Elastic Compliance Matrix: (Units=1/GPa)
#
#
# Indices 1 2 3 4 5 6 
#
# 1 0.031035 -0.007873 -0.009299 0.000000 0.000000 0.000000
# 2 -0.007873 0.021433 -0.007807 0.000000 0.000000 0.000000
# 3 -0.009299 -0.007807 0.016325 0.000000 0.000000 0.000000
# 4 0.000000 0.000000 0.000000 0.045262 0.000000 0.000000
# 5 0.000000 0.000000 0.000000 0.000000 0.038505 0.000000
# 6 0.000000 0.000000 0.000000 0.000000 0.000000 0.048153
#
#
# Mechanical properties :
#
#
# Convention : Reuss Voigt Hill
#
# Bulk Modulus (GPa) = 53.09402 64.24046 58.66724
# Shear Modulus (GPa) = 19.45887 20.95708 20.20797
#
# Velocity S-wave (km/s) = 3.51749 3.65040 3.58456
# Velocity P-wave (km/s) = 7.08918 7.65598 7.37802
#
# Compressibility (1/GPa) = 0.01883451
#
# Stress axis : x y z
#
# Youngs Moduli (GPa) = 32.22143 46.65697 61.25389
#
# Poissons Ratio (x) = 0.36735 0.56961
# Poissons Ratio (y) = 0.25369 0.47822
# Poissons Ratio (z) = 0.29963 0.36426
#
# Static dielectric constant tensor:
#      x y z
#    x 3.016970 0.000000 0.000000 
#    y 0.000000 2.981270 0.000000 
#    z 0.000000 0.000000 3.093810 
# 
# 
# High freq. dielectric constant tensor:
#      x y z
#    x 1.609360 0.000000 0.000000 
#    y 0.000000 1.579640 0.000000 
#    z 0.000000 0.000000 1.602290 
# 
# From -- ./inp_files/26547.got.cif
#   From: 2010.03.12/outbox.cif.g09.slc.cpg/sg59_14_cif.got.tgz:26547.got - 2010.04.16 16:29:54.
