data_PCOD8239273
_publ_section_title
;
Structure prediction by ZEFSAII (Michael W. Deem and Ramdas Pophale) SiO2 
 PCOD8239273
Probable space group: P M M N
;
_chemical_formula_sum "Si O2"
_cell_formula_units_Z 64
_cell_length_a 9.328113
_cell_length_b 23.372916
_cell_length_c 17.727714
_cell_angle_alpha 90.000000
_cell_angle_beta 90.000000
_cell_angle_gamma 90.000000
_cell_volume 3865.088419
_symmetry_space_group_name_H-M "P M M N"
_symmetry_group_IT_number 59
_space_group.IT_coordinate_system_code '2'
_symmetry_cell_setting 'orthorhombic'
loop_
_space_group_symop_operation_xyz
x,y,z
1/2-x,1/2-y,z
1/2+x,-y,-z
-x,1/2+y,-z
-x,-y,-z
1/2+x,1/2+y,-z
1/2-x,y,z
x,1/2-y,z
loop_
_atom_site_type_symbol
_atom_site_label
_atom_site_fract_x
_atom_site_fract_y
_atom_site_fract_z
Si Si1 0.418340 0.934566 0.777672
Si Si2 0.420046 0.313874 0.497634
Si Si3 0.405464 0.508115 0.428427
Si Si4 0.087650 0.066762 0.073000
Si Si5 0.591195 0.886850 0.644057
Si Si6 0.410788 0.433034 0.788871
Si Si7 0.087782 0.104795 0.630506
Si Si8 0.911185 0.430955 0.931462
O O1 0.250000 0.922046 0.785044
O O2 0.497996 0.915305 0.853748
O O3 0.480860 0.892371 0.713119
O O4 0.447707 0.001957 0.761238
O O5 0.250000 0.311785 0.494756
O O6 0.485402 0.250000 0.497452
O O7 0.475211 0.347299 0.423027
O O8 0.467663 0.343785 0.576787
O O9 0.500000 0.500000 0.500000
O O10 0.250000 0.532492 0.451844
O O11 0.384955 0.449274 0.387120
O O12 0.482643 0.551902 0.374376
O O13 0.250000 0.091114 0.077738
O O14 0.092674 0.998955 0.065218
O O15 0.006357 0.093187 0.000420
O O16 0.750000 0.864028 0.669522
O O17 0.250000 0.434497 0.822952
O O18 0.417079 0.385796 0.721031
O O19 0.518963 0.411120 0.852682
O O20 0.250000 0.088484 0.605429
O O21 0.750000 0.406055 0.936611
#
# Coordination Sequence:
#
# PCOD8239273 Si02
#       8
#     8   8   8   8   8   8   8   8
#     4  10  18  27  41  62  89 118 149 184 226 269
#     4   9  18  33  51  67  86 117 156 195 232 273
#     4  11  20  29  44  66  90 115 146 185 232 279
#     4   9  16  26  39  56  84 120 155 184 214 256
#     4  10  19  30  45  65  89 115 150 190 229 273
#     4   9  17  26  39  60  88 117 147 184 224 267
#     4  10  18  31  47  67  91 117 152 192 232 274
#     4   9  16  25  38  56  83 119 156 184 212 257
#
# _framework density 16.558482999999999
#
# number of rings (size 3 to 8) (size 9 to 14) (size 15 to 20)
#    0.000    2.375    2.500    1.500    0.000    4.500 
#    0.000    0.000    0.000    1.500    0.000    0.000 
#    0.000    1.000    0.000    8.500    0.000    2.375 
#
# Total GULP energy -792985.291822 kJ/mol
# GULP energy per Si atom -12390.395185 kJ/mol
# Density = 1.652080 g / cm^3
# Si number density = 16.558483 Si / 1000 Ang^3
#
#
#
# Elastic Constant Matrix: (Units=GPa)
#
#
# Indices 1 2 3 4 5 6 
#
# 1 109.9862 20.6732 66.5620 0.0000 0.0000 0.0000
# 2 20.6732 53.6645 35.7896 0.0000 0.0000 0.0000
# 3 66.5620 35.7896 133.2039 0.0000 0.0000 0.0000
# 4 0.0000 0.0000 0.0000 6.7384 0.0000 0.0000
# 5 0.0000 0.0000 0.0000 0.0000 27.8826 0.0000
# 6 0.0000 0.0000 0.0000 0.0000 0.0000 8.0731
#
#
#
# Elastic Compliance Matrix: (Units=1/GPa)
#
#
# Indices 1 2 3 4 5 6 
#
# 1 0.013064 -0.000827 -0.006306 0.000000 0.000000 0.000000
# 2 -0.000827 0.022755 -0.005700 0.000000 0.000000 0.000000
# 3 -0.006306 -0.005700 0.012190 0.000000 0.000000 0.000000
# 4 0.000000 0.000000 0.000000 0.148403 0.000000 0.000000
# 5 0.000000 0.000000 0.000000 0.000000 0.035865 0.000000
# 6 0.000000 0.000000 0.000000 0.000000 0.000000 0.123869
#
#
# Mechanical properties :
#
#
# Convention : Reuss Voigt Hill
#
# Bulk Modulus (GPa) = 44.75964 60.32269 52.54117
# Shear Modulus (GPa) = 12.84494 20.12747 16.48621
#
# Velocity S-wave (km/s) = 2.78822 3.49024 3.15879
# Velocity P-wave (km/s) = 6.12009 7.26303 6.71591
#
# Compressibility (1/GPa) = 0.02234155
#
# Stress axis : x y z
#
# Youngs Moduli (GPa) = 76.54857 43.94705 82.03564
#
# Poissons Ratio (x) = 0.03635 0.51729
# Poissons Ratio (y) = 0.06332 0.46764
# Poissons Ratio (z) = 0.48269 0.25052
#
# Static dielectric constant tensor:
#      x y z
#    x 3.233780 0.000000 0.000000 
#    y 0.000000 2.648900 0.000000 
#    z 0.000000 0.000000 3.207130 
# 
# 
# High freq. dielectric constant tensor:
#      x y z
#    x 1.641300 0.000000 0.000000 
#    y 0.000000 1.560120 0.000000 
#    z 0.000000 0.000000 1.648270 
# 
# From -- ./inp_files/26523.got.cif
#   From: 2010.03.12/outbox.cif.g09.slc.cpg/sg59_14_cif.got.tgz:26523.got - 2010.04.16 16:29:54.
