data_PCOD8239354
_publ_section_title
;
Structure prediction by ZEFSAII (Michael W. Deem and Ramdas Pophale) SiO2 
 PCOD8239354
Probable space group: P M M N
;
_chemical_formula_sum "Si O2"
_cell_formula_units_Z 64
_cell_length_a 13.917650
_cell_length_b 14.794668
_cell_length_c 19.661058
_cell_angle_alpha 90.000000
_cell_angle_beta 90.000000
_cell_angle_gamma 90.000000
_cell_volume 4048.349688
_symmetry_space_group_name_H-M "P M M N"
_symmetry_group_IT_number 59
_space_group.IT_coordinate_system_code '2'
_symmetry_cell_setting 'orthorhombic'
loop_
_space_group_symop_operation_xyz
x,y,z
1/2-x,1/2-y,z
1/2+x,-y,-z
-x,1/2+y,-z
-x,-y,-z
1/2+x,1/2+y,-z
1/2-x,y,z
x,1/2-y,z
loop_
_atom_site_type_symbol
_atom_site_label
_atom_site_fract_x
_atom_site_fract_y
_atom_site_fract_z
Si Si1 0.019133 0.357009 0.843564
Si Si2 0.137042 0.516592 0.206361
Si Si3 0.640230 0.647679 0.543704
Si Si4 0.020306 0.355924 0.588859
Si Si5 0.639268 0.482386 0.636060
Si Si6 0.643084 0.856915 0.031215
Si Si7 0.863992 0.650342 0.880646
Si Si8 0.856705 0.642853 0.284324
O O1 0.002611 0.250000 0.843747
O O2 0.067885 0.393155 0.912924
O O3 0.087817 0.389228 0.782603
O O4 0.915620 0.402814 0.833533
O O5 0.250000 0.530611 0.194859
O O6 0.109022 0.517795 0.285343
O O7 0.100988 0.421091 0.175514
O O8 0.750000 0.637743 0.518034
O O9 0.620512 0.750000 0.568432
O O10 0.570705 0.621194 0.482109
O O11 0.619054 0.582440 0.607044
O O12 0.998552 0.250000 0.596696
O O13 0.089031 0.392010 0.648709
O O14 0.919969 0.408628 0.593536
O O15 0.750000 0.455227 0.627357
O O16 0.750000 0.898368 0.043672
O O17 0.651490 0.750000 0.038673
O O18 0.603452 0.881812 0.956123
O O19 0.750000 0.657380 0.881239
O O20 0.906824 0.750000 0.863349
O O21 0.750000 0.600519 0.283231
O O22 0.849876 0.750000 0.286053
#
# Coordination Sequence:
#
# PCOD8239354 Si02
#       8
#     8   8   8   8   8   8   8   8
#     4  10  18  28  42  63  92 122 147 176 215 261
#     4  10  20  31  43  62  90 123 155 181 208 253
#     4   9  18  32  50  70  89 111 143 187 235 268
#     4  10  18  30  47  67  91 119 146 177 218 264
#     4  10  20  32  45  64  92 123 153 182 211 254
#     4   8  14  26  45  67  89 112 141 183 232 270
#     4   8  15  29  47  65  85 111 146 190 233 262
#     4   9  16  26  42  64  88 113 141 174 215 260
#
# _framework density 15.808911
#
# number of rings (size 3 to 8) (size 9 to 14) (size 15 to 20)
#    0.000    2.750    1.250    1.875    0.000    4.500 
#    0.000    3.750    0.000    0.000    0.000    0.000 
#    0.000    3.000    0.000    0.000    0.000    0.125 
#
# Total GULP energy -793421.303779 kJ/mol
# GULP energy per Si atom -12397.207872 kJ/mol
# Density = 1.577293 g / cm^3
# Si number density = 15.808911 Si / 1000 Ang^3
#
#
#
# Elastic Constant Matrix: (Units=GPa)
#
#
# Indices 1 2 3 4 5 6 
#
# 1 70.3219 39.3560 37.1454 0.0000 0.0000 0.0000
# 2 39.3560 60.6885 34.5480 0.0000 0.0000 0.0000
# 3 37.1454 34.5480 67.4489 0.0000 0.0000 0.0000
# 4 0.0000 0.0000 0.0000 22.4474 0.0000 0.0000
# 5 0.0000 0.0000 0.0000 0.0000 19.3693 0.0000
# 6 0.0000 0.0000 0.0000 0.0000 0.0000 19.2563
#
#
#
# Elastic Compliance Matrix: (Units=1/GPa)
#
#
# Indices 1 2 3 4 5 6 
#
# 1 0.024844 -0.011748 -0.007665 0.000000 0.000000 0.000000
# 2 -0.011748 0.028815 -0.008290 0.000000 0.000000 0.000000
# 3 -0.007665 -0.008290 0.023293 0.000000 0.000000 0.000000
# 4 0.000000 0.000000 0.000000 0.044549 0.000000 0.000000
# 5 0.000000 0.000000 0.000000 0.000000 0.051628 0.000000
# 6 0.000000 0.000000 0.000000 0.000000 0.000000 0.051931
#
#
# Mechanical properties :
#
#
# Convention : Reuss Voigt Hill
#
# Bulk Modulus (GPa) = 46.40834 46.72868 46.56851
# Shear Modulus (GPa) = 17.38252 18.04193 17.71223
#
# Velocity S-wave (km/s) = 3.31953 3.38191 3.35086
# Velocity P-wave (km/s) = 6.64168 6.69868 6.67024
#
# Compressibility (1/GPa) = 0.02154785
#
# Stress axis : x y z
#
# Youngs Moduli (GPa) = 40.25195 34.70434 42.93122
#
# Poissons Ratio (x) = 0.40769 0.32905
# Poissons Ratio (y) = 0.47287 0.35588
# Poissons Ratio (z) = 0.30851 0.28769
#
# Static dielectric constant tensor:
#      x y z
#    x 2.951670 0.000000 0.000000 
#    y 0.000000 2.858870 0.000000 
#    z 0.000000 0.000000 3.168150 
# 
# 
# High freq. dielectric constant tensor:
#      x y z
#    x 1.592640 0.000000 0.000000 
#    y 0.000000 1.579020 0.000000 
#    z 0.000000 0.000000 1.615200 
# 
# From -- ./inp_files/27717.got.cif
#   From: 2010.03.12/outbox.cif.g09.slc.cpg/sg59_14_cif.got.tgz:27717.got - 2010.04.16 16:29:54.
