data_PCOD8239751
_publ_section_title
;
Structure prediction by ZEFSAII (Michael W. Deem and Ramdas Pophale) SiO2 
 PCOD8239751
Probable space group: P M M N
;
_chemical_formula_sum "Si O2"
_cell_formula_units_Z 64
_cell_length_a 17.959492
_cell_length_b 8.617333
_cell_length_c 23.232999
_cell_angle_alpha 90.000000
_cell_angle_beta 90.000000
_cell_angle_gamma 90.000000
_cell_volume 3595.606837
_symmetry_space_group_name_H-M "P M M N"
_symmetry_group_IT_number 59
_space_group.IT_coordinate_system_code '2'
_symmetry_cell_setting 'orthorhombic'
loop_
_space_group_symop_operation_xyz
x,y,z
1/2-x,1/2-y,z
1/2+x,-y,-z
-x,1/2+y,-z
-x,-y,-z
1/2+x,1/2+y,-z
1/2-x,y,z
x,1/2-y,z
loop_
_atom_site_type_symbol
_atom_site_label
_atom_site_fract_x
_atom_site_fract_y
_atom_site_fract_z
Si Si1 0.667487 0.565266 0.050699
Si Si2 0.836117 0.933590 0.553520
Si Si3 0.665894 0.926283 0.816601
Si Si4 0.460323 0.432893 0.870446
Si Si5 0.969588 0.435284 0.629286
Si Si6 0.405794 0.070816 0.065251
Si Si7 0.033783 0.930019 0.242216
Si Si8 0.433541 0.934639 0.537808
O O1 0.750000 0.494405 0.057001
O O2 0.671439 0.750000 0.045804
O O3 0.620871 0.514152 0.107327
O O4 0.628777 0.499396 0.993003
O O5 0.750000 0.979066 0.567049
O O6 0.846431 0.750000 0.553555
O O7 0.892464 0.004692 0.600786
O O8 0.857105 0.998923 0.489660
O O9 0.750000 0.963328 0.800488
O O10 0.644063 0.750000 0.800581
O O11 0.654577 0.953783 0.884447
O O12 0.617806 0.042614 0.778375
O O13 0.465618 0.250000 0.865064
O O14 0.518754 0.482787 0.919045
O O15 0.478964 0.504679 0.806979
O O16 0.968343 0.250000 0.625391
O O17 0.975781 0.501292 0.694333
O O18 0.045984 0.501211 0.601010
O O19 0.426119 0.250000 0.056737
O O20 0.017339 0.750000 0.247385
O O21 0.431007 0.750000 0.537550
O O22 0.500000 0.000000 0.500000
#
# Coordination Sequence:
#
# PCOD8239751 Si02
#       8
#     8   8   8   8   8   8   8   8
#     4   9  16  26  44  68  89 111 143 186 234 281
#     4  10  20  33  50  74 103 128 150 183 227 272
#     4   9  17  28  42  61  87 118 150 186 227 274
#     4   9  17  30  46  64  88 117 151 190 229 271
#     4  10  19  32  49  67  92 126 162 196 229 269
#     4   9  16  27  44  65  88 114 146 183 227 282
#     4   9  19  32  45  63  88 121 157 192 228 266
#     4  10  18  30  50  73  97 124 155 188 222 264
#
# _framework density 17.799499000000001
#
# number of rings (size 3 to 8) (size 9 to 14) (size 15 to 20)
#    0.000    2.625    0.000    4.125    0.000    4.250 
#    0.000    2.500    0.000    3.000    0.000    3.500 
#    0.000    0.000    0.000    0.000    0.000    0.000 
#
# Total GULP energy -793082.231424 kJ/mol
# GULP energy per Si atom -12391.909866 kJ/mol
# Density = 1.775899 g / cm^3
# Si number density = 17.799499 Si / 1000 Ang^3
#
#
#
# Elastic Constant Matrix: (Units=GPa)
#
#
# Indices 1 2 3 4 5 6 
#
# 1 98.4539 20.9045 71.5879 0.0000 0.0000 0.0000
# 2 20.9045 47.6831 26.6965 0.0000 0.0000 0.0000
# 3 71.5879 26.6965 146.1182 0.0000 0.0000 0.0000
# 4 0.0000 0.0000 0.0000 18.0886 0.0000 0.0000
# 5 0.0000 0.0000 0.0000 0.0000 15.0818 0.0000
# 6 0.0000 0.0000 0.0000 0.0000 0.0000 21.7036
#
#
#
# Elastic Compliance Matrix: (Units=1/GPa)
#
#
# Indices 1 2 3 4 5 6 
#
# 1 0.016142 -0.002951 -0.007369 0.000000 0.000000 0.000000
# 2 -0.002951 0.023901 -0.002921 0.000000 0.000000 0.000000
# 3 -0.007369 -0.002921 0.010988 0.000000 0.000000 0.000000
# 4 0.000000 0.000000 0.000000 0.055283 0.000000 0.000000
# 5 0.000000 0.000000 0.000000 0.000000 0.066305 0.000000
# 6 0.000000 0.000000 0.000000 0.000000 0.000000 0.046075
#
#
# Mechanical properties :
#
#
# Convention : Reuss Voigt Hill
#
# Bulk Modulus (GPa) = 40.73604 58.95924 49.84764
# Shear Modulus (GPa) = 19.73475 22.51254 21.12364
#
# Velocity S-wave (km/s) = 3.33336 3.56024 3.44867
# Velocity P-wave (km/s) = 6.14417 7.07788 6.62749
#
# Compressibility (1/GPa) = 0.02454829
#
# Stress axis : x y z
#
# Youngs Moduli (GPa) = 61.95026 41.83940 91.00878
#
# Poissons Ratio (x) = 0.12346 0.67067
# Poissons Ratio (y) = 0.18280 0.26585
# Poissons Ratio (z) = 0.45653 0.12222
#
# Static dielectric constant tensor:
#      x y z
#    x 3.458420 0.000000 0.000000 
#    y 0.000000 3.139860 0.000000 
#    z 0.000000 0.000000 3.749510 
# 
# 
# High freq. dielectric constant tensor:
#      x y z
#    x 1.672090 0.000000 0.000000 
#    y 0.000000 1.674760 0.000000 
#    z 0.000000 0.000000 1.685780 
# 
# From -- ./inp_files/32305.got.cif
#   From: 2010.03.12/outbox.cif.g09.slc.cpg/sg59_17_cif.got.tgz:32305.got - 2010.04.16 16:29:54.
