data_PCOD8239826
_publ_section_title
;
Structure prediction by ZEFSAII (Michael W. Deem and Ramdas Pophale) SiO2 
 PCOD8239826
Probable space group: P M M N
;
_chemical_formula_sum "Si O2"
_cell_formula_units_Z 64
_cell_length_a 28.864425
_cell_length_b 8.834519
_cell_length_c 15.509443
_cell_angle_alpha 90.000000
_cell_angle_beta 90.000000
_cell_angle_gamma 90.000000
_cell_volume 3954.959318
_symmetry_space_group_name_H-M "P M M N"
_symmetry_group_IT_number 59
_space_group.IT_coordinate_system_code '2'
_symmetry_cell_setting 'orthorhombic'
loop_
_space_group_symop_operation_xyz
x,y,z
1/2-x,1/2-y,z
1/2+x,-y,-z
-x,1/2+y,-z
-x,-y,-z
1/2+x,1/2+y,-z
1/2-x,y,z
x,1/2-y,z
loop_
_atom_site_type_symbol
_atom_site_label
_atom_site_fract_x
_atom_site_fract_y
_atom_site_fract_z
Si Si1 0.800388 0.570588 0.595130
Si Si2 0.049955 0.427287 0.820227
Si Si3 0.396275 0.071450 0.334518
Si Si4 0.942331 0.075707 0.821495
Si Si5 0.949778 0.429779 0.509201
Si Si6 0.602078 0.929536 0.349427
Si Si7 0.549075 0.075445 0.010998
Si Si8 0.299981 0.071031 0.598350
O O1 0.750000 0.513414 0.630461
O O2 0.800384 0.750000 0.592858
O O3 0.843051 0.515002 0.654123
O O4 0.807870 0.507494 0.498290
O O5 0.056252 0.250000 0.830110
O O6 0.076812 0.488175 0.736431
O O7 0.073620 0.501135 0.905518
O O8 0.996112 0.472677 0.812165
O O9 0.401213 0.250000 0.350979
O O10 0.411245 0.031234 0.237792
O O11 0.429009 0.983179 0.400279
O O12 0.936627 0.250000 0.793166
O O13 0.924145 0.052364 0.920066
O O14 0.953459 0.250000 0.508538
O O15 0.918223 0.485855 0.431388
O O16 0.000000 0.500000 0.500000
O O17 0.595310 0.750000 0.362422
O O18 0.656511 0.975922 0.342000
O O19 0.541459 0.250000 0.030630
O O20 0.500000 0.000000 0.000000
O O21 0.250000 0.010742 0.634496
O O22 0.297832 0.250000 0.592873
#
# Coordination Sequence:
#
# PCOD8239826 Si02
#       8
#     8   8   8   8   8   8   8   8
#     4   8  14  26  45  68  92 118 152 193 232 272
#     4   9  18  30  46  67  93 122 152 190 230 269
#     4  11  20  31  49  71  92 121 158 193 231 276
#     4   9  18  31  44  64  94 125 153 188 234 274
#     4  12  24  35  46  62  91 128 161 192 224 268
#     4  10  18  31  49  70  95 123 157 194 231 273
#     4   9  17  30  48  66  89 119 151 188 228 272
#     4   8  13  24  45  69  92 120 154 192 231 272
#
# _framework density 16.182213999999998
#
# number of rings (size 3 to 8) (size 9 to 14) (size 15 to 20)
#    0.000    2.500    1.250    4.125    0.000    4.000 
#    0.000    0.000    0.000    2.625    0.000    0.875 
#    0.000    5.000    0.000    0.000    0.000    0.000 
#
# Total GULP energy -793093.270756 kJ/mol
# GULP energy per Si atom -12392.082356 kJ/mol
# Density = 1.614538 g / cm^3
# Si number density = 16.182214 Si / 1000 Ang^3
#
#
#
# Elastic Constant Matrix: (Units=GPa)
#
#
# Indices 1 2 3 4 5 6 
#
# 1 94.8212 18.6660 31.1413 0.0000 0.0000 0.0000
# 2 18.6660 47.7329 22.5430 0.0000 0.0000 0.0000
# 3 31.1413 22.5430 85.3998 0.0000 0.0000 0.0000
# 4 0.0000 0.0000 0.0000 27.7658 0.0000 0.0000
# 5 0.0000 0.0000 0.0000 0.0000 9.6173 0.0000
# 6 0.0000 0.0000 0.0000 0.0000 0.0000 12.9243
#
#
#
# Elastic Compliance Matrix: (Units=1/GPa)
#
#
# Indices 1 2 3 4 5 6 
#
# 1 0.012368 -0.003092 -0.003694 0.000000 0.000000 0.000000
# 2 -0.003092 0.024707 -0.005394 0.000000 0.000000 0.000000
# 3 -0.003694 -0.005394 0.014481 0.000000 0.000000 0.000000
# 4 0.000000 0.000000 0.000000 0.036016 0.000000 0.000000
# 5 0.000000 0.000000 0.000000 0.000000 0.103979 0.000000
# 6 0.000000 0.000000 0.000000 0.000000 0.000000 0.077374
#
#
# Mechanical properties :
#
#
# Convention : Reuss Voigt Hill
#
# Bulk Modulus (GPa) = 36.77165 41.40606 39.08886
# Shear Modulus (GPa) = 16.53720 20.43506 18.48613
#
# Velocity S-wave (km/s) = 3.20024 3.55746 3.38357
# Velocity P-wave (km/s) = 6.03558 6.52050 6.28272
#
# Compressibility (1/GPa) = 0.02719486
#
# Stress axis : x y z
#
# Youngs Moduli (GPa) = 80.85402 40.47491 69.05829
#
# Poissons Ratio (x) = 0.12515 0.25509
# Poissons Ratio (y) = 0.25000 0.37252
# Poissons Ratio (z) = 0.29866 0.21833
#
# Static dielectric constant tensor:
#      x y z
#    x 3.330670 0.000000 0.000000 
#    y 0.000000 2.942700 0.000000 
#    z 0.000000 0.000000 3.294500 
# 
# 
# High freq. dielectric constant tensor:
#      x y z
#    x 1.606260 0.000000 0.000000 
#    y 0.000000 1.606110 0.000000 
#    z 0.000000 0.000000 1.612420 
# 
# From -- ./inp_files/25022.got.cif
#   From: 2010.03.12/outbox.cif.g09.slc.cpg/sg59_13_cif.got.tgz:25022.got - 2010.04.16 16:29:54.
