data_PCOD8239082
_publ_section_title
;
Structure prediction by ZEFSAII (Michael W. Deem and Ramdas Pophale) SiO2 
 PCOD8239082
Probable space group: P M M N
;
_chemical_formula_sum "Si O2"
_cell_formula_units_Z 56
_cell_length_a 9.006028
_cell_length_b 21.879974
_cell_length_c 17.804408
_cell_angle_alpha 90.000000
_cell_angle_beta 90.000000
_cell_angle_gamma 90.000000
_cell_volume 3508.388125
_symmetry_space_group_name_H-M "P M M N"
_symmetry_group_IT_number 59
_space_group.IT_coordinate_system_code '2'
_symmetry_cell_setting 'orthorhombic'
loop_
_space_group_symop_operation_xyz
x,y,z
1/2-x,1/2-y,z
1/2+x,-y,-z
-x,1/2+y,-z
-x,-y,-z
1/2+x,1/2+y,-z
1/2-x,y,z
x,1/2-y,z
loop_
_atom_site_type_symbol
_atom_site_label
_atom_site_fract_x
_atom_site_fract_y
_atom_site_fract_z
Si Si1 0.422222 0.439256 0.027130
Si Si2 0.918291 0.600060 0.131264
Si Si3 0.077337 0.679346 0.249262
Si Si4 0.424581 0.402019 0.634450
Si Si5 0.922460 0.040809 0.170422
Si Si6 0.580030 0.560661 0.521505
Si Si7 0.075018 0.029132 0.320636
O O1 0.250000 0.452547 0.043092
O O2 0.501994 0.418394 0.104292
O O3 0.500000 0.500000 0.000000
O O4 0.440306 0.390814 0.958770
O O5 0.750000 0.616736 0.154187
O O6 0.951984 0.530561 0.155128
O O7 0.030041 0.644578 0.173666
O O8 0.250000 0.667827 0.263576
O O9 0.039670 0.750000 0.238116
O O10 0.987399 0.655970 0.321568
O O11 0.250000 0.409241 0.651145
O O12 0.455762 0.390068 0.544530
O O13 0.505487 0.462737 0.663876
O O14 0.750000 0.057101 0.173285
O O15 0.998527 0.059697 0.248636
O O16 0.500000 0.500000 0.500000
O O17 0.750000 0.543015 0.517299
O O18 0.541527 0.575759 0.608765
O O19 0.250000 0.021247 0.306207
#
# Coordination Sequence:
#
# PCOD8239082 Si02
#       7
#     8   8   8   8   8   8   8
#     4   9  17  28  42  61  84 111 144 177 214 260
#     4   9  18  31  45  60  82 112 146 182 219 257
#     4  11  23  34  45  63  85 113 152 190 222 258
#     4  10  18  30  45  60  83 113 146 183 220 259
#     4  10  18  27  41  64  90 116 147 176 209 258
#     4   8  16  27  40  60  83 110 143 175 211 257
#     4  10  17  26  42  63  88 117 145 175 213 256
#
# _framework density 15.961746
#
# number of rings (size 3 to 8) (size 9 to 14) (size 15 to 20)
#    0.000    2.429    1.429    3.000    0.000    5.143 
#    0.000    0.000    0.000    0.000    0.000    0.000 
#    0.000    1.143    0.000   10.857    0.000    6.286 
#
# Total GULP energy -693794.405010 kJ/mol
# GULP energy per Si atom -12389.185804 kJ/mol
# Density = 1.592542 g / cm^3
# Si number density = 15.961746 Si / 1000 Ang^3
#
#
#
# Elastic Constant Matrix: (Units=GPa)
#
#
# Indices 1 2 3 4 5 6 
#
# 1 95.1749 22.2880 64.6974 0.0000 0.0000 0.0000
# 2 22.2880 30.1367 27.8068 0.0000 0.0000 0.0000
# 3 64.6974 27.8068 160.1270 0.0000 0.0000 0.0000
# 4 0.0000 0.0000 0.0000 12.1918 0.0000 0.0000
# 5 0.0000 0.0000 0.0000 0.0000 28.5939 0.0000
# 6 0.0000 0.0000 0.0000 0.0000 0.0000 15.1465
#
#
#
# Elastic Compliance Matrix: (Units=1/GPa)
#
#
# Indices 1 2 3 4 5 6 
#
# 1 0.015575 -0.006802 -0.005111 0.000000 0.000000 0.000000
# 2 -0.006802 0.042484 -0.004629 0.000000 0.000000 0.000000
# 3 -0.005111 -0.004629 0.009114 0.000000 0.000000 0.000000
# 4 0.000000 0.000000 0.000000 0.082022 0.000000 0.000000
# 5 0.000000 0.000000 0.000000 0.000000 0.034972 0.000000
# 6 0.000000 0.000000 0.000000 0.000000 0.000000 0.066022
#
#
# Mechanical properties :
#
#
# Convention : Reuss Voigt Hill
#
# Bulk Modulus (GPa) = 29.33659 57.22479 43.28069
# Shear Modulus (GPa) = 16.97001 22.56287 19.76644
#
# Velocity S-wave (km/s) = 3.26416 3.76381 3.52286
# Velocity P-wave (km/s) = 5.71188 7.40388 6.61222
#
# Compressibility (1/GPa) = 0.03408713
#
# Stress axis : x y z
#
# Youngs Moduli (GPa) = 64.20736 23.53824 109.71924
#
# Poissons Ratio (x) = 0.16011 0.56083
# Poissons Ratio (y) = 0.43674 0.50792
# Poissons Ratio (z) = 0.32820 0.10896
#
# Static dielectric constant tensor:
#      x y z
#    x 3.180010 0.000000 0.000000 
#    y 0.000000 2.468840 0.000000 
#    z 0.000000 0.000000 3.869910 
# 
# 
# High freq. dielectric constant tensor:
#      x y z
#    x 1.632580 0.000000 0.000000 
#    y 0.000000 1.527610 0.000000 
#    z 0.000000 0.000000 1.640220 
# 
# From -- ./inp_files/26140.got.cif
#   From: 2010.03.12/outbox.cif.g09.slc.cpg/sg59_14_cif.got.tgz:26140.got - 2010.04.16 16:29:54.
