data_PCOD8239289
_publ_section_title
;
Structure prediction by ZEFSAII (Michael W. Deem and Ramdas Pophale) SiO2 
 PCOD8239289
Probable space group: P M M N
;
_chemical_formula_sum "Si O2"
_cell_formula_units_Z 56
_cell_length_a 9.065189
_cell_length_b 21.574895
_cell_length_c 17.577447
_cell_angle_alpha 90.000000
_cell_angle_beta 90.000000
_cell_angle_gamma 90.000000
_cell_volume 3437.805888
_symmetry_space_group_name_H-M "P M M N"
_symmetry_group_IT_number 59
_space_group.IT_coordinate_system_code '2'
_symmetry_cell_setting 'orthorhombic'
loop_
_space_group_symop_operation_xyz
x,y,z
1/2-x,1/2-y,z
1/2+x,-y,-z
-x,1/2+y,-z
-x,-y,-z
1/2+x,1/2+y,-z
1/2-x,y,z
x,1/2-y,z
loop_
_atom_site_type_symbol
_atom_site_label
_atom_site_fract_x
_atom_site_fract_y
_atom_site_fract_z
Si Si1 0.575210 0.034589 0.245522
Si Si2 0.586001 0.064409 0.082780
Si Si3 0.579108 0.583149 0.444845
Si Si4 0.580427 0.178827 0.652453
Si Si5 0.414769 0.082265 0.940189
Si Si6 0.079492 0.039262 0.391897
Si Si7 0.421069 0.907787 0.207962
O O1 0.750000 0.027553 0.252785
O O2 0.506399 0.966299 0.241909
O O3 0.534289 0.074814 0.170273
O O4 0.507105 0.068433 0.319686
O O5 0.750000 0.090923 0.070257
O O6 0.585372 0.991176 0.069382
O O7 0.479649 0.099234 0.023450
O O8 0.750000 0.572570 0.423926
O O9 0.521852 0.647832 0.411718
O O10 0.483995 0.528528 0.408646
O O11 0.557224 0.584324 0.536120
O O12 0.750000 0.171220 0.627263
O O13 0.533127 0.250000 0.658302
O O14 0.554551 0.149127 0.735109
O O15 0.250000 0.109386 0.935129
O O16 0.513367 0.112495 0.873812
O O17 0.250000 0.031140 0.370575
O O18 0.250000 0.925013 0.197525
#
# Coordination Sequence:
#
# PCOD8239289 Si02
#       7
#     8   8   8   8   8   8   8
#     4  10  18  27  42  64  89 116 148 184 219 265
#     4   8  15  25  36  55  83 113 143 174 210 251
#     4  10  20  32  47  66  88 116 152 189 228 274
#     4  10  21  35  49  66  89 118 154 193 232 273
#     4   9  16  25  38  56  80 111 146 180 210 250
#     4  10  19  30  45  66  91 119 149 185 228 276
#     4  10  18  28  43  60  83 116 149 183 225 267
#
# _framework density 16.289459000000001
#
# number of rings (size 3 to 8) (size 9 to 14) (size 15 to 20)
#    0.000    2.429    1.429    3.000    0.000    6.571 
#    0.000    0.000    0.000    0.000    0.000    0.000 
#    0.000    1.143    0.000   10.286    0.000    6.429 
#
# Total GULP energy -694266.595368 kJ/mol
# GULP energy per Si atom -12397.617774 kJ/mol
# Density = 1.625238 g / cm^3
# Si number density = 16.289459 Si / 1000 Ang^3
#
#
#
# Elastic Constant Matrix: (Units=GPa)
#
#
# Indices 1 2 3 4 5 6 
#
# 1 111.6445 25.6274 73.9669 0.0000 0.0000 0.0000
# 2 25.6274 41.0887 28.6360 0.0000 0.0000 0.0000
# 3 73.9669 28.6360 145.8235 0.0000 0.0000 0.0000
# 4 0.0000 0.0000 0.0000 12.5927 0.0000 0.0000
# 5 0.0000 0.0000 0.0000 0.0000 34.9532 0.0000
# 6 0.0000 0.0000 0.0000 0.0000 0.0000 13.5456
#
#
#
# Elastic Compliance Matrix: (Units=1/GPa)
#
#
# Indices 1 2 3 4 5 6 
#
# 1 0.014154 -0.004431 -0.006309 0.000000 0.000000 0.000000
# 2 -0.004431 0.029584 -0.003562 0.000000 0.000000 0.000000
# 3 -0.006309 -0.003562 0.010757 0.000000 0.000000 0.000000
# 4 0.000000 0.000000 0.000000 0.079411 0.000000 0.000000
# 5 0.000000 0.000000 0.000000 0.000000 0.028610 0.000000
# 6 0.000000 0.000000 0.000000 0.000000 0.000000 0.073825
#
#
# Mechanical properties :
#
#
# Convention : Reuss Voigt Hill
#
# Bulk Modulus (GPa) = 38.62382 61.66856 50.14619
# Shear Modulus (GPa) = 18.27648 23.57338 20.92493
#
# Velocity S-wave (km/s) = 3.35323 3.80828 3.58798
# Velocity P-wave (km/s) = 6.22532 7.56819 6.92936
#
# Compressibility (1/GPa) = 0.02589076
#
# Stress axis : x y z
#
# Youngs Moduli (GPa) = 70.65037 33.80250 92.95890
#
# Poissons Ratio (x) = 0.14977 0.58652
# Poissons Ratio (y) = 0.31304 0.33112
# Poissons Ratio (z) = 0.44576 0.12040
#
# Static dielectric constant tensor:
#      x y z
#    x 3.263340 0.000000 0.000000 
#    y 0.000000 2.470130 0.000000 
#    z 0.000000 0.000000 3.543650 
# 
# 
# High freq. dielectric constant tensor:
#      x y z
#    x 1.643680 0.000000 0.000000 
#    y 0.000000 1.543460 0.000000 
#    z 0.000000 0.000000 1.647170 
# 
# From -- ./inp_files/26062.got.cif
#   From: 2010.03.12/outbox.cif.g09.slc.cpg/sg59_14_cif.got.tgz:26062.got - 2010.04.16 16:29:54.
