data_PCOD8239210
_publ_section_title
;
Structure prediction by ZEFSAII (Michael W. Deem and Ramdas Pophale) SiO2 
 PCOD8239210
Probable space group: P M M N
;
_chemical_formula_sum "Si O2"
_cell_formula_units_Z 64
_cell_length_a 9.482547
_cell_length_b 26.534792
_cell_length_c 17.094042
_cell_angle_alpha 90.000000
_cell_angle_beta 90.000000
_cell_angle_gamma 90.000000
_cell_volume 4301.158613
_symmetry_space_group_name_H-M "P M M N"
_symmetry_group_IT_number 59
_space_group.IT_coordinate_system_code '2'
_symmetry_cell_setting 'orthorhombic'
loop_
_space_group_symop_operation_xyz
x,y,z
1/2-x,1/2-y,z
1/2+x,-y,-z
-x,1/2+y,-z
-x,-y,-z
1/2+x,1/2+y,-z
1/2-x,y,z
x,1/2-y,z
loop_
_atom_site_type_symbol
_atom_site_label
_atom_site_fract_x
_atom_site_fract_y
_atom_site_fract_z
Si Si1 0.412864 0.604993 0.482662
Si Si2 0.912976 0.439824 0.674191
Si Si3 0.091028 0.452038 0.986209
Si Si4 0.914523 0.932250 0.847143
Si Si5 0.591819 0.542159 0.591440
Si Si6 0.091724 0.134009 0.291158
Si Si7 0.915736 0.965125 0.182502
Si Si8 0.084851 0.693136 0.593747
O O1 0.250000 0.595828 0.501713
O O2 0.437893 0.605418 0.388724
O O3 0.492926 0.557025 0.519047
O O4 0.463928 0.657738 0.521094
O O5 0.750000 0.441834 0.701162
O O6 0.959766 0.491011 0.631361
O O7 0.012505 0.432002 0.749263
O O8 0.250000 0.471508 0.989171
O O9 0.061126 0.432136 0.897916
O O10 0.063404 0.415499 0.061132
O O11 0.000000 0.500000 0.000000
O O12 0.750000 0.945969 0.830042
O O13 0.957857 0.883608 0.795491
O O14 0.009400 0.980449 0.824490
O O15 0.750000 0.535980 0.558934
O O16 0.582817 0.584658 0.656588
O O17 0.250000 0.156089 0.289265
O O18 0.990421 0.177016 0.325580
O O19 0.750000 0.972999 0.200330
O O20 0.250000 0.688492 0.609061
O O21 0.041094 0.750000 0.572026
#
# Coordination Sequence:
#
# PCOD8239210 Si02
#       8
#     8   8   8   8   8   8   8   8
#     4   9  18  29  42  58  74 100 136 166 198 243
#     4  10  18  28  39  53  78 109 138 166 199 237
#     4   8  15  25  37  53  75 106 139 166 192 224
#     4   9  15  27  42  55  79 110 137 167 201 232
#     4   9  16  26  38  54  78 104 130 162 200 234
#     4   9  16  26  42  62  80 103 135 165 195 237
#     4  10  18  25  36  57  81 108 142 171 195 228
#     4   9  18  32  46  60  81 104 126 162 210 248
#
# _framework density 14.879711
#
# number of rings (size 3 to 8) (size 9 to 14) (size 15 to 20)
#    0.000    2.875    1.250    0.750    0.000    2.250 
#    0.000    0.000    0.000    0.000    0.000    0.000 
#    0.000    1.000    0.000    7.000    0.000    1.250 
#
# Total GULP energy -792877.681001 kJ/mol
# GULP energy per Si atom -12388.713766 kJ/mol
# Density = 1.484584 g / cm^3
# Si number density = 14.879711 Si / 1000 Ang^3
#
#
#
# Elastic Constant Matrix: (Units=GPa)
#
#
# Indices 1 2 3 4 5 6 
#
# 1 48.8025 19.0893 46.3386 0.0000 0.0000 0.0000
# 2 19.0893 46.4329 33.7964 0.0000 0.0000 0.0000
# 3 46.3386 33.7964 123.5722 0.0000 0.0000 0.0000
# 4 0.0000 0.0000 0.0000 13.3682 0.0000 0.0000
# 5 0.0000 0.0000 0.0000 0.0000 24.0487 0.0000
# 6 0.0000 0.0000 0.0000 0.0000 0.0000 13.2770
#
#
#
# Elastic Compliance Matrix: (Units=1/GPa)
#
#
# Indices 1 2 3 4 5 6 
#
# 1 0.032983 -0.005690 -0.010812 0.000000 0.000000 0.000000
# 2 -0.005690 0.027871 -0.005489 0.000000 0.000000 0.000000
# 3 -0.010812 -0.005489 0.013648 0.000000 0.000000 0.000000
# 4 0.000000 0.000000 0.000000 0.074805 0.000000 0.000000
# 5 0.000000 0.000000 0.000000 0.000000 0.041582 0.000000
# 6 0.000000 0.000000 0.000000 0.000000 0.000000 0.075318
#
#
# Mechanical properties :
#
#
# Convention : Reuss Voigt Hill
#
# Bulk Modulus (GPa) = 32.76583 46.36180 39.56381
# Shear Modulus (GPa) = 15.60735 18.11097 16.85916
#
# Velocity S-wave (km/s) = 3.24219 3.49257 3.36970
# Velocity P-wave (km/s) = 6.00700 6.89125 6.46426
#
# Compressibility (1/GPa) = 0.03051960
#
# Stress axis : x y z
#
# Youngs Moduli (GPa) = 30.31902 35.87987 73.27078
#
# Poissons Ratio (x) = 0.20416 0.79220
# Poissons Ratio (y) = 0.17252 0.40217
# Poissons Ratio (z) = 0.32781 0.19694
#
# Static dielectric constant tensor:
#      x y z
#    x 2.969660 0.000000 0.000000 
#    y 0.000000 2.457600 0.000000 
#    z 0.000000 0.000000 3.461290 
# 
# 
# High freq. dielectric constant tensor:
#      x y z
#    x 1.575250 0.000000 0.000000 
#    y 0.000000 1.508060 0.000000 
#    z 0.000000 0.000000 1.578950 
# 
# From -- ./inp_files/26614.got.cif
#   From: 2010.03.12/outbox.cif.g09.slc.cpg/sg59_14_cif.got.tgz:26614.got - 2010.04.16 16:29:54.
