data_PCOD8239725
_publ_section_title
;
Structure prediction by ZEFSAII (Michael W. Deem and Ramdas Pophale) SiO2 
 PCOD8239725
Probable space group: P M M N
;
_chemical_formula_sum "Si O2"
_cell_formula_units_Z 64
_cell_length_a 8.989641
_cell_length_b 20.030778
_cell_length_c 20.038443
_cell_angle_alpha 90.000000
_cell_angle_beta 90.000000
_cell_angle_gamma 90.000000
_cell_volume 3608.312475
_symmetry_space_group_name_H-M "P M M N"
_symmetry_group_IT_number 59
_space_group.IT_coordinate_system_code '2'
_symmetry_cell_setting 'orthorhombic'
loop_
_space_group_symop_operation_xyz
x,y,z
1/2-x,1/2-y,z
1/2+x,-y,-z
-x,1/2+y,-z
-x,-y,-z
1/2+x,1/2+y,-z
1/2-x,y,z
x,1/2-y,z
loop_
_atom_site_type_symbol
_atom_site_label
_atom_site_fract_x
_atom_site_fract_y
_atom_site_fract_z
Si Si1 0.576668 0.431225 0.481156
Si Si2 0.926870 0.176298 0.585234
Si Si3 0.577583 0.430215 0.985289
Si Si4 0.423724 0.917716 0.302088
Si Si5 0.578504 0.448726 0.333732
Si Si6 0.075157 0.594489 0.808659
Si Si7 0.076412 0.172587 0.081753
Si Si8 0.920682 0.040123 0.839393
O O1 0.500000 0.500000 0.500000
O O2 0.750000 0.441242 0.495446
O O3 0.512140 0.371008 0.525987
O O4 0.548010 0.411107 0.403591
O O5 0.750000 0.180795 0.581253
O O6 0.996952 0.250000 0.577316
O O7 0.979158 0.147161 0.657217
O O8 0.750000 0.434213 0.006419
O O9 0.559580 0.416276 0.906111
O O10 0.500000 0.500000 0.000000
O O11 0.501034 0.369732 0.023697
O O12 0.250000 0.925121 0.312002
O O13 0.466516 0.913376 0.223682
O O14 0.491240 0.982518 0.336369
O O15 0.750000 0.467629 0.324936
O O16 0.529964 0.403850 0.269908
O O17 0.250000 0.603333 0.819430
O O18 0.991407 0.654525 0.845953
O O19 0.025057 0.524845 0.842151
O O20 0.250000 0.155562 0.082134
O O21 0.046039 0.250000 0.067216
O O22 0.750000 0.015389 0.832160
#
# Coordination Sequence:
#
# PCOD8239725 Si02
#       8
#     8   8   8   8   8   8   8   8
#     4  10  18  30  49  74 103 134 173 215 258 307
#     4   9  17  29  47  72 101 134 172 211 254 304
#     4  11  21  34  55  82 111 141 176 219 267 321
#     4   9  16  29  49  73  98 130 169 207 251 304
#     4   9  18  30  47  75 105 128 163 215 264 307
#     4  10  19  32  52  77 103 134 171 216 268 321
#     4  11  24  40  56  76 106 144 183 225 273 323
#     4   9  18  31  50  77 106 131 165 212 260 309
#
# _framework density 17.736823999999999
#
# number of rings (size 3 to 8) (size 9 to 14) (size 15 to 20)
#    0.000    2.250    2.500    1.125    0.000    2.000 
#    0.000    1.250    0.000    6.000    0.000    0.000 
#    0.000    0.000    0.000    0.000    0.000    0.000 
#
# Total GULP energy -793354.111482 kJ/mol
# GULP energy per Si atom -12396.157992 kJ/mol
# Density = 1.769645 g / cm^3
# Si number density = 17.736824 Si / 1000 Ang^3
#
#
#
# Elastic Constant Matrix: (Units=GPa)
#
#
# Indices 1 2 3 4 5 6 
#
# 1 64.9273 43.9131 40.4427 0.0000 0.0000 0.0000
# 2 43.9131 119.6288 71.6135 0.0000 0.0000 0.0000
# 3 40.4427 71.6135 135.0332 0.0000 0.0000 0.0000
# 4 0.0000 0.0000 0.0000 28.2318 0.0000 0.0000
# 5 0.0000 0.0000 0.0000 0.0000 20.7860 0.0000
# 6 0.0000 0.0000 0.0000 0.0000 0.0000 21.6361
#
#
#
# Elastic Compliance Matrix: (Units=1/GPa)
#
#
# Indices 1 2 3 4 5 6 
#
# 1 0.021444 -0.005900 -0.003293 0.000000 0.000000 0.000000
# 2 -0.005900 0.013871 -0.005589 0.000000 0.000000 0.000000
# 3 -0.003293 -0.005589 0.011356 0.000000 0.000000 0.000000
# 4 0.000000 0.000000 0.000000 0.035421 0.000000 0.000000
# 5 0.000000 0.000000 0.000000 0.000000 0.048109 0.000000
# 6 0.000000 0.000000 0.000000 0.000000 0.000000 0.046219
#
#
# Mechanical properties :
#
#
# Convention : Reuss Voigt Hill
#
# Bulk Modulus (GPa) = 58.46086 70.16976 64.31531
# Shear Modulus (GPa) = 23.61980 25.03880 24.32930
#
# Velocity S-wave (km/s) = 3.65318 3.76132 3.70764
# Velocity P-wave (km/s) = 7.12924 7.64924 7.39381
#
# Compressibility (1/GPa) = 0.01710546
#
# Stress axis : x y z
#
# Youngs Moduli (GPa) = 46.63376 72.09395 88.05805
#
# Poissons Ratio (x) = 0.42535 0.29002
# Poissons Ratio (y) = 0.27514 0.49217
# Poissons Ratio (z) = 0.15359 0.40295
#
# Static dielectric constant tensor:
#      x y z
#    x 3.248620 0.000000 0.000000 
#    y 0.000000 3.171340 0.000000 
#    z 0.000000 0.000000 3.822030 
# 
# 
# High freq. dielectric constant tensor:
#      x y z
#    x 1.677600 0.000000 0.000000 
#    y 0.000000 1.651940 0.000000 
#    z 0.000000 0.000000 1.707640 
# 
# From -- ./inp_files/29418.got.cif
#   From: 2010.03.12/outbox.cif.g09.slc.cpg/sg59_15_cif.got.tgz:29418.got - 2010.04.16 16:29:54.
