data_PCOD8239083
_publ_section_title
;
Structure prediction by ZEFSAII (Michael W. Deem and Ramdas Pophale) SiO2 
 PCOD8239083
Probable space group: P M M N
;
_chemical_formula_sum "Si O2"
_cell_formula_units_Z 56
_cell_length_a 9.043266
_cell_length_b 21.638361
_cell_length_c 17.546937
_cell_angle_alpha 90.000000
_cell_angle_beta 90.000000
_cell_angle_gamma 90.000000
_cell_volume 3433.610151
_symmetry_space_group_name_H-M "P M M N"
_symmetry_group_IT_number 59
_space_group.IT_coordinate_system_code '2'
_symmetry_cell_setting 'orthorhombic'
loop_
_space_group_symop_operation_xyz
x,y,z
1/2-x,1/2-y,z
1/2+x,-y,-z
-x,1/2+y,-z
-x,-y,-z
1/2+x,1/2+y,-z
1/2-x,y,z
x,1/2-y,z
loop_
_atom_site_type_symbol
_atom_site_label
_atom_site_fract_x
_atom_site_fract_y
_atom_site_fract_z
Si Si1 0.579106 0.896074 0.702125
Si Si2 0.416448 0.583786 0.554720
Si Si3 0.423308 0.456035 0.894382
Si Si4 0.923142 0.463450 0.739532
Si Si5 0.422829 0.911214 0.960964
Si Si6 0.079176 0.322366 0.150583
Si Si7 0.082807 0.060565 0.590653
O O1 0.750000 0.890738 0.679827
O O2 0.487152 0.880341 0.626232
O O3 0.532209 0.847308 0.766504
O O4 0.542082 0.964007 0.733257
O O5 0.250000 0.607508 0.543195
O O6 0.420437 0.511324 0.570986
O O7 0.507858 0.598695 0.478131
O O8 0.250000 0.443412 0.888356
O O9 0.499909 0.437851 0.815318
O O10 0.459016 0.527255 0.913204
O O11 0.491033 0.412225 0.959214
O O12 0.750000 0.449659 0.743082
O O13 0.991490 0.427105 0.667734
O O14 0.250000 0.904891 0.977887
O O15 0.478444 0.852495 0.914045
O O16 0.250000 0.339372 0.134710
O O17 0.050134 0.250000 0.148911
O O18 0.250000 0.084159 0.601445
#
# Coordination Sequence:
#
# PCOD8239083 Si02
#       7
#     8   8   8   8   8   8   8
#     4   9  17  28  42  60  84 116 151 186 225 268
#     4   9  16  25  38  56  80 112 148 182 215 256
#     4  10  19  30  46  66  90 119 152 189 231 282
#     4  10  17  26  42  63  89 118 150 186 224 270
#     4  10  20  32  47  66  89 117 152 192 235 279
#     4  10  20  34  50  67  90 121 157 195 234 277
#     4   9  16  25  37  56  84 115 146 178 215 259
#
# _framework density 16.309363000000001
#
# number of rings (size 3 to 8) (size 9 to 14) (size 15 to 20)
#    0.000    2.429    1.429    2.143    0.000    6.000 
#    0.000    0.000    0.000    0.000    0.000    0.000 
#    0.000    1.143    0.000    6.857    0.000    5.286 
#
# Total GULP energy -694501.922522 kJ/mol
# GULP energy per Si atom -12401.820045 kJ/mol
# Density = 1.627224 g / cm^3
# Si number density = 16.309363 Si / 1000 Ang^3
#
#
#
# Elastic Constant Matrix: (Units=GPa)
#
#
# Indices 1 2 3 4 5 6 
#
# 1 110.3023 24.0851 78.5541 0.0000 0.0000 0.0000
# 2 24.0851 37.0770 32.2209 0.0000 0.0000 0.0000
# 3 78.5541 32.2209 152.2709 0.0000 0.0000 0.0000
# 4 0.0000 0.0000 0.0000 14.1241 0.0000 0.0000
# 5 0.0000 0.0000 0.0000 0.0000 37.9289 0.0000
# 6 0.0000 0.0000 0.0000 0.0000 0.0000 14.1487
#
#
#
# Elastic Compliance Matrix: (Units=1/GPa)
#
#
# Indices 1 2 3 4 5 6 
#
# 1 0.014720 -0.003630 -0.006825 0.000000 0.000000 0.000000
# 2 -0.003630 0.033943 -0.005310 0.000000 0.000000 0.000000
# 3 -0.006825 -0.005310 0.011212 0.000000 0.000000 0.000000
# 4 0.000000 0.000000 0.000000 0.070801 0.000000 0.000000
# 5 0.000000 0.000000 0.000000 0.000000 0.026365 0.000000
# 6 0.000000 0.000000 0.000000 0.000000 0.000000 0.070678
#
#
# Mechanical properties :
#
#
# Convention : Reuss Voigt Hill
#
# Bulk Modulus (GPa) = 35.28076 63.26337 49.27206
# Shear Modulus (GPa) = 18.60827 24.22634 21.41730
#
# Velocity S-wave (km/s) = 3.38147 3.85830 3.62773
# Velocity P-wave (km/s) = 6.07659 7.66306 6.91547
#
# Compressibility (1/GPa) = 0.02834406
#
# Stress axis : x y z
#
# Youngs Moduli (GPa) = 67.93689 29.46078 89.19104
#
# Poissons Ratio (x) = 0.10695 0.60876
# Poissons Ratio (y) = 0.24663 0.47358
# Poissons Ratio (z) = 0.46370 0.15643
#
# Static dielectric constant tensor:
#      x y z
#    x 3.186830 0.000000 0.000000 
#    y 0.000000 2.502820 0.000000 
#    z 0.000000 0.000000 3.218320 
# 
# 
# High freq. dielectric constant tensor:
#      x y z
#    x 1.642650 0.000000 0.000000 
#    y 0.000000 1.551820 0.000000 
#    z 0.000000 0.000000 1.641750 
# 
# From -- ./inp_files/26069.got.cif
#   From: 2010.03.12/outbox.cif.g09.slc.cpg/sg59_14_cif.got.tgz:26069.got - 2010.04.16 16:29:54.
