data_PCOD8239033
_publ_section_title
;
Structure prediction by ZEFSAII (Michael W. Deem and Ramdas Pophale) SiO2 
 PCOD8239033
Probable space group: P M M N
;
_chemical_formula_sum "Si O2"
_cell_formula_units_Z 56
_cell_length_a 21.654786
_cell_length_b 9.027740
_cell_length_c 14.905781
_cell_angle_alpha 90.000000
_cell_angle_beta 90.000000
_cell_angle_gamma 90.000000
_cell_volume 2913.987438
_symmetry_space_group_name_H-M "P M M N"
_symmetry_group_IT_number 59
_space_group.IT_coordinate_system_code '2'
_symmetry_cell_setting 'orthorhombic'
loop_
_space_group_symop_operation_xyz
x,y,z
1/2-x,1/2-y,z
1/2+x,-y,-z
-x,1/2+y,-z
-x,-y,-z
1/2+x,1/2+y,-z
1/2-x,y,z
x,1/2-y,z
loop_
_atom_site_type_symbol
_atom_site_label
_atom_site_fract_x
_atom_site_fract_y
_atom_site_fract_z
Si Si1 0.750000 0.074408 0.437694
Si Si2 0.821581 0.077123 0.773529
Si Si3 0.044933 0.424636 0.703309
Si Si4 0.872683 0.579802 0.464333
Si Si5 0.678076 0.578313 0.955813
Si Si6 0.367513 0.424511 0.857815
Si Si7 0.580297 0.920362 0.655814
Si Si8 0.250000 0.426934 0.753064
O O1 0.750000 0.250000 0.439121
O O2 0.687935 0.016944 0.485934
O O3 0.750000 0.008203 0.339977
O O4 0.750000 0.041520 0.755824
O O5 0.835817 0.250000 0.770505
O O6 0.842033 0.017323 0.870602
O O7 0.859474 0.997159 0.696213
O O8 0.033548 0.250000 0.695262
O O9 0.092249 0.476023 0.625250
O O10 0.071395 0.469240 0.801870
O O11 0.980737 0.506709 0.694851
O O12 0.852138 0.750000 0.451759
O O13 0.918761 0.561294 0.548314
O O14 0.750000 0.554245 0.980955
O O15 0.665538 0.750000 0.933912
O O16 0.635253 0.520539 0.038841
O O17 0.359868 0.250000 0.860083
O O18 0.309048 0.487960 0.805290
O O19 0.580871 0.750000 0.684524
O O20 0.250000 0.250000 0.738549
#
# Coordination Sequence:
#
# PCOD8239033 Si02
#       8
#     4   8   8   8   8   8   8   4
#     4  12  24  34  52  87 122 149 184 239 288 324
#     4  10  22  40  60  83 113 147 184 234 292 343
#     4  10  20  37  60  84 115 155 190 226 277 340
#     4  10  22  40  61  82 112 154 194 231 280 340
#     4   9  16  30  56  88 115 143 185 234 279 331
#     4   9  16  29  57  88 114 150 191 227 272 334
#     4  11  24  40  60  84 110 146 194 241 282 332
#     4  10  16  32  56  79 116 157 192 225 272 342
#
# _framework density 19.217652999999999
#
# number of rings (size 3 to 8) (size 9 to 14) (size 15 to 20)
#    0.000    2.000    2.143    1.929    1.000    2.571 
#    0.000    2.143    0.000    0.000    0.000    0.000 
#    0.000    0.000    0.000    0.000    0.000    0.000 
#
# Total GULP energy -694344.774770 kJ/mol
# GULP energy per Si atom -12399.013835 kJ/mol
# Density = 1.917391 g / cm^3
# Si number density = 19.217653 Si / 1000 Ang^3
#
#
#
# Elastic Constant Matrix: (Units=GPa)
#
#
# Indices 1 2 3 4 5 6 
#
# 1 85.6106 41.5357 31.1892 0.0000 0.0000 0.0000
# 2 41.5357 73.9697 30.7915 0.0000 0.0000 0.0000
# 3 31.1892 30.7915 92.1432 0.0000 0.0000 0.0000
# 4 0.0000 0.0000 0.0000 18.6386 0.0000 0.0000
# 5 0.0000 0.0000 0.0000 0.0000 48.0730 0.0000
# 6 0.0000 0.0000 0.0000 0.0000 0.0000 25.7913
#
#
#
# Elastic Compliance Matrix: (Units=1/GPa)
#
#
# Indices 1 2 3 4 5 6 
#
# 1 0.016708 -0.008163 -0.002927 0.000000 0.000000 0.000000
# 2 -0.008163 0.019692 -0.003817 0.000000 0.000000 0.000000
# 3 -0.002927 -0.003817 0.013119 0.000000 0.000000 0.000000
# 4 0.000000 0.000000 0.000000 0.053652 0.000000 0.000000
# 5 0.000000 0.000000 0.000000 0.000000 0.020802 0.000000
# 6 0.000000 0.000000 0.000000 0.000000 0.000000 0.038773
#
#
# Mechanical properties :
#
#
# Convention : Reuss Voigt Hill
#
# Bulk Modulus (GPa) = 50.75371 50.97289 50.86330
# Shear Modulus (GPa) = 25.10934 28.38107 26.74520
#
# Velocity S-wave (km/s) = 3.61858 3.84711 3.73460
# Velocity P-wave (km/s) = 6.62768 6.80553 6.71719
#
# Compressibility (1/GPa) = 0.01970299
#
# Stress axis : x y z
#
# Youngs Moduli (GPa) = 59.85202 50.78221 76.22405
#
# Poissons Ratio (x) = 0.41455 0.22314
# Poissons Ratio (y) = 0.48859 0.29097
# Poissons Ratio (z) = 0.17522 0.19385
#
# Static dielectric constant tensor:
#      x y z
#    x 4.330070 0.000000 0.000000 
#    y 0.000000 3.326910 0.000000 
#    z 0.000000 0.000000 3.685910 
# 
# 
# High freq. dielectric constant tensor:
#      x y z
#    x 1.737480 0.000000 0.000000 
#    y 0.000000 1.726550 0.000000 
#    z 0.000000 0.000000 1.756670 
# 
# From -- ./inp_files/24367.got.cif
#   From: 2010.03.12/outbox.cif.g09.slc.cpg/sg59_13_cif.got.tgz:24367.got - 2010.04.16 16:29:54.
