data_PCOD8239736
_publ_section_title
;
Structure prediction by ZEFSAII (Michael W. Deem and Ramdas Pophale) SiO2 
 PCOD8239736
Probable space group: P M M N
;
_chemical_formula_sum "Si O2"
_cell_formula_units_Z 64
_cell_length_a 23.129951
_cell_length_b 8.875880
_cell_length_c 16.258452
_cell_angle_alpha 90.000000
_cell_angle_beta 90.000000
_cell_angle_gamma 90.000000
_cell_volume 3337.838563
_symmetry_space_group_name_H-M "P M M N"
_symmetry_group_IT_number 59
_space_group.IT_coordinate_system_code '2'
_symmetry_cell_setting 'orthorhombic'
loop_
_space_group_symop_operation_xyz
x,y,z
1/2-x,1/2-y,z
1/2+x,-y,-z
-x,1/2+y,-z
-x,-y,-z
1/2+x,1/2+y,-z
1/2-x,y,z
x,1/2-y,z
loop_
_atom_site_type_symbol
_atom_site_label
_atom_site_fract_x
_atom_site_fract_y
_atom_site_fract_z
Si Si1 0.393769 0.581644 0.973401
Si Si2 0.942241 0.573695 0.606687
Si Si3 0.523001 0.574430 0.143493
Si Si4 0.313728 0.915081 0.818315
Si Si5 0.682949 0.928655 0.888697
Si Si6 0.394183 0.076828 0.711722
Si Si7 0.071841 0.574845 0.555877
Si Si8 0.095903 0.926712 0.223903
O O1 0.407636 0.750000 0.008541
O O2 0.453588 0.509103 0.938699
O O3 0.351126 0.592243 0.898662
O O4 0.359806 0.483728 0.039928
O O5 0.931889 0.750000 0.618600
O O6 0.908459 0.513929 0.526131
O O7 0.921096 0.489329 0.687465
O O8 0.008284 0.531059 0.588224
O O9 0.536148 0.750000 0.131508
O O10 0.554690 0.519404 0.227347
O O11 0.454847 0.540261 0.156190
O O12 0.250000 0.958008 0.846897
O O13 0.316318 0.750000 0.774948
O O14 0.334126 0.047585 0.758095
O O15 0.750000 0.983601 0.898823
O O16 0.681241 0.750000 0.885047
O O17 0.655612 0.995507 0.804750
O O18 0.402499 0.250000 0.687719
O O19 0.387887 0.977674 0.630058
O O20 0.078230 0.750000 0.537302
O O21 0.105986 0.750000 0.232890
#
# Coordination Sequence:
#
# PCOD8239736 Si02
#       8
#     8   8   8   8   8   8   8   8
#     4  10  20  35  58  84 110 142 183 230 278 329
#     4  10  20  33  53  81 113 146 181 222 270 323
#     4   9  19  34  53  81 116 149 179 217 274 333
#     4   9  18  32  50  74 105 141 182 226 272 325
#     4  11  25  43  61  81 107 143 189 237 282 329
#     4  10  18  30  49  75 110 145 181 224 267 321
#     4  10  19  31  51  79 112 148 184 220 265 323
#     4  11  22  38  60  84 114 147 184 230 277 332
#
# _framework density 19.174085000000002
#
# number of rings (size 3 to 8) (size 9 to 14) (size 15 to 20)
#    0.000    2.000    1.250    2.625    0.000    5.250 
#    0.000    0.000    0.000    0.750    0.000    0.000 
#    0.000    0.000    0.000    0.000    0.000    0.000 
#
# Total GULP energy -793310.442227 kJ/mol
# GULP energy per Si atom -12395.475660 kJ/mol
# Density = 1.913044 g / cm^3
# Si number density = 19.174085 Si / 1000 Ang^3
#
#
#
# Elastic Constant Matrix: (Units=GPa)
#
#
# Indices 1 2 3 4 5 6 
#
# 1 72.5539 34.2787 40.6398 0.0000 0.0000 0.0000
# 2 34.2787 82.1021 49.0678 0.0000 0.0000 0.0000
# 3 40.6398 49.0678 89.7364 0.0000 0.0000 0.0000
# 4 0.0000 0.0000 0.0000 37.7043 0.0000 0.0000
# 5 0.0000 0.0000 0.0000 0.0000 6.7669 0.0000
# 6 0.0000 0.0000 0.0000 0.0000 0.0000 25.3239
#
#
#
# Elastic Compliance Matrix: (Units=1/GPa)
#
#
# Indices 1 2 3 4 5 6 
#
# 1 0.019410 -0.004234 -0.006475 0.000000 0.000000 0.000000
# 2 -0.004234 0.019016 -0.008480 0.000000 0.000000 0.000000
# 3 -0.006475 -0.008480 0.018713 0.000000 0.000000 0.000000
# 4 0.000000 0.000000 0.000000 0.026522 0.000000 0.000000
# 5 0.000000 0.000000 0.000000 0.000000 0.147779 0.000000
# 6 0.000000 0.000000 0.000000 0.000000 0.000000 0.039488
#
#
# Mechanical properties :
#
#
# Convention : Reuss Voigt Hill
#
# Bulk Modulus (GPa) = 53.30484 54.70722 54.00603
# Shear Modulus (GPa) = 15.84474 21.98609 18.91542
#
# Velocity S-wave (km/s) = 2.87777 3.38991 3.14428
# Velocity P-wave (km/s) = 6.23722 6.62690 6.43501
#
# Compressibility (1/GPa) = 0.01876002
#
# Stress axis : x y z
#
# Youngs Moduli (GPa) = 51.51887 52.58726 53.43771
#
# Poissons Ratio (x) = 0.22266 0.34603
# Poissons Ratio (y) = 0.21814 0.45317
# Poissons Ratio (z) = 0.33360 0.44596
#
# Static dielectric constant tensor:
#      x y z
#    x 3.485370 0.000000 0.000000 
#    y 0.000000 3.638840 0.000000 
#    z 0.000000 0.000000 3.634080 
# 
# 
# High freq. dielectric constant tensor:
#      x y z
#    x 1.720510 0.000000 0.000000 
#    y 0.000000 1.753370 0.000000 
#    z 0.000000 0.000000 1.747500 
# 
# From -- ./inp_files/24721.got.cif
#   From: 2010.03.12/outbox.cif.g09.slc.cpg/sg59_13_cif.got.tgz:24721.got - 2010.04.16 16:29:54.
