data_PCOD8239254
_publ_section_title
;
Structure prediction by ZEFSAII (Michael W. Deem and Ramdas Pophale) SiO2 
 PCOD8239254
Probable space group: P M M N
;
_chemical_formula_sum "Si O2"
_cell_formula_units_Z 64
_cell_length_a 9.093320
_cell_length_b 22.049344
_cell_length_c 20.181962
_cell_angle_alpha 90.000000
_cell_angle_beta 90.000000
_cell_angle_gamma 90.000000
_cell_volume 4046.518513
_symmetry_space_group_name_H-M "P M M N"
_symmetry_group_IT_number 59
_space_group.IT_coordinate_system_code '2'
_symmetry_cell_setting 'orthorhombic'
loop_
_space_group_symop_operation_xyz
x,y,z
1/2-x,1/2-y,z
1/2+x,-y,-z
-x,1/2+y,-z
-x,-y,-z
1/2+x,1/2+y,-z
1/2-x,y,z
x,1/2-y,z
loop_
_atom_site_type_symbol
_atom_site_label
_atom_site_fract_x
_atom_site_fract_y
_atom_site_fract_z
Si Si1 0.076397 0.028433 0.726395
Si Si2 0.420782 0.542710 0.407088
Si Si3 0.578777 0.389559 0.248021
Si Si4 0.916988 0.447815 0.855456
Si Si5 0.422806 0.062149 0.981904
Si Si6 0.919979 0.586589 0.529864
Si Si7 0.087018 0.090887 0.122524
Si Si8 0.078917 0.180316 0.360901
O O1 0.250000 0.038743 0.728498
O O2 0.010104 0.056282 0.659557
O O3 0.002623 0.064711 0.787066
O O4 0.035361 0.957319 0.729804
O O5 0.250000 0.556206 0.395081
O O6 0.449524 0.473580 0.427744
O O7 0.481233 0.587240 0.464031
O O8 0.750000 0.378309 0.250756
O O9 0.526177 0.377281 0.172583
O O10 0.504754 0.341214 0.295849
O O11 0.750000 0.423911 0.849851
O O12 0.921782 0.518728 0.870758
O O13 0.000637 0.412029 0.915122
O O14 0.250000 0.051062 0.968988
O O15 0.446682 0.107145 0.045211
O O16 0.500000 0.000000 0.000000
O O17 0.750000 0.591165 0.508711
O O18 0.971583 0.643103 0.574397
O O19 0.250000 0.113446 0.141760
O O20 0.250000 0.169013 0.347699
O O21 0.041332 0.250000 0.374695
#
# Coordination Sequence:
#
# PCOD8239254 Si02
#       8
#     8   8   8   8   8   8   8   8
#     4  10  18  27  40  59  83 111 141 175 213 255
#     4  10  18  28  45  64  84 110 138 176 217 257
#     4  10  19  28  41  60  81 105 138 178 216 253
#     4   9  16  24  35  52  76 106 138 172 207 246
#     4   9  15  23  34  50  72 102 137 172 206 241
#     4   9  18  31  45  63  84 107 137 175 214 260
#     4   8  15  25  37  51  72 103 137 172 206 242
#     4  10  20  34  50  64  82 111 143 176 217 263
#
# _framework density 15.816065
#
# number of rings (size 3 to 8) (size 9 to 14) (size 15 to 20)
#    0.000    2.625    1.250    2.625    0.000    5.750 
#    0.000    0.000    0.000    0.000    0.000    0.000 
#    0.000    0.000    0.000    1.125    0.000   20.125 
#
# Total GULP energy -793390.998221 kJ/mol
# GULP energy per Si atom -12396.734347 kJ/mol
# Density = 1.578007 g / cm^3
# Si number density = 15.816065 Si / 1000 Ang^3
#
#
#
# Elastic Constant Matrix: (Units=GPa)
#
#
# Indices 1 2 3 4 5 6 
#
# 1 90.4477 23.5402 69.6871 0.0000 0.0000 0.0000
# 2 23.5402 38.2744 34.2230 0.0000 0.0000 0.0000
# 3 69.6871 34.2230 149.2235 0.0000 0.0000 0.0000
# 4 0.0000 0.0000 0.0000 11.5462 0.0000 0.0000
# 5 0.0000 0.0000 0.0000 0.0000 34.9050 0.0000
# 6 0.0000 0.0000 0.0000 0.0000 0.0000 11.4535
#
#
#
# Elastic Compliance Matrix: (Units=1/GPa)
#
#
# Indices 1 2 3 4 5 6 
#
# 1 0.017849 -0.004434 -0.007318 0.000000 0.000000 0.000000
# 2 -0.004434 0.033968 -0.005720 0.000000 0.000000 0.000000
# 3 -0.007318 -0.005720 0.011431 0.000000 0.000000 0.000000
# 4 0.000000 0.000000 0.000000 0.086609 0.000000 0.000000
# 5 0.000000 0.000000 0.000000 0.000000 0.028649 0.000000
# 6 0.000000 0.000000 0.000000 0.000000 0.000000 0.087310
#
#
# Mechanical properties :
#
#
# Convention : Reuss Voigt Hill
#
# Bulk Modulus (GPa) = 35.33090 59.20514 47.26802
# Shear Modulus (GPa) = 16.11893 21.61396 18.86644
#
# Velocity S-wave (km/s) = 3.19587 3.70074 3.45754
# Velocity P-wave (km/s) = 6.00044 7.46830 6.77424
#
# Compressibility (1/GPa) = 0.02830384
#
# Stress axis : x y z
#
# Youngs Moduli (GPa) = 56.02637 29.43917 87.48278
#
# Poissons Ratio (x) = 0.13053 0.64024
# Poissons Ratio (y) = 0.24841 0.50038
# Poissons Ratio (z) = 0.41003 0.16838
#
# Static dielectric constant tensor:
#      x y z
#    x 3.115660 0.000000 0.000000 
#    y 0.000000 2.437790 0.000000 
#    z 0.000000 0.000000 3.424410 
# 
# 
# High freq. dielectric constant tensor:
#      x y z
#    x 1.621160 0.000000 0.000000 
#    y 0.000000 1.521470 0.000000 
#    z 0.000000 0.000000 1.625860 
# 
# From -- ./inp_files/26466.got.cif
#   From: 2010.03.12/outbox.cif.g09.slc.cpg/sg59_14_cif.got.tgz:26466.got - 2010.04.16 16:29:54.
