data_PCOD8239707
_publ_section_title
;
Structure prediction by ZEFSAII (Michael W. Deem and Ramdas Pophale) SiO2 
 PCOD8239707
Probable space group: P M M N
;
_chemical_formula_sum "Si O2"
_cell_formula_units_Z 64
_cell_length_a 8.850811
_cell_length_b 19.628303
_cell_length_c 20.962540
_cell_angle_alpha 90.000000
_cell_angle_beta 90.000000
_cell_angle_gamma 90.000000
_cell_volume 3641.746611
_symmetry_space_group_name_H-M "P M M N"
_symmetry_group_IT_number 59
_space_group.IT_coordinate_system_code '2'
_symmetry_cell_setting 'orthorhombic'
loop_
_space_group_symop_operation_xyz
x,y,z
1/2-x,1/2-y,z
1/2+x,-y,-z
-x,1/2+y,-z
-x,-y,-z
1/2+x,1/2+y,-z
1/2-x,y,z
x,1/2-y,z
loop_
_atom_site_type_symbol
_atom_site_label
_atom_site_fract_x
_atom_site_fract_y
_atom_site_fract_z
Si Si1 0.578711 0.674506 0.886430
Si Si2 0.925461 0.535194 0.825352
Si Si3 0.073644 0.827034 0.018496
Si Si4 0.571956 0.959783 0.058928
Si Si5 0.571372 0.824111 0.625919
Si Si6 0.074021 0.964396 0.439348
Si Si7 0.076716 0.825272 0.493458
Si Si8 0.429853 0.040042 0.315696
O O1 0.750000 0.668990 0.913000
O O2 0.551484 0.750000 0.856412
O O3 0.550472 0.616655 0.833656
O O4 0.465512 0.661617 0.944547
O O5 0.750000 0.515878 0.835318
O O6 0.984051 0.516103 0.754296
O O7 0.025447 0.493487 0.874686
O O8 0.250000 0.840668 0.027796
O O9 0.030052 0.750000 0.039701
O O10 0.982288 0.881311 0.060747
O O11 0.750000 0.962736 0.050699
O O12 0.500000 0.000000 0.000000
O O13 0.750000 0.822378 0.628472
O O14 0.505312 0.750000 0.646424
O O15 0.525967 0.841657 0.553949
O O16 0.508981 0.883206 0.672000
O O17 0.250000 0.982057 0.442790
O O18 0.043577 0.883003 0.440556
O O19 0.006873 0.991235 0.371932
O O20 0.000000 0.000000 0.500000
O O21 0.250000 0.829245 0.516074
O O22 0.040142 0.750000 0.465043
O O23 0.250000 0.040023 0.316105
#
# Coordination Sequence:
#
# PCOD8239707 Si02
#       8
#     8   8   8   8   8   8   8   8
#     4   9  17  29  47  72 101 135 174 210 249 304
#     4  10  20  34  51  72 103 141 174 214 260 308
#     4  10  20  34  55  82 109 135 167 212 261 307
#     4  12  23  36  56  80 106 138 176 217 259 307
#     4   9  16  27  45  69  98 131 166 203 245 297
#     4  10  18  30  49  71  96 128 166 211 254 300
#     4   9  17  28  44  68  96 126 162 205 253 300
#     4   9  18  31  47  70 100 133 170 210 256 300
#
# _framework density 17.573983999999999
#
# number of rings (size 3 to 8) (size 9 to 14) (size 15 to 20)
#    0.000    2.250    2.500    1.500    0.000    1.250 
#    0.000    3.750    0.000    0.750    0.000    7.000 
#    0.000    0.000    0.000    0.000    0.000    0.000 
#
# Total GULP energy -793254.029928 kJ/mol
# GULP energy per Si atom -12394.594218 kJ/mol
# Density = 1.753399 g / cm^3
# Si number density = 17.573984 Si / 1000 Ang^3
#
#
#
# Elastic Constant Matrix: (Units=GPa)
#
#
# Indices 1 2 3 4 5 6 
#
# 1 53.5505 37.6863 29.0526 0.0000 0.0000 0.0000
# 2 37.6863 120.8359 68.7246 0.0000 0.0000 0.0000
# 3 29.0526 68.7246 117.9828 0.0000 0.0000 0.0000
# 4 0.0000 0.0000 0.0000 25.1438 0.0000 0.0000
# 5 0.0000 0.0000 0.0000 0.0000 19.9636 0.0000
# 6 0.0000 0.0000 0.0000 0.0000 0.0000 21.8214
#
#
#
# Elastic Compliance Matrix: (Units=1/GPa)
#
#
# Indices 1 2 3 4 5 6 
#
# 1 0.024354 -0.006258 -0.002352 0.000000 0.000000 0.000000
# 2 -0.006258 0.013984 -0.006604 0.000000 0.000000 0.000000
# 3 -0.002352 -0.006604 0.012902 0.000000 0.000000 0.000000
# 4 0.000000 0.000000 0.000000 0.039771 0.000000 0.000000
# 5 0.000000 0.000000 0.000000 0.000000 0.050091 0.000000
# 6 0.000000 0.000000 0.000000 0.000000 0.000000 0.045827
#
#
# Mechanical properties :
#
#
# Convention : Reuss Voigt Hill
#
# Bulk Modulus (GPa) = 48.05103 62.58848 55.31976
# Shear Modulus (GPa) = 22.29216 23.84613 23.06914
#
# Velocity S-wave (km/s) = 3.56543 3.68761 3.62703
# Velocity P-wave (km/s) = 6.65967 7.33641 7.00621
#
# Compressibility (1/GPa) = 0.02081121
#
# Stress axis : x y z
#
# Youngs Moduli (GPa) = 41.06115 71.51208 77.50746
#
# Poissons Ratio (x) = 0.44752 0.18228
# Poissons Ratio (y) = 0.25696 0.51189
# Poissons Ratio (z) = 0.09657 0.47230
#
# Static dielectric constant tensor:
#      x y z
#    x 3.153790 0.000000 0.000000 
#    y 0.000000 3.744020 0.000000 
#    z 0.000000 0.000000 3.151030 
# 
# 
# High freq. dielectric constant tensor:
#      x y z
#    x 1.663630 0.000000 0.000000 
#    y 0.000000 1.691990 0.000000 
#    z 0.000000 0.000000 1.646940 
# 
# From -- ./inp_files/26288.got.cif
#   From: 2010.03.12/outbox.cif.g09.slc.cpg/sg59_14_cif.got.tgz:26288.got - 2010.04.16 16:29:54.
