data_PCOD8239922
_publ_section_title
;
Structure prediction by ZEFSAII (Michael W. Deem and Ramdas Pophale) SiO2 
 PCOD8239922
Probable space group: P M M N
;
_chemical_formula_sum "Si O2"
_cell_formula_units_Z 64
_cell_length_a 8.985377
_cell_length_b 19.322889
_cell_length_c 20.010092
_cell_angle_alpha 90.000000
_cell_angle_beta 90.000000
_cell_angle_gamma 90.000000
_cell_volume 3474.221056
_symmetry_space_group_name_H-M "P M M N"
_symmetry_group_IT_number 59
_space_group.IT_coordinate_system_code '2'
_symmetry_cell_setting 'orthorhombic'
loop_
_space_group_symop_operation_xyz
x,y,z
1/2-x,1/2-y,z
1/2+x,-y,-z
-x,1/2+y,-z
-x,-y,-z
1/2+x,1/2+y,-z
1/2-x,y,z
x,1/2-y,z
loop_
_atom_site_type_symbol
_atom_site_label
_atom_site_fract_x
_atom_site_fract_y
_atom_site_fract_z
Si Si1 0.576862 0.906890 0.466684
Si Si2 0.424775 0.553305 0.596294
Si Si3 0.425128 0.427322 0.898588
Si Si4 0.425508 0.169537 0.019467
Si Si5 0.583133 0.096800 0.767957
Si Si6 0.915728 0.170241 0.639407
Si Si7 0.418553 0.437373 0.265324
Si Si8 0.573055 0.417271 0.130298
O O1 0.750000 0.903450 0.483637
O O2 0.487125 0.900879 0.535669
O O3 0.524779 0.842448 0.422571
O O4 0.535892 0.974339 0.422706
O O5 0.250000 0.565069 0.604246
O O6 0.502698 0.578156 0.664242
O O7 0.250000 0.425255 0.895398
O O8 0.482841 0.381853 0.960872
O O9 0.484978 0.389280 0.832921
O O10 0.479792 0.507780 0.899927
O O11 0.250000 0.161033 0.030610
O O12 0.465434 0.250000 0.004081
O O13 0.510254 0.144803 0.085535
O O14 0.750000 0.122329 0.783653
O O15 0.512648 0.138946 0.706623
O O16 0.581302 0.018127 0.746423
O O17 0.750000 0.137945 0.626732
O O18 0.900511 0.250000 0.651369
O O19 0.250000 0.408049 0.266854
O O20 0.509383 0.403186 0.204392
O O21 0.750000 0.413632 0.133398
#
# Coordination Sequence:
#
# PCOD8239922 Si02
#       8
#     8   8   8   8   8   8   8   8
#     4  10  20  32  49  74 103 135 173 215 258 306
#     4  10  19  31  51  77 105 133 166 215 265 307
#     4   9  19  34  53  77 106 139 175 220 267 314
#     4  10  21  37  55  76 105 140 178 220 268 322
#     4   9  18  31  48  73 103 135 172 212 254 304
#     4  10  20  34  50  69 101 143 181 216 255 304
#     4  10  18  31  53  78 106 136 169 212 262 313
#     4  10  20  34  54  80 108 138 176 221 268 319
#
# _framework density 18.421395
#
# number of rings (size 3 to 8) (size 9 to 14) (size 15 to 20)
#    0.000    2.250    1.250    1.875    0.000    4.000 
#    0.000    0.000    0.000    0.750    0.000    0.000 
#    0.000    0.000    0.000    0.000    0.000    0.000 
#
# Total GULP energy -793516.037332 kJ/mol
# GULP energy per Si atom -12398.688083 kJ/mol
# Density = 1.837947 g / cm^3
# Si number density = 18.421395 Si / 1000 Ang^3
#
#
#
# Elastic Constant Matrix: (Units=GPa)
#
#
# Indices 1 2 3 4 5 6 
#
# 1 56.3650 25.2890 42.5479 0.0000 0.0000 0.0000
# 2 25.2890 39.8422 37.5615 0.0000 0.0000 0.0000
# 3 42.5479 37.5615 136.2310 0.0000 0.0000 0.0000
# 4 0.0000 0.0000 0.0000 13.5577 0.0000 0.0000
# 5 0.0000 0.0000 0.0000 0.0000 39.0302 0.0000
# 6 0.0000 0.0000 0.0000 0.0000 0.0000 19.8584
#
#
#
# Elastic Compliance Matrix: (Units=1/GPa)
#
#
# Indices 1 2 3 4 5 6 
#
# 1 0.027143 -0.012480 -0.005036 0.000000 0.000000 0.000000
# 2 -0.012480 0.039653 -0.007035 0.000000 0.000000 0.000000
# 3 -0.005036 -0.007035 0.010853 0.000000 0.000000 0.000000
# 4 0.000000 0.000000 0.000000 0.073759 0.000000 0.000000
# 5 0.000000 0.000000 0.000000 0.000000 0.025621 0.000000
# 6 0.000000 0.000000 0.000000 0.000000 0.000000 0.050357
#
#
# Mechanical properties :
#
#
# Convention : Reuss Voigt Hill
#
# Bulk Modulus (GPa) = 35.03192 49.24833 42.14012
# Shear Modulus (GPa) = 17.48227 22.95858 20.22042
#
# Velocity S-wave (km/s) = 3.08396 3.53413 3.31669
# Velocity P-wave (km/s) = 5.63377 6.59134 6.13128
#
# Compressibility (1/GPa) = 0.02854539
#
# Stress axis : x y z
#
# Youngs Moduli (GPa) = 36.84247 25.21869 92.13933
#
# Poissons Ratio (x) = 0.31474 0.46403
# Poissons Ratio (y) = 0.45981 0.64822
# Poissons Ratio (z) = 0.18554 0.17742
#
# Static dielectric constant tensor:
#      x y z
#    x 3.458960 0.000000 0.000000 
#    y 0.000000 3.125950 0.000000 
#    z 0.000000 0.000000 3.657440 
# 
# 
# High freq. dielectric constant tensor:
#      x y z
#    x 1.716310 0.000000 0.000000 
#    y 0.000000 1.677280 0.000000 
#    z 0.000000 0.000000 1.724690 
# 
# From -- ./inp_files/26204.got.cif
#   From: 2010.03.12/outbox.cif.g09.slc.cpg/sg59_14_cif.got.tgz:26204.got - 2010.04.16 16:29:54.
