data_PCOD8239333
_publ_section_title
;
Structure prediction by ZEFSAII (Michael W. Deem and Ramdas Pophale) SiO2 
 PCOD8239333
Probable space group: P M M N
;
_chemical_formula_sum "Si O2"
_cell_formula_units_Z 64
_cell_length_a 14.845225
_cell_length_b 15.217303
_cell_length_c 15.576080
_cell_angle_alpha 90.000000
_cell_angle_beta 90.000000
_cell_angle_gamma 90.000000
_cell_volume 3518.703246
_symmetry_space_group_name_H-M "P M M N"
_symmetry_group_IT_number 59
_space_group.IT_coordinate_system_code '2'
_symmetry_cell_setting 'orthorhombic'
loop_
_space_group_symop_operation_xyz
x,y,z
1/2-x,1/2-y,z
1/2+x,-y,-z
-x,1/2+y,-z
-x,-y,-z
1/2+x,1/2+y,-z
1/2-x,y,z
x,1/2-y,z
loop_
_atom_site_type_symbol
_atom_site_label
_atom_site_fract_x
_atom_site_fract_y
_atom_site_fract_z
Si Si1 0.902632 0.092940 0.601803
Si Si2 0.852844 0.976091 0.153088
Si Si3 0.968770 0.154430 0.427631
Si Si4 0.352790 0.650649 0.945267
Si Si5 0.347052 0.081796 0.479288
Si Si6 0.991467 0.147349 0.900810
Si Si7 0.086734 0.018987 0.654084
Si Si8 0.154472 0.649927 0.224642
O O1 0.908779 0.146128 0.513324
O O2 0.847704 0.146696 0.672189
O O3 0.855183 0.000627 0.584275
O O4 0.999653 0.079008 0.644443
O O5 0.750000 0.948811 0.131901
O O6 0.869913 0.078030 0.128301
O O7 0.867482 0.965578 0.254631
O O8 0.917815 0.911310 0.098092
O O9 0.952726 0.250000 0.386578
O O10 0.940336 0.083334 0.357148
O O11 0.072908 0.147820 0.456720
O O12 0.250000 0.640567 0.981860
O O13 0.364595 0.750000 0.908056
O O14 0.428813 0.633395 0.016489
O O15 0.250000 0.127387 0.463284
O O16 0.347404 0.048137 0.577544
O O17 0.018796 0.250000 0.889890
O O18 0.931970 0.107656 0.821807
O O19 0.250000 0.606540 0.195414
O O20 0.155182 0.750000 0.193359
#
# Coordination Sequence:
#
# PCOD8239333 Si02
#       8
#     8   8   8   8   8   8   8   8
#     4   9  16  30  46  64  94 127 163 205 248 298
#     4  11  21  34  55  79 105 138 175 208 248 310
#     4   9  18  30  47  67  92 130 168 208 257 300
#     4   9  19  36  57  81 105 131 168 213 256 301
#     4   9  17  29  46  66  91 128 168 205 248 295
#     4  10  20  35  53  75 108 138 165 208 256 304
#     4   9  18  32  47  66  98 133 166 207 250 298
#     4  10  18  27  46  73  97 125 160 203 254 302
#
# _framework density 18.188518999999999
#
# number of rings (size 3 to 8) (size 9 to 14) (size 15 to 20)
#    0.000    2.500    1.250    3.375    0.000    2.500 
#    0.000    0.000    0.000    8.625    0.000    0.000 
#    0.000    0.000    0.000    0.000    0.000    0.000 
#
# Total GULP energy -792939.306078 kJ/mol
# GULP energy per Si atom -12389.676657 kJ/mol
# Density = 1.814712 g / cm^3
# Si number density = 18.188519 Si / 1000 Ang^3
#
#
#
# Elastic Constant Matrix: (Units=GPa)
#
#
# Indices 1 2 3 4 5 6 
#
# 1 98.1176 24.0518 18.0850 0.0000 0.0000 0.0000
# 2 24.0518 68.7416 5.1218 0.0000 0.0000 0.0000
# 3 18.0850 5.1218 50.2604 0.0000 0.0000 0.0000
# 4 0.0000 0.0000 0.0000 20.8269 0.0000 0.0000
# 5 0.0000 0.0000 0.0000 0.0000 18.2490 0.0000
# 6 0.0000 0.0000 0.0000 0.0000 0.0000 18.1064
#
#
#
# Elastic Compliance Matrix: (Units=1/GPa)
#
#
# Indices 1 2 3 4 5 6 
#
# 1 0.011851 -0.003858 -0.003871 0.000000 0.000000 0.000000
# 2 -0.003858 0.015915 -0.000234 0.000000 0.000000 0.000000
# 3 -0.003871 -0.000234 0.021313 0.000000 0.000000 0.000000
# 4 0.000000 0.000000 0.000000 0.048015 0.000000 0.000000
# 5 0.000000 0.000000 0.000000 0.000000 0.054797 0.000000
# 6 0.000000 0.000000 0.000000 0.000000 0.000000 0.055229
#
#
# Mechanical properties :
#
#
# Convention : Reuss Voigt Hill
#
# Bulk Modulus (GPa) = 30.16306 34.62632 32.39469
# Shear Modulus (GPa) = 21.35868 22.76053 22.05961
#
# Velocity S-wave (km/s) = 3.43052 3.54131 3.48635
# Velocity P-wave (km/s) = 5.68426 5.98330 5.83570
#
# Compressibility (1/GPa) = 0.03315313
#
# Stress axis : x y z
#
# Youngs Moduli (GPa) = 84.38003 62.83564 46.91941
#
# Poissons Ratio (x) = 0.24243 0.18163
# Poissons Ratio (y) = 0.32555 0.01096
# Poissons Ratio (z) = 0.32665 0.01467
#
# Static dielectric constant tensor:
#      x y z
#    x 3.471840 0.000000 0.000000 
#    y 0.000000 3.164140 0.000000 
#    z 0.000000 0.000000 3.150330 
# 
# 
# High freq. dielectric constant tensor:
#      x y z
#    x 1.712210 0.000000 0.000000 
#    y 0.000000 1.683910 0.000000 
#    z 0.000000 0.000000 1.686100 
# 
# From -- ./inp_files/23495.got.cif
#   From: 2010.03.12/outbox.cif.g09.slc.cpg/sg59_12_cif.got.tgz:23495.got - 2010.04.16 16:29:54.
