data_PCOD8239941
_publ_section_title
;
Structure prediction by ZEFSAII (Michael W. Deem and Ramdas Pophale) SiO2 
 PCOD8239941
Probable space group: P M M N
;
_chemical_formula_sum "Si O2"
_cell_formula_units_Z 64
_cell_length_a 15.208366
_cell_length_b 9.167182
_cell_length_c 24.131339
_cell_angle_alpha 90.000000
_cell_angle_beta 90.000000
_cell_angle_gamma 90.000000
_cell_volume 3364.339619
_symmetry_space_group_name_H-M "P M M N"
_symmetry_group_IT_number 59
_space_group.IT_coordinate_system_code '2'
_symmetry_cell_setting 'orthorhombic'
loop_
_space_group_symop_operation_xyz
x,y,z
1/2-x,1/2-y,z
1/2+x,-y,-z
-x,1/2+y,-z
-x,-y,-z
1/2+x,1/2+y,-z
1/2-x,y,z
x,1/2-y,z
loop_
_atom_site_type_symbol
_atom_site_label
_atom_site_fract_x
_atom_site_fract_y
_atom_site_fract_z
Si Si1 0.647379 0.078334 0.112445
Si Si2 0.008296 0.420594 0.814480
Si Si3 0.154799 0.423025 0.616780
Si Si4 0.649366 0.419233 0.894410
Si Si5 0.354204 0.086223 0.997030
Si Si6 0.493927 0.922525 0.312083
Si Si7 0.150256 0.416348 0.379295
Si Si8 0.408654 0.420889 0.499119
O O1 0.750000 0.042555 0.123623
O O2 0.631544 0.250000 0.108101
O O3 0.589614 0.011713 0.161583
O O4 0.612920 0.005266 0.055672
O O5 0.031504 0.250000 0.819606
O O6 0.998138 0.471693 0.751405
O O7 0.915318 0.456393 0.843772
O O8 0.250000 0.479700 0.637799
O O9 0.151013 0.250000 0.620612
O O10 0.078504 0.488649 0.655732
O O11 0.144865 0.473266 0.553045
O O12 0.750000 0.462642 0.878355
O O13 0.645324 0.250000 0.910696
O O14 0.613297 0.509380 0.946879
O O15 0.250000 0.089514 0.997205
O O16 0.393042 0.250000 0.993850
O O17 0.490292 0.750000 0.317354
O O18 0.406341 0.983125 0.339521
O O19 0.250000 0.435684 0.359989
O O20 0.118488 0.250000 0.372657
O O21 0.143250 0.464454 0.443541
O O22 0.500000 0.500000 0.500000
O O23 0.426379 0.250000 0.502140
#
# Coordination Sequence:
#
# PCOD8239941 Si02
#       8
#     8   8   8   8   8   8   8   8
#     4  10  21  37  57  81 110 145 181 218 267 325
#     4  10  22  37  55  80 108 142 185 229 272 318
#     4   9  17  31  53  79 106 138 176 218 267 323
#     4   9  18  34  54  76 106 142 178 219 270 327
#     4   9  17  31  54  83 111 138 173 220 271 322
#     4  10  21  37  56  80 107 139 184 232 273 315
#     4  10  21  36  55  80 110 146 183 220 270 329
#     4  10  18  31  54  80 109 142 176 218 270 325
#
# _framework density 19.023050999999999
#
# number of rings (size 3 to 8) (size 9 to 14) (size 15 to 20)
#    0.000    2.375    1.250    1.125    0.000    6.500 
#    0.000    2.500    0.000    3.750    0.000    0.000 
#    0.000    0.000    0.000    0.000    0.000    0.000 
#
# Total GULP energy -793574.516592 kJ/mol
# GULP energy per Si atom -12399.601822 kJ/mol
# Density = 1.897975 g / cm^3
# Si number density = 19.023051 Si / 1000 Ang^3
#
#
#
# Elastic Constant Matrix: (Units=GPa)
#
#
# Indices 1 2 3 4 5 6 
#
# 1 106.2775 36.7210 66.7399 0.0000 0.0000 0.0000
# 2 36.7210 57.2638 54.0777 0.0000 0.0000 0.0000
# 3 66.7399 54.0777 165.1048 0.0000 0.0000 0.0000
# 4 0.0000 0.0000 0.0000 21.2177 0.0000 0.0000
# 5 0.0000 0.0000 0.0000 0.0000 12.4048 0.0000
# 6 0.0000 0.0000 0.0000 0.0000 0.0000 27.6800
#
#
#
# Elastic Compliance Matrix: (Units=1/GPa)
#
#
# Indices 1 2 3 4 5 6 
#
# 1 0.013566 -0.005097 -0.003814 0.000000 0.000000 0.000000
# 2 -0.005097 0.027199 -0.006848 0.000000 0.000000 0.000000
# 3 -0.003814 -0.006848 0.009842 0.000000 0.000000 0.000000
# 4 0.000000 0.000000 0.000000 0.047130 0.000000 0.000000
# 5 0.000000 0.000000 0.000000 0.000000 0.080614 0.000000
# 6 0.000000 0.000000 0.000000 0.000000 0.000000 0.036127
#
#
# Mechanical properties :
#
#
# Convention : Reuss Voigt Hill
#
# Bulk Modulus (GPa) = 52.39150 71.52483 61.95817
# Shear Modulus (GPa) = 19.81306 23.66768 21.74037
#
# Velocity S-wave (km/s) = 3.23077 3.53109 3.38426
# Velocity P-wave (km/s) = 6.44345 7.36922 6.92183
#
# Compressibility (1/GPa) = 0.01908706
#
# Stress axis : x y z
#
# Youngs Moduli (GPa) = 73.71536 36.76635 101.61021
#
# Poissons Ratio (x) = 0.18741 0.38755
# Poissons Ratio (y) = 0.37575 0.69584
# Poissons Ratio (z) = 0.28116 0.25178
#
# Static dielectric constant tensor:
#      x y z
#    x 3.489930 0.000000 0.000000 
#    y 0.000000 3.350700 0.000000 
#    z 0.000000 0.000000 6.616530 
# 
# 
# High freq. dielectric constant tensor:
#      x y z
#    x 1.743380 0.000000 0.000000 
#    y 0.000000 1.720020 0.000000 
#    z 0.000000 0.000000 1.739400 
# 
# From -- ./inp_files/32254.got.cif
#   From: 2010.03.12/outbox.cif.g09.slc.cpg/sg59_17_cif.got.tgz:32254.got - 2010.04.16 16:29:54.
