data_PCOD8239043
_publ_section_title
;
Structure prediction by ZEFSAII (Michael W. Deem and Ramdas Pophale) SiO2 
 PCOD8239043
Probable space group: P M M N
;
_chemical_formula_sum "Si O2"
_cell_formula_units_Z 64
_cell_length_a 9.023079
_cell_length_b 18.371353
_cell_length_c 21.635437
_cell_angle_alpha 90.000000
_cell_angle_beta 90.000000
_cell_angle_gamma 90.000000
_cell_volume 3586.423516
_symmetry_space_group_name_H-M "P M M N"
_symmetry_group_IT_number 59
_space_group.IT_coordinate_system_code '2'
_symmetry_cell_setting 'orthorhombic'
loop_
_space_group_symop_operation_xyz
x,y,z
1/2-x,1/2-y,z
1/2+x,-y,-z
-x,1/2+y,-z
-x,-y,-z
1/2+x,1/2+y,-z
1/2-x,y,z
x,1/2-y,z
loop_
_atom_site_type_symbol
_atom_site_label
_atom_site_fract_x
_atom_site_fract_y
_atom_site_fract_z
Si Si1 0.423959 0.083209 0.371646
Si Si2 0.580451 0.539781 0.827896
Si Si3 0.576096 0.333136 0.883472
Si Si4 0.920470 0.575377 0.495166
Si Si5 0.425966 0.169689 0.255133
Si Si6 0.076552 0.427661 0.637671
Si Si7 0.574000 0.532635 0.060301
Si Si8 0.417003 0.604214 0.244586
O O1 0.250000 0.067193 0.361909
O O2 0.454550 0.118348 0.440561
O O3 0.483272 0.140778 0.321430
O O4 0.508345 0.007861 0.362453
O O5 0.750000 0.544332 0.852464
O O6 0.523856 0.616345 0.800175
O O7 0.471355 0.519114 0.883117
O O8 0.571139 0.480762 0.773194
O O9 0.750000 0.352657 0.889228
O O10 0.543296 0.250000 0.902001
O O11 0.485318 0.385212 0.929413
O O12 0.524368 0.347250 0.812824
O O13 0.750000 0.555240 0.492383
O O14 0.961696 0.612345 0.428707
O O15 0.000000 0.500000 0.500000
O O16 0.250000 0.172904 0.256474
O O17 0.493213 0.250000 0.243320
O O18 0.250000 0.434309 0.648871
O O19 0.011569 0.379949 0.693919
O O20 0.750000 0.534279 0.053203
O O21 0.500000 0.500000 0.000000
O O22 0.250000 0.626706 0.260219
#
# Coordination Sequence:
#
# PCOD8239043 Si02
#       8
#     8   8   8   8   8   8   8   8
#     4   9  15  27  43  59  85 121 161 209 259 307
#     4   9  17  32  51  73 101 130 165 210 254 299
#     4   9  19  37  59  82 109 138 170 211 257 303
#     4   8  15  24  36  56  84 116 153 200 252 303
#     4   9  16  27  47  72  94 123 167 216 261 304
#     4  10  17  24  38  64  93 122 159 205 254 301
#     4  11  22  37  59  85 111 142 176 207 244 293
#     4   9  16  28  48  72  96 129 163 197 247 302
#
# _framework density 17.845075999999999
#
# number of rings (size 3 to 8) (size 9 to 14) (size 15 to 20)
#    0.000    2.750    1.250    2.250    0.000    2.750 
#    0.000    0.625    0.000    4.500    0.000    1.750 
#    0.000    0.000    0.000    0.000    0.000    0.000 
#
# Total GULP energy -792940.017330 kJ/mol
# GULP energy per Si atom -12389.687771 kJ/mol
# Density = 1.780446 g / cm^3
# Si number density = 17.845076 Si / 1000 Ang^3
#
#
#
# Elastic Constant Matrix: (Units=GPa)
#
#
# Indices 1 2 3 4 5 6 
#
# 1 69.6633 28.3021 50.8689 0.0000 0.0000 0.0000
# 2 28.3021 91.4071 49.1149 0.0000 0.0000 0.0000
# 3 50.8689 49.1149 126.7304 0.0000 0.0000 0.0000
# 4 0.0000 0.0000 0.0000 18.7026 0.0000 0.0000
# 5 0.0000 0.0000 0.0000 0.0000 28.7939 0.0000
# 6 0.0000 0.0000 0.0000 0.0000 0.0000 14.9367
#
#
#
# Elastic Compliance Matrix: (Units=1/GPa)
#
#
# Indices 1 2 3 4 5 6 
#
# 1 0.020736 -0.002460 -0.007370 0.000000 0.000000 0.000000
# 2 -0.002460 0.014109 -0.004481 0.000000 0.000000 0.000000
# 3 -0.007370 -0.004481 0.012585 0.000000 0.000000 0.000000
# 4 0.000000 0.000000 0.000000 0.053469 0.000000 0.000000
# 5 0.000000 0.000000 0.000000 0.000000 0.034730 0.000000
# 6 0.000000 0.000000 0.000000 0.000000 0.000000 0.066949
#
#
# Mechanical properties :
#
#
# Convention : Reuss Voigt Hill
#
# Bulk Modulus (GPa) = 53.16551 60.48582 56.82567
# Shear Modulus (GPa) = 21.05538 23.12097 22.08817
#
# Velocity S-wave (km/s) = 3.43869 3.60342 3.52202
# Velocity P-wave (km/s) = 6.75453 7.16110 6.96078
#
# Compressibility (1/GPa) = 0.01880919
#
# Stress axis : x y z
#
# Youngs Moduli (GPa) = 48.22580 70.87484 79.45743
#
# Poissons Ratio (x) = 0.17439 0.58557
# Poissons Ratio (y) = 0.11866 0.35601
# Poissons Ratio (z) = 0.35541 0.31756
#
# Static dielectric constant tensor:
#      x y z
#    x 3.072480 0.000000 0.000000 
#    y 0.000000 3.121700 0.000000 
#    z 0.000000 0.000000 3.696410 
# 
# 
# High freq. dielectric constant tensor:
#      x y z
#    x 1.672990 0.000000 0.000000 
#    y 0.000000 1.650120 0.000000 
#    z 0.000000 0.000000 1.703450 
# 
# From -- ./inp_files/29664.got.cif
#   From: 2010.03.12/outbox.cif.g09.slc.cpg/sg59_15_cif.got.tgz:29664.got - 2010.04.16 16:29:54.
