data_PCOD8239927
_publ_section_title
;
Structure prediction by ZEFSAII (Michael W. Deem and Ramdas Pophale) SiO2 
 PCOD8239927
Probable space group: P M M N
;
_chemical_formula_sum "Si O2"
_cell_formula_units_Z 64
_cell_length_a 17.341559
_cell_length_b 8.720005
_cell_length_c 22.921708
_cell_angle_alpha 90.000000
_cell_angle_beta 90.000000
_cell_angle_gamma 90.000000
_cell_volume 3466.185870
_symmetry_space_group_name_H-M "P M M N"
_symmetry_group_IT_number 59
_space_group.IT_coordinate_system_code '2'
_symmetry_cell_setting 'orthorhombic'
loop_
_space_group_symop_operation_xyz
x,y,z
1/2-x,1/2-y,z
1/2+x,-y,-z
-x,1/2+y,-z
-x,-y,-z
1/2+x,1/2+y,-z
1/2-x,y,z
x,1/2-y,z
loop_
_atom_site_type_symbol
_atom_site_label
_atom_site_fract_x
_atom_site_fract_y
_atom_site_fract_z
Si Si1 0.947511 0.425253 0.863188
Si Si2 0.509667 0.071089 0.248022
Si Si3 0.108687 0.076884 0.923173
Si Si4 0.164225 0.568524 0.038706
Si Si5 0.838489 0.929866 0.556288
Si Si6 0.473729 0.930749 0.368391
Si Si7 0.835108 0.426999 0.189585
Si Si8 0.431250 0.567594 0.538010
O O1 0.936264 0.250000 0.841800
O O2 0.876034 0.486610 0.901409
O O3 0.956127 0.535208 0.807526
O O4 0.020501 0.437914 0.905147
O O5 0.504635 0.250000 0.263796
O O6 0.598035 0.018329 0.234231
O O7 0.476537 0.971140 0.300616
O O8 0.133614 0.250000 0.935541
O O9 0.162595 0.015134 0.871452
O O10 0.118097 0.982914 0.982061
O O11 0.250000 0.498891 0.037736
O O12 0.165336 0.750000 0.038076
O O13 0.750000 0.963232 0.573639
O O14 0.856035 0.750000 0.553852
O O15 0.894331 0.005073 0.604342
O O16 0.853436 0.001861 0.491621
O O17 0.475271 0.750000 0.378339
O O18 0.551063 0.006050 0.396985
O O19 0.750000 0.453632 0.217653
O O20 0.849821 0.250000 0.174973
O O21 0.500000 0.500000 0.500000
O O22 0.429303 0.750000 0.537725
#
# Coordination Sequence:
#
# PCOD8239927 Si02
#       8
#     8   8   8   8   8   8   8   8
#     4   9  19  35  51  69  95 128 166 207 253 306
#     4  10  20  35  55  76  99 132 175 217 257 304
#     4  10  19  30  48  73  98 124 157 200 251 308
#     4  10  20  33  49  69  95 127 162 202 250 304
#     4  10  20  35  56  83 114 143 175 219 265 305
#     4  11  21  35  56  79 107 143 182 218 255 305
#     4   9  18  33  52  73  98 128 162 204 256 312
#     4  10  18  31  53  79 108 139 172 209 252 302
#
# _framework density 18.464099999999998
#
# number of rings (size 3 to 8) (size 9 to 14) (size 15 to 20)
#    0.000    2.125    0.000    5.625    0.000    4.500 
#    0.000    1.250    0.000    4.500    0.000    0.000 
#    0.000    0.000    0.000    0.000    0.000    0.000 
#
# Total GULP energy -793479.171673 kJ/mol
# GULP energy per Si atom -12398.112057 kJ/mol
# Density = 1.842208 g / cm^3
# Si number density = 18.464100 Si / 1000 Ang^3
#
#
#
# Elastic Constant Matrix: (Units=GPa)
#
#
# Indices 1 2 3 4 5 6 
#
# 1 72.8704 43.6482 51.2161 0.0000 0.0000 0.0000
# 2 43.6482 91.2666 39.3500 0.0000 0.0000 0.0000
# 3 51.2161 39.3500 106.4757 0.0000 0.0000 0.0000
# 4 0.0000 0.0000 0.0000 31.0049 0.0000 0.0000
# 5 0.0000 0.0000 0.0000 0.0000 19.7072 0.0000
# 6 0.0000 0.0000 0.0000 0.0000 0.0000 23.3486
#
#
#
# Elastic Compliance Matrix: (Units=1/GPa)
#
#
# Indices 1 2 3 4 5 6 
#
# 1 0.024832 -0.008001 -0.008988 0.000000 0.000000 0.000000
# 2 -0.008001 0.015612 -0.001921 0.000000 0.000000 0.000000
# 3 -0.008988 -0.001921 0.014425 0.000000 0.000000 0.000000
# 4 0.000000 0.000000 0.000000 0.032253 0.000000 0.000000
# 5 0.000000 0.000000 0.000000 0.000000 0.050743 0.000000
# 6 0.000000 0.000000 0.000000 0.000000 0.000000 0.042829
#
#
# Mechanical properties :
#
#
# Convention : Reuss Voigt Hill
#
# Bulk Modulus (GPa) = 58.65268 59.89348 59.27308
# Shear Modulus (GPa) = 22.30184 23.90536 23.10360
#
# Velocity S-wave (km/s) = 3.47918 3.60209 3.54117
# Velocity P-wave (km/s) = 6.92635 7.05750 6.99223
#
# Compressibility (1/GPa) = 0.01704952
#
# Stress axis : x y z
#
# Youngs Moduli (GPa) = 40.26994 64.05489 69.32424
#
# Poissons Ratio (x) = 0.51250 0.62307
# Poissons Ratio (y) = 0.32220 0.13317
# Poissons Ratio (z) = 0.36194 0.12305
#
# Static dielectric constant tensor:
#      x y z
#    x 3.579690 0.000000 0.000000 
#    y 0.000000 3.437680 0.000000 
#    z 0.000000 0.000000 3.450780 
# 
# 
# High freq. dielectric constant tensor:
#      x y z
#    x 1.707140 0.000000 0.000000 
#    y 0.000000 1.723350 0.000000 
#    z 0.000000 0.000000 1.705380 
# 
# From -- ./inp_files/30744.got.cif
#   From: 2010.03.12/outbox.cif.g09.slc.cpg/sg59_16_cif.got.tgz:30744.got - 2010.04.16 16:29:54.
