data_PCOD8239872
_publ_section_title
;
Structure prediction by ZEFSAII (Michael W. Deem and Ramdas Pophale) SiO2 
 PCOD8239872
Probable space group: P M M N
;
_chemical_formula_sum "Si O2"
_cell_formula_units_Z 64
_cell_length_a 11.182626
_cell_length_b 24.912919
_cell_length_c 12.849852
_cell_angle_alpha 90.000000
_cell_angle_beta 90.000000
_cell_angle_gamma 90.000000
_cell_volume 3579.864115
_symmetry_space_group_name_H-M "P M M N"
_symmetry_group_IT_number 59
_space_group.IT_coordinate_system_code '2'
_symmetry_cell_setting 'orthorhombic'
loop_
_space_group_symop_operation_xyz
x,y,z
1/2-x,1/2-y,z
1/2+x,-y,-z
-x,1/2+y,-z
-x,-y,-z
1/2+x,1/2+y,-z
1/2-x,y,z
x,1/2-y,z
loop_
_atom_site_type_symbol
_atom_site_label
_atom_site_fract_x
_atom_site_fract_y
_atom_site_fract_z
Si Si1 0.956487 0.552053 0.286022
Si Si2 0.387247 0.915060 0.474040
Si Si3 0.001749 0.416836 0.087182
Si Si4 0.881704 0.665916 0.241958
Si Si5 0.382758 0.691827 0.363515
Si Si6 0.886066 0.688985 0.000587
Si Si7 0.882610 0.436744 0.298893
Si Si8 0.118133 0.972633 0.093728
O O1 0.874889 0.604358 0.278233
O O2 0.871679 0.500874 0.289619
O O3 0.039990 0.551633 0.388329
O O4 0.033604 0.550918 0.181568
O O5 0.250000 0.935100 0.470847
O O6 0.399565 0.851873 0.452489
O O7 0.441623 0.922985 0.589336
O O8 0.101910 0.463393 0.073159
O O9 0.962120 0.412741 0.206991
O O10 0.042594 0.356448 0.062264
O O11 0.896079 0.437438 0.011510
O O12 0.750000 0.690381 0.275941
O O13 0.894480 0.672950 0.120040
O O14 0.002801 0.692062 0.286903
O O15 0.250000 0.682496 0.308742
O O16 0.381615 0.750000 0.417715
O O17 0.750000 0.687472 0.961674
O O18 0.936902 0.750000 0.983083
O O19 0.750000 0.411944 0.291600
O O20 0.250000 0.963593 0.135768
#
# Coordination Sequence:
#
# PCOD8239872 Si02
#       8
#     8   8   8   8   8   8   8   8
#     4  10  18  31  51  78 106 136 168 212 266 321
#     4   9  18  32  50  73 102 136 174 215 262 318
#     4  10  20  34  49  75 102 137 175 217 262 312
#     4  10  19  32  52  80 110 138 172 215 268 329
#     4   9  18  33  52  74 101 135 176 220 265 313
#     4  10  20  35  54  75 103 138 176 218 264 320
#     4  10  20  33  50  73 104 140 177 217 261 313
#     4  10  19  31  51  76 104 136 172 217 267 318
#
# _framework density 17.877773000000001
#
# number of rings (size 3 to 8) (size 9 to 14) (size 15 to 20)
#    0.000    2.250    1.250    2.250    0.000    1.250 
#    0.000    0.625    0.000   13.500    0.000    0.000 
#    0.000    0.000    0.000    0.000    0.000    0.000 
#
# Total GULP energy -792883.609988 kJ/mol
# GULP energy per Si atom -12388.806406 kJ/mol
# Density = 1.783708 g / cm^3
# Si number density = 17.877773 Si / 1000 Ang^3
#
#
#
# Elastic Constant Matrix: (Units=GPa)
#
#
# Indices 1 2 3 4 5 6 
#
# 1 82.8966 24.8682 28.8035 0.0000 0.0000 0.0000
# 2 24.8682 97.6618 32.8166 0.0000 0.0000 0.0000
# 3 28.8035 32.8166 101.1404 0.0000 0.0000 0.0000
# 4 0.0000 0.0000 0.0000 10.2977 0.0000 0.0000
# 5 0.0000 0.0000 0.0000 0.0000 14.0400 0.0000
# 6 0.0000 0.0000 0.0000 0.0000 0.0000 3.3040
#
#
#
# Elastic Compliance Matrix: (Units=1/GPa)
#
#
# Indices 1 2 3 4 5 6 
#
# 1 0.013903 -0.002480 -0.003155 0.000000 0.000000 0.000000
# 2 -0.002480 0.011935 -0.003166 0.000000 0.000000 0.000000
# 3 -0.003155 -0.003166 0.011813 0.000000 0.000000 0.000000
# 4 0.000000 0.000000 0.000000 0.097109 0.000000 0.000000
# 5 0.000000 0.000000 0.000000 0.000000 0.071225 0.000000
# 6 0.000000 0.000000 0.000000 0.000000 0.000000 0.302659
#
#
# Mechanical properties :
#
#
# Convention : Reuss Voigt Hill
#
# Bulk Modulus (GPa) = 49.87770 50.51947 50.19859
# Shear Modulus (GPa) = 9.38209 18.54238 13.96224
#
# Velocity S-wave (km/s) = 2.29332 3.22401 2.79764
# Velocity P-wave (km/s) = 5.91373 6.49451 6.21091
#
# Compressibility (1/GPa) = 0.02004904
#
# Stress axis : x y z
#
# Youngs Moduli (GPa) = 71.92470 83.78814 84.65264
#
# Poissons Ratio (x) = 0.20781 0.26706
# Poissons Ratio (y) = 0.17839 0.26802
# Poissons Ratio (z) = 0.22691 0.26528
#
# Static dielectric constant tensor:
#      x y z
#    x 3.361740 0.000000 0.000000 
#    y 0.000000 3.396910 0.000000 
#    z 0.000000 0.000000 3.193030 
# 
# 
# High freq. dielectric constant tensor:
#      x y z
#    x 1.689390 0.000000 0.000000 
#    y 0.000000 1.691510 0.000000 
#    z 0.000000 0.000000 1.674760 
# 
# From -- ./inp_files/16258.got.cif
#   From: 2010.03.12/outbox.cif.g09.slc.cpg/sg59_9_cif.got.tgz:16258.got - 2010.04.16 16:29:54.
