data_PCOD8239779
_publ_section_title
;
Structure prediction by ZEFSAII (Michael W. Deem and Ramdas Pophale) SiO2 
 PCOD8239779
Probable space group: P M M N
;
_chemical_formula_sum "Si O2"
_cell_formula_units_Z 48
_cell_length_a 8.598039
_cell_length_b 33.154539
_cell_length_c 9.184367
_cell_angle_alpha 90.000000
_cell_angle_beta 90.000000
_cell_angle_gamma 90.000000
_cell_volume 2618.132572
_symmetry_space_group_name_H-M "P M M N"
_symmetry_group_IT_number 59
_space_group.IT_coordinate_system_code '2'
_symmetry_cell_setting 'orthorhombic'
loop_
_space_group_symop_operation_xyz
x,y,z
1/2-x,1/2-y,z
1/2+x,-y,-z
-x,1/2+y,-z
-x,-y,-z
1/2+x,1/2+y,-z
1/2-x,y,z
x,1/2-y,z
loop_
_atom_site_type_symbol
_atom_site_label
_atom_site_fract_x
_atom_site_fract_y
_atom_site_fract_z
Si Si1 0.071056 0.958153 0.045511
Si Si2 0.568808 0.664499 0.134217
Si Si3 0.933482 0.121200 0.123540
Si Si4 0.932394 0.869587 0.560823
Si Si5 0.568974 0.295462 0.607973
Si Si6 0.430861 0.907594 0.305209
O O1 0.250000 0.962298 0.012250
O O2 0.039483 0.949542 0.218435
O O3 0.008134 0.920612 0.950226
O O4 0.000000 0.000000 0.000000
O O5 0.750000 0.671454 0.104102
O O6 0.498542 0.701571 0.227191
O O7 0.541604 0.625563 0.233922
O O8 0.480191 0.658555 0.980896
O O9 0.750000 0.121859 0.150629
O O10 0.024422 0.126323 0.272159
O O11 0.750000 0.874451 0.540404
O O12 0.984905 0.825832 0.502975
O O13 0.018546 0.906769 0.474581
O O14 0.750000 0.306606 0.610941
O O15 0.540936 0.250000 0.551885
O O16 0.250000 0.895389 0.286769
#
# Coordination Sequence:
#
# PCOD8239779 Si02
#       6
#     8   8   8   8   8   8
#     4   9  19  33  53  77 101 132 170 214 259 303
#     4  10  18  30  51  77 101 128 166 211 250 288
#     4  10  20  36  54  74 103 138 172 207 253 310
#     4  11  21  33  53  80 105 134 172 216 261 302
#     4  10  20  35  55  77 103 138 173 204 247 305
#     4   9  17  32  51  72 100 137 173 203 246 306
#
# _framework density 18.333677999999999
#
# number of rings (size 3 to 8) (size 9 to 14) (size 15 to 20)
#    0.000    2.167    0.000    7.500    0.000    5.333 
#    0.000    1.667    0.000    5.000    0.000    0.000 
#    0.000    0.000    0.000    0.000    0.000    0.000 
#
# Total GULP energy -594860.231359 kJ/mol
# GULP energy per Si atom -12392.921487 kJ/mol
# Density = 1.829195 g / cm^3
# Si number density = 18.333678 Si / 1000 Ang^3
#
#
#
# Elastic Constant Matrix: (Units=GPa)
#
#
# Indices 1 2 3 4 5 6 
#
# 1 89.4848 29.4936 25.3192 0.0000 0.0000 0.0000
# 2 29.4936 71.2887 34.8837 0.0000 0.0000 0.0000
# 3 25.3192 34.8837 109.8737 0.0000 0.0000 0.0000
# 4 0.0000 0.0000 0.0000 19.9930 0.0000 0.0000
# 5 0.0000 0.0000 0.0000 0.0000 33.6580 0.0000
# 6 0.0000 0.0000 0.0000 0.0000 0.0000 26.0470
#
#
#
# Elastic Compliance Matrix: (Units=1/GPa)
#
#
# Indices 1 2 3 4 5 6 
#
# 1 0.013157 -0.004688 -0.001543 0.000000 0.000000 0.000000
# 2 -0.004688 0.018278 -0.004723 0.000000 0.000000 0.000000
# 3 -0.001543 -0.004723 0.010956 0.000000 0.000000 0.000000
# 4 0.000000 0.000000 0.000000 0.050018 0.000000 0.000000
# 5 0.000000 0.000000 0.000000 0.000000 0.029711 0.000000
# 6 0.000000 0.000000 0.000000 0.000000 0.000000 0.038392
#
#
# Mechanical properties :
#
#
# Convention : Reuss Voigt Hill
#
# Bulk Modulus (GPa) = 48.82128 50.00446 49.41287
# Shear Modulus (GPa) = 26.42039 28.00298 27.21169
#
# Velocity S-wave (km/s) = 3.80028 3.91244 3.85677
# Velocity P-wave (km/s) = 6.77815 6.90967 6.84422
#
# Compressibility (1/GPa) = 0.02048287
#
# Stress axis : x y z
#
# Youngs Moduli (GPa) = 76.00557 54.71063 91.27029
#
# Poissons Ratio (x) = 0.25648 0.14087
# Poissons Ratio (y) = 0.35632 0.43105
# Poissons Ratio (z) = 0.11731 0.25839
#
# Static dielectric constant tensor:
#      x y z
#    x 3.398540 0.000000 0.000000 
#    y 0.000000 2.731430 0.000000 
#    z 0.000000 0.000000 3.605210 
# 
# 
# High freq. dielectric constant tensor:
#      x y z
#    x 1.723000 0.000000 0.000000 
#    y 0.000000 1.680840 0.000000 
#    z 0.000000 0.000000 1.710970 
# 
# From -- ./inp_files/6303.got.cif
#   From: 2010.03.12/outbox.cif.g09.slc.cpg/sg59_4_cif.got.tgz:6303.got - 2010.04.16 16:29:54.
