data_PCOD8239662
_publ_section_title
;
Structure prediction by ZEFSAII (Michael W. Deem and Ramdas Pophale) SiO2 
 PCOD8239662
Probable space group: P M M N
;
_chemical_formula_sum "Si O2"
_cell_formula_units_Z 64
_cell_length_a 10.384239
_cell_length_b 25.973645
_cell_length_c 13.446935
_cell_angle_alpha 90.000000
_cell_angle_beta 90.000000
_cell_angle_gamma 90.000000
_cell_volume 3626.860747
_symmetry_space_group_name_H-M "P M M N"
_symmetry_group_IT_number 59
_space_group.IT_coordinate_system_code '2'
_symmetry_cell_setting 'orthorhombic'
loop_
_space_group_symop_operation_xyz
x,y,z
1/2-x,1/2-y,z
1/2+x,-y,-z
-x,1/2+y,-z
-x,-y,-z
1/2+x,1/2+y,-z
1/2-x,y,z
x,1/2-y,z
loop_
_atom_site_type_symbol
_atom_site_label
_atom_site_fract_x
_atom_site_fract_y
_atom_site_fract_z
Si Si1 0.535927 0.112511 0.994671
Si Si2 0.598544 0.807974 0.506149
Si Si3 0.902270 0.866970 0.311191
Si Si4 0.603483 0.062230 0.791109
Si Si5 0.102897 0.447685 0.160412
Si Si6 0.398065 0.151649 0.280849
Si Si7 0.387616 0.806814 0.858023
Si Si8 0.396997 0.195059 0.879549
O O1 0.480255 0.067524 0.064225
O O2 0.628281 0.149611 0.057596
O O3 0.606493 0.088012 0.900243
O O4 0.423934 0.150640 0.958736
O O5 0.750000 0.802053 0.496789
O O6 0.538131 0.750000 0.504699
O O7 0.550382 0.843417 0.415580
O O8 0.559980 0.838485 0.605911
O O9 0.750000 0.883940 0.311282
O O10 0.929755 0.822659 0.231654
O O11 0.997517 0.914149 0.283820
O O12 0.750000 0.066858 0.748506
O O13 0.559204 0.003192 0.800961
O O14 0.250000 0.449141 0.124707
O O15 0.083661 0.408172 0.252168
O O16 0.250000 0.169189 0.263203
O O17 0.490501 0.185455 0.212609
O O18 0.250000 0.809155 0.799456
O O19 0.404569 0.750000 0.905946
O O20 0.250000 0.206968 0.890094
O O21 0.469778 0.250000 0.898469
#
# Coordination Sequence:
#
# PCOD8239662 Si02
#       8
#     8   8   8   8   8   8   8   8
#     4  10  18  30  47  68  91 126 168 203 232 280
#     4   9  16  29  53  80 100 121 153 194 238 284
#     4   9  18  32  50  72  97 123 156 197 237 282
#     4  10  20  34  50  68  95 130 165 201 243 286
#     4   9  18  32  49  71  98 127 160 204 250 284
#     4   9  18  33  53  75  97 123 160 200 237 284
#     4  10  20  32  45  66  99 132 158 191 238 286
#     4   9  16  26  43  69  98 124 151 190 239 283
#
# _framework density 17.646115000000002
#
# number of rings (size 3 to 8) (size 9 to 14) (size 15 to 20)
#    0.000    2.625    0.000    2.250    0.000    3.250 
#    0.000    4.375    0.000    8.250    0.000    0.000 
#    0.000    0.000    0.000    0.000    0.000    0.000 
#
# Total GULP energy -792943.857780 kJ/mol
# GULP energy per Si atom -12389.747778 kJ/mol
# Density = 1.760595 g / cm^3
# Si number density = 17.646115 Si / 1000 Ang^3
#
#
#
# Elastic Constant Matrix: (Units=GPa)
#
#
# Indices 1 2 3 4 5 6 
#
# 1 55.8918 42.7956 34.5653 0.0000 0.0000 0.0000
# 2 42.7956 120.3406 40.7420 0.0000 0.0000 0.0000
# 3 34.5653 40.7420 96.4107 0.0000 0.0000 0.0000
# 4 0.0000 0.0000 0.0000 14.9248 0.0000 0.0000
# 5 0.0000 0.0000 0.0000 0.0000 15.9289 0.0000
# 6 0.0000 0.0000 0.0000 0.0000 0.0000 -564.5595
#
#
#
# Elastic Compliance Matrix: (Units=1/GPa)
#
#
# Indices 1 2 3 4 5 6 
#
# 1 0.027938 -0.007637 -0.006789 0.000000 0.000000 0.000000
# 2 -0.007637 0.011785 -0.002242 0.000000 0.000000 0.000000
# 3 -0.006789 -0.002242 0.013754 0.000000 0.000000 0.000000
# 4 0.000000 0.000000 0.000000 0.067003 0.000000 0.000000
# 5 0.000000 0.000000 0.000000 0.000000 0.062779 0.000000
# 6 0.000000 0.000000 0.000000 0.000000 0.000000 -0.001771
#
#
# Mechanical properties :
#
#
# Convention : Reuss Voigt Hill
#
# Bulk Modulus (GPa) = 49.65175 56.53876 53.09526
# Shear Modulus (GPa) = 22.56971 -96.43849 -36.93439
#
# Velocity S-wave (km/s) = 3.58022 -7.40068 -4.57996
# Velocity P-wave (km/s) = 6.72972 6.39663 1.47857
#
# Compressibility (1/GPa) = 0.02014028
#
# Stress axis : x y z
#
# Youngs Moduli (GPa) = 35.79398 84.85652 72.70711
#
# Poissons Ratio (x) = 0.64803 0.49361
# Poissons Ratio (y) = 0.27335 0.16302
# Poissons Ratio (z) = 0.24301 0.19026
#
# Static dielectric constant tensor:
#      x y z
#    x 3.128710 0.000000 0.000000 
#    y 0.000000 3.457590 0.000000 
#    z 0.000000 0.000000 3.266440 
# 
# 
# High freq. dielectric constant tensor:
#      x y z
#    x 1.664080 0.000000 0.000000 
#    y 0.000000 1.691220 0.000000 
#    z 0.000000 0.000000 1.666830 
# 
# From -- ./inp_files/16256.got.cif
#   From: 2010.03.12/outbox.cif.g09.slc.cpg/sg59_9_cif.got.tgz:16256.got - 2010.04.16 16:29:54.
