data_PCOD8239663
_publ_section_title
;
Structure prediction by ZEFSAII (Michael W. Deem and Ramdas Pophale) SiO2 
 PCOD8239663
Probable space group: P M M N
;
_chemical_formula_sum "Si O2"
_cell_formula_units_Z 64
_cell_length_a 9.048295
_cell_length_b 19.080513
_cell_length_c 19.846699
_cell_angle_alpha 90.000000
_cell_angle_beta 90.000000
_cell_angle_gamma 90.000000
_cell_volume 3426.455386
_symmetry_space_group_name_H-M "P M M N"
_symmetry_group_IT_number 59
_space_group.IT_coordinate_system_code '2'
_symmetry_cell_setting 'orthorhombic'
loop_
_space_group_symop_operation_xyz
x,y,z
1/2-x,1/2-y,z
1/2+x,-y,-z
-x,1/2+y,-z
-x,-y,-z
1/2+x,1/2+y,-z
1/2-x,y,z
x,1/2-y,z
loop_
_atom_site_type_symbol
_atom_site_label
_atom_site_fract_x
_atom_site_fract_y
_atom_site_fract_z
Si Si1 0.923019 0.445193 0.641668
Si Si2 0.916196 0.594016 0.956983
Si Si3 0.574710 0.174234 0.306756
Si Si4 0.073332 0.927364 0.579060
Si Si5 0.578150 0.328789 0.540820
Si Si6 0.582612 0.067280 0.914442
Si Si7 0.918496 0.960882 0.215539
Si Si8 0.417135 0.620550 0.830124
O O1 0.750000 0.462095 0.650067
O O2 0.947535 0.366506 0.612804
O O3 0.991835 0.497929 0.585441
O O4 0.002138 0.449681 0.713321
O O5 0.750000 0.619632 0.967949
O O6 0.923142 0.513382 0.935613
O O7 0.988332 0.637602 0.896260
O O8 0.002726 0.610093 0.026046
O O9 0.750000 0.168043 0.303818
O O10 0.525266 0.250000 0.335024
O O11 0.516636 0.113653 0.354863
O O12 0.514156 0.165732 0.230865
O O13 0.250000 0.939061 0.576223
O O14 0.014148 0.880654 0.516756
O O15 0.750000 0.320015 0.525151
O O16 0.506509 0.250000 0.540625
O O17 0.750000 0.093857 0.907276
O O18 0.500879 0.082209 0.843556
O O19 0.750000 0.934435 0.221790
O O20 0.923868 0.041096 0.194687
O O21 0.250000 0.641935 0.847509
#
# Coordination Sequence:
#
# PCOD8239663 Si02
#       8
#     8   8   8   8   8   8   8   8
#     4  11  21  32  50  77 106 135 166 208 259 308
#     4   9  16  25  39  61  90 128 164 198 242 297
#     4   9  16  27  46  71  95 125 170 217 256 298
#     4  10  18  33  55  77  99 130 170 212 256 303
#     4   9  19  35  55  78 102 131 171 214 253 300
#     4   9  16  26  41  65  95 126 160 202 249 294
#     4  10  18  30  47  69  98 131 167 206 249 300
#     4   9  16  27  42  63  91 125 164 210 252 290
#
# _framework density 18.678194000000001
#
# number of rings (size 3 to 8) (size 9 to 14) (size 15 to 20)
#    0.000    2.500    1.250    2.250    0.000    5.000 
#    0.000    0.625    0.000    5.625    0.000    0.875 
#    0.000    7.000    0.000    0.000    0.000    0.000 
#
# Total GULP energy -793187.996115 kJ/mol
# GULP energy per Si atom -12393.562439 kJ/mol
# Density = 1.863568 g / cm^3
# Si number density = 18.678194 Si / 1000 Ang^3
#
#
#
# Elastic Constant Matrix: (Units=GPa)
#
#
# Indices 1 2 3 4 5 6 
#
# 1 102.6249 22.9743 52.7117 0.0000 0.0000 0.0000
# 2 22.9743 58.6262 27.5098 0.0000 0.0000 0.0000
# 3 52.7117 27.5098 108.0013 0.0000 0.0000 0.0000
# 4 0.0000 0.0000 0.0000 13.7330 0.0000 0.0000
# 5 0.0000 0.0000 0.0000 0.0000 26.5268 0.0000
# 6 0.0000 0.0000 0.0000 0.0000 0.0000 12.0327
#
#
#
# Elastic Compliance Matrix: (Units=1/GPa)
#
#
# Indices 1 2 3 4 5 6 
#
# 1 0.013310 -0.002462 -0.005869 0.000000 0.000000 0.000000
# 2 -0.002462 0.019828 -0.003849 0.000000 0.000000 0.000000
# 3 -0.005869 -0.003849 0.013104 0.000000 0.000000 0.000000
# 4 0.000000 0.000000 0.000000 0.072817 0.000000 0.000000
# 5 0.000000 0.000000 0.000000 0.000000 0.037698 0.000000
# 6 0.000000 0.000000 0.000000 0.000000 0.000000 0.083107
#
#
# Mechanical properties :
#
#
# Convention : Reuss Voigt Hill
#
# Bulk Modulus (GPa) = 45.69924 52.84934 49.27429
# Shear Modulus (GPa) = 18.41501 21.52895 19.97198
#
# Velocity S-wave (km/s) = 3.14333 3.39872 3.27351
# Velocity P-wave (km/s) = 6.13952 6.61497 6.38167
#
# Compressibility (1/GPa) = 0.02188220
#
# Stress axis : x y z
#
# Youngs Moduli (GPa) = 75.13215 50.43357 76.31250
#
# Poissons Ratio (x) = 0.12416 0.44788
# Poissons Ratio (y) = 0.18497 0.29373
# Poissons Ratio (z) = 0.44095 0.19412
#
# Static dielectric constant tensor:
#      x y z
#    x 3.308840 0.000000 0.000000 
#    y 0.000000 3.166070 0.000000 
#    z 0.000000 0.000000 3.646610 
# 
# 
# High freq. dielectric constant tensor:
#      x y z
#    x 1.703200 0.000000 0.000000 
#    y 0.000000 1.680440 0.000000 
#    z 0.000000 0.000000 1.739850 
# 
# From -- ./inp_files/29350.got.cif
#   From: 2010.03.12/outbox.cif.g09.slc.cpg/sg59_15_cif.got.tgz:29350.got - 2010.04.16 16:29:54.
