data_PCOD8239681
_publ_section_title
;
Structure prediction by ZEFSAII (Michael W. Deem and Ramdas Pophale) SiO2 
 PCOD8239681
Probable space group: P M M N
;
_chemical_formula_sum "Si O2"
_cell_formula_units_Z 48
_cell_length_a 9.005949
_cell_length_b 25.846611
_cell_length_c 11.845993
_cell_angle_alpha 90.000000
_cell_angle_beta 90.000000
_cell_angle_gamma 90.000000
_cell_volume 2757.430414
_symmetry_space_group_name_H-M "P M M N"
_symmetry_group_IT_number 59
_space_group.IT_coordinate_system_code '2'
_symmetry_cell_setting 'orthorhombic'
loop_
_space_group_symop_operation_xyz
x,y,z
1/2-x,1/2-y,z
1/2+x,-y,-z
-x,1/2+y,-z
-x,-y,-z
1/2+x,1/2+y,-z
1/2-x,y,z
x,1/2-y,z
loop_
_atom_site_type_symbol
_atom_site_label
_atom_site_fract_x
_atom_site_fract_y
_atom_site_fract_z
Si Si1 0.584542 0.377691 0.181383
Si Si2 0.425044 0.308214 0.344317
Si Si3 0.573944 0.608428 0.474625
Si Si4 0.923733 0.433503 0.723542
Si Si5 0.423488 0.945404 0.020434
Si Si6 0.582008 0.033940 0.366294
O O1 0.750000 0.356855 0.157335
O O2 0.487503 0.329725 0.225918
O O3 0.586961 0.420824 0.276322
O O4 0.515099 0.402371 0.067323
O O5 0.250000 0.310146 0.334269
O O6 0.483127 0.250000 0.363773
O O7 0.478333 0.342544 0.451110
O O8 0.750000 0.605424 0.466118
O O9 0.501237 0.612322 0.349789
O O10 0.510935 0.554327 0.525626
O O11 0.750000 0.435384 0.696455
O O12 0.954337 0.423050 0.855188
O O13 0.997982 0.487436 0.692411
O O14 0.250000 0.954553 0.997884
O O15 0.500000 0.000000 0.000000
O O16 0.750000 0.018288 0.402125
#
# Coordination Sequence:
#
# PCOD8239681 Si02
#       6
#     8   8   8   8   8   8
#     4   9  18  32  50  75 102 130 166 206 247 293
#     4   9  19  36  57  78  97 121 159 210 262 305
#     4  10  20  33  49  70  98 129 164 204 251 300
#     4  11  21  31  46  69 101 137 170 201 239 287
#     4  10  20  33  49  71 102 138 173 206 239 287
#     4  10  18  30  48  69  99 133 168 205 240 288
#
# _framework density 17.407511
#
# number of rings (size 3 to 8) (size 9 to 14) (size 15 to 20)
#    0.000    2.167    1.667    2.000    0.000    3.000 
#    0.000    0.000    0.000    1.000    0.000    4.667 
#    0.000    0.000    0.000    0.000    0.000    0.000 
#
# Total GULP energy -595115.984828 kJ/mol
# GULP energy per Si atom -12398.249684 kJ/mol
# Density = 1.736789 g / cm^3
# Si number density = 17.407511 Si / 1000 Ang^3
#
#
#
# Elastic Constant Matrix: (Units=GPa)
#
#
# Indices 1 2 3 4 5 6 
#
# 1 70.4152 29.6478 43.1014 0.0000 0.0000 0.0000
# 2 29.6478 83.5627 31.0354 0.0000 0.0000 0.0000
# 3 43.1014 31.0354 96.1103 0.0000 0.0000 0.0000
# 4 0.0000 0.0000 0.0000 15.1572 0.0000 0.0000
# 5 0.0000 0.0000 0.0000 0.0000 25.8869 0.0000
# 6 0.0000 0.0000 0.0000 0.0000 0.0000 22.0257
#
#
#
# Elastic Compliance Matrix: (Units=1/GPa)
#
#
# Indices 1 2 3 4 5 6 
#
# 1 0.020955 -0.004482 -0.007950 0.000000 0.000000 0.000000
# 2 -0.004482 0.014557 -0.002691 0.000000 0.000000 0.000000
# 3 -0.007950 -0.002691 0.014839 0.000000 0.000000 0.000000
# 4 0.000000 0.000000 0.000000 0.065975 0.000000 0.000000
# 5 0.000000 0.000000 0.000000 0.000000 0.038630 0.000000
# 6 0.000000 0.000000 0.000000 0.000000 0.000000 0.045402
#
#
# Mechanical properties :
#
#
# Convention : Reuss Voigt Hill
#
# Bulk Modulus (GPa) = 49.73897 50.85083 50.29490
# Shear Modulus (GPa) = 21.07007 22.36753 21.71880
#
# Velocity S-wave (km/s) = 3.48286 3.58849 3.53607
# Velocity P-wave (km/s) = 6.69395 6.81506 6.75478
#
# Compressibility (1/GPa) = 0.02010496
#
# Stress axis : x y z
#
# Youngs Moduli (GPa) = 47.72156 68.69759 67.39095
#
# Poissons Ratio (x) = 0.30791 0.53576
# Poissons Ratio (y) = 0.21389 0.18132
# Poissons Ratio (z) = 0.37939 0.18483
#
# Static dielectric constant tensor:
#      x y z
#    x 3.373800 0.000000 0.000000 
#    y 0.000000 3.150190 0.000000 
#    z 0.000000 0.000000 3.591790 
# 
# 
# High freq. dielectric constant tensor:
#      x y z
#    x 1.678040 0.000000 0.000000 
#    y 0.000000 1.638800 0.000000 
#    z 0.000000 0.000000 1.679430 
# 
# From -- ./inp_files/14387.got.cif
#   From: 2010.03.12/outbox.cif.g09.slc.cpg/sg59_8_cif.got.tgz:14387.got - 2010.04.16 16:29:54.
