data_PCOD8239958
_publ_section_title
;
Structure prediction by ZEFSAII (Michael W. Deem and Ramdas Pophale) SiO2 
 PCOD8239958
Probable space group: P M M N
;
_chemical_formula_sum "Si O2"
_cell_formula_units_Z 40
_cell_length_a 9.210499
_cell_length_b 10.153857
_cell_length_c 24.047298
_cell_angle_alpha 90.000000
_cell_angle_beta 90.000000
_cell_angle_gamma 90.000000
_cell_volume 2248.953562
_symmetry_space_group_name_H-M "P M M N"
_symmetry_group_IT_number 59
_space_group.IT_coordinate_system_code '2'
_symmetry_cell_setting 'orthorhombic'
loop_
_space_group_symop_operation_xyz
x,y,z
1/2-x,1/2-y,z
1/2+x,-y,-z
-x,1/2+y,-z
-x,-y,-z
1/2+x,1/2+y,-z
1/2-x,y,z
x,1/2-y,z
loop_
_atom_site_type_symbol
_atom_site_label
_atom_site_fract_x
_atom_site_fract_y
_atom_site_fract_z
Si Si1 0.421884 0.750000 0.427685
Si Si2 0.578247 0.979565 0.624991
Si Si3 0.577327 0.396234 0.834500
Si Si4 0.920134 0.099464 0.959805
Si Si5 0.922271 0.750000 0.544746
Si Si6 0.923221 0.898362 0.745031
O O1 0.250000 0.750000 0.437983
O O2 0.473436 0.624433 0.392321
O O3 0.499738 0.750000 0.486277
O O4 0.750000 0.970557 0.628855
O O5 0.523539 0.877324 0.578672
O O6 0.513398 0.943397 0.685329
O O7 0.750000 0.397845 0.832481
O O8 0.522439 0.250000 0.817285
O O9 0.526084 0.429439 0.896987
O O10 0.512526 0.504284 0.792111
O O11 0.750000 0.073950 0.964976
O O12 0.957750 0.250000 0.976087
O O13 0.000000 0.000000 0.000000
O O14 0.750000 0.750000 0.535542
O O15 0.750000 0.905029 0.744417
O O16 0.975711 0.750000 0.758015
#
# Coordination Sequence:
#
# PCOD8239958 Si02
#       6
#     4   8   8   8   4   8
#     4  10  20  30  44  68  90 112 147 184 218 264
#     4   9  17  28  42  63  90 116 145 182 223 267
#     4   8  15  26  41  63  93 123 150 187 233 273
#     4   9  18  32  48  71 102 132 164 201 239 284
#     4  10  18  32  48  62  88 120 145 178 222 266
#     4   9  15  24  39  61  89 118 146 181 228 275
#
# _framework density 17.786049999999999
#
# number of rings (size 3 to 8) (size 9 to 14) (size 15 to 20)
#    0.000    3.000    1.000    1.800    1.400    1.200 
#    0.000    2.000    0.000    0.000    0.000    2.800 
#    0.000    0.000    0.000    0.000    0.000    0.000 
#
# Total GULP energy -495839.430789 kJ/mol
# GULP energy per Si atom -12395.985770 kJ/mol
# Density = 1.774557 g / cm^3
# Si number density = 17.786050 Si / 1000 Ang^3
#
#
#
# Elastic Constant Matrix: (Units=GPa)
#
#
# Indices 1 2 3 4 5 6 
#
# 1 15.0520 24.3333 23.4860 0.0000 0.0000 0.0000
# 2 24.3333 184.2913 108.7454 0.0000 0.0000 0.0000
# 3 23.4860 108.7454 152.2085 0.0000 0.0000 0.0000
# 4 0.0000 0.0000 0.0000 40.4308 0.0000 0.0000
# 5 0.0000 0.0000 0.0000 0.0000 20.9138 0.0000
# 6 0.0000 0.0000 0.0000 0.0000 0.0000 14.0882
#
#
#
# Elastic Compliance Matrix: (Units=1/GPa)
#
#
# Indices 1 2 3 4 5 6 
#
# 1 0.091804 -0.006505 -0.009518 0.000000 0.000000 0.000000
# 2 -0.006505 0.009842 -0.006028 0.000000 0.000000 0.000000
# 3 -0.009518 -0.006028 0.012345 0.000000 0.000000 0.000000
# 4 0.000000 0.000000 0.000000 0.024734 0.000000 0.000000
# 5 0.000000 0.000000 0.000000 0.000000 0.047815 0.000000
# 6 0.000000 0.000000 0.000000 0.000000 0.000000 0.070981
#
#
# Mechanical properties :
#
#
# Convention : Reuss Voigt Hill
#
# Bulk Modulus (GPa) = 14.30842 73.85347 44.08095
# Shear Modulus (GPa) = 15.38846 28.08572 21.73709
#
# Velocity S-wave (km/s) = 2.94462 3.97808 3.49971
# Velocity P-wave (km/s) = 4.42981 7.91919 6.41626
#
# Compressibility (1/GPa) = 0.06988891
#
# Stress axis : x y z
#
# Youngs Moduli (GPa) = 10.89283 101.60527 81.00366
#
# Poissons Ratio (x) = 0.66098 0.77097
# Poissons Ratio (y) = 0.07086 0.48828
# Poissons Ratio (z) = 0.10367 0.61246
#
# Static dielectric constant tensor:
#      x y z
#    x 2.625010 0.000000 0.000000 
#    y 0.000000 3.750290 0.000000 
#    z 0.000000 0.000000 3.539640 
# 
# 
# High freq. dielectric constant tensor:
#      x y z
#    x 1.613700 0.000000 0.000000 
#    y 0.000000 1.705740 0.000000 
#    z 0.000000 0.000000 1.698980 
# 
# From -- ./inp_files/29953.got.cif
#   From: 2010.03.12/outbox.cif.g09.slc.cpg/sg59_15_cif.got.tgz:29953.got - 2010.04.16 16:29:54.
