data_PCOD8239528
_publ_section_title
;
Structure prediction by ZEFSAII (Michael W. Deem and Ramdas Pophale) SiO2 
 PCOD8239528
Probable space group: P M M N
;
_chemical_formula_sum "Si O2"
_cell_formula_units_Z 64
_cell_length_a 29.583354
_cell_length_b 9.242456
_cell_length_c 14.831185
_cell_angle_alpha 90.000000
_cell_angle_beta 90.000000
_cell_angle_gamma 90.000000
_cell_volume 4055.184837
_symmetry_space_group_name_H-M "P M M N"
_symmetry_group_IT_number 59
_space_group.IT_coordinate_system_code '2'
_symmetry_cell_setting 'orthorhombic'
loop_
_space_group_symop_operation_xyz
x,y,z
1/2-x,1/2-y,z
1/2+x,-y,-z
-x,1/2+y,-z
-x,-y,-z
1/2+x,1/2+y,-z
1/2-x,y,z
x,1/2-y,z
loop_
_atom_site_type_symbol
_atom_site_label
_atom_site_fract_x
_atom_site_fract_y
_atom_site_fract_z
Si Si1 0.465289 0.581537 0.622226
Si Si2 0.895360 0.581427 0.034103
Si Si3 0.460001 0.082178 0.806495
Si Si4 0.799775 0.919960 0.975344
Si Si5 0.800129 0.413662 0.795274
Si Si6 0.563915 0.582006 0.546146
Si Si7 0.387435 0.583258 0.306302
Si Si8 0.441400 0.581677 0.129705
O O1 0.452830 0.750000 0.621187
O O2 0.454810 0.517195 0.719585
O O3 0.517316 0.553984 0.598371
O O4 0.434590 0.499469 0.549245
O O5 0.900581 0.750000 0.012357
O O6 0.917651 0.543857 0.129844
O O7 0.841924 0.536982 0.039970
O O8 0.921475 0.500547 0.955233
O O9 0.460283 0.250000 0.776569
O O10 0.505654 0.045323 0.860935
O O11 0.750000 0.976464 0.009892
O O12 0.797350 0.750000 0.963878
O O13 0.811438 0.983125 0.877999
O O14 0.750000 0.442857 0.757016
O O15 0.805338 0.250000 0.831523
O O16 0.834655 0.441117 0.714120
O O17 0.572999 0.750000 0.528559
O O18 0.603033 0.515973 0.607839
O O19 0.398963 0.750000 0.329171
O O20 0.416643 0.530698 0.220814
O O21 0.432543 0.750000 0.113065
#
# Coordination Sequence:
#
# PCOD8239528 Si02
#       8
#     8   8   8   8   8   8   8   8
#     4  10  20  33  49  69  91 118 152 190 229 270
#     4  10  20  31  45  65  90 124 160 192 229 273
#     4  10  20  33  46  63  92 126 158 193 231 271
#     4   9  17  29  44  63  88 117 152 194 234 270
#     4   9  17  29  45  65  90 121 155 189 227 270
#     4  10  20  32  49  70  92 119 150 186 228 274
#     4  10  18  29  46  68  94 124 155 188 226 270
#     4  10  19  30  44  64  93 127 158 189 224 264
#
# _framework density 15.782265000000001
#
# number of rings (size 3 to 8) (size 9 to 14) (size 15 to 20)
#    0.000    2.250    2.500    1.125    0.000    3.000 
#    0.000    0.000    0.000    0.000    0.000    0.875 
#    0.000    3.000    0.000    0.000    0.000    0.000 
#
# Total GULP energy -793515.134001 kJ/mol
# GULP energy per Si atom -12398.673969 kJ/mol
# Density = 1.574634 g / cm^3
# Si number density = 15.782265 Si / 1000 Ang^3
#
#
#
# Elastic Constant Matrix: (Units=GPa)
#
#
# Indices 1 2 3 4 5 6 
#
# 1 104.0302 40.2671 53.3373 0.0000 0.0000 0.0000
# 2 40.2671 57.9296 51.2280 0.0000 0.0000 0.0000
# 3 53.3373 51.2280 95.6557 0.0000 0.0000 0.0000
# 4 0.0000 0.0000 0.0000 29.4477 0.0000 0.0000
# 5 0.0000 0.0000 0.0000 0.0000 18.9334 0.0000
# 6 0.0000 0.0000 0.0000 0.0000 0.0000 17.2368
#
#
#
# Elastic Compliance Matrix: (Units=1/GPa)
#
#
# Indices 1 2 3 4 5 6 
#
# 1 0.014327 -0.005498 -0.005044 0.000000 0.000000 0.000000
# 2 -0.005498 0.034902 -0.015626 0.000000 0.000000 0.000000
# 3 -0.005044 -0.015626 0.021635 0.000000 0.000000 0.000000
# 4 0.000000 0.000000 0.000000 0.033958 0.000000 0.000000
# 5 0.000000 0.000000 0.000000 0.000000 0.052817 0.000000
# 6 0.000000 0.000000 0.000000 0.000000 0.000000 0.058015
#
#
# Mechanical properties :
#
#
# Convention : Reuss Voigt Hill
#
# Bulk Modulus (GPa) = 53.97267 60.80892 57.39080
# Shear Modulus (GPa) = 18.23699 20.64247 19.43973
#
# Velocity S-wave (km/s) = 3.40301 3.62049 3.51343
# Velocity P-wave (km/s) = 7.05076 7.48938 7.27337
#
# Compressibility (1/GPa) = 0.01852790
#
# Stress axis : x y z
#
# Youngs Moduli (GPa) = 69.79858 28.65126 46.22074
#
# Poissons Ratio (x) = 0.15753 0.23315
# Poissons Ratio (y) = 0.38376 0.72225
# Poissons Ratio (z) = 0.35208 0.44771
#
# Static dielectric constant tensor:
#      x y z
#    x 3.272040 0.000000 0.000000 
#    y 0.000000 3.061510 0.000000 
#    z 0.000000 0.000000 2.808600 
# 
# 
# High freq. dielectric constant tensor:
#      x y z
#    x 1.600010 0.000000 0.000000 
#    y 0.000000 1.610360 0.000000 
#    z 0.000000 0.000000 1.582080 
# 
# From -- ./inp_files/21854.got.cif
#   From: 2010.03.12/outbox.cif.g09.slc.cpg/sg59_11_cif.got.tgz:21854.got - 2010.04.16 16:29:54.
