data_PCOD8239374
_publ_section_title
;
Structure prediction by ZEFSAII (Michael W. Deem and Ramdas Pophale) SiO2 
 PCOD8239374
Probable space group: P M M N
;
_chemical_formula_sum "Si O2"
_cell_formula_units_Z 64
_cell_length_a 9.082687
_cell_length_b 23.416681
_cell_length_c 17.131590
_cell_angle_alpha 90.000000
_cell_angle_beta 90.000000
_cell_angle_gamma 90.000000
_cell_volume 3643.655931
_symmetry_space_group_name_H-M "P M M N"
_symmetry_group_IT_number 59
_space_group.IT_coordinate_system_code '2'
_symmetry_cell_setting 'orthorhombic'
loop_
_space_group_symop_operation_xyz
x,y,z
1/2-x,1/2-y,z
1/2+x,-y,-z
-x,1/2+y,-z
-x,-y,-z
1/2+x,1/2+y,-z
1/2-x,y,z
x,1/2-y,z
loop_
_atom_site_type_symbol
_atom_site_label
_atom_site_fract_x
_atom_site_fract_y
_atom_site_fract_z
Si Si1 0.923633 0.009436 0.581718
Si Si2 0.423725 0.431692 0.274748
Si Si3 0.924117 0.811878 0.780077
Si Si4 0.921124 0.109948 0.917317
Si Si5 0.585521 0.900970 0.323788
Si Si6 0.577901 0.814931 0.957990
Si Si7 0.415522 0.019475 0.826058
Si Si8 0.580985 0.314741 0.766964
O O1 0.750000 0.012150 0.570238
O O2 0.969549 0.959139 0.642237
O O3 0.000000 0.000000 0.500000
O O4 0.980936 0.069985 0.612591
O O5 0.250000 0.438158 0.261657
O O6 0.475522 0.365143 0.273870
O O7 0.500385 0.462605 0.201400
O O8 0.750000 0.808076 0.778495
O O9 0.987282 0.750000 0.750378
O O10 0.974003 0.822409 0.868836
O O11 0.750000 0.097243 0.930420
O O12 0.949800 0.153753 0.847609
O O13 0.000469 0.049669 0.898168
O O14 0.986964 0.138419 0.994301
O O15 0.750000 0.893714 0.357948
O O16 0.587335 0.937800 0.246005
O O17 0.517845 0.839535 0.303074
O O18 0.750000 0.828097 0.968462
O O19 0.543296 0.750000 0.985636
O O20 0.250000 0.003717 0.852531
O O21 0.750000 0.321350 0.741759
O O22 0.533526 0.250000 0.779691
#
# Coordination Sequence:
#
# PCOD8239374 Si02
#       8
#     8   8   8   8   8   8   8   8
#     4  10  19  31  50  75  99 122 148 183 228 278
#     4   9  17  31  52  75  96 120 154 192 230 280
#     4   8  15  30  52  74  94 119 153 194 239 283
#     4  10  18  28  43  64  92 125 163 205 243 279
#     4   9  17  29  45  66  92 120 152 190 227 267
#     4   9  17  29  45  65  90 121 157 198 244 289
#     4   9  17  29  45  66  93 124 156 193 239 284
#     4   9  17  28  42  62  90 125 160 191 228 273
#
# _framework density 17.564776999999999
#
# number of rings (size 3 to 8) (size 9 to 14) (size 15 to 20)
#    0.000    2.875    0.000    2.625    0.000    5.000 
#    0.000    1.250    0.000    1.875    0.000    1.750 
#    0.000    0.000    0.000    0.000    0.000    0.000 
#
# Total GULP energy -793313.604738 kJ/mol
# GULP energy per Si atom -12395.525074 kJ/mol
# Density = 1.752480 g / cm^3
# Si number density = 17.564777 Si / 1000 Ang^3
#
#
#
# Elastic Constant Matrix: (Units=GPa)
#
#
# Indices 1 2 3 4 5 6 
#
# 1 71.4431 35.3693 30.0699 0.0000 0.0000 0.0000
# 2 35.3693 108.5817 38.1656 0.0000 0.0000 0.0000
# 3 30.0699 38.1656 61.4315 0.0000 0.0000 0.0000
# 4 0.0000 0.0000 0.0000 20.3931 0.0000 0.0000
# 5 0.0000 0.0000 0.0000 0.0000 20.8388 0.0000
# 6 0.0000 0.0000 0.0000 0.0000 0.0000 22.9096
#
#
#
# Elastic Compliance Matrix: (Units=1/GPa)
#
#
# Indices 1 2 3 4 5 6 
#
# 1 0.018712 -0.003679 -0.006873 0.000000 0.000000 0.000000
# 2 -0.003679 0.012506 -0.005969 0.000000 0.000000 0.000000
# 3 -0.006873 -0.005969 0.023351 0.000000 0.000000 0.000000
# 4 0.000000 0.000000 0.000000 0.049036 0.000000 0.000000
# 5 0.000000 0.000000 0.000000 0.000000 0.047987 0.000000
# 6 0.000000 0.000000 0.000000 0.000000 0.000000 0.043650
#
#
# Mechanical properties :
#
#
# Convention : Reuss Voigt Hill
#
# Bulk Modulus (GPa) = 46.45528 49.85176 48.15352
# Shear Modulus (GPa) = 21.23506 22.01840 21.62673
#
# Velocity S-wave (km/s) = 3.48078 3.54440 3.51273
# Velocity P-wave (km/s) = 6.53145 6.72262 6.62772
#
# Compressibility (1/GPa) = 0.02152608
#
# Stress axis : x y z
#
# Youngs Moduli (GPa) = 53.44299 79.96120 42.82496
#
# Poissons Ratio (x) = 0.29419 0.29435
# Poissons Ratio (y) = 0.19663 0.25561
# Poissons Ratio (z) = 0.36733 0.47727
#
# Static dielectric constant tensor:
#      x y z
#    x 3.273460 0.000000 0.000000 
#    y 0.000000 3.663860 0.000000 
#    z 0.000000 0.000000 3.059000 
# 
# 
# High freq. dielectric constant tensor:
#      x y z
#    x 1.673980 0.000000 0.000000 
#    y 0.000000 1.677920 0.000000 
#    z 0.000000 0.000000 1.646050 
# 
# From -- ./inp_files/26217.got.cif
#   From: 2010.03.12/outbox.cif.g09.slc.cpg/sg59_14_cif.got.tgz:26217.got - 2010.04.16 16:29:54.
