data_PCOD8239259
_publ_section_title
;
Structure prediction by ZEFSAII (Michael W. Deem and Ramdas Pophale) SiO2 
 PCOD8239259
Probable space group: P M M N
;
_chemical_formula_sum "Si O2"
_cell_formula_units_Z 64
_cell_length_a 9.222112
_cell_length_b 27.062373
_cell_length_c 16.706528
_cell_angle_alpha 90.000000
_cell_angle_beta 90.000000
_cell_angle_gamma 90.000000
_cell_volume 4169.485529
_symmetry_space_group_name_H-M "P M M N"
_symmetry_group_IT_number 59
_space_group.IT_coordinate_system_code '2'
_symmetry_cell_setting 'orthorhombic'
loop_
_space_group_symop_operation_xyz
x,y,z
1/2-x,1/2-y,z
1/2+x,-y,-z
-x,1/2+y,-z
-x,-y,-z
1/2+x,1/2+y,-z
1/2-x,y,z
x,1/2-y,z
loop_
_atom_site_type_symbol
_atom_site_label
_atom_site_fract_x
_atom_site_fract_y
_atom_site_fract_z
Si Si1 0.418299 0.448888 0.507246
Si Si2 0.917385 0.057301 0.834605
Si Si3 0.421265 0.577472 0.638791
Si Si4 0.418412 0.615660 0.015270
Si Si5 0.087530 0.374911 0.225795
Si Si6 0.420771 0.193296 0.083283
Si Si7 0.414901 0.465904 0.682117
Si Si8 0.086609 0.044188 0.094740
O O1 0.500000 0.500000 0.500000
O O2 0.250000 0.454671 0.482926
O O3 0.498738 0.411476 0.446244
O O4 0.431965 0.433513 0.600656
O O5 0.750000 0.049084 0.814524
O O6 0.997262 0.062740 0.750301
O O7 0.974272 0.009876 0.884189
O O8 0.941762 0.105855 0.889783
O O9 0.250000 0.582543 0.626946
O O10 0.477131 0.619040 0.700504
O O11 0.466509 0.522629 0.668936
O O12 0.250000 0.621377 0.994088
O O13 0.500460 0.665563 0.989852
O O14 0.478660 0.568094 0.968821
O O15 0.250000 0.364040 0.258045
O O16 0.033765 0.330146 0.168640
O O17 0.086491 0.425201 0.176347
O O18 0.250000 0.186188 0.070263
O O19 0.468931 0.250000 0.082277
O O20 0.250000 0.467283 0.710715
O O21 0.250000 0.042455 0.059039
#
# Coordination Sequence:
#
# PCOD8239259 Si02
#       8
#     8   8   8   8   8   8   8   8
#     4   9  17  28  40  57  81 112 150 185 215 248
#     4  10  19  29  41  59  86 118 150 181 216 257
#     4  10  18  27  40  61  86 114 148 181 214 254
#     4  10  20  30  43  65  87 110 143 182 222 263
#     4   9  16  27  45  65  84 111 145 181 218 256
#     4   9  19  36  53  66  84 112 145 180 223 273
#     4   9  18  28  39  58  83 115 152 185 215 245
#     4   9  17  29  42  58  83 118 152 178 213 256
#
# _framework density 15.349615
#
# number of rings (size 3 to 8) (size 9 to 14) (size 15 to 20)
#    0.000    2.625    1.250    3.000    0.000    6.250 
#    0.000    0.000    0.000    0.000    0.000    0.000 
#    0.000    1.000    0.000    9.000    0.000    5.250 
#
# Total GULP energy -793288.932656 kJ/mol
# GULP energy per Si atom -12395.139573 kJ/mol
# Density = 1.531468 g / cm^3
# Si number density = 15.349615 Si / 1000 Ang^3
#
#
#
# Elastic Constant Matrix: (Units=GPa)
#
#
# Indices 1 2 3 4 5 6 
#
# 1 77.7094 29.9545 55.5449 0.0000 0.0000 0.0000
# 2 29.9545 65.4975 42.7838 0.0000 0.0000 0.0000
# 3 55.5449 42.7838 100.2118 0.0000 0.0000 0.0000
# 4 0.0000 0.0000 0.0000 12.4710 0.0000 0.0000
# 5 0.0000 0.0000 0.0000 0.0000 30.6693 0.0000
# 6 0.0000 0.0000 0.0000 0.0000 0.0000 16.0247
#
#
#
# Elastic Compliance Matrix: (Units=1/GPa)
#
#
# Indices 1 2 3 4 5 6 
#
# 1 0.021693 -0.002866 -0.010800 0.000000 0.000000 0.000000
# 2 -0.002866 0.021551 -0.007612 0.000000 0.000000 0.000000
# 3 -0.010800 -0.007612 0.019215 0.000000 0.000000 0.000000
# 4 0.000000 0.000000 0.000000 0.080186 0.000000 0.000000
# 5 0.000000 0.000000 0.000000 0.000000 0.032606 0.000000
# 6 0.000000 0.000000 0.000000 0.000000 0.000000 0.062404
#
#
# Mechanical properties :
#
#
# Convention : Reuss Voigt Hill
#
# Bulk Modulus (GPa) = 50.24659 55.55390 52.90024
# Shear Modulus (GPa) = 17.43096 19.50870 18.46983
#
# Velocity S-wave (km/s) = 3.37352 3.56892 3.47259
# Velocity P-wave (km/s) = 6.92676 7.29752 7.11456
#
# Compressibility (1/GPa) = 0.01990185
#
# Stress axis : x y z
#
# Youngs Moduli (GPa) = 46.09776 46.40166 52.04260
#
# Poissons Ratio (x) = 0.13300 0.56207
# Poissons Ratio (y) = 0.13213 0.39616
# Poissons Ratio (z) = 0.49787 0.35322
#
# Static dielectric constant tensor:
#      x y z
#    x 2.990410 0.000000 0.000000 
#    y 0.000000 2.608490 0.000000 
#    z 0.000000 0.000000 3.191870 
# 
# 
# High freq. dielectric constant tensor:
#      x y z
#    x 1.597660 0.000000 0.000000 
#    y 0.000000 1.530610 0.000000 
#    z 0.000000 0.000000 1.586780 
# 
# From -- ./inp_files/26692.got.cif
#   From: 2010.03.12/outbox.cif.g09.slc.cpg/sg59_14_cif.got.tgz:26692.got - 2010.04.16 16:29:54.
