data_PCOD8239139
_publ_section_title
;
Structure prediction by ZEFSAII (Michael W. Deem and Ramdas Pophale) SiO2 
 PCOD8239139
Probable space group: P M M N
;
_chemical_formula_sum "Si O2"
_cell_formula_units_Z 48
_cell_length_a 26.286111
_cell_length_b 8.463157
_cell_length_c 11.988126
_cell_angle_alpha 90.000000
_cell_angle_beta 90.000000
_cell_angle_gamma 90.000000
_cell_volume 2666.920280
_symmetry_space_group_name_H-M "P M M N"
_symmetry_group_IT_number 59
_space_group.IT_coordinate_system_code '2'
_symmetry_cell_setting 'orthorhombic'
loop_
_space_group_symop_operation_xyz
x,y,z
1/2-x,1/2-y,z
1/2+x,-y,-z
-x,1/2+y,-z
-x,-y,-z
1/2+x,1/2+y,-z
1/2-x,y,z
x,1/2-y,z
loop_
_atom_site_type_symbol
_atom_site_label
_atom_site_fract_x
_atom_site_fract_y
_atom_site_fract_z
Si Si1 0.376224 0.432610 0.505135
Si Si2 0.392489 0.066743 0.176864
Si Si3 0.568313 0.562371 0.286381
Si Si4 0.053506 0.434136 0.958233
Si Si5 0.959633 0.433203 0.641410
Si Si6 0.307702 0.565432 0.320539
O O1 0.360679 0.250000 0.497052
O O2 0.383491 0.486880 0.635123
O O3 0.431168 0.457805 0.448256
O O4 0.333385 0.532649 0.441151
O O5 0.403259 0.250000 0.204014
O O6 0.432454 0.955359 0.239527
O O7 0.335770 0.024214 0.218874
O O8 0.400782 0.031838 0.045579
O O9 0.566052 0.750000 0.280166
O O10 0.571337 0.491296 0.160911
O O11 0.516858 0.502997 0.346469
O O12 0.044694 0.250000 0.942068
O O13 0.000000 0.500000 0.000000
O O14 0.956164 0.250000 0.606643
O O15 0.250000 0.504022 0.324425
O O16 0.310464 0.750000 0.296394
#
# Coordination Sequence:
#
# PCOD8239139 Si02
#       6
#     8   8   8   8   8   8
#     4  10  19  31  48  71  98 126 161 203 243 289
#     4  10  19  30  49  76 101 127 165 208 242 281
#     4   9  18  30  45  67 100 138 166 193 235 282
#     4  10  19  32  48  70 102 138 172 201 233 281
#     4  10  17  28  46  66  98 137 165 196 235 282
#     4  10  21  37  56  74  94 122 157 204 260 307
#
# _framework density 17.998287000000001
#
# number of rings (size 3 to 8) (size 9 to 14) (size 15 to 20)
#    0.000    2.167    1.667    4.500    0.000    2.000 
#    0.000    4.167    0.000    1.000    0.000    7.000 
#    0.000    0.000    0.000    0.000    0.000    0.000 
#
# Total GULP energy -594839.911317 kJ/mol
# GULP energy per Si atom -12392.498152 kJ/mol
# Density = 1.795732 g / cm^3
# Si number density = 17.998287 Si / 1000 Ang^3
#
#
#
# Elastic Constant Matrix: (Units=GPa)
#
#
# Indices 1 2 3 4 5 6 
#
# 1 102.1181 11.9993 55.5304 0.0000 0.0000 0.0000
# 2 11.9993 33.5376 11.1190 0.0000 0.0000 0.0000
# 3 55.5304 11.1190 118.6500 0.0000 0.0000 0.0000
# 4 0.0000 0.0000 0.0000 16.9034 0.0000 0.0000
# 5 0.0000 0.0000 0.0000 0.0000 12.2652 0.0000
# 6 0.0000 0.0000 0.0000 0.0000 0.0000 22.5887
#
#
#
# Elastic Compliance Matrix: (Units=1/GPa)
#
#
# Indices 1 2 3 4 5 6 
#
# 1 0.013385 -0.002799 -0.006002 0.000000 0.000000 0.000000
# 2 -0.002799 0.031359 -0.001629 0.000000 0.000000 0.000000
# 3 -0.006002 -0.001629 0.011390 0.000000 0.000000 0.000000
# 4 0.000000 0.000000 0.000000 0.059160 0.000000 0.000000
# 5 0.000000 0.000000 0.000000 0.000000 0.081532 0.000000
# 6 0.000000 0.000000 0.000000 0.000000 0.000000 0.044270
#
#
# Mechanical properties :
#
#
# Convention : Reuss Voigt Hill
#
# Bulk Modulus (GPa) = 28.34953 45.73368 37.04160
# Shear Modulus (GPa) = 18.26727 22.06194 20.16460
#
# Velocity S-wave (km/s) = 3.18928 3.50491 3.35081
# Velocity P-wave (km/s) = 5.41732 6.46872 5.96623
#
# Compressibility (1/GPa) = 0.03527395
#
# Stress axis : x y z
#
# Youngs Moduli (GPa) = 74.70784 31.88900 87.79650
#
# Poissons Ratio (x) = 0.08926 0.52698
# Poissons Ratio (y) = 0.20912 0.14299
# Poissons Ratio (z) = 0.44842 0.05194
#
# Static dielectric constant tensor:
#      x y z
#    x 3.193680 0.000000 0.000000 
#    y 0.000000 3.182030 0.000000 
#    z 0.000000 0.000000 3.782280 
# 
# 
# High freq. dielectric constant tensor:
#      x y z
#    x 1.660790 0.000000 0.000000 
#    y 0.000000 1.689260 0.000000 
#    z 0.000000 0.000000 1.702160 
# 
# From -- ./inp_files/14491.got.cif
#   From: 2010.03.12/outbox.cif.g09.slc.cpg/sg59_8_cif.got.tgz:14491.got - 2010.04.16 16:29:54.
