data_PCOD8239063
_publ_section_title
;
Structure prediction by ZEFSAII (Michael W. Deem and Ramdas Pophale) SiO2 
 PCOD8239063
Probable space group: P M M N
;
_chemical_formula_sum "Si O2"
_cell_formula_units_Z 64
_cell_length_a 9.354709
_cell_length_b 14.542257
_cell_length_c 28.504770
_cell_angle_alpha 90.000000
_cell_angle_beta 90.000000
_cell_angle_gamma 90.000000
_cell_volume 3877.748504
_symmetry_space_group_name_H-M "P M M N"
_symmetry_group_IT_number 59
_space_group.IT_coordinate_system_code '2'
_symmetry_cell_setting 'orthorhombic'
loop_
_space_group_symop_operation_xyz
x,y,z
1/2-x,1/2-y,z
1/2+x,-y,-z
-x,1/2+y,-z
-x,-y,-z
1/2+x,1/2+y,-z
1/2-x,y,z
x,1/2-y,z
loop_
_atom_site_type_symbol
_atom_site_label
_atom_site_fract_x
_atom_site_fract_y
_atom_site_fract_z
Si Si1 0.420214 0.019632 0.612043
Si Si2 0.419606 0.148592 0.529164
Si Si3 0.583564 0.644032 0.576479
Si Si4 0.580000 0.853548 0.200426
Si Si5 0.085553 0.143496 0.975089
Si Si6 0.580085 0.852895 0.304513
Si Si7 0.918360 0.533723 0.114149
Si Si8 0.582959 0.352728 0.067879
O O1 0.250000 0.008682 0.612280
O O2 0.476994 0.075003 0.566483
O O3 0.477075 0.073621 0.657868
O O4 0.492140 0.919320 0.611596
O O5 0.250000 0.152141 0.530785
O O6 0.478804 0.250000 0.542480
O O7 0.468955 0.122919 0.476615
O O8 0.750000 0.620824 0.582339
O O9 0.553703 0.750000 0.589394
O O10 0.750000 0.857567 0.200025
O O11 0.529608 0.750000 0.188045
O O12 0.525417 0.881260 0.252476
O O13 0.514549 0.924391 0.162009
O O14 0.250000 0.118004 0.984900
O O15 0.067299 0.250000 0.962665
O O16 0.021726 0.087086 0.931279
O O17 0.997190 0.116361 0.020997
O O18 0.750000 0.851878 0.305905
O O19 0.524838 0.750000 0.316978
O O20 0.750000 0.550269 0.115924
O O21 0.955786 0.425141 0.109221
O O22 0.750000 0.356637 0.056268
O O23 0.536774 0.250000 0.084069
#
# Coordination Sequence:
#
# PCOD8239063 Si02
#       8
#     8   8   8   8   8   8   8   8
#     4  10  17  25  43  67  86 106 135 172 209 243
#     4   8  14  25  41  61  85 112 140 168 201 245
#     4   9  18  31  43  56  80 115 148 173 200 239
#     4   8  13  22  37  58  83 106 127 156 195 236
#     4   9  16  25  38  57  78  99 127 162 195 226
#     4   8  14  24  39  62  89 110 128 157 203 254
#     4   9  15  23  37  55  76 103 133 162 190 224
#     4   9  17  27  37  52  77 106 131 156 190 231
#
# _framework density 16.504422000000002
#
# number of rings (size 3 to 8) (size 9 to 14) (size 15 to 20)
#    0.000    3.250    0.000    3.000    0.000    3.250 
#    0.000    0.000    0.000    3.000    0.000    5.250 
#    0.000    4.000    0.000    0.000    0.000    0.000 
#
# Total GULP energy -793151.028885 kJ/mol
# GULP energy per Si atom -12392.984826 kJ/mol
# Density = 1.646686 g / cm^3
# Si number density = 16.504422 Si / 1000 Ang^3
#
#
#
# Elastic Constant Matrix: (Units=GPa)
#
#
# Indices 1 2 3 4 5 6 
#
# 1 18.5988 24.8240 22.0538 0.0000 0.0000 0.0000
# 2 24.8240 118.7815 83.5484 0.0000 0.0000 0.0000
# 3 22.0538 83.5484 115.6769 0.0000 0.0000 0.0000
# 4 0.0000 0.0000 0.0000 30.5422 0.0000 0.0000
# 5 0.0000 0.0000 0.0000 0.0000 12.4502 0.0000
# 6 0.0000 0.0000 0.0000 0.0000 0.0000 18.2310
#
#
#
# Elastic Compliance Matrix: (Units=1/GPa)
#
#
# Indices 1 2 3 4 5 6 
#
# 1 0.076686 -0.011673 -0.006189 0.000000 0.000000 0.000000
# 2 -0.011673 0.018889 -0.011417 0.000000 0.000000 0.000000
# 3 -0.006189 -0.011417 0.018071 0.000000 0.000000 0.000000
# 4 0.000000 0.000000 0.000000 0.032742 0.000000 0.000000
# 5 0.000000 0.000000 0.000000 0.000000 0.080320 0.000000
# 6 0.000000 0.000000 0.000000 0.000000 0.000000 0.054852
#
#
# Mechanical properties :
#
#
# Convention : Reuss Voigt Hill
#
# Bulk Modulus (GPa) = 18.15310 57.10107 37.62708
# Shear Modulus (GPa) = 13.94774 20.42008 17.18391
#
# Velocity S-wave (km/s) = 2.91020 3.52127 3.23022
# Velocity P-wave (km/s) = 4.72389 7.15577 6.06301
#
# Compressibility (1/GPa) = 0.05508702
#
# Stress axis : x y z
#
# Youngs Moduli (GPa) = 13.04011 52.94079 55.33768
#
# Poissons Ratio (x) = 0.61799 0.34249
# Poissons Ratio (y) = 0.15222 0.63180
# Poissons Ratio (z) = 0.08071 0.60444
#
# Static dielectric constant tensor:
#      x y z
#    x 2.603950 0.000000 0.000000 
#    y 0.000000 3.267930 0.000000 
#    z 0.000000 0.000000 3.288150 
# 
# 
# High freq. dielectric constant tensor:
#      x y z
#    x 1.579940 0.000000 0.000000 
#    y 0.000000 1.641050 0.000000 
#    z 0.000000 0.000000 1.621870 
# 
# From -- ./inp_files/33227.got.cif
#   From: 2010.03.12/outbox.cif.g09.slc.cpg/sg59_17_cif.got.tgz:33227.got - 2010.04.16 16:29:54.
