data_PCOD8239853
_publ_section_title
;
Structure prediction by ZEFSAII (Michael W. Deem and Ramdas Pophale) SiO2 
 PCOD8239853
Probable space group: P M M N
;
_chemical_formula_sum "Si O2"
_cell_formula_units_Z 48
_cell_length_a 19.182372
_cell_length_b 8.692920
_cell_length_c 15.655908
_cell_angle_alpha 90.000000
_cell_angle_beta 90.000000
_cell_angle_gamma 90.000000
_cell_volume 2610.635578
_symmetry_space_group_name_H-M "P M M N"
_symmetry_group_IT_number 59
_space_group.IT_coordinate_system_code '2'
_symmetry_cell_setting 'orthorhombic'
loop_
_space_group_symop_operation_xyz
x,y,z
1/2-x,1/2-y,z
1/2+x,-y,-z
-x,1/2+y,-z
-x,-y,-z
1/2+x,1/2+y,-z
1/2-x,y,z
x,1/2-y,z
loop_
_atom_site_type_symbol
_atom_site_label
_atom_site_fract_x
_atom_site_fract_y
_atom_site_fract_z
Si Si1 0.423605 0.930652 0.670952
Si Si2 0.671952 0.430684 0.826544
Si Si3 0.577261 0.933047 0.500613
Si Si4 0.331235 0.430059 0.814152
Si Si5 0.832754 0.920106 0.997008
Si Si6 0.923775 0.433159 0.673671
O O1 0.434392 0.750000 0.658947
O O2 0.386966 0.001332 0.585482
O O3 0.373534 0.964255 0.749662
O O4 0.498005 0.008662 0.687759
O O5 0.750000 0.500253 0.815387
O O6 0.675253 0.250000 0.819655
O O7 0.640517 0.473295 0.919628
O O8 0.622248 0.495533 0.752471
O O9 0.578100 0.750000 0.499607
O O10 0.500000 0.000000 0.500000
O O11 0.611837 0.996621 0.587796
O O12 0.250000 0.466243 0.801670
O O13 0.346275 0.250000 0.798021
O O14 0.357157 0.477990 0.909499
O O15 0.750000 0.915792 0.999539
O O16 0.862581 0.750000 0.980031
O O17 0.924175 0.250000 0.667187
#
# Coordination Sequence:
#
# PCOD8239853 Si02
#       6
#     8   8   8   8   8   8
#     4  11  21  33  51  75 101 129 165 205 245 292
#     4   9  18  32  51  75 101 129 162 202 246 290
#     4  10  18  31  51  72  96 128 166 204 244 293
#     4   9  18  34  54  75 100 130 164 202 246 294
#     4   8  15  29  50  73  97 128 163 198 239 291
#     4  10  19  33  52  73 100 132 165 203 248 295
#
# _framework density 18.386327000000001
#
# number of rings (size 3 to 8) (size 9 to 14) (size 15 to 20)
#    0.000    2.500    0.000    6.500    0.000    2.333 
#    0.000    3.333    0.000    3.000    0.000    0.000 
#    0.000    0.000    0.000    0.000    0.000    0.000 
#
# Total GULP energy -594912.607421 kJ/mol
# GULP energy per Si atom -12394.012655 kJ/mol
# Density = 1.834448 g / cm^3
# Si number density = 18.386327 Si / 1000 Ang^3
#
#
#
# Elastic Constant Matrix: (Units=GPa)
#
#
# Indices 1 2 3 4 5 6 
#
# 1 43.7486 22.0149 48.9624 0.0000 0.0000 0.0000
# 2 22.0149 90.5353 50.2729 0.0000 0.0000 0.0000
# 3 48.9624 50.2729 177.4565 0.0000 0.0000 0.0000
# 4 0.0000 0.0000 0.0000 37.2006 0.0000 0.0000
# 5 0.0000 0.0000 0.0000 0.0000 31.5934 0.0000
# 6 0.0000 0.0000 0.0000 0.0000 0.0000 16.4579
#
#
#
# Elastic Compliance Matrix: (Units=1/GPa)
#
#
# Indices 1 2 3 4 5 6 
#
# 1 0.034048 -0.003635 -0.008365 0.000000 0.000000 0.000000
# 2 -0.003635 0.013495 -0.002820 0.000000 0.000000 0.000000
# 3 -0.008365 -0.002820 0.008742 0.000000 0.000000 0.000000
# 4 0.000000 0.000000 0.000000 0.026881 0.000000 0.000000
# 5 0.000000 0.000000 0.000000 0.000000 0.031652 0.000000
# 6 0.000000 0.000000 0.000000 0.000000 0.000000 0.060761
#
#
# Mechanical properties :
#
#
# Convention : Reuss Voigt Hill
#
# Bulk Modulus (GPa) = 37.52821 61.58230 49.55525
# Shear Modulus (GPa) = 23.35335 29.74972 26.55153
#
# Velocity S-wave (km/s) = 3.56778 4.02684 3.80424
# Velocity P-wave (km/s) = 6.11779 7.42879 6.80493
#
# Compressibility (1/GPa) = 0.02664662
#
# Stress axis : x y z
#
# Youngs Moduli (GPa) = 29.36990 74.09988 114.38873
#
# Poissons Ratio (x) = 0.26932 0.95683
# Poissons Ratio (y) = 0.10675 0.32262
# Poissons Ratio (z) = 0.24567 0.20899
#
# Static dielectric constant tensor:
#      x y z
#    x 3.081640 0.000000 0.000000 
#    y 0.000000 3.353510 0.000000 
#    z 0.000000 0.000000 4.154690 
# 
# 
# High freq. dielectric constant tensor:
#      x y z
#    x 1.663470 0.000000 0.000000 
#    y 0.000000 1.713280 0.000000 
#    z 0.000000 0.000000 1.738400 
# 
# From -- ./inp_files/27367.got.cif
#   From: 2010.03.12/outbox.cif.g09.slc.cpg/sg59_14_cif.got.tgz:27367.got - 2010.04.16 16:29:54.
