data_PCOD8239243
_publ_section_title
;
Structure prediction by ZEFSAII (Michael W. Deem and Ramdas Pophale) SiO2 
 PCOD8239243
Probable space group: P M M N
;
_chemical_formula_sum "Si O2"
_cell_formula_units_Z 64
_cell_length_a 9.359475
_cell_length_b 25.101430
_cell_length_c 18.434617
_cell_angle_alpha 90.000000
_cell_angle_beta 90.000000
_cell_angle_gamma 90.000000
_cell_volume 4330.958987
_symmetry_space_group_name_H-M "P M M N"
_symmetry_group_IT_number 59
_space_group.IT_coordinate_system_code '2'
_symmetry_cell_setting 'orthorhombic'
loop_
_space_group_symop_operation_xyz
x,y,z
1/2-x,1/2-y,z
1/2+x,-y,-z
-x,1/2+y,-z
-x,-y,-z
1/2+x,1/2+y,-z
1/2-x,y,z
x,1/2-y,z
loop_
_atom_site_type_symbol
_atom_site_label
_atom_site_fract_x
_atom_site_fract_y
_atom_site_fract_z
Si Si1 0.915910 0.511547 0.393056
Si Si2 0.415170 0.397566 0.177655
Si Si3 0.417594 0.809999 0.567966
Si Si4 0.908543 0.926038 0.974159
Si Si5 0.916727 0.081326 0.500479
Si Si6 0.088063 0.189947 0.290342
Si Si7 0.088324 0.958612 0.099111
Si Si8 0.919067 0.499051 0.226009
O O1 0.750000 0.523347 0.403685
O O2 0.956668 0.454898 0.430212
O O3 0.958327 0.511454 0.308956
O O4 0.999822 0.560245 0.429659
O O5 0.250000 0.416832 0.187966
O O6 0.443814 0.385734 0.092050
O O7 0.448975 0.343663 0.219520
O O8 0.523284 0.440691 0.209076
O O9 0.250000 0.811193 0.581311
O O10 0.465634 0.750000 0.542294
O O11 0.461115 0.856620 0.511620
O O12 0.487993 0.826263 0.643515
O O13 0.750000 0.916832 0.005776
O O14 0.918169 0.983483 0.936196
O O15 0.018249 0.918325 0.040470
O O16 0.750000 0.076850 0.517483
O O17 0.250000 0.180553 0.316469
O O18 0.060321 0.250000 0.266219
O O19 0.250000 0.940216 0.115196
O O20 0.997811 0.958143 0.173791
O O21 0.750000 0.501106 0.211588
#
# Coordination Sequence:
#
# PCOD8239243 Si02
#       8
#     8   8   8   8   8   8   8   8
#     4   9  18  29  40  57  80 106 135 165 198 237
#     4   9  17  27  39  56  78 105 136 166 194 229
#     4   9  17  29  44  61  81 105 134 168 203 239
#     4   8  14  24  36  51  73 101 130 157 187 221
#     4   9  17  29  43  58  78 105 135 165 198 237
#     4   9  17  28  41  58  80 105 133 165 199 232
#     4   9  16  25  37  54  76 100 127 158 189 223
#     4  10  18  27  40  57  78 104 133 163 196 235
#
# _framework density 14.777327
#
# number of rings (size 3 to 8) (size 9 to 14) (size 15 to 20)
#    0.000    3.000    0.000    2.250    0.000    6.000 
#    0.000    2.500    0.000    0.000    0.000    0.000 
#    0.000    1.000    0.000    4.250    0.000    3.000 
#
# Total GULP energy -793208.742842 kJ/mol
# GULP energy per Si atom -12393.886607 kJ/mol
# Density = 1.474369 g / cm^3
# Si number density = 14.777327 Si / 1000 Ang^3
#
#
#
# Elastic Constant Matrix: (Units=GPa)
#
#
# Indices 1 2 3 4 5 6 
#
# 1 68.4218 31.7135 55.9311 0.0000 0.0000 0.0000
# 2 31.7135 62.7998 43.5587 0.0000 0.0000 0.0000
# 3 55.9311 43.5587 108.9182 0.0000 0.0000 0.0000
# 4 0.0000 0.0000 0.0000 21.4615 0.0000 0.0000
# 5 0.0000 0.0000 0.0000 0.0000 27.1229 0.0000
# 6 0.0000 0.0000 0.0000 0.0000 0.0000 16.0776
#
#
#
# Elastic Compliance Matrix: (Units=1/GPa)
#
#
# Indices 1 2 3 4 5 6 
#
# 1 0.026472 -0.005452 -0.011414 0.000000 0.000000 0.000000
# 2 -0.005452 0.023159 -0.006462 0.000000 0.000000 0.000000
# 3 -0.011414 -0.006462 0.017627 0.000000 0.000000 0.000000
# 4 0.000000 0.000000 0.000000 0.046595 0.000000 0.000000
# 5 0.000000 0.000000 0.000000 0.000000 0.036869 0.000000
# 6 0.000000 0.000000 0.000000 0.000000 0.000000 0.062198
#
#
# Mechanical properties :
#
#
# Convention : Reuss Voigt Hill
#
# Bulk Modulus (GPa) = 48.53733 55.83849 52.18791
# Shear Modulus (GPa) = 18.76577 20.19484 19.48031
#
# Velocity S-wave (km/s) = 3.56744 3.70078 3.63472
# Velocity P-wave (km/s) = 7.06300 7.49197 7.28064
#
# Compressibility (1/GPa) = 0.02060270
#
# Stress axis : x y z
#
# Youngs Moduli (GPa) = 37.77577 43.17982 56.73241
#
# Poissons Ratio (x) = 0.23540 0.64752
# Poissons Ratio (y) = 0.20594 0.36662
# Poissons Ratio (z) = 0.43115 0.27904
#
# Static dielectric constant tensor:
#      x y z
#    x 2.960160 0.000000 0.000000 
#    y 0.000000 2.724770 0.000000 
#    z 0.000000 0.000000 2.957230 
# 
# 
# High freq. dielectric constant tensor:
#      x y z
#    x 1.573760 0.000000 0.000000 
#    y 0.000000 1.523920 0.000000 
#    z 0.000000 0.000000 1.558380 
# 
# From -- ./inp_files/26488.got.cif
#   From: 2010.03.12/outbox.cif.g09.slc.cpg/sg59_14_cif.got.tgz:26488.got - 2010.04.16 16:29:54.
