data_PCOD8239219
_publ_section_title
;
Structure prediction by ZEFSAII (Michael W. Deem and Ramdas Pophale) SiO2 
 PCOD8239219
Probable space group: P M M N
;
_chemical_formula_sum "Si O2"
_cell_formula_units_Z 64
_cell_length_a 9.320886
_cell_length_b 22.813838
_cell_length_c 20.182638
_cell_angle_alpha 90.000000
_cell_angle_beta 90.000000
_cell_angle_gamma 90.000000
_cell_volume 4291.740755
_symmetry_space_group_name_H-M "P M M N"
_symmetry_group_IT_number 59
_space_group.IT_coordinate_system_code '2'
_symmetry_cell_setting 'orthorhombic'
loop_
_space_group_symop_operation_xyz
x,y,z
1/2-x,1/2-y,z
1/2+x,-y,-z
-x,1/2+y,-z
-x,-y,-z
1/2+x,1/2+y,-z
1/2-x,y,z
x,1/2-y,z
loop_
_atom_site_type_symbol
_atom_site_label
_atom_site_fract_x
_atom_site_fract_y
_atom_site_fract_z
Si Si1 0.409357 0.580526 0.040019
Si Si2 0.420111 0.476019 0.220379
Si Si3 0.408294 0.444629 0.077170
Si Si4 0.580981 0.466211 0.349940
Si Si5 0.420163 0.896058 0.180601
Si Si6 0.588170 0.900659 0.389666
Si Si7 0.416627 0.444768 0.472382
Si Si8 0.420057 0.816466 0.298098
O O1 0.250000 0.604340 0.026897
O O2 0.406926 0.511904 0.055572
O O3 0.479237 0.612159 0.105132
O O4 0.495831 0.593815 0.972788
O O5 0.250000 0.472376 0.235113
O O6 0.460696 0.440453 0.153411
O O7 0.512241 0.448202 0.279717
O O8 0.472626 0.543149 0.212686
O O9 0.250000 0.417974 0.071787
O O10 0.750000 0.452427 0.351228
O O11 0.547533 0.534323 0.364748
O O12 0.499097 0.426173 0.405020
O O13 0.250000 0.899468 0.173953
O O14 0.471831 0.843253 0.227680
O O15 0.750000 0.886061 0.367505
O O16 0.574064 0.895754 0.469769
O O17 0.483341 0.852810 0.358881
O O18 0.500000 0.500000 0.500000
O O19 0.250000 0.460167 0.457591
O O20 0.250000 0.820215 0.303784
O O21 0.475595 0.750000 0.301673
#
# Coordination Sequence:
#
# PCOD8239219 Si02
#       8
#     8   8   8   8   8   8   8   8
#     4   8  13  22  35  47  65  94 124 153 189 224
#     4   9  15  24  38  52  73 106 130 154 193 228
#     4   8  14  22  32  50  71  92 124 156 184 220
#     4  10  18  26  38  59  80 100 131 162 191 232
#     4   8  14  25  38  52  70  96 129 162 196 232
#     4   9  18  30  41  55  75  99 127 161 199 236
#     4   9  17  28  41  57  76  98 127 159 194 236
#     4  10  19  29  43  60  75  98 134 170 201 233
#
# _framework density 14.912364
#
# number of rings (size 3 to 8) (size 9 to 14) (size 15 to 20)
#    0.000    3.125    1.250    3.000    0.000    3.250 
#    0.000    2.500    0.000    0.000    0.000    0.000 
#    0.000    0.000    0.000    1.125    0.000   16.750 
#
# Total GULP energy -792980.202739 kJ/mol
# GULP energy per Si atom -12390.315668 kJ/mol
# Density = 1.487842 g / cm^3
# Si number density = 14.912364 Si / 1000 Ang^3
#
#
#
# Elastic Constant Matrix: (Units=GPa)
#
#
# Indices 1 2 3 4 5 6 
#
# 1 67.3511 16.0014 58.5842 0.0000 0.0000 0.0000
# 2 16.0014 30.7072 26.0471 0.0000 0.0000 0.0000
# 3 58.5842 26.0471 142.4487 0.0000 0.0000 0.0000
# 4 0.0000 0.0000 0.0000 12.0516 0.0000 0.0000
# 5 0.0000 0.0000 0.0000 0.0000 29.8613 0.0000
# 6 0.0000 0.0000 0.0000 0.0000 0.0000 11.0075
#
#
#
# Elastic Compliance Matrix: (Units=1/GPa)
#
#
# Indices 1 2 3 4 5 6 
#
# 1 0.023708 -0.004833 -0.008867 0.000000 0.000000 0.000000
# 2 -0.004833 0.039529 -0.005240 0.000000 0.000000 0.000000
# 3 -0.008867 -0.005240 0.011625 0.000000 0.000000 0.000000
# 4 0.000000 0.000000 0.000000 0.082976 0.000000 0.000000
# 5 0.000000 0.000000 0.000000 0.000000 0.033488 0.000000
# 6 0.000000 0.000000 0.000000 0.000000 0.000000 0.090847
#
#
# Mechanical properties :
#
#
# Convention : Reuss Voigt Hill
#
# Bulk Modulus (GPa) = 27.04014 49.08581 38.06297
# Shear Modulus (GPa) = 15.04294 19.90903 17.47599
#
# Velocity S-wave (km/s) = 3.17954 3.65782 3.42703
# Velocity P-wave (km/s) = 5.62595 7.12932 6.42178
#
# Compressibility (1/GPa) = 0.03698206
#
# Stress axis : x y z
#
# Youngs Moduli (GPa) = 42.17923 25.29768 86.02300
#
# Poissons Ratio (x) = 0.12227 0.76273
# Poissons Ratio (y) = 0.20387 0.45078
# Poissons Ratio (z) = 0.37399 0.13257
#
# Static dielectric constant tensor:
#      x y z
#    x 2.894380 0.000000 0.000000 
#    y 0.000000 2.373530 0.000000 
#    z 0.000000 0.000000 3.351000 
# 
# 
# High freq. dielectric constant tensor:
#      x y z
#    x 1.566780 0.000000 0.000000 
#    y 0.000000 1.488370 0.000000 
#    z 0.000000 0.000000 1.589410 
# 
# From -- ./inp_files/29849.got.cif
#   From: 2010.03.12/outbox.cif.g09.slc.cpg/sg59_15_cif.got.tgz:29849.got - 2010.04.16 16:29:54.
