data_PCOD8239250
_publ_section_title
;
Structure prediction by ZEFSAII (Michael W. Deem and Ramdas Pophale) SiO2 
 PCOD8239250
Probable space group: P M M N
;
_chemical_formula_sum "Si O2"
_cell_formula_units_Z 64
_cell_length_a 9.290210
_cell_length_b 22.776342
_cell_length_c 20.260857
_cell_angle_alpha 90.000000
_cell_angle_beta 90.000000
_cell_angle_gamma 90.000000
_cell_volume 4287.136563
_symmetry_space_group_name_H-M "P M M N"
_symmetry_group_IT_number 59
_space_group.IT_coordinate_system_code '2'
_symmetry_cell_setting 'orthorhombic'
loop_
_space_group_symop_operation_xyz
x,y,z
1/2-x,1/2-y,z
1/2+x,-y,-z
-x,1/2+y,-z
-x,-y,-z
1/2+x,1/2+y,-z
1/2-x,y,z
x,1/2-y,z
loop_
_atom_site_type_symbol
_atom_site_label
_atom_site_fract_x
_atom_site_fract_y
_atom_site_fract_z
Si Si1 0.912567 0.944526 0.921215
Si Si2 0.413601 0.556187 0.518980
Si Si3 0.582423 0.818125 0.290507
Si Si4 0.415161 0.105839 0.833349
Si Si5 0.582884 0.016610 0.345638
Si Si6 0.419126 0.600817 0.385232
Si Si7 0.414135 0.528448 0.799603
Si Si8 0.912845 0.080913 0.956694
O O1 0.750000 0.920550 0.918857
O O2 0.984719 0.935658 0.849570
O O3 0.916017 0.012498 0.939909
O O4 0.001164 0.907650 0.975451
O O5 0.500000 0.500000 0.500000
O O6 0.250000 0.537922 0.508927
O O7 0.443153 0.566966 0.597421
O O8 0.448909 0.607067 0.465162
O O9 0.750000 0.830006 0.304075
O O10 0.546412 0.750000 0.284003
O O11 0.534024 0.848914 0.222620
O O12 0.492775 0.843448 0.351646
O O13 0.250000 0.116308 0.853689
O O14 0.511543 0.117063 0.898031
O O15 0.438716 0.040990 0.805259
O O16 0.750000 0.995981 0.344211
O O17 0.544138 0.046056 0.275370
O O18 0.485733 0.959539 0.357781
O O19 0.250000 0.601085 0.368966
O O20 0.250000 0.544860 0.816866
O O21 0.750000 0.103509 0.965205
#
# Coordination Sequence:
#
# PCOD8239250 Si02
#       8
#     8   8   8   8   8   8   8   8
#     4   9  16  24  34  51  74  99 125 156 187 221
#     4   8  15  25  38  56  76 100 129 161 195 236
#     4  10  20  33  46  58  74 102 139 173 206 245
#     4   9  16  27  40  54  70  94 128 165 200 231
#     4   9  15  26  41  56  77 106 137 162 192 235
#     4  10  18  27  40  58  79 100 128 168 209 241
#     4   9  15  23  37  54  74 101 130 161 191 225
#     4   9  16  25  37  52  70  95 126 157 189 227
#
# _framework density 14.928379
#
# number of rings (size 3 to 8) (size 9 to 14) (size 15 to 20)
#    0.000    2.875    1.250    1.125    0.000    4.750 
#    0.000    0.000    0.000    0.000    0.000    0.000 
#    0.000    0.000    0.000    1.125    0.000   18.250 
#
# Total GULP energy -793025.937946 kJ/mol
# GULP energy per Si atom -12391.030280 kJ/mol
# Density = 1.489440 g / cm^3
# Si number density = 14.928379 Si / 1000 Ang^3
#
#
#
# Elastic Constant Matrix: (Units=GPa)
#
#
# Indices 1 2 3 4 5 6 
#
# 1 84.3840 22.6048 68.4257 0.0000 0.0000 0.0000
# 2 22.6048 29.7794 34.6676 0.0000 0.0000 0.0000
# 3 68.4257 34.6676 156.9597 0.0000 0.0000 0.0000
# 4 0.0000 0.0000 0.0000 12.3219 0.0000 0.0000
# 5 0.0000 0.0000 0.0000 0.0000 26.5935 0.0000
# 6 0.0000 0.0000 0.0000 0.0000 0.0000 10.8694
#
#
#
# Elastic Compliance Matrix: (Units=1/GPa)
#
#
# Indices 1 2 3 4 5 6 
#
# 1 0.019224 -0.006510 -0.006943 0.000000 0.000000 0.000000
# 2 -0.006510 0.047408 -0.007633 0.000000 0.000000 0.000000
# 3 -0.006943 -0.007633 0.011084 0.000000 0.000000 0.000000
# 4 0.000000 0.000000 0.000000 0.081156 0.000000 0.000000
# 5 0.000000 0.000000 0.000000 0.000000 0.037603 0.000000
# 6 0.000000 0.000000 0.000000 0.000000 0.000000 0.092001
#
#
# Mechanical properties :
#
#
# Convention : Reuss Voigt Hill
#
# Bulk Modulus (GPa) = 28.13421 58.05771 43.09596
# Shear Modulus (GPa) = 14.59870 19.65197 17.12533
#
# Velocity S-wave (km/s) = 3.13056 3.63218 3.39066
# Velocity P-wave (km/s) = 5.65281 7.52101 6.65281
#
# Compressibility (1/GPa) = 0.03554391
#
# Stress axis : x y z
#
# Youngs Moduli (GPa) = 52.01709 21.09358 90.22323
#
# Poissons Ratio (x) = 0.13733 0.62641
# Poissons Ratio (y) = 0.33865 0.68866
# Poissons Ratio (z) = 0.36115 0.16100
#
# Static dielectric constant tensor:
#      x y z
#    x 2.990820 0.000000 0.000000 
#    y 0.000000 2.313020 0.000000 
#    z 0.000000 0.000000 3.390710 
# 
# 
# High freq. dielectric constant tensor:
#      x y z
#    x 1.582050 0.000000 0.000000 
#    y 0.000000 1.486780 0.000000 
#    z 0.000000 0.000000 1.590390 
# 
# From -- ./inp_files/29680.got.cif
#   From: 2010.03.12/outbox.cif.g09.slc.cpg/sg59_15_cif.got.tgz:29680.got - 2010.04.16 16:29:54.
