data_PCOD8239603
_publ_section_title
;
Structure prediction by ZEFSAII (Michael W. Deem and Ramdas Pophale) SiO2 
 PCOD8239603
Probable space group: P M M N
;
_chemical_formula_sum "Si O2"
_cell_formula_units_Z 64
_cell_length_a 14.783324
_cell_length_b 27.615236
_cell_length_c 9.097806
_cell_angle_alpha 90.000000
_cell_angle_beta 90.000000
_cell_angle_gamma 90.000000
_cell_volume 3714.133639
_symmetry_space_group_name_H-M "P M M N"
_symmetry_group_IT_number 59
_space_group.IT_coordinate_system_code '2'
_symmetry_cell_setting 'orthorhombic'
loop_
_space_group_symop_operation_xyz
x,y,z
1/2-x,1/2-y,z
1/2+x,-y,-z
-x,1/2+y,-z
-x,-y,-z
1/2+x,1/2+y,-z
1/2-x,y,z
x,1/2-y,z
loop_
_atom_site_type_symbol
_atom_site_label
_atom_site_fract_x
_atom_site_fract_y
_atom_site_fract_z
Si Si1 0.650877 0.804005 0.372899
Si Si2 0.851399 0.695979 0.721657
Si Si3 0.567696 0.462930 0.080004
Si Si4 0.352028 0.466973 0.698023
Si Si5 0.488029 0.117056 0.636796
Si Si6 0.643862 0.075936 0.795003
Si Si7 0.539321 0.604345 0.697734
Si Si8 0.148388 0.014274 0.376130
O O1 0.750000 0.822398 0.317015
O O2 0.634257 0.750000 0.314429
O O3 0.652563 0.805771 0.547511
O O4 0.567501 0.835475 0.315591
O O5 0.750000 0.686210 0.784328
O O6 0.884006 0.750000 0.772709
O O7 0.921392 0.653764 0.772031
O O8 0.637680 0.495676 0.169574
O O9 0.524133 0.422947 0.187075
O O10 0.500000 0.500000 0.000000
O O11 0.625487 0.430725 0.966882
O O12 0.250000 0.445161 0.700924
O O13 0.426468 0.425505 0.703543
O O14 0.367067 0.496820 0.547363
O O15 0.584094 0.118955 0.722726
O O16 0.507478 0.114498 0.460951
O O17 0.750000 0.086177 0.765482
O O18 0.600118 0.028143 0.715335
O O19 0.621633 0.568490 0.664401
O O20 0.250000 0.009547 0.324699
#
# Coordination Sequence:
#
# PCOD8239603 Si02
#       8
#     8   8   8   8   8   8   8   8
#     4   8  14  26  48  79 109 129 150 190 245 299
#     4   8  14  26  46  75 106 130 156 193 238 292
#     4  12  21  33  45  65  96 133 169 208 243 286
#     4  10  19  31  48  70  99 129 161 199 240 289
#     4  10  18  31  51  75  97 127 165 202 242 294
#     4  11  22  35  48  65  94 131 170 209 246 286
#     4  10  18  29  49  72  98 128 162 201 242 293
#     4   9  17  29  46  69  95 126 161 197 238 287
#
# _framework density 17.231473000000001
#
# number of rings (size 3 to 8) (size 9 to 14) (size 15 to 20)
#    0.000    2.250    2.500    2.625    0.000    5.000 
#    0.000    0.625    0.000    1.125    0.000    1.750 
#    0.000    3.500    0.000    0.000    0.000    0.000 
#
# Total GULP energy -792954.714602 kJ/mol
# GULP energy per Si atom -12389.917416 kJ/mol
# Density = 1.719225 g / cm^3
# Si number density = 17.231473 Si / 1000 Ang^3
#
#
#
# Elastic Constant Matrix: (Units=GPa)
#
#
# Indices 1 2 3 4 5 6 
#
# 1 95.8609 49.7600 37.9380 0.0000 0.0000 0.0000
# 2 49.7600 80.7244 27.7431 0.0000 0.0000 0.0000
# 3 37.9380 27.7431 65.6023 0.0000 0.0000 0.0000
# 4 0.0000 0.0000 0.0000 9.9943 0.0000 0.0000
# 5 0.0000 0.0000 0.0000 0.0000 21.0435 0.0000
# 6 0.0000 0.0000 0.0000 0.0000 0.0000 27.2536
#
#
#
# Elastic Compliance Matrix: (Units=1/GPa)
#
#
# Indices 1 2 3 4 5 6 
#
# 1 0.017408 -0.008507 -0.006469 0.000000 0.000000 0.000000
# 2 -0.008507 0.018652 -0.002968 0.000000 0.000000 0.000000
# 3 -0.006469 -0.002968 0.020240 0.000000 0.000000 0.000000
# 4 0.000000 0.000000 0.000000 0.100057 0.000000 0.000000
# 5 0.000000 0.000000 0.000000 0.000000 0.047521 0.000000
# 6 0.000000 0.000000 0.000000 0.000000 0.000000 0.036692
#
#
# Mechanical properties :
#
#
# Convention : Reuss Voigt Hill
#
# Bulk Modulus (GPa) = 48.99489 52.56330 50.77909
# Shear Modulus (GPa) = 17.65145 20.10804 18.87975
#
# Velocity S-wave (km/s) = 3.20405 3.41975 3.31366
# Velocity P-wave (km/s) = 6.49485 6.79437 6.64629
#
# Compressibility (1/GPa) = 0.02041029
#
# Stress axis : x y z
#
# Youngs Moduli (GPa) = 57.44428 53.61367 49.40738
#
# Poissons Ratio (x) = 0.45611 0.31964
# Poissons Ratio (y) = 0.48870 0.14664
# Poissons Ratio (z) = 0.37163 0.15913
#
# Static dielectric constant tensor:
#      x y z
#    x 3.188820 0.000000 0.000000 
#    y 0.000000 3.359730 0.000000 
#    z 0.000000 0.000000 3.158830 
# 
# 
# High freq. dielectric constant tensor:
#      x y z
#    x 1.655920 0.000000 0.000000 
#    y 0.000000 1.643920 0.000000 
#    z 0.000000 0.000000 1.646530 
# 
# From -- ./inp_files/9756.got.cif
#   From: 2010.03.12/outbox.cif.g09.slc.cpg/sg59_5_cif.got.tgz:9756.got - 2010.04.16 16:29:54.
