data_PCOD8239300
_publ_section_title
;
Structure prediction by ZEFSAII (Michael W. Deem and Ramdas Pophale) SiO2 
 PCOD8239300
Probable space group: P M M N
;
_chemical_formula_sum "Si O2"
_cell_formula_units_Z 64
_cell_length_a 19.324774
_cell_length_b 9.208077
_cell_length_c 21.464637
_cell_angle_alpha 90.000000
_cell_angle_beta 90.000000
_cell_angle_gamma 90.000000
_cell_volume 3819.503517
_symmetry_space_group_name_H-M "P M M N"
_symmetry_group_IT_number 59
_space_group.IT_coordinate_system_code '2'
_symmetry_cell_setting 'orthorhombic'
loop_
_space_group_symop_operation_xyz
x,y,z
1/2-x,1/2-y,z
1/2+x,-y,-z
-x,1/2+y,-z
-x,-y,-z
1/2+x,1/2+y,-z
1/2-x,y,z
x,1/2-y,z
loop_
_atom_site_type_symbol
_atom_site_label
_atom_site_fract_x
_atom_site_fract_y
_atom_site_fract_z
Si Si1 0.907444 0.079197 0.652166
Si Si2 0.936093 0.914256 0.314202
Si Si3 0.828616 0.079115 0.395000
Si Si4 0.502956 0.914223 0.190193
Si Si5 0.872285 0.921761 0.770293
Si Si6 0.032464 0.914915 0.056419
Si Si7 0.672950 0.422290 0.532966
Si Si8 0.174636 0.917989 0.115299
O O1 0.894268 0.250000 0.661181
O O2 0.882292 0.024318 0.584250
O O3 0.988236 0.040551 0.660210
O O4 0.860789 0.993066 0.702431
O O5 0.919623 0.750000 0.333627
O O6 0.933080 0.932943 0.238256
O O7 0.877984 0.014153 0.343000
O O8 0.750000 0.032660 0.380137
O O9 0.836930 0.250000 0.391463
O O10 0.849410 0.021949 0.464182
O O11 0.472216 0.750000 0.201028
O O12 0.518830 0.932167 0.116593
O O13 0.449010 0.038372 0.207472
O O14 0.861427 0.750000 0.766373
O O15 0.820500 0.990154 0.820957
O O16 0.036850 0.750000 0.034378
O O17 0.110545 0.971857 0.072218
O O18 0.000000 0.000000 0.000000
O O19 0.750000 0.480774 0.549255
O O20 0.675475 0.250000 0.531051
O O21 0.250000 0.936903 0.081873
O O22 0.160990 0.750000 0.132446
#
# Coordination Sequence:
#
# PCOD8239300 Si02
#       8
#     8   8   8   8   8   8   8   8
#     4   9  17  30  46  65  91 123 158 189 221 274
#     4   9  17  29  47  69  91 117 150 190 230 269
#     4   9  18  32  48  66  88 114 149 195 243 287
#     4   8  16  32  49  66  92 123 153 181 214 268
#     4  10  18  27  42  67  96 120 146 187 235 272
#     4   9  17  30  50  74  97 124 156 189 226 268
#     4   8  15  29  47  63  82 116 158 191 223 276
#     4   9  18  33  50  66  90 129 170 197 221 267
#
# _framework density 16.756105999999999
#
# number of rings (size 3 to 8) (size 9 to 14) (size 15 to 20)
#    0.000    3.125    0.000    3.375    0.000    5.500 
#    0.000    1.875    0.000    1.500    0.000    3.500 
#    0.000    0.000    0.000    0.000    0.000    0.000 
#
# Total GULP energy -792835.056106 kJ/mol
# GULP energy per Si atom -12388.047752 kJ/mol
# Density = 1.671797 g / cm^3
# Si number density = 16.756106 Si / 1000 Ang^3
#
#
#
# Elastic Constant Matrix: (Units=GPa)
#
#
# Indices 1 2 3 4 5 6 
#
# 1 87.4871 32.2484 69.8277 0.0000 0.0000 0.0000
# 2 32.2484 48.9883 37.6221 0.0000 0.0000 0.0000
# 3 69.8277 37.6221 131.6044 0.0000 0.0000 0.0000
# 4 0.0000 0.0000 0.0000 26.1351 0.0000 0.0000
# 5 0.0000 0.0000 0.0000 0.0000 22.9276 0.0000
# 6 0.0000 0.0000 0.0000 0.0000 0.0000 20.2006
#
#
#
# Elastic Compliance Matrix: (Units=1/GPa)
#
#
# Indices 1 2 3 4 5 6 
#
# 1 0.021510 -0.006913 -0.009437 0.000000 0.000000 0.000000
# 2 -0.006913 0.028377 -0.004444 0.000000 0.000000 0.000000
# 3 -0.009437 -0.004444 0.013876 0.000000 0.000000 0.000000
# 4 0.000000 0.000000 0.000000 0.038263 0.000000 0.000000
# 5 0.000000 0.000000 0.000000 0.000000 0.043616 0.000000
# 6 0.000000 0.000000 0.000000 0.000000 0.000000 0.049504
#
#
# Mechanical properties :
#
#
# Convention : Reuss Voigt Hill
#
# Bulk Modulus (GPa) = 45.09515 60.83070 52.96292
# Shear Modulus (GPa) = 20.48131 22.41144 21.44637
#
# Velocity S-wave (km/s) = 3.49996 3.66116 3.58147
# Velocity P-wave (km/s) = 6.58058 7.36577 6.98422
#
# Compressibility (1/GPa) = 0.02217534
#
# Stress axis : x y z
#
# Youngs Moduli (GPa) = 46.48901 35.24014 72.06560
#
# Poissons Ratio (x) = 0.24360 0.68009
# Poissons Ratio (y) = 0.32136 0.32029
# Poissons Ratio (z) = 0.43872 0.15662
#
# Static dielectric constant tensor:
#      x y z
#    x 2.991310 0.000000 0.000000 
#    y 0.000000 2.906630 0.000000 
#    z 0.000000 0.000000 3.317260 
# 
# 
# High freq. dielectric constant tensor:
#      x y z
#    x 1.620340 0.000000 0.000000 
#    y 0.000000 1.627220 0.000000 
#    z 0.000000 0.000000 1.642150 
# 
# From -- ./inp_files/31006.got.cif
#   From: 2010.03.12/outbox.cif.g09.slc.cpg/sg59_16_cif.got.tgz:31006.got - 2010.04.16 16:29:54.
