data_PCOD8239740
_publ_section_title
;
Structure prediction by ZEFSAII (Michael W. Deem and Ramdas Pophale) SiO2 
 PCOD8239740
Probable space group: P M M N
;
_chemical_formula_sum "Si O2"
_cell_formula_units_Z 64
_cell_length_a 20.788660
_cell_length_b 8.976727
_cell_length_c 19.943720
_cell_angle_alpha 90.000000
_cell_angle_beta 90.000000
_cell_angle_gamma 90.000000
_cell_volume 3721.779867
_symmetry_space_group_name_H-M "P M M N"
_symmetry_group_IT_number 59
_space_group.IT_coordinate_system_code '2'
_symmetry_cell_setting 'orthorhombic'
loop_
_space_group_symop_operation_xyz
x,y,z
1/2-x,1/2-y,z
1/2+x,-y,-z
-x,1/2+y,-z
-x,-y,-z
1/2+x,1/2+y,-z
1/2-x,y,z
x,1/2-y,z
loop_
_atom_site_type_symbol
_atom_site_label
_atom_site_fract_x
_atom_site_fract_y
_atom_site_fract_z
Si Si1 0.561145 0.426837 0.964351
Si Si2 0.821311 0.423081 0.451470
Si Si3 0.370402 0.074434 0.675992
Si Si4 0.517235 0.073373 0.823087
Si Si5 0.373867 0.073905 0.822852
Si Si6 0.322625 0.075588 0.961929
Si Si7 0.017040 0.573824 0.322252
Si Si8 0.440277 0.572745 0.462879
O O1 0.555797 0.250000 0.973153
O O2 0.561313 0.475343 0.885713
O O3 0.500000 0.500000 0.000000
O O4 0.628569 0.483351 0.992742
O O5 0.750000 0.454873 0.480610
O O6 0.833231 0.250000 0.440200
O O7 0.826147 0.498914 0.379251
O O8 0.873955 0.485076 0.504063
O O9 0.363609 0.250000 0.667167
O O10 0.346895 0.021604 0.750311
O O11 0.443869 0.021079 0.665880
O O12 0.513697 0.250000 0.820119
O O13 0.445449 0.009285 0.835208
O O14 0.542873 0.013324 0.750313
O O15 0.378641 0.250000 0.820360
O O16 0.328845 0.023042 0.884317
O O17 0.250000 0.041773 0.985681
O O18 0.339211 0.250000 0.968621
O O19 0.017895 0.750000 0.319560
O O20 0.060105 0.518501 0.384930
O O21 0.500000 0.500000 0.500000
O O22 0.447572 0.750000 0.467517
#
# Coordination Sequence:
#
# PCOD8239740 Si02
#       8
#     8   8   8   8   8   8   8   8
#     4  11  20  32  53  76 100 129 163 205 247 292
#     4  10  21  33  43  63  99 134 154 181 236 292
#     4   9  16  28  49  72  92 120 163 203 228 266
#     4   8  14  26  47  72  96 120 150 196 246 282
#     4   8  14  27  47  71  96 124 162 200 233 275
#     4  10  20  34  51  71  99 134 168 201 242 293
#     4   8  14  26  47  73  93 114 151 199 240 271
#     4  10  18  30  50  70  91 120 156 196 232 276
#
# _framework density 17.196072999999998
#
# number of rings (size 3 to 8) (size 9 to 14) (size 15 to 20)
#    0.000    2.750    2.500    1.875    0.000    1.000 
#    0.000    1.875    0.000    2.250    0.000    3.500 
#    0.000    0.000    0.000    0.000    0.000    0.000 
#
# Total GULP energy -792955.392694 kJ/mol
# GULP energy per Si atom -12389.928011 kJ/mol
# Density = 1.715693 g / cm^3
# Si number density = 17.196073 Si / 1000 Ang^3
#
#
#
# Elastic Constant Matrix: (Units=GPa)
#
#
# Indices 1 2 3 4 5 6 
#
# 1 100.8527 29.5848 68.3774 0.0000 0.0000 0.0000
# 2 29.5848 28.6688 29.8316 0.0000 0.0000 0.0000
# 3 68.3774 29.8316 146.2108 0.0000 0.0000 0.0000
# 4 0.0000 0.0000 0.0000 20.6627 0.0000 0.0000
# 5 0.0000 0.0000 0.0000 0.0000 25.0499 0.0000
# 6 0.0000 0.0000 0.0000 0.0000 0.0000 20.4106
#
#
#
# Elastic Compliance Matrix: (Units=1/GPa)
#
#
# Indices 1 2 3 4 5 6 
#
# 1 0.017226 -0.011925 -0.005623 0.000000 0.000000 0.000000
# 2 -0.011925 0.052539 -0.005142 0.000000 0.000000 0.000000
# 3 -0.005623 -0.005142 0.010518 0.000000 0.000000 0.000000
# 4 0.000000 0.000000 0.000000 0.048396 0.000000 0.000000
# 5 0.000000 0.000000 0.000000 0.000000 0.039920 0.000000
# 6 0.000000 0.000000 0.000000 0.000000 0.000000 0.048994
#
#
# Mechanical properties :
#
#
# Convention : Reuss Voigt Hill
#
# Bulk Modulus (GPa) = 28.65213 59.03555 43.84384
# Shear Modulus (GPa) = 18.20771 23.08719 20.64745
#
# Velocity S-wave (km/s) = 3.25750 3.66811 3.46888
# Velocity P-wave (km/s) = 5.55397 7.23501 6.44949
#
# Compressibility (1/GPa) = 0.03490142
#
# Stress axis : x y z
#
# Youngs Moduli (GPa) = 58.05198 19.03362 95.07309
#
# Poissons Ratio (x) = 0.22699 0.53457
# Poissons Ratio (y) = 0.69230 0.48891
# Poissons Ratio (z) = 0.32641 0.09788
#
# Static dielectric constant tensor:
#      x y z
#    x 3.110640 0.000000 0.000000 
#    y 0.000000 2.849100 0.000000 
#    z 0.000000 0.000000 3.943700 
# 
# 
# High freq. dielectric constant tensor:
#      x y z
#    x 1.638540 0.000000 0.000000 
#    y 0.000000 1.624510 0.000000 
#    z 0.000000 0.000000 1.677660 
# 
# From -- ./inp_files/30964.got.cif
#   From: 2010.03.12/outbox.cif.g09.slc.cpg/sg59_16_cif.got.tgz:30964.got - 2010.04.16 16:29:54.
