data_PCOD8239265
_publ_section_title
;
Structure prediction by ZEFSAII (Michael W. Deem and Ramdas Pophale) SiO2 
 PCOD8239265
Probable space group: P M M N
;
_chemical_formula_sum "Si O2"
_cell_formula_units_Z 64
_cell_length_a 25.720180
_cell_length_b 9.148761
_cell_length_c 18.565333
_cell_angle_alpha 90.000000
_cell_angle_beta 90.000000
_cell_angle_gamma 90.000000
_cell_volume 4368.567288
_symmetry_space_group_name_H-M "P M M N"
_symmetry_group_IT_number 59
_space_group.IT_coordinate_system_code '2'
_symmetry_cell_setting 'orthorhombic'
loop_
_space_group_symop_operation_xyz
x,y,z
1/2-x,1/2-y,z
1/2+x,-y,-z
-x,1/2+y,-z
-x,-y,-z
1/2+x,1/2+y,-z
1/2-x,y,z
x,1/2-y,z
loop_
_atom_site_type_symbol
_atom_site_label
_atom_site_fract_x
_atom_site_fract_y
_atom_site_fract_z
Si Si1 0.500857 0.920352 0.333723
Si Si2 0.393306 0.578042 0.905538
Si Si3 0.107978 0.083289 0.587388
Si Si4 0.488716 0.420746 0.829091
Si Si5 0.189535 0.419368 0.819213
Si Si6 0.045721 0.916428 0.036394
Si Si7 0.043648 0.418861 0.455581
Si Si8 0.190066 0.920192 0.673169
O O1 0.488883 0.750000 0.342314
O O2 0.557371 0.959524 0.365754
O O3 0.498134 0.972390 0.251252
O O4 0.455207 0.007320 0.376504
O O5 0.387898 0.750000 0.889706
O O6 0.440963 0.515156 0.858832
O O7 0.340567 0.496236 0.884451
O O8 0.401492 0.545612 0.992035
O O9 0.123936 0.250000 0.604257
O O10 0.096868 0.063859 0.501591
O O11 0.155459 0.977430 0.607115
O O12 0.472345 0.250000 0.829709
O O13 0.541551 0.447199 0.877474
O O14 0.250000 0.442685 0.834891
O O15 0.174297 0.250000 0.814625
O O16 0.172797 0.493891 0.744558
O O17 0.032771 0.750000 0.020967
O O18 0.000000 0.000000 0.000000
O O19 0.028553 0.250000 0.447731
O O20 0.000000 0.500000 0.500000
O O21 0.250000 0.951545 0.654133
O O22 0.179784 0.750000 0.686166
#
# Coordination Sequence:
#
# PCOD8239265 Si02
#       8
#     8   8   8   8   8   8   8   8
#     4   9  17  27  40  59  81 106 136 165 194 231
#     4  10  18  27  41  60  81 106 137 170 202 234
#     4   9  17  28  41  58  80 108 138 162 192 236
#     4   9  16  27  42  59  83 112 138 163 193 236
#     4  10  20  32  44  57  76 105 138 169 202 240
#     4   8  15  26  39  57  80 106 134 163 195 231
#     4   9  17  28  41  57  78 103 132 165 197 232
#     4  10  20  31  43  61  82 103 131 168 204 234
#
# _framework density 14.650112
#
# number of rings (size 3 to 8) (size 9 to 14) (size 15 to 20)
#    0.000    2.750    0.000    3.000    0.000    6.000 
#    0.000    0.000    0.000    0.000    0.000    0.000 
#    0.000    1.000    0.000    5.000    0.000    3.500 
#
# Total GULP energy -793006.377979 kJ/mol
# GULP energy per Si atom -12390.724656 kJ/mol
# Density = 1.461677 g / cm^3
# Si number density = 14.650112 Si / 1000 Ang^3
#
#
#
# Elastic Constant Matrix: (Units=GPa)
#
#
# Indices 1 2 3 4 5 6 
#
# 1 54.6019 37.3976 43.4235 0.0000 0.0000 0.0000
# 2 37.3976 74.9532 42.0560 0.0000 0.0000 0.0000
# 3 43.4235 42.0560 106.0257 0.0000 0.0000 0.0000
# 4 0.0000 0.0000 0.0000 22.1427 0.0000 0.0000
# 5 0.0000 0.0000 0.0000 0.0000 23.9093 0.0000
# 6 0.0000 0.0000 0.0000 0.0000 0.0000 22.6439
#
#
#
# Elastic Compliance Matrix: (Units=1/GPa)
#
#
# Indices 1 2 3 4 5 6 
#
# 1 0.033519 -0.011604 -0.009125 0.000000 0.000000 0.000000
# 2 -0.011604 0.021178 -0.003648 0.000000 0.000000 0.000000
# 3 -0.009125 -0.003648 0.014616 0.000000 0.000000 0.000000
# 4 0.000000 0.000000 0.000000 0.045162 0.000000 0.000000
# 5 0.000000 0.000000 0.000000 0.000000 0.041825 0.000000
# 6 0.000000 0.000000 0.000000 0.000000 0.000000 0.044162
#
#
# Mechanical properties :
#
#
# Convention : Reuss Voigt Hill
#
# Bulk Modulus (GPa) = 48.64073 53.48169 51.06121
# Shear Modulus (GPa) = 19.52594 21.25276 20.38935
#
# Velocity S-wave (km/s) = 3.65474 3.81292 3.73467
# Velocity P-wave (km/s) = 7.14725 7.48129 7.31618
#
# Compressibility (1/GPa) = 0.02055890
#
# Stress axis : x y z
#
# Youngs Moduli (GPa) = 29.83358 47.21778 68.41841
#
# Poissons Ratio (x) = 0.54793 0.62433
# Poissons Ratio (y) = 0.34620 0.24959
# Poissons Ratio (z) = 0.27223 0.17225
#
# Static dielectric constant tensor:
#      x y z
#    x 2.682090 0.000000 0.000000 
#    y 0.000000 2.919350 0.000000 
#    z 0.000000 0.000000 3.407900 
# 
# 
# High freq. dielectric constant tensor:
#      x y z
#    x 1.519530 0.000000 0.000000 
#    y 0.000000 1.574540 0.000000 
#    z 0.000000 0.000000 1.554970 
# 
# From -- ./inp_files/28520.got.cif
#   From: 2010.03.12/outbox.cif.g09.slc.cpg/sg59_15_cif.got.tgz:28520.got - 2010.04.16 16:29:54.
