data_PCOD8239409
_publ_section_title
;
Structure prediction by ZEFSAII (Michael W. Deem and Ramdas Pophale) SiO2 
 PCOD8239409
Probable space group: P M M N
;
_chemical_formula_sum "Si O2"
_cell_formula_units_Z 48
_cell_length_a 26.015463
_cell_length_b 8.840976
_cell_length_c 11.897635
_cell_angle_alpha 90.000000
_cell_angle_beta 90.000000
_cell_angle_gamma 90.000000
_cell_volume 2736.480845
_symmetry_space_group_name_H-M "P M M N"
_symmetry_group_IT_number 59
_space_group.IT_coordinate_system_code '2'
_symmetry_cell_setting 'orthorhombic'
loop_
_space_group_symop_operation_xyz
x,y,z
1/2-x,1/2-y,z
1/2+x,-y,-z
-x,1/2+y,-z
-x,-y,-z
1/2+x,1/2+y,-z
1/2-x,y,z
x,1/2-y,z
loop_
_atom_site_type_symbol
_atom_site_label
_atom_site_fract_x
_atom_site_fract_y
_atom_site_fract_z
Si Si1 0.806861 0.071162 0.830685
Si Si2 0.570678 0.080703 0.235040
Si Si3 0.608749 0.072364 0.658643
Si Si4 0.042244 0.420908 0.162434
Si Si5 0.945990 0.572888 0.464180
Si Si6 0.889123 0.426985 0.007001
O O1 0.750000 0.996709 0.829155
O O2 0.801889 0.250000 0.829086
O O3 0.838490 0.019350 0.719755
O O4 0.836677 0.020735 0.944343
O O5 0.578668 0.250000 0.284177
O O6 0.518956 0.073016 0.161913
O O7 0.614559 0.041405 0.141609
O O8 0.570237 0.963538 0.336811
O O9 0.608397 0.250000 0.635291
O O10 0.561253 0.030482 0.738422
O O11 0.600901 0.986360 0.541088
O O12 0.061733 0.250000 0.184799
O O13 0.063341 0.479152 0.043635
O O14 0.952366 0.750000 0.479578
O O15 0.000000 0.500000 0.500000
O O16 0.899257 0.250000 0.983675
#
# Coordination Sequence:
#
# PCOD8239409 Si02
#       6
#     8   8   8   8   8   8
#     4   8  15  30  54  80 101 124 159 208 260 301
#     4  10  20  32  46  68 100 138 172 203 243 292
#     4  10  19  32  51  74 101 132 169 211 252 295
#     4  10  18  28  45  68  99 134 167 203 242 294
#     4  12  23  34  50  71 100 138 175 209 248 299
#     4   9  18  31  48  71 100 131 166 206 248 294
#
# _framework density 17.540776999999999
#
# number of rings (size 3 to 8) (size 9 to 14) (size 15 to 20)
#    0.000    2.167    1.667    4.000    0.000    1.333 
#    0.000    0.000    0.000   13.500    0.000    4.667 
#    0.000    0.000    0.000    0.000    0.000    0.000 
#
# Total GULP energy -594979.315672 kJ/mol
# GULP energy per Si atom -12395.402410 kJ/mol
# Density = 1.750085 g / cm^3
# Si number density = 17.540777 Si / 1000 Ang^3
#
#
#
# Elastic Constant Matrix: (Units=GPa)
#
#
# Indices 1 2 3 4 5 6 
#
# 1 89.4083 30.5971 54.2503 0.0000 0.0000 0.0000
# 2 30.5971 79.8913 44.0643 0.0000 0.0000 0.0000
# 3 54.2503 44.0643 123.8128 0.0000 0.0000 0.0000
# 4 0.0000 0.0000 0.0000 28.8291 0.0000 0.0000
# 5 0.0000 0.0000 0.0000 0.0000 16.6044 0.0000
# 6 0.0000 0.0000 0.0000 0.0000 0.0000 13.7384
#
#
#
# Elastic Compliance Matrix: (Units=1/GPa)
#
#
# Indices 1 2 3 4 5 6 
#
# 1 0.015710 -0.002762 -0.005901 0.000000 0.000000 0.000000
# 2 -0.002762 0.016060 -0.004505 0.000000 0.000000 0.000000
# 3 -0.005901 -0.004505 0.012266 0.000000 0.000000 0.000000
# 4 0.000000 0.000000 0.000000 0.034687 0.000000 0.000000
# 5 0.000000 0.000000 0.000000 0.000000 0.060225 0.000000
# 6 0.000000 0.000000 0.000000 0.000000 0.000000 0.072789
#
#
# Mechanical properties :
#
#
# Convention : Reuss Voigt Hill
#
# Bulk Modulus (GPa) = 56.49934 61.21509 58.85722
# Shear Modulus (GPa) = 20.49410 22.78108 21.63759
#
# Velocity S-wave (km/s) = 3.42185 3.60773 3.51602
# Velocity P-wave (km/s) = 6.92043 7.23386 7.07888
#
# Compressibility (1/GPa) = 0.01769932
#
# Stress axis : x y z
#
# Youngs Moduli (GPa) = 63.65275 62.26719 81.52924
#
# Poissons Ratio (x) = 0.17200 0.48107
# Poissons Ratio (y) = 0.17583 0.36731
# Poissons Ratio (z) = 0.37559 0.28053
#
# Static dielectric constant tensor:
#      x y z
#    x 3.309580 0.000000 0.000000 
#    y 0.000000 3.201410 0.000000 
#    z 0.000000 0.000000 3.346030 
# 
# 
# High freq. dielectric constant tensor:
#      x y z
#    x 1.640650 0.000000 0.000000 
#    y 0.000000 1.669230 0.000000 
#    z 0.000000 0.000000 1.680780 
# 
# From -- ./inp_files/14463.got.cif
#   From: 2010.03.12/outbox.cif.g09.slc.cpg/sg59_8_cif.got.tgz:14463.got - 2010.04.16 16:29:54.
