data_PCOD8239746
_publ_section_title
;
Structure prediction by ZEFSAII (Michael W. Deem and Ramdas Pophale) SiO2 
 PCOD8239746
Probable space group: P M M N
;
_chemical_formula_sum "Si O2"
_cell_formula_units_Z 64
_cell_length_a 9.023517
_cell_length_b 27.513512
_cell_length_c 14.545356
_cell_angle_alpha 90.000000
_cell_angle_beta 90.000000
_cell_angle_gamma 90.000000
_cell_volume 3611.155800
_symmetry_space_group_name_H-M "P M M N"
_symmetry_group_IT_number 59
_space_group.IT_coordinate_system_code '2'
_symmetry_cell_setting 'orthorhombic'
loop_
_space_group_symop_operation_xyz
x,y,z
1/2-x,1/2-y,z
1/2+x,-y,-z
-x,1/2+y,-z
-x,-y,-z
1/2+x,1/2+y,-z
1/2-x,y,z
x,1/2-y,z
loop_
_atom_site_type_symbol
_atom_site_label
_atom_site_fract_x
_atom_site_fract_y
_atom_site_fract_z
Si Si1 0.922956 0.471839 0.645237
Si Si2 0.426341 0.419163 0.347601
Si Si3 0.576132 0.805695 0.148640
Si Si4 0.079688 0.882597 0.030729
Si Si5 0.576611 0.474091 0.852431
Si Si6 0.922395 0.194491 0.665030
Si Si7 0.578528 0.073653 0.160486
Si Si8 0.425549 0.614289 0.478801
O O1 0.750000 0.471409 0.628264
O O2 0.982571 0.526303 0.626998
O O3 0.959441 0.456131 0.749269
O O4 0.992100 0.432489 0.575683
O O5 0.250000 0.415177 0.344201
O O6 0.489204 0.405407 0.247533
O O7 0.493211 0.382608 0.422982
O O8 0.750000 0.812487 0.154800
O O9 0.530497 0.750000 0.130339
O O10 0.515164 0.836984 0.064126
O O11 0.508029 0.823880 0.244856
O O12 0.250000 0.873509 0.057670
O O13 0.023711 0.931933 0.079356
O O14 0.059143 0.887548 0.921407
O O15 0.750000 0.486713 0.863481
O O16 0.484239 0.522285 0.874876
O O17 0.750000 0.187678 0.686858
O O18 0.963043 0.250000 0.641026
O O19 0.969474 0.162342 0.577756
O O20 0.750000 0.066930 0.186962
O O21 0.250000 0.611110 0.494116
#
# Coordination Sequence:
#
# PCOD8239746 Si02
#       8
#     8   8   8   8   8   8   8   8
#     4   8  15  27  44  67  95 126 157 191 233 282
#     4  10  20  33  47  66  96 132 167 204 247 291
#     4  10  21  35  52  77 106 132 161 201 247 295
#     4  10  20  33  52  75  99 131 170 208 246 294
#     4   9  17  31  49  72 103 134 164 199 243 294
#     4   9  18  33  53  76 102 131 160 194 242 296
#     4  10  20  33  49  72 100 131 169 208 246 290
#     4  10  18  30  50  72  95 126 165 205 242 286
#
# _framework density 17.722857000000001
#
# number of rings (size 3 to 8) (size 9 to 14) (size 15 to 20)
#    0.000    2.500    0.000    3.375    0.000    4.750 
#    0.000    2.500    0.000    0.750    0.000    1.750 
#    0.000    0.000    0.000    0.000    0.000    0.000 
#
# Total GULP energy -793636.846360 kJ/mol
# GULP energy per Si atom -12400.575724 kJ/mol
# Density = 1.768252 g / cm^3
# Si number density = 17.722857 Si / 1000 Ang^3
#
#
#
# Elastic Constant Matrix: (Units=GPa)
#
#
# Indices 1 2 3 4 5 6 
#
# 1 67.2185 39.9190 47.1302 0.0000 0.0000 0.0000
# 2 39.9190 73.2906 58.6687 0.0000 0.0000 0.0000
# 3 47.1302 58.6687 115.2607 0.0000 0.0000 0.0000
# 4 0.0000 0.0000 0.0000 27.9245 0.0000 0.0000
# 5 0.0000 0.0000 0.0000 0.0000 27.7543 0.0000
# 6 0.0000 0.0000 0.0000 0.0000 0.0000 23.7194
#
#
#
# Elastic Compliance Matrix: (Units=1/GPa)
#
#
# Indices 1 2 3 4 5 6 
#
# 1 0.023751 -0.008712 -0.005277 0.000000 0.000000 0.000000
# 2 -0.008712 0.026222 -0.009785 0.000000 0.000000 0.000000
# 3 -0.005277 -0.009785 0.015815 0.000000 0.000000 0.000000
# 4 0.000000 0.000000 0.000000 0.035811 0.000000 0.000000
# 5 0.000000 0.000000 0.000000 0.000000 0.036030 0.000000
# 6 0.000000 0.000000 0.000000 0.000000 0.000000 0.042160
#
#
# Mechanical properties :
#
#
# Convention : Reuss Voigt Hill
#
# Bulk Modulus (GPa) = 54.82712 60.80062 57.81387
# Shear Modulus (GPa) = 21.42094 23.21643 22.31868
#
# Velocity S-wave (km/s) = 3.48035 3.62328 3.55253
# Velocity P-wave (km/s) = 6.86684 7.20312 7.03699
#
# Compressibility (1/GPa) = 0.01823915
#
# Stress axis : x y z
#
# Youngs Moduli (GPa) = 42.10405 38.13560 63.23281
#
# Poissons Ratio (x) = 0.33223 0.33370
# Poissons Ratio (y) = 0.36680 0.61874
# Poissons Ratio (z) = 0.22220 0.37316
#
# Static dielectric constant tensor:
#      x y z
#    x 3.141850 0.000000 0.000000 
#    y 0.000000 3.223400 0.000000 
#    z 0.000000 0.000000 3.318520 
# 
# 
# High freq. dielectric constant tensor:
#      x y z
#    x 1.676230 0.000000 0.000000 
#    y 0.000000 1.662500 0.000000 
#    z 0.000000 0.000000 1.687790 
# 
# From -- ./inp_files/21896.got.cif
#   From: 2010.03.12/outbox.cif.g09.slc.cpg/sg59_11_cif.got.tgz:21896.got - 2010.04.16 16:29:54.
