data_PCOD8239626
_publ_section_title
;
Structure prediction by ZEFSAII (Michael W. Deem and Ramdas Pophale) SiO2 
 PCOD8239626
Probable space group: P M M N
;
_chemical_formula_sum "Si O2"
_cell_formula_units_Z 64
_cell_length_a 14.534243
_cell_length_b 8.965092
_cell_length_c 25.188842
_cell_angle_alpha 90.000000
_cell_angle_beta 90.000000
_cell_angle_gamma 90.000000
_cell_volume 3282.126910
_symmetry_space_group_name_H-M "P M M N"
_symmetry_group_IT_number 59
_space_group.IT_coordinate_system_code '2'
_symmetry_cell_setting 'orthorhombic'
loop_
_space_group_symop_operation_xyz
x,y,z
1/2-x,1/2-y,z
1/2+x,-y,-z
-x,1/2+y,-z
-x,-y,-z
1/2+x,1/2+y,-z
1/2-x,y,z
x,1/2-y,z
loop_
_atom_site_type_symbol
_atom_site_label
_atom_site_fract_x
_atom_site_fract_y
_atom_site_fract_z
Si Si1 0.851648 0.927142 0.471668
Si Si2 0.352547 0.920353 0.122787
Si Si3 0.538116 0.577269 0.171241
Si Si4 0.404234 0.426727 0.015415
Si Si5 0.645503 0.925788 0.591064
Si Si6 0.470271 0.072827 0.625356
Si Si7 0.849665 0.418388 0.083118
Si Si8 0.645029 0.927471 0.274118
O O1 0.750000 0.985357 0.455802
O O2 0.850979 0.750000 0.470435
O O3 0.875633 0.981759 0.531021
O O4 0.924604 0.988632 0.429069
O O5 0.250000 0.951012 0.145764
O O6 0.361484 0.750000 0.102525
O O7 0.427281 0.947731 0.170031
O O8 0.370492 0.028567 0.073616
O O9 0.564334 0.750000 0.165807
O O10 0.575272 0.493212 0.120101
O O11 0.585221 0.512152 0.224339
O O12 0.409650 0.250000 0.012078
O O13 0.335199 0.490337 0.971274
O O14 0.500000 0.500000 0.000000
O O15 0.750000 0.969937 0.607062
O O16 0.632165 0.750000 0.595827
O O17 0.573168 0.006487 0.629989
O O18 0.477367 0.250000 0.626593
O O19 0.406887 0.014096 0.673451
O O20 0.750000 0.418499 0.111746
O O21 0.882658 0.250000 0.070815
O O22 0.750000 0.989479 0.272111
O O23 0.647434 0.750000 0.274267
#
# Coordination Sequence:
#
# PCOD8239626 Si02
#       8
#     8   8   8   8   8   8   8   8
#     4   8  14  26  46  72 102 138 177 214 261 323
#     4  10  21  37  56  79 108 141 178 221 265 309
#     4  10  20  36  58  79 103 140 180 217 259 312
#     4  12  23  36  56  82 112 145 178 215 262 316
#     4   9  18  32  48  68 100 142 181 215 259 319
#     4  10  18  29  50  78 104 133 173 224 272 311
#     4  11  23  37  55  81 112 143 175 216 264 311
#     4   9  18  33  54  81 109 135 170 217 267 319
#
# _framework density 19.499549999999999
#
# number of rings (size 3 to 8) (size 9 to 14) (size 15 to 20)
#    0.000    2.125    1.250    3.750    0.000    5.000 
#    0.000    1.250    0.000    5.250    0.000    0.000 
#    0.000    0.000    0.000    0.000    0.000    0.000 
#
# Total GULP energy -793305.414224 kJ/mol
# GULP energy per Si atom -12395.397097 kJ/mol
# Density = 1.945517 g / cm^3
# Si number density = 19.499550 Si / 1000 Ang^3
#
#
#
# Elastic Constant Matrix: (Units=GPa)
#
#
# Indices 1 2 3 4 5 6 
#
# 1 166.7224 36.0078 68.5534 0.0000 0.0000 0.0000
# 2 36.0078 62.5035 25.3131 0.0000 0.0000 0.0000
# 3 68.5534 25.3131 91.4333 0.0000 0.0000 0.0000
# 4 0.0000 0.0000 0.0000 16.0736 0.0000 0.0000
# 5 0.0000 0.0000 0.0000 0.0000 33.5020 0.0000
# 6 0.0000 0.0000 0.0000 0.0000 0.0000 23.7366
#
#
#
# Elastic Compliance Matrix: (Units=1/GPa)
#
#
# Indices 1 2 3 4 5 6 
#
# 1 0.009083 -0.002787 -0.006038 0.000000 0.000000 0.000000
# 2 -0.002787 0.018875 -0.003136 0.000000 0.000000 0.000000
# 3 -0.006038 -0.003136 0.016332 0.000000 0.000000 0.000000
# 4 0.000000 0.000000 0.000000 0.062214 0.000000 0.000000
# 5 0.000000 0.000000 0.000000 0.000000 0.029849 0.000000
# 6 0.000000 0.000000 0.000000 0.000000 0.000000 0.042129
#
#
# Mechanical properties :
#
#
# Convention : Reuss Voigt Hill
#
# Bulk Modulus (GPa) = 49.09788 64.48975 56.79382
# Shear Modulus (GPa) = 23.90133 27.38143 25.64138
#
# Velocity S-wave (km/s) = 3.50485 3.75134 3.63019
# Velocity P-wave (km/s) = 6.45076 7.20470 6.83813
#
# Compressibility (1/GPa) = 0.02036748
#
# Stress axis : x y z
#
# Youngs Moduli (GPa) = 110.09822 52.98104 61.22794
#
# Poissons Ratio (x) = 0.14766 0.36972
# Poissons Ratio (y) = 0.30685 0.19200
# Poissons Ratio (z) = 0.66481 0.16614
#
# Static dielectric constant tensor:
#      x y z
#    x 3.869140 0.000000 0.000000 
#    y 0.000000 3.234070 0.000000 
#    z 0.000000 0.000000 3.601650 
# 
# 
# High freq. dielectric constant tensor:
#      x y z
#    x 1.780170 0.000000 0.000000 
#    y 0.000000 1.726620 0.000000 
#    z 0.000000 0.000000 1.735160 
# 
# From -- ./inp_files/32203.got.cif
#   From: 2010.03.12/outbox.cif.g09.slc.cpg/sg59_17_cif.got.tgz:32203.got - 2010.04.16 16:29:54.
