data_PCOD8239578
_publ_section_title
;
Structure prediction by ZEFSAII (Michael W. Deem and Ramdas Pophale) SiO2 
 PCOD8239578
Probable space group: P M M N
;
_chemical_formula_sum "Si O2"
_cell_formula_units_Z 64
_cell_length_a 30.298096
_cell_length_b 8.778325
_cell_length_c 14.437956
_cell_angle_alpha 90.000000
_cell_angle_beta 90.000000
_cell_angle_gamma 90.000000
_cell_volume 3840.013109
_symmetry_space_group_name_H-M "P M M N"
_symmetry_group_IT_number 59
_space_group.IT_coordinate_system_code '2'
_symmetry_cell_setting 'orthorhombic'
loop_
_space_group_symop_operation_xyz
x,y,z
1/2-x,1/2-y,z
1/2+x,-y,-z
-x,1/2+y,-z
-x,-y,-z
1/2+x,1/2+y,-z
1/2-x,y,z
x,1/2-y,z
loop_
_atom_site_type_symbol
_atom_site_label
_atom_site_fract_x
_atom_site_fract_y
_atom_site_fract_z
Si Si1 0.461023 0.430738 0.438648
Si Si2 0.379950 0.078515 0.932615
Si Si3 0.565930 0.921946 0.247661
Si Si4 0.298953 0.429456 0.653774
Si Si5 0.300208 0.926655 0.852970
Si Si6 0.023267 0.428197 0.231016
Si Si7 0.543607 0.070614 0.953843
Si Si8 0.886933 0.930013 0.429652
O O1 0.500000 0.500000 0.500000
O O2 0.466492 0.250000 0.443078
O O3 0.462866 0.488439 0.332874
O O4 0.413017 0.484377 0.478378
O O5 0.378670 0.250000 0.972876
O O6 0.395669 0.078456 0.827065
O O7 0.330831 0.008555 0.929684
O O8 0.412063 0.976575 0.994127
O O9 0.547054 0.750000 0.260654
O O10 0.585520 0.990629 0.341986
O O11 0.527947 0.035296 0.214065
O O12 0.250000 0.471198 0.615719
O O13 0.303181 0.250000 0.671889
O O14 0.308235 0.510110 0.750480
O O15 0.335807 0.485743 0.578441
O O16 0.250000 0.955796 0.884336
O O17 0.312285 0.750000 0.851236
O O18 0.032030 0.250000 0.220121
O O19 0.050366 0.515792 0.151928
O O20 0.537438 0.250000 0.956940
O O21 0.500000 0.000000 0.000000
O O22 0.886828 0.750000 0.425374
#
# Coordination Sequence:
#
# PCOD8239578 Si02
#       8
#     8   8   8   8   8   8   8   8
#     4  10  20  32  48  69  96 129 167 205 246 293
#     4  11  21  34  52  75 100 132 170 207 250 297
#     4  10  18  29  48  69  97 133 164 200 247 293
#     4   9  16  28  47  69  94 127 166 203 243 293
#     4  10  20  32  47  71 104 137 167 203 248 296
#     4  11  22  34  48  70  98 132 172 211 248 294
#     4  12  24  37  53  73  99 132 168 209 253 303
#     4   9  16  29  46  68  96 128 162 199 243 288
#
# _framework density 16.666611
#
# number of rings (size 3 to 8) (size 9 to 14) (size 15 to 20)
#    0.000    1.750    3.750    2.250    0.000    1.750 
#    0.000    0.625    0.000    0.000    0.000    0.875 
#    0.000    3.000    0.000    0.000    0.000    0.000 
#
# Total GULP energy -793359.267619 kJ/mol
# GULP energy per Si atom -12396.238557 kJ/mol
# Density = 1.662868 g / cm^3
# Si number density = 16.666611 Si / 1000 Ang^3
#
#
#
# Elastic Constant Matrix: (Units=GPa)
#
#
# Indices 1 2 3 4 5 6 
#
# 1 116.9511 34.3324 45.1552 0.0000 0.0000 0.0000
# 2 34.3324 74.0328 35.0879 0.0000 0.0000 0.0000
# 3 45.1552 35.0879 91.5468 0.0000 0.0000 0.0000
# 4 0.0000 0.0000 0.0000 18.9404 0.0000 0.0000
# 5 0.0000 0.0000 0.0000 0.0000 25.6322 0.0000
# 6 0.0000 0.0000 0.0000 0.0000 0.0000 20.7023
#
#
#
# Elastic Compliance Matrix: (Units=1/GPa)
#
#
# Indices 1 2 3 4 5 6 
#
# 1 0.011124 -0.003126 -0.004289 0.000000 0.000000 0.000000
# 2 -0.003126 0.017384 -0.005121 0.000000 0.000000 0.000000
# 3 -0.004289 -0.005121 0.015002 0.000000 0.000000 0.000000
# 4 0.000000 0.000000 0.000000 0.052797 0.000000 0.000000
# 5 0.000000 0.000000 0.000000 0.000000 0.039013 0.000000
# 6 0.000000 0.000000 0.000000 0.000000 0.000000 0.048304
#
#
# Mechanical properties :
#
#
# Convention : Reuss Voigt Hill
#
# Bulk Modulus (GPa) = 54.23534 56.85351 55.54443
# Shear Modulus (GPa) = 23.27282 24.25199 23.76241
#
# Velocity S-wave (km/s) = 3.74086 3.81875 3.78001
# Velocity P-wave (km/s) = 7.16036 7.32325 7.24226
#
# Compressibility (1/GPa) = 0.01843816
#
# Stress axis : x y z
#
# Youngs Moduli (GPa) = 89.89398 57.52281 66.65941
#
# Poissons Ratio (x) = 0.17982 0.28589
# Poissons Ratio (y) = 0.28102 0.34137
# Poissons Ratio (z) = 0.38554 0.29458
#
# Static dielectric constant tensor:
#      x y z
#    x 3.333970 0.000000 0.000000 
#    y 0.000000 3.116400 0.000000 
#    z 0.000000 0.000000 3.203710 
# 
# 
# High freq. dielectric constant tensor:
#      x y z
#    x 1.636940 0.000000 0.000000 
#    y 0.000000 1.638990 0.000000 
#    z 0.000000 0.000000 1.616220 
# 
# From -- ./inp_files/25036.got.cif
#   From: 2010.03.12/outbox.cif.g09.slc.cpg/sg59_13_cif.got.tgz:25036.got - 2010.04.16 16:29:54.
