data_PCOD8239118
_publ_section_title
;
Structure prediction by ZEFSAII (Michael W. Deem and Ramdas Pophale) SiO2 
 PCOD8239118
Probable space group: P M M N
;
_chemical_formula_sum "Si O2"
_cell_formula_units_Z 52
_cell_length_a 13.547671
_cell_length_b 18.290295
_cell_length_c 11.063701
_cell_angle_alpha 90.000000
_cell_angle_beta 90.000000
_cell_angle_gamma 90.000000
_cell_volume 2741.484419
_symmetry_space_group_name_H-M "P M M N"
_symmetry_group_IT_number 59
_space_group.IT_coordinate_system_code '2'
_symmetry_cell_setting 'orthorhombic'
loop_
_space_group_symop_operation_xyz
x,y,z
1/2-x,1/2-y,z
1/2+x,-y,-z
-x,1/2+y,-z
-x,-y,-z
1/2+x,1/2+y,-z
1/2-x,y,z
x,1/2-y,z
loop_
_atom_site_type_symbol
_atom_site_label
_atom_site_fract_x
_atom_site_fract_y
_atom_site_fract_z
Si Si1 0.363986 0.750000 0.797093
Si Si2 0.477684 0.601520 0.378758
Si Si3 0.438904 0.750000 0.063014
Si Si4 0.979062 0.601219 0.109700
Si Si5 0.366647 0.905391 0.732690
Si Si6 0.362991 0.520309 0.975654
Si Si7 0.634510 0.990701 0.489458
Si Si8 0.632899 0.250000 0.665427
O O1 0.250000 0.750000 0.765228
O O2 0.411099 0.822552 0.734665
O O3 0.371340 0.750000 0.943651
O O4 0.535177 0.601724 0.252656
O O5 0.396536 0.535795 0.390109
O O6 0.567880 0.582820 0.473263
O O7 0.421041 0.679261 0.394494
O O8 0.511739 0.818211 0.057361
O O9 0.375384 0.750000 0.187922
O O10 0.885543 0.565863 0.040578
O O11 0.078970 0.555144 0.086805
O O12 0.250000 0.901879 0.742801
O O13 0.405953 0.944351 0.853000
O O14 0.396680 0.951301 0.615531
O O15 0.250000 0.535317 0.001697
O O16 0.750000 0.969884 0.490680
O O17 0.750000 0.250000 0.632080
#
# Coordination Sequence:
#
# PCOD8239118 Si02
#       8
#     4   8   4   8   8   8   8   4
#     4  10  17  27  46  74 101 131 168 203 255 314
#     4  10  21  35  54  78 105 139 178 216 264 316
#     4  10  19  30  47  72 105 135 166 209 259 311
#     4  10  20  33  51  77 104 135 175 214 257 312
#     4   9  17  29  48  71  97 130 168 209 254 302
#     4  10  19  32  51  73 103 135 167 212 261 308
#     4  10  20  36  55  75 103 139 179 222 261 308
#     4  10  21  35  51  76 110 138 164 212 270 317
#
# _framework density 18.967825999999999
#
# number of rings (size 3 to 8) (size 9 to 14) (size 15 to 20)
#    0.000    2.154    3.077    0.692    0.000    3.692 
#    0.000    2.308    0.000    2.769    0.000    0.000 
#    0.000    5.231    0.000    0.000    0.000    0.000 
#
# Total GULP energy -644219.204038 kJ/mol
# GULP energy per Si atom -12388.830847 kJ/mol
# Density = 1.892465 g / cm^3
# Si number density = 18.967826 Si / 1000 Ang^3
#
#
#
# Elastic Constant Matrix: (Units=GPa)
#
#
# Indices 1 2 3 4 5 6 
#
# 1 61.9349 26.7455 -3.3605 0.0000 0.0000 0.0000
# 2 26.7455 116.9749 5.0112 0.0000 0.0000 0.0000
# 3 -3.3605 5.0112 19.6209 0.0000 0.0000 0.0000
# 4 0.0000 0.0000 0.0000 21.9463 0.0000 0.0000
# 5 0.0000 0.0000 0.0000 0.0000 16.7597 0.0000
# 6 0.0000 0.0000 0.0000 0.0000 0.0000 20.0551
#
#
#
# Elastic Compliance Matrix: (Units=1/GPa)
#
#
# Indices 1 2 3 4 5 6 
#
# 1 0.018257 -0.004356 0.004239 0.000000 0.000000 0.000000
# 2 -0.004356 0.009683 -0.003219 0.000000 0.000000 0.000000
# 3 0.004239 -0.003219 0.052514 0.000000 0.000000 0.000000
# 4 0.000000 0.000000 0.000000 0.045566 0.000000 0.000000
# 5 0.000000 0.000000 0.000000 0.000000 0.059667 0.000000
# 6 0.000000 0.000000 0.000000 0.000000 0.000000 0.049863
#
#
# Mechanical properties :
#
#
# Convention : Reuss Voigt Hill
#
# Bulk Modulus (GPa) = 13.55326 28.36922 20.96124
# Shear Modulus (GPa) = 18.73959 23.09451 20.91705
#
# Velocity S-wave (km/s) = 3.14660 3.49314 3.32439
# Velocity P-wave (km/s) = 4.51247 5.59092 5.08039
#
# Compressibility (1/GPa) = 0.07378299
#
# Stress axis : x y z
#
# Youngs Moduli (GPa) = 54.77328 103.27685 19.04243
#
# Poissons Ratio (x) = 0.44987 -0.08073
# Poissons Ratio (y) = 0.23859 0.06130
# Poissons Ratio (z) = -0.23221 0.33245
#
# Static dielectric constant tensor:
#      x y z
#    x 3.189100 0.000000 0.000000 
#    y 0.000000 3.817180 0.000000 
#    z 0.000000 0.000000 3.460180 
# 
# 
# High freq. dielectric constant tensor:
#      x y z
#    x 1.708090 0.000000 0.000000 
#    y 0.000000 1.740440 0.000000 
#    z 0.000000 0.000000 1.729360 
# 
# From -- ./inp_files/17113.got.cif
#   From: 2010.03.12/outbox.cif.g09.slc.cpg/sg59_9_cif.got.tgz:17113.got - 2010.04.16 16:29:54.
