data_PCOD8239885
_publ_section_title
;
Structure prediction by ZEFSAII (Michael W. Deem and Ramdas Pophale) SiO2 
 PCOD8239885
Probable space group: P M M N
;
_chemical_formula_sum "Si O2"
_cell_formula_units_Z 56
_cell_length_a 15.788648
_cell_length_b 9.151168
_cell_length_c 21.325011
_cell_angle_alpha 90.000000
_cell_angle_beta 90.000000
_cell_angle_gamma 90.000000
_cell_volume 3081.135052
_symmetry_space_group_name_H-M "P M M N"
_symmetry_group_IT_number 59
_space_group.IT_coordinate_system_code '2'
_symmetry_cell_setting 'orthorhombic'
loop_
_space_group_symop_operation_xyz
x,y,z
1/2-x,1/2-y,z
1/2+x,-y,-z
-x,1/2+y,-z
-x,-y,-z
1/2+x,1/2+y,-z
1/2-x,y,z
x,1/2-y,z
loop_
_atom_site_type_symbol
_atom_site_label
_atom_site_fract_x
_atom_site_fract_y
_atom_site_fract_z
Si Si1 0.579516 0.578849 0.469475
Si Si2 0.842936 0.417124 0.570965
Si Si3 0.411587 0.079635 0.003330
Si Si4 0.153177 0.420812 0.138566
Si Si5 0.157110 0.077124 0.871761
Si Si6 0.001456 0.924823 0.207763
Si Si7 0.995422 0.079617 0.652581
O O1 0.500000 0.500000 0.500000
O O2 0.577609 0.750000 0.483670
O O3 0.659081 0.505814 0.504686
O O4 0.575610 0.550204 0.394028
O O5 0.750000 0.428897 0.601255
O O6 0.867548 0.250000 0.555475
O O7 0.909759 0.484675 0.620589
O O8 0.431585 0.250000 0.000387
O O9 0.355501 0.030903 0.943984
O O10 0.360947 0.037554 0.065927
O O11 0.500000 0.000000 0.000000
O O12 0.250000 0.461243 0.156410
O O13 0.135835 0.250000 0.149786
O O14 0.088992 0.512905 0.180946
O O15 0.250000 0.017338 0.850201
O O16 0.156443 0.250000 0.864567
O O17 0.080087 0.013211 0.829986
O O18 0.005896 0.750000 0.203980
O O19 0.989762 0.986826 0.278613
O O20 0.980911 0.250000 0.662172
#
# Coordination Sequence:
#
# PCOD8239885 Si02
#       7
#     8   8   8   8   8   8   8
#     4   9  16  29  48  69  93 121 155 195 239 285
#     4   9  17  30  48  70  97 128 161 197 241 293
#     4  10  18  31  52  74  97 126 163 206 253 299
#     4  10  21  35  50  71 103 138 166 200 254 309
#     4   9  17  30  50  74  97 124 161 204 249 296
#     4  10  19  33  53  75  98 130 173 213 243 287
#     4   8  16  30  48  70  97 128 160 196 243 290
#
# _framework density 18.175121000000001
#
# number of rings (size 3 to 8) (size 9 to 14) (size 15 to 20)
#    0.000    2.714    1.429    1.714    0.000    2.857 
#    0.000    5.714    0.000    5.143    0.000    0.000 
#    0.000    0.000    0.000    0.000    0.000    0.000 
#
# Total GULP energy -693856.506495 kJ/mol
# GULP energy per Si atom -12390.294759 kJ/mol
# Density = 1.813375 g / cm^3
# Si number density = 18.175121 Si / 1000 Ang^3
#
#
#
# Elastic Constant Matrix: (Units=GPa)
#
#
# Indices 1 2 3 4 5 6 
#
# 1 105.5893 18.0152 43.3676 0.0000 0.0000 0.0000
# 2 18.0152 34.5935 26.0498 0.0000 0.0000 0.0000
# 3 43.3676 26.0498 136.0018 0.0000 0.0000 0.0000
# 4 0.0000 0.0000 0.0000 19.2388 0.0000 0.0000
# 5 0.0000 0.0000 0.0000 0.0000 18.5284 0.0000
# 6 0.0000 0.0000 0.0000 0.0000 0.0000 23.9111
#
#
#
# Elastic Compliance Matrix: (Units=1/GPa)
#
#
# Indices 1 2 3 4 5 6 
#
# 1 0.011290 -0.003702 -0.002891 0.000000 0.000000 0.000000
# 2 -0.003702 0.034993 -0.005522 0.000000 0.000000 0.000000
# 3 -0.002891 -0.005522 0.009332 0.000000 0.000000 0.000000
# 4 0.000000 0.000000 0.000000 0.051978 0.000000 0.000000
# 5 0.000000 0.000000 0.000000 0.000000 0.053971 0.000000
# 6 0.000000 0.000000 0.000000 0.000000 0.000000 0.041822
#
#
# Mechanical properties :
#
#
# Convention : Reuss Voigt Hill
#
# Bulk Modulus (GPa) = 31.86245 50.11664 40.98955
# Shear Modulus (GPa) = 21.00147 24.91914 22.96030
#
# Velocity S-wave (km/s) = 3.40296 3.70680 3.55812
# Velocity P-wave (km/s) = 5.74535 6.77898 6.28346
#
# Compressibility (1/GPa) = 0.03138490
#
# Stress axis : x y z
#
# Youngs Moduli (GPa) = 88.57657 28.57677 107.15414
#
# Poissons Ratio (x) = 0.10580 0.30977
# Poissons Ratio (y) = 0.32795 0.59171
# Poissons Ratio (z) = 0.25606 0.15780
#
# Static dielectric constant tensor:
#      x y z
#    x 3.706930 0.000000 0.000000 
#    y 0.000000 3.190910 0.000000 
#    z 0.000000 0.000000 3.819940 
# 
# 
# High freq. dielectric constant tensor:
#      x y z
#    x 1.701830 0.000000 0.000000 
#    y 0.000000 1.669250 0.000000 
#    z 0.000000 0.000000 1.703940 
# 
# From -- ./inp_files/30587.got.cif
#   From: 2010.03.12/outbox.cif.g09.slc.cpg/sg59_16_cif.got.tgz:30587.got - 2010.04.16 16:29:54.
