data_PCOD8239238
_publ_section_title
;
Structure prediction by ZEFSAII (Michael W. Deem and Ramdas Pophale) SiO2 
 PCOD8239238
Probable space group: P M M N
;
_chemical_formula_sum "Si O2"
_cell_formula_units_Z 64
_cell_length_a 25.743654
_cell_length_b 9.462317
_cell_length_c 16.715400
_cell_angle_alpha 90.000000
_cell_angle_beta 90.000000
_cell_angle_gamma 90.000000
_cell_volume 4071.781426
_symmetry_space_group_name_H-M "P M M N"
_symmetry_group_IT_number 59
_space_group.IT_coordinate_system_code '2'
_symmetry_cell_setting 'orthorhombic'
loop_
_space_group_symop_operation_xyz
x,y,z
1/2-x,1/2-y,z
1/2+x,-y,-z
-x,1/2+y,-z
-x,-y,-z
1/2+x,1/2+y,-z
1/2-x,y,z
x,1/2-y,z
loop_
_atom_site_type_symbol
_atom_site_label
_atom_site_fract_x
_atom_site_fract_y
_atom_site_fract_z
Si Si1 0.573342 0.409147 0.287090
Si Si2 0.545702 0.914763 0.737681
Si Si3 0.943640 0.410233 0.583816
Si Si4 0.382524 0.095533 0.115863
Si Si5 0.044061 0.403225 0.967975
Si Si6 0.308795 0.915039 0.016273
Si Si7 0.885321 0.090798 0.122967
Si Si8 0.566315 0.590371 0.436371
O O1 0.572140 0.250000 0.322687
O O2 0.515949 0.443061 0.250426
O O3 0.618872 0.419822 0.219448
O O4 0.588903 0.517538 0.356615
O O5 0.555291 0.750000 0.718689
O O6 0.578464 0.962943 0.815813
O O7 0.568442 0.008706 0.665898
O O8 0.921546 0.250000 0.587348
O O9 0.915858 0.497642 0.512592
O O10 0.004588 0.406046 0.567906
O O11 0.360097 0.250000 0.141371
O O12 0.336104 0.988807 0.092879
O O13 0.413839 0.116765 0.035550
O O14 0.022519 0.250000 0.940753
O O15 0.068992 0.480961 0.893074
O O16 0.000000 0.500000 0.000000
O O17 0.250000 0.970588 0.010789
O O18 0.311197 0.750000 0.034528
O O19 0.334275 0.948588 0.928861
O O20 0.902839 0.250000 0.099304
O O21 0.588401 0.750000 0.443354
#
# Coordination Sequence:
#
# PCOD8239238 Si02
#       8
#     8   8   8   8   8   8   8   8
#     4   9  16  26  40  57  81 112 141 170 203 240
#     4   9  16  26  39  56  81 110 139 171 204 238
#     4   9  16  25  37  54  77 108 144 173 199 234
#     4   9  18  30  43  60  81 107 139 172 207 250
#     4  10  18  27  39  56  80 109 139 168 200 240
#     4   9  18  32  48  64  82 105 135 174 217 256
#     4   9  17  29  43  59  80 107 138 171 209 250
#     4   9  16  25  37  54  78 109 143 174 201 231
#
# _framework density 15.717935000000001
#
# number of rings (size 3 to 8) (size 9 to 14) (size 15 to 20)
#    0.000    2.875    0.000    1.875    0.000    6.750 
#    0.000    2.500    0.000    0.000    0.000    0.000 
#    0.000    1.000    0.000    5.250    0.000    2.625 
#
# Total GULP energy -792945.571048 kJ/mol
# GULP energy per Si atom -12389.774548 kJ/mol
# Density = 1.568216 g / cm^3
# Si number density = 15.717935 Si / 1000 Ang^3
#
#
#
# Elastic Constant Matrix: (Units=GPa)
#
#
# Indices 1 2 3 4 5 6 
#
# 1 37.6847 18.4932 11.8288 0.0000 0.0000 0.0000
# 2 18.4932 86.6214 34.0498 0.0000 0.0000 0.0000
# 3 11.8288 34.0498 85.1777 0.0000 0.0000 0.0000
# 4 0.0000 0.0000 0.0000 28.0923 0.0000 0.0000
# 5 0.0000 0.0000 0.0000 0.0000 11.3463 0.0000
# 6 0.0000 0.0000 0.0000 0.0000 0.0000 14.6907
#
#
#
# Elastic Compliance Matrix: (Units=1/GPa)
#
#
# Indices 1 2 3 4 5 6 
#
# 1 0.029898 -0.005637 -0.001899 0.000000 0.000000 0.000000
# 2 -0.005637 0.014759 -0.005117 0.000000 0.000000 0.000000
# 3 -0.001899 -0.005117 0.014049 0.000000 0.000000 0.000000
# 4 0.000000 0.000000 0.000000 0.035597 0.000000 0.000000
# 5 0.000000 0.000000 0.000000 0.000000 0.088135 0.000000
# 6 0.000000 0.000000 0.000000 0.000000 0.000000 0.068070
#
#
# Mechanical properties :
#
#
# Convention : Reuss Voigt Hill
#
# Bulk Modulus (GPa) = 29.93878 37.58082 33.75980
# Shear Modulus (GPa) = 17.42476 20.50000 18.96238
#
# Velocity S-wave (km/s) = 3.33316 3.61535 3.47712
# Velocity P-wave (km/s) = 5.82256 6.43343 6.13560
#
# Compressibility (1/GPa) = 0.03340150
#
# Stress axis : x y z
#
# Youngs Moduli (GPa) = 33.44700 67.75328 71.17700
#
# Poissons Ratio (x) = 0.38190 0.13515
# Poissons Ratio (y) = 0.18853 0.36423
# Poissons Ratio (z) = 0.06351 0.34671
#
# Static dielectric constant tensor:
#      x y z
#    x 3.038090 0.000000 0.000000 
#    y 0.000000 3.443130 0.000000 
#    z 0.000000 0.000000 3.001060 
# 
# 
# High freq. dielectric constant tensor:
#      x y z
#    x 1.535360 0.000000 0.000000 
#    y 0.000000 1.618010 0.000000 
#    z 0.000000 0.000000 1.601350 
# 
# From -- ./inp_files/26650.got.cif
#   From: 2010.03.12/outbox.cif.g09.slc.cpg/sg59_14_cif.got.tgz:26650.got - 2010.04.16 16:29:54.
