data_PCOD8239583
_publ_section_title
;
Structure prediction by ZEFSAII (Michael W. Deem and Ramdas Pophale) SiO2 
 PCOD8239583
Probable space group: P M M N
;
_chemical_formula_sum "Si O2"
_cell_formula_units_Z 64
_cell_length_a 9.091647
_cell_length_b 27.333428
_cell_length_c 14.699544
_cell_angle_alpha 90.000000
_cell_angle_beta 90.000000
_cell_angle_gamma 90.000000
_cell_volume 3652.923098
_symmetry_space_group_name_H-M "P M M N"
_symmetry_group_IT_number 59
_space_group.IT_coordinate_system_code '2'
_symmetry_cell_setting 'orthorhombic'
loop_
_space_group_symop_operation_xyz
x,y,z
1/2-x,1/2-y,z
1/2+x,-y,-z
-x,1/2+y,-z
-x,-y,-z
1/2+x,1/2+y,-z
1/2-x,y,z
x,1/2-y,z
loop_
_atom_site_type_symbol
_atom_site_label
_atom_site_fract_x
_atom_site_fract_y
_atom_site_fract_z
Si Si1 0.424363 0.465564 0.659914
Si Si2 0.918871 0.920288 0.836625
Si Si3 0.076908 0.532979 0.156825
Si Si4 0.924320 0.696250 0.154204
Si Si5 0.576735 0.892684 0.033304
Si Si6 0.577597 0.111102 0.535541
Si Si7 0.080410 0.922839 0.660145
Si Si8 0.580525 0.693124 0.359421
O O1 0.250000 0.458256 0.664164
O O2 0.495171 0.446543 0.753775
O O3 0.489758 0.433691 0.578926
O O4 0.472306 0.521516 0.642100
O O5 0.750000 0.916241 0.811003
O O6 0.002982 0.899663 0.748587
O O7 0.962060 0.976256 0.857478
O O8 0.956761 0.888159 0.925725
O O9 0.250000 0.542372 0.165919
O O10 0.012841 0.561242 0.070461
O O11 0.750000 0.699099 0.151443
O O12 0.988535 0.750000 0.128826
O O13 0.982359 0.656478 0.082201
O O14 0.972417 0.681839 0.256459
O O15 0.750000 0.901280 0.050592
O O16 0.750000 0.104682 0.555740
O O17 0.545299 0.110005 0.427654
O O18 0.521458 0.162879 0.572424
O O19 0.250000 0.923416 0.684110
O O20 0.750000 0.677232 0.372139
O O21 0.560172 0.750000 0.382404
#
# Coordination Sequence:
#
# PCOD8239583 Si02
#       8
#     8   8   8   8   8   8   8   8
#     4  10  19  32  49  69  96 130 164 197 237 286
#     4   9  19  32  46  67  95 127 163 201 236 276
#     4  10  19  30  44  67  99 129 158 195 237 280
#     4   8  15  29  49  71  94 119 148 185 228 276
#     4  10  18  29  48  72  95 123 160 195 235 288
#     4  11  21  32  49  74  99 124 160 202 246 294
#     4   9  20  35  49  67  94 130 167 200 237 286
#     4   9  18  33  52  74  99 128 161 193 233 291
#
# _framework density 17.520216000000001
#
# number of rings (size 3 to 8) (size 9 to 14) (size 15 to 20)
#    0.000    2.500    0.000    3.375    0.000    3.750 
#    0.000    0.000    0.000    1.875    0.000    1.750 
#    0.000    0.000    0.000    0.000    0.000    0.000 
#
# Total GULP energy -793593.339469 kJ/mol
# GULP energy per Si atom -12399.895929 kJ/mol
# Density = 1.748034 g / cm^3
# Si number density = 17.520216 Si / 1000 Ang^3
#
#
#
# Elastic Constant Matrix: (Units=GPa)
#
#
# Indices 1 2 3 4 5 6 
#
# 1 62.1468 29.7006 50.2233 0.0000 0.0000 0.0000
# 2 29.7006 72.2494 58.0358 0.0000 0.0000 0.0000
# 3 50.2233 58.0358 128.9608 0.0000 0.0000 0.0000
# 4 0.0000 0.0000 0.0000 27.2429 0.0000 0.0000
# 5 0.0000 0.0000 0.0000 0.0000 30.0697 0.0000
# 6 0.0000 0.0000 0.0000 0.0000 0.0000 20.5487
#
#
#
# Elastic Compliance Matrix: (Units=1/GPa)
#
#
# Indices 1 2 3 4 5 6 
#
# 1 0.024099 -0.003708 -0.007716 0.000000 0.000000 0.000000
# 2 -0.003708 0.022248 -0.008568 0.000000 0.000000 0.000000
# 3 -0.007716 -0.008568 0.014615 0.000000 0.000000 0.000000
# 4 0.000000 0.000000 0.000000 0.036707 0.000000 0.000000
# 5 0.000000 0.000000 0.000000 0.000000 0.033256 0.000000
# 6 0.000000 0.000000 0.000000 0.000000 0.000000 0.048665
#
#
# Mechanical properties :
#
#
# Convention : Reuss Voigt Hill
#
# Bulk Modulus (GPa) = 47.67198 59.91962 53.79580
# Shear Modulus (GPa) = 22.06847 23.93207 23.00027
#
# Velocity S-wave (km/s) = 3.55294 3.69991 3.62717
# Velocity P-wave (km/s) = 6.64078 7.24755 6.95079
#
# Compressibility (1/GPa) = 0.02097668
#
# Stress axis : x y z
#
# Youngs Moduli (GPa) = 41.49517 44.94846 68.42199
#
# Poissons Ratio (x) = 0.16669 0.52797
# Poissons Ratio (y) = 0.15388 0.58623
# Poissons Ratio (z) = 0.32020 0.38511
#
# Static dielectric constant tensor:
#      x y z
#    x 3.150430 0.000000 0.000000 
#    y 0.000000 3.258160 0.000000 
#    z 0.000000 0.000000 3.344410 
# 
# 
# High freq. dielectric constant tensor:
#      x y z
#    x 1.667870 0.000000 0.000000 
#    y 0.000000 1.654800 0.000000 
#    z 0.000000 0.000000 1.677740 
# 
# From -- ./inp_files/21947.got.cif
#   From: 2010.03.12/outbox.cif.g09.slc.cpg/sg59_11_cif.got.tgz:21947.got - 2010.04.16 16:29:54.
