data_PCOD8239890
_publ_section_title
;
Structure prediction by ZEFSAII (Michael W. Deem and Ramdas Pophale) SiO2 
 PCOD8239890
Probable space group: P M M N
;
_chemical_formula_sum "Si O2"
_cell_formula_units_Z 48
_cell_length_a 9.374781
_cell_length_b 17.880596
_cell_length_c 16.054027
_cell_angle_alpha 90.000000
_cell_angle_beta 90.000000
_cell_angle_gamma 90.000000
_cell_volume 2691.083113
_symmetry_space_group_name_H-M "P M M N"
_symmetry_group_IT_number 59
_space_group.IT_coordinate_system_code '2'
_symmetry_cell_setting 'orthorhombic'
loop_
_space_group_symop_operation_xyz
x,y,z
1/2-x,1/2-y,z
1/2+x,-y,-z
-x,1/2+y,-z
-x,-y,-z
1/2+x,1/2+y,-z
1/2-x,y,z
x,1/2-y,z
loop_
_atom_site_type_symbol
_atom_site_label
_atom_site_fract_x
_atom_site_fract_y
_atom_site_fract_z
Si Si1 0.918900 0.750000 0.202259
Si Si2 0.415379 0.960251 0.623654
Si Si3 0.919988 0.750000 0.387067
Si Si4 0.416189 0.663461 0.938449
Si Si5 0.419795 0.391285 0.903710
Si Si6 0.414836 0.393437 0.517548
Si Si7 0.416287 0.961619 0.810335
O O1 0.750000 0.750000 0.207107
O O2 0.985749 0.750000 0.294427
O O3 0.971810 0.675937 0.155402
O O4 0.250000 0.937347 0.624317
O O5 0.499869 0.900342 0.568537
O O6 0.480825 0.960619 0.717039
O O7 0.440854 0.040432 0.582657
O O8 0.750000 0.750000 0.380948
O O9 0.976445 0.678601 0.436322
O O10 0.250000 0.658368 0.962383
O O11 0.463496 0.750000 0.926992
O O12 0.447250 0.618314 0.853218
O O13 0.507248 0.621314 0.007773
O O14 0.250000 0.391415 0.916763
O O15 0.477561 0.469098 0.864588
O O16 0.250000 0.385683 0.493696
O O17 0.250000 0.977762 0.801065
#
# Coordination Sequence:
#
# PCOD8239890 Si02
#       7
#     4   8   4   8   8   8   8
#     4   9  16  26  47  76  97 118 152 201 247 281
#     4   9  17  32  51  71  96 126 161 198 236 281
#     4   9  16  28  47  72  97 124 158 193 237 291
#     4  10  20  34  49  67  98 134 163 193 238 290
#     4  10  18  31  52  75  97 120 159 207 244 279
#     4   9  17  30  50  72  97 126 156 196 244 287
#     4   9  18  32  51  73  94 126 168 201 230 281
#
# _framework density 17.836684000000002
#
# number of rings (size 3 to 8) (size 9 to 14) (size 15 to 20)
#    0.000    2.667    0.833    1.500    0.000    4.000 
#    1.500    2.083    0.000    4.000    0.000    0.000 
#    0.000    0.000    0.000    0.000    0.000    0.000 
#
# Total GULP energy -595116.858379 kJ/mol
# GULP energy per Si atom -12398.267883 kJ/mol
# Density = 1.779609 g / cm^3
# Si number density = 17.836684 Si / 1000 Ang^3
#
#
#
# Elastic Constant Matrix: (Units=GPa)
#
#
# Indices 1 2 3 4 5 6 
#
# 1 28.8175 19.2082 37.9917 0.0000 0.0000 0.0000
# 2 19.2082 81.5643 57.4304 0.0000 0.0000 0.0000
# 3 37.9917 57.4304 150.9440 0.0000 0.0000 0.0000
# 4 0.0000 0.0000 0.0000 25.6175 0.0000 0.0000
# 5 0.0000 0.0000 0.0000 0.0000 27.0607 0.0000
# 6 0.0000 0.0000 0.0000 0.0000 0.0000 16.9259
#
#
#
# Elastic Compliance Matrix: (Units=1/GPa)
#
#
# Indices 1 2 3 4 5 6 
#
# 1 0.052975 -0.004217 -0.011729 0.000000 0.000000 0.000000
# 2 -0.004217 0.017082 -0.005438 0.000000 0.000000 0.000000
# 3 -0.011729 -0.005438 0.011646 0.000000 0.000000 0.000000
# 4 0.000000 0.000000 0.000000 0.039036 0.000000 0.000000
# 5 0.000000 0.000000 0.000000 0.000000 0.036954 0.000000
# 6 0.000000 0.000000 0.000000 0.000000 0.000000 0.059081
#
#
# Mechanical properties :
#
#
# Convention : Reuss Voigt Hill
#
# Bulk Modulus (GPa) = 25.68352 54.50961 40.09656
# Shear Modulus (GPa) = 18.34721 23.70051 21.02386
#
# Velocity S-wave (km/s) = 3.21069 3.64916 3.43693
# Velocity P-wave (km/s) = 5.30804 6.95571 6.18697
#
# Compressibility (1/GPa) = 0.03893547
#
# Stress axis : x y z
#
# Youngs Moduli (GPa) = 18.87680 58.54007 85.86540
#
# Poissons Ratio (x) = 0.24686 1.00712
# Poissons Ratio (y) = 0.07960 0.46694
# Poissons Ratio (z) = 0.22141 0.31834
#
# Static dielectric constant tensor:
#      x y z
#    x 2.950860 0.000000 0.000000 
#    y 0.000000 3.428900 0.000000 
#    z 0.000000 0.000000 3.473790 
# 
# 
# High freq. dielectric constant tensor:
#      x y z
#    x 1.646770 0.000000 0.000000 
#    y 0.000000 1.696960 0.000000 
#    z 0.000000 0.000000 1.698710 
# 
# From -- ./inp_files/20573.got.cif
#   From: 2010.03.12/outbox.cif.g09.slc.cpg/sg59_11_cif.got.tgz:20573.got - 2010.04.16 16:29:54.
