data_PCOD8239476
_publ_section_title
;
Structure prediction by ZEFSAII (Michael W. Deem and Ramdas Pophale) SiO2 
 PCOD8239476
Probable space group: P M M N
;
_chemical_formula_sum "Si O2"
_cell_formula_units_Z 52
_cell_length_a 24.847742
_cell_length_b 11.016557
_cell_length_c 9.918988
_cell_angle_alpha 90.000000
_cell_angle_beta 90.000000
_cell_angle_gamma 90.000000
_cell_volume 2715.189714
_symmetry_space_group_name_H-M "P M M N"
_symmetry_group_IT_number 59
_space_group.IT_coordinate_system_code '2'
_symmetry_cell_setting 'orthorhombic'
loop_
_space_group_symop_operation_xyz
x,y,z
1/2-x,1/2-y,z
1/2+x,-y,-z
-x,1/2+y,-z
-x,-y,-z
1/2+x,1/2+y,-z
1/2-x,y,z
x,1/2-y,z
loop_
_atom_site_type_symbol
_atom_site_label
_atom_site_fract_x
_atom_site_fract_y
_atom_site_fract_z
Si Si1 0.310414 0.610916 0.149336
Si Si2 0.119638 0.467987 0.630915
Si Si3 0.688507 0.750000 0.999562
Si Si4 0.900667 0.490586 0.665120
Si Si5 0.312015 0.250000 0.536486
Si Si6 0.505171 0.609794 0.392408
Si Si7 0.188381 0.993760 0.867840
Si Si8 0.126190 0.250000 0.277030
O O1 0.250000 0.561267 0.175066
O O2 0.315178 0.750000 0.189037
O O3 0.349694 0.536578 0.243680
O O4 0.325311 0.592667 0.993618
O O5 0.112145 0.542540 0.491513
O O6 0.163509 0.365963 0.607052
O O7 0.062586 0.410526 0.680080
O O8 0.146444 0.547181 0.750664
O O9 0.750000 0.750000 0.945594
O O10 0.677522 0.867098 0.090708
O O11 0.647052 0.750000 0.875237
O O12 0.911464 0.634431 0.685504
O O13 0.953991 0.413592 0.707355
O O14 0.250000 0.250000 0.569012
O O15 0.322434 0.250000 0.376203
O O16 0.500000 0.500000 0.500000
O O17 0.502667 0.750000 0.446922
O O18 0.250000 0.974191 0.820500
#
# Coordination Sequence:
#
# PCOD8239476 Si02
#       8
#     8   8   4   8   4   8   8   4
#     4  10  21  38  58  80 113 156 198 239 290 356
#     4  10  20  35  55  85 116 148 188 237 293 350
#     4  10  18  30  53  83 113 147 179 219 287 364
#     4  10  21  36  61  83 115 149 200 246 301 342
#     4  10  18  28  51  85 123 147 174 232 300 348
#     4  10  21  38  60  83 116 159 200 245 296 352
#     4  10  20  34  55  84 117 150 182 228 295 363
#     4  10  19  32  54  88 118 146 189 253 291 344
#
# _framework density 19.151516999999998
#
# number of rings (size 3 to 8) (size 9 to 14) (size 15 to 20)
#    0.000    2.000    2.308    1.615    3.231    3.692 
#    0.000    4.615    0.000    1.846    0.000    0.000 
#    0.000    0.000    0.000    0.000    0.000    0.000 
#
# Total GULP energy -644382.708437 kJ/mol
# GULP energy per Si atom -12391.975162 kJ/mol
# Density = 1.910793 g / cm^3
# Si number density = 19.151517 Si / 1000 Ang^3
#
#
#
# Elastic Constant Matrix: (Units=GPa)
#
#
# Indices 1 2 3 4 5 6 
#
# 1 145.2581 35.7079 56.1831 0.0000 0.0000 0.0000
# 2 35.7079 75.7051 14.9243 0.0000 0.0000 0.0000
# 3 56.1831 14.9243 88.4660 0.0000 0.0000 0.0000
# 4 0.0000 0.0000 0.0000 13.4691 0.0000 0.0000
# 5 0.0000 0.0000 0.0000 0.0000 18.8363 0.0000
# 6 0.0000 0.0000 0.0000 0.0000 0.0000 0.0911
#
#
#
# Elastic Compliance Matrix: (Units=1/GPa)
#
#
# Indices 1 2 3 4 5 6 
#
# 1 0.009982 -0.003578 -0.005736 0.000000 0.000000 0.000000
# 2 -0.003578 0.014946 -0.000249 0.000000 0.000000 0.000000
# 3 -0.005736 -0.000249 0.014989 0.000000 0.000000 0.000000
# 4 0.000000 0.000000 0.000000 0.074244 0.000000 0.000000
# 5 0.000000 0.000000 0.000000 0.000000 0.053089 0.000000
# 6 0.000000 0.000000 0.000000 0.000000 0.000000 10.971479
#
#
# Mechanical properties :
#
#
# Convention : Reuss Voigt Hill
#
# Bulk Modulus (GPa) = 48.09799 58.11775 53.10787
# Shear Modulus (GPa) = 0.44784 19.98692 10.21738
#
# Velocity S-wave (km/s) = 0.48409 3.23402 2.31227
# Velocity P-wave (km/s) = 5.04791 6.66013 5.90926
#
# Compressibility (1/GPa) = 0.02079089
#
# Stress axis : x y z
#
# Youngs Moduli (GPa) = 100.17676 66.90866 66.71700
#
# Poissons Ratio (x) = 0.23937 0.38269
# Poissons Ratio (y) = 0.35839 0.01663
# Poissons Ratio (z) = 0.57462 0.01668
#
# Static dielectric constant tensor:
#      x y z
#    x 3.928410 0.000000 0.000000 
#    y 0.000000 3.908850 0.000000 
#    z 0.000000 0.000000 3.402180 
# 
# 
# High freq. dielectric constant tensor:
#      x y z
#    x 1.749140 0.000000 0.000000 
#    y 0.000000 1.736850 0.000000 
#    z 0.000000 0.000000 1.722420 
# 
# From -- ./inp_files/12613.got.cif
#   From: 2010.03.12/outbox.cif.g09.slc.cpg/sg59_7_cif.got.tgz:12613.got - 2010.04.16 16:29:54.
