data_PCOD8239452
_publ_section_title
;
Structure prediction by ZEFSAII (Michael W. Deem and Ramdas Pophale) SiO2 
 PCOD8239452
Probable space group: P M M N
;
_chemical_formula_sum "Si O2"
_cell_formula_units_Z 64
_cell_length_a 9.426740
_cell_length_b 27.716647
_cell_length_c 14.509355
_cell_angle_alpha 90.000000
_cell_angle_beta 90.000000
_cell_angle_gamma 90.000000
_cell_volume 3790.969814
_symmetry_space_group_name_H-M "P M M N"
_symmetry_group_IT_number 59
_space_group.IT_coordinate_system_code '2'
_symmetry_cell_setting 'orthorhombic'
loop_
_space_group_symop_operation_xyz
x,y,z
1/2-x,1/2-y,z
1/2+x,-y,-z
-x,1/2+y,-z
-x,-y,-z
1/2+x,1/2+y,-z
1/2-x,y,z
x,1/2-y,z
loop_
_atom_site_type_symbol
_atom_site_label
_atom_site_fract_x
_atom_site_fract_y
_atom_site_fract_z
Si Si1 0.085592 0.067026 0.147428
Si Si2 0.914246 0.194232 0.857458
Si Si3 0.083157 0.471785 0.832507
Si Si4 0.084628 0.885654 0.484083
Si Si5 0.081127 0.696467 0.348926
Si Si6 0.087359 0.117127 0.962747
Si Si7 0.411368 0.419611 0.353705
Si Si8 0.912968 0.469684 0.652864
O O1 0.250000 0.050064 0.143983
O O2 0.051644 0.090569 0.246814
O O3 0.053396 0.106790 0.069932
O O4 0.988395 0.020531 0.130444
O O5 0.750000 0.180647 0.864064
O O6 0.939502 0.250000 0.882162
O O7 0.972153 0.183352 0.754105
O O8 0.995739 0.162378 0.931609
O O9 0.250000 0.480567 0.818962
O O10 0.049557 0.430705 0.906246
O O11 0.014910 0.454881 0.736398
O O12 0.250000 0.878138 0.502178
O O13 0.022016 0.841962 0.422391
O O14 0.051742 0.935825 0.433214
O O15 0.008599 0.885822 0.582838
O O16 0.250000 0.695388 0.346880
O O17 0.027722 0.750000 0.376857
O O18 0.250000 0.131441 0.948215
O O19 0.250000 0.406062 0.375719
O O20 0.441608 0.475512 0.376996
O O21 0.750000 0.462780 0.685174
#
# Coordination Sequence:
#
# PCOD8239452 Si02
#       8
#     8   8   8   8   8   8   8   8
#     4   9  19  35  49  63  91 130 163 189 228 281
#     4   9  18  33  53  75  97 122 153 188 227 276
#     4  10  19  29  45  72  99 122 155 197 233 268
#     4  10  18  28  47  70  89 117 157 191 224 273
#     4   8  15  29  48  70  95 120 146 179 223 276
#     4  10  20  32  48  71  97 125 157 192 233 280
#     4   9  18  31  45  62  89 123 155 191 230 265
#     4   9  18  31  45  64  93 128 157 182 225 283
#
# _framework density 16.882221999999999
#
# number of rings (size 3 to 8) (size 9 to 14) (size 15 to 20)
#    0.000    2.750    0.000    3.375    0.000    5.250 
#    0.000    0.625    0.000    1.875    0.000    3.500 
#    0.000    0.000    0.000    0.000    0.000    0.000 
#
# Total GULP energy -793556.353935 kJ/mol
# GULP energy per Si atom -12399.318030 kJ/mol
# Density = 1.684380 g / cm^3
# Si number density = 16.882222 Si / 1000 Ang^3
#
#
#
# Elastic Constant Matrix: (Units=GPa)
#
#
# Indices 1 2 3 4 5 6 
#
# 1 62.7052 42.7093 52.4297 0.0000 0.0000 0.0000
# 2 42.7093 81.4319 65.9811 0.0000 0.0000 0.0000
# 3 52.4297 65.9811 119.9174 0.0000 0.0000 0.0000
# 4 0.0000 0.0000 0.0000 26.9621 0.0000 0.0000
# 5 0.0000 0.0000 0.0000 0.0000 29.6353 0.0000
# 6 0.0000 0.0000 0.0000 0.0000 0.0000 24.0231
#
#
#
# Elastic Compliance Matrix: (Units=1/GPa)
#
#
# Indices 1 2 3 4 5 6 
#
# 1 0.028150 -0.008646 -0.007550 0.000000 0.000000 0.000000
# 2 -0.008646 0.024815 -0.009874 0.000000 0.000000 0.000000
# 3 -0.007550 -0.009874 0.017073 0.000000 0.000000 0.000000
# 4 0.000000 0.000000 0.000000 0.037089 0.000000 0.000000
# 5 0.000000 0.000000 0.000000 0.000000 0.033744 0.000000
# 6 0.000000 0.000000 0.000000 0.000000 0.000000 0.041627
#
#
# Mechanical properties :
#
#
# Convention : Reuss Voigt Hill
#
# Bulk Modulus (GPa) = 55.87331 65.14386 60.50858
# Shear Modulus (GPa) = 20.78116 22.98637 21.88376
#
# Velocity S-wave (km/s) = 3.51229 3.69395 3.60427
# Velocity P-wave (km/s) = 7.04387 7.54087 7.29660
#
# Compressibility (1/GPa) = 0.01789763
#
# Stress axis : x y z
#
# Youngs Moduli (GPa) = 35.52445 40.29789 58.57317
#
# Poissons Ratio (x) = 0.34843 0.44223
# Poissons Ratio (y) = 0.30716 0.57832
# Poissons Ratio (z) = 0.26821 0.39788
#
# Static dielectric constant tensor:
#      x y z
#    x 3.017160 0.000000 0.000000 
#    y 0.000000 3.075340 0.000000 
#    z 0.000000 0.000000 3.215200 
# 
# 
# High freq. dielectric constant tensor:
#      x y z
#    x 1.638350 0.000000 0.000000 
#    y 0.000000 1.631310 0.000000 
#    z 0.000000 0.000000 1.650920 
# 
# From -- ./inp_files/21925.got.cif
#   From: 2010.03.12/outbox.cif.g09.slc.cpg/sg59_11_cif.got.tgz:21925.got - 2010.04.16 16:29:54.
