data_PCOD8239599
_publ_section_title
;
Structure prediction by ZEFSAII (Michael W. Deem and Ramdas Pophale) SiO2 
 PCOD8239599
Probable space group: P M M N
;
_chemical_formula_sum "Si O2"
_cell_formula_units_Z 48
_cell_length_a 23.119474
_cell_length_b 21.663125
_cell_length_c 5.045239
_cell_angle_alpha 90.000000
_cell_angle_beta 90.000000
_cell_angle_gamma 90.000000
_cell_volume 2526.857779
_symmetry_space_group_name_H-M "P M M N"
_symmetry_group_IT_number 59
_space_group.IT_coordinate_system_code '2'
_symmetry_cell_setting 'orthorhombic'
loop_
_space_group_symop_operation_xyz
x,y,z
1/2-x,1/2-y,z
1/2+x,-y,-z
-x,1/2+y,-z
-x,-y,-z
1/2+x,1/2+y,-z
1/2-x,y,z
x,1/2-y,z
loop_
_atom_site_type_symbol
_atom_site_label
_atom_site_fract_x
_atom_site_fract_y
_atom_site_fract_z
Si Si1 0.052604 0.944218 0.722822
Si Si2 0.924149 0.520550 0.765797
Si Si3 0.312840 0.393723 0.233034
Si Si4 0.037494 0.680900 0.900194
Si Si5 0.157338 0.323221 0.720510
Si Si6 0.967556 0.818416 0.387010
O O1 0.077707 0.875276 0.791216
O O2 0.981784 0.938905 0.696448
O O3 0.079885 0.964879 0.445331
O O4 0.070056 0.994051 0.940148
O O5 0.864321 0.557135 0.755733
O O6 0.250000 0.425691 0.174842
O O7 0.303234 0.357708 0.507884
O O8 0.325369 0.341698 0.014743
O O9 0.067064 0.750000 0.914178
O O10 0.984342 0.684124 0.694114
O O11 0.016601 0.655007 0.187667
O O12 0.162888 0.250000 0.686227
O O13 0.093587 0.351405 0.653035
O O14 0.958807 0.750000 0.270099
#
# Coordination Sequence:
#
# PCOD8239599 Si02
#       6
#     8   8   8   8   8   8
#     4  10  19  33  54  75 100 131 164 211 251 299
#     4  10  21  35  52  74  99 133 175 206 247 299
#     4  12  25  39  54  72 101 136 174 221 258 296
#     4  10  18  29  48  77 108 133 162 203 260 314
#     4  11  22  36  54  74  98 134 179 221 258 289
#     4   9  17  28  45  70 101 134 164 200 245 297
#
# _framework density 18.995926999999998
#
# number of rings (size 3 to 8) (size 9 to 14) (size 15 to 20)
#    0.000    1.667    0.000    6.000    0.000    7.333 
#    0.000    0.000    0.000    0.000    0.000    0.000 
#    0.000    4.000    0.000    0.000    0.000    0.000 
#
# Total GULP energy -594701.622926 kJ/mol
# GULP energy per Si atom -12389.617144 kJ/mol
# Density = 1.895269 g / cm^3
# Si number density = 18.995927 Si / 1000 Ang^3
#
#
#
# Elastic Constant Matrix: (Units=GPa)
#
#
# Indices 1 2 3 4 5 6 
#
# 1 79.6036 34.9060 11.2356 0.0000 0.0000 0.0000
# 2 34.9060 76.4122 -10.0159 0.0000 0.0000 0.0000
# 3 11.2356 -10.0159 54.5661 0.0000 0.0000 0.0000
# 4 0.0000 0.0000 0.0000 18.8219 0.0000 0.0000
# 5 0.0000 0.0000 0.0000 0.0000 9.0975 0.0000
# 6 0.0000 0.0000 0.0000 0.0000 0.0000 9.1335
#
#
#
# Elastic Compliance Matrix: (Units=1/GPa)
#
#
# Indices 1 2 3 4 5 6 
#
# 1 0.016960 -0.008407 -0.005035 0.000000 0.000000 0.000000
# 2 -0.008407 0.017577 0.004958 0.000000 0.000000 0.000000
# 3 -0.005035 0.004958 0.020273 0.000000 0.000000 0.000000
# 4 0.000000 0.000000 0.000000 0.053130 0.000000 0.000000
# 5 0.000000 0.000000 0.000000 0.000000 0.109920 0.000000
# 6 0.000000 0.000000 0.000000 0.000000 0.000000 0.109487
#
#
# Mechanical properties :
#
#
# Convention : Reuss Voigt Hill
#
# Bulk Modulus (GPa) = 26.42717 31.42591 28.92654
# Shear Modulus (GPa) = 14.00835 19.04100 16.52468
#
# Velocity S-wave (km/s) = 2.71853 3.16946 2.95262
# Velocity P-wave (km/s) = 4.87812 5.47480 5.18505
#
# Compressibility (1/GPa) = 0.03783985
#
# Stress axis : x y z
#
# Youngs Moduli (GPa) = 58.96381 56.89152 49.32622
#
# Poissons Ratio (x) = 0.47831 0.24837
# Poissons Ratio (y) = 0.49573 -0.24454
# Poissons Ratio (z) = 0.29690 -0.28204
#
# Static dielectric constant tensor:
#      x y z
#    x 3.241680 0.000000 0.000000 
#    y 0.000000 3.617850 0.000000 
#    z 0.000000 0.000000 3.677760 
# 
# 
# High freq. dielectric constant tensor:
#      x y z
#    x 1.669840 0.000000 0.000000 
#    y 0.000000 1.739330 0.000000 
#    z 0.000000 0.000000 1.767580 
# 
# From -- ./inp_files/3341.got.cif
#   From: 2010.03.12/outbox.cif.g09.slc.cpg/sg59_2_cif.got.tgz:3341.got - 2010.04.16 16:29:54.
