data_PCOD8239997
_publ_section_title
;
Structure prediction by ZEFSAII (Michael W. Deem and Ramdas Pophale) SiO2 
 PCOD8239997
Probable space group: P M M N
;
_chemical_formula_sum "Si O2"
_cell_formula_units_Z 64
_cell_length_a 28.507497
_cell_length_b 8.973396
_cell_length_c 13.031286
_cell_angle_alpha 90.000000
_cell_angle_beta 90.000000
_cell_angle_gamma 90.000000
_cell_volume 3333.521016
_symmetry_space_group_name_H-M "P M M N"
_symmetry_group_IT_number 59
_space_group.IT_coordinate_system_code '2'
_symmetry_cell_setting 'orthorhombic'
loop_
_space_group_symop_operation_xyz
x,y,z
1/2-x,1/2-y,z
1/2+x,-y,-z
-x,1/2+y,-z
-x,-y,-z
1/2+x,1/2+y,-z
1/2-x,y,z
x,1/2-y,z
loop_
_atom_site_type_symbol
_atom_site_label
_atom_site_fract_x
_atom_site_fract_y
_atom_site_fract_z
Si Si1 0.366755 0.923928 0.912426
Si Si2 0.197626 0.572724 0.326938
Si Si3 0.454159 0.574852 0.455644
Si Si4 0.471129 0.921225 0.911885
Si Si5 0.645712 0.073832 0.472493
Si Si6 0.366675 0.575964 0.142329
Si Si7 0.196777 0.571874 0.730470
Si Si8 0.550099 0.578769 0.758386
O O1 0.369865 0.750000 0.888574
O O2 0.419167 0.991845 0.899223
O O3 0.330563 0.993352 0.829984
O O4 0.347696 0.954417 0.027382
O O5 0.250000 0.506869 0.325593
O O6 0.198795 0.750000 0.331241
O O7 0.170913 0.507258 0.426319
O O8 0.171964 0.519635 0.223251
O O9 0.500000 0.500000 0.500000
O O10 0.462137 0.750000 0.454624
O O11 0.409361 0.531180 0.525704
O O12 0.444152 0.521850 0.341157
O O13 0.466570 0.750000 0.945844
O O14 0.497712 0.936971 0.803321
O O15 0.500000 0.000000 0.000000
O O16 0.651665 0.250000 0.474661
O O17 0.670241 0.009392 0.370526
O O18 0.378458 0.750000 0.158092
O O19 0.413906 0.481359 0.156450
O O20 0.250000 0.510899 0.731753
O O21 0.197182 0.750000 0.730340
O O22 0.561157 0.750000 0.731250
#
# Coordination Sequence:
#
# PCOD8239997 Si02
#       8
#     8   8   8   8   8   8   8   8
#     4   9  18  30  47  71 106 144 177 218 272 324
#     4   9  16  27  47  76 103 131 175 226 272 319
#     4  11  23  38  56  81 113 147 181 222 277 334
#     4  10  20  33  52  77 106 142 182 222 265 318
#     4   9  17  30  50  74 105 142 176 216 268 323
#     4  10  18  32  52  77 109 145 178 219 274 329
#     4   9  17  29  47  74 108 142 177 222 275 328
#     4  11  22  35  54  79 109 145 184 226 272 329
#
# _framework density 19.198917999999999
#
# number of rings (size 3 to 8) (size 9 to 14) (size 15 to 20)
#    0.000    2.250    2.500    1.125    1.750    2.500 
#    0.000    2.500    0.000    0.375    0.000    0.000 
#    0.000    4.500    0.000    0.000    0.000    0.000 
#
# Total GULP energy -793491.390142 kJ/mol
# GULP energy per Si atom -12398.302971 kJ/mol
# Density = 1.915522 g / cm^3
# Si number density = 19.198918 Si / 1000 Ang^3
#
#
#
# Elastic Constant Matrix: (Units=GPa)
#
#
# Indices 1 2 3 4 5 6 
#
# 1 167.7515 30.3551 90.6951 0.0000 0.0000 0.0000
# 2 30.3551 34.9845 22.0191 0.0000 0.0000 0.0000
# 3 90.6951 22.0191 152.8868 0.0000 0.0000 0.0000
# 4 0.0000 0.0000 0.0000 15.3906 0.0000 0.0000
# 5 0.0000 0.0000 0.0000 0.0000 37.1745 0.0000
# 6 0.0000 0.0000 0.0000 0.0000 0.0000 18.9334
#
#
#
# Elastic Compliance Matrix: (Units=1/GPa)
#
#
# Indices 1 2 3 4 5 6 
#
# 1 0.009565 -0.005199 -0.004925 0.000000 0.000000 0.000000
# 2 -0.005199 0.034260 -0.001850 0.000000 0.000000 0.000000
# 3 -0.004925 -0.001850 0.009729 0.000000 0.000000 0.000000
# 4 0.000000 0.000000 0.000000 0.064975 0.000000 0.000000
# 5 0.000000 0.000000 0.000000 0.000000 0.026900 0.000000
# 6 0.000000 0.000000 0.000000 0.000000 0.000000 0.052817
#
#
# Mechanical properties :
#
#
# Convention : Reuss Voigt Hill
#
# Bulk Modulus (GPa) = 33.77835 71.30682 52.54258
# Shear Modulus (GPa) = 21.54599 28.46995 25.00797
#
# Velocity S-wave (km/s) = 3.35363 3.85501 3.61303
# Velocity P-wave (km/s) = 5.71208 7.55225 6.69569
#
# Compressibility (1/GPa) = 0.02960476
#
# Stress axis : x y z
#
# Youngs Moduli (GPa) = 104.54957 29.18885 102.78618
#
# Poissons Ratio (x) = 0.15176 0.50624
# Poissons Ratio (y) = 0.54358 0.19014
# Poissons Ratio (z) = 0.51493 0.05400
#
# Static dielectric constant tensor:
#      x y z
#    x 3.821740 0.000000 0.000000 
#    y 0.000000 2.983970 0.000000 
#    z 0.000000 0.000000 3.727600 
# 
# 
# High freq. dielectric constant tensor:
#      x y z
#    x 1.756830 0.000000 0.000000 
#    y 0.000000 1.685220 0.000000 
#    z 0.000000 0.000000 1.757820 
# 
# From -- ./inp_files/19354.got.cif
#   From: 2010.03.12/outbox.cif.g09.slc.cpg/sg59_10_cif.got.tgz:19354.got - 2010.04.16 16:29:54.
