data_PCOD8239380
_publ_section_title
;
Structure prediction by ZEFSAII (Michael W. Deem and Ramdas Pophale) SiO2 
 PCOD8239380
Probable space group: P M M N
;
_chemical_formula_sum "Si O2"
_cell_formula_units_Z 64
_cell_length_a 8.845751
_cell_length_b 25.522324
_cell_length_c 17.269367
_cell_angle_alpha 90.000000
_cell_angle_beta 90.000000
_cell_angle_gamma 90.000000
_cell_volume 3898.803496
_symmetry_space_group_name_H-M "P M M N"
_symmetry_group_IT_number 59
_space_group.IT_coordinate_system_code '2'
_symmetry_cell_setting 'orthorhombic'
loop_
_space_group_symop_operation_xyz
x,y,z
1/2-x,1/2-y,z
1/2+x,-y,-z
-x,1/2+y,-z
-x,-y,-z
1/2+x,1/2+y,-z
1/2-x,y,z
x,1/2-y,z
loop_
_atom_site_type_symbol
_atom_site_label
_atom_site_fract_x
_atom_site_fract_y
_atom_site_fract_z
Si Si1 0.575437 0.555403 0.497612
Si Si2 0.425943 0.808786 0.078244
Si Si3 0.925909 0.906819 0.825825
Si Si4 0.072478 0.061542 0.668537
Si Si5 0.072876 0.594455 0.179955
Si Si6 0.928842 0.999033 0.084395
Si Si7 0.424903 0.449572 0.335944
Si Si8 0.572151 0.691924 0.919121
O O1 0.500000 0.500000 0.500000
O O2 0.750000 0.544359 0.487273
O O3 0.525851 0.584477 0.417575
O O4 0.540917 0.581392 0.582095
O O5 0.250000 0.810417 0.059605
O O6 0.477615 0.750000 0.102026
O O7 0.467570 0.848180 0.147309
O O8 0.508540 0.827991 0.000818
O O9 0.750000 0.917625 0.844774
O O10 0.957959 0.909669 0.733920
O O11 0.976239 0.848856 0.852569
O O12 0.025847 0.948838 0.870370
O O13 0.250000 0.067349 0.685742
O O14 0.980243 0.094801 0.731148
O O15 0.029152 0.000375 0.674498
O O16 0.250000 0.581976 0.174911
O O17 0.985199 0.551078 0.131342
O O18 0.750000 0.996309 0.076415
O O19 0.000000 0.000000 0.000000
O O20 0.250000 0.468169 0.334352
O O21 0.750000 0.694079 0.927418
O O22 0.508406 0.750000 0.898507
#
# Coordination Sequence:
#
# PCOD8239380 Si02
#       8
#     8   8   8   8   8   8   8   8
#     4   8  15  26  41  62  88 121 156 189 225 264
#     4   9  19  35  52  68  86 113 153 198 236 272
#     4  10  19  31  48  69  94 123 156 190 229 274
#     4  10  18  28  43  66  95 124 155 191 227 272
#     4  11  21  33  49  69  94 122 153 189 233 282
#     4  12  24  35  47  65  94 126 156 187 225 276
#     4   9  16  28  45  64  91 125 158 191 226 271
#     4   9  18  32  49  69  92 118 151 193 235 274
#
# _framework density 16.415292999999998
#
# number of rings (size 3 to 8) (size 9 to 14) (size 15 to 20)
#    0.000    2.250    1.250    2.625    0.000    4.000 
#    0.000    0.000    0.000    0.000    0.000    0.875 
#    0.000    3.000    0.000    0.000    0.000    0.000 
#
# Total GULP energy -793074.606582 kJ/mol
# GULP energy per Si atom -12391.790728 kJ/mol
# Density = 1.637793 g / cm^3
# Si number density = 16.415293 Si / 1000 Ang^3
#
#
#
# Elastic Constant Matrix: (Units=GPa)
#
#
# Indices 1 2 3 4 5 6 
#
# 1 55.8250 29.6172 40.2575 0.0000 0.0000 0.0000
# 2 29.6172 80.9200 64.9565 0.0000 0.0000 0.0000
# 3 40.2575 64.9565 166.5761 0.0000 0.0000 0.0000
# 4 0.0000 0.0000 0.0000 18.6396 0.0000 0.0000
# 5 0.0000 0.0000 0.0000 0.0000 22.4712 0.0000
# 6 0.0000 0.0000 0.0000 0.0000 0.0000 10.0551
#
#
#
# Elastic Compliance Matrix: (Units=1/GPa)
#
#
# Indices 1 2 3 4 5 6 
#
# 1 0.023468 -0.005876 -0.003380 0.000000 0.000000 0.000000
# 2 -0.005876 0.019460 -0.006168 0.000000 0.000000 0.000000
# 3 -0.003380 -0.006168 0.009226 0.000000 0.000000 0.000000
# 4 0.000000 0.000000 0.000000 0.053649 0.000000 0.000000
# 5 0.000000 0.000000 0.000000 0.000000 0.044501 0.000000
# 6 0.000000 0.000000 0.000000 0.000000 0.000000 0.099452
#
#
# Mechanical properties :
#
#
# Convention : Reuss Voigt Hill
#
# Bulk Modulus (GPa) = 46.93872 63.66485 55.30179
# Shear Modulus (GPa) = 17.37879 21.46586 19.42232
#
# Velocity S-wave (km/s) = 3.25729 3.62010 3.44348
# Velocity P-wave (km/s) = 6.54241 7.50610 7.04076
#
# Compressibility (1/GPa) = 0.02130437
#
# Stress axis : x y z
#
# Youngs Moduli (GPa) = 42.61070 51.38732 108.39433
#
# Poissons Ratio (x) = 0.30195 0.36641
# Poissons Ratio (y) = 0.25038 0.66862
# Poissons Ratio (z) = 0.14404 0.31698
#
# Static dielectric constant tensor:
#      x y z
#    x 3.250910 0.000000 0.000000 
#    y 0.000000 3.046720 0.000000 
#    z 0.000000 0.000000 3.753100 
# 
# 
# High freq. dielectric constant tensor:
#      x y z
#    x 1.636900 0.000000 0.000000 
#    y 0.000000 1.589800 0.000000 
#    z 0.000000 0.000000 1.646940 
# 
# From -- ./inp_files/26521.got.cif
#   From: 2010.03.12/outbox.cif.g09.slc.cpg/sg59_14_cif.got.tgz:26521.got - 2010.04.16 16:29:54.
