data_PCOD8239193
_publ_section_title
;
Structure prediction by ZEFSAII (Michael W. Deem and Ramdas Pophale) SiO2 
 PCOD8239193
Probable space group: P M M N
;
_chemical_formula_sum "Si O2"
_cell_formula_units_Z 64
_cell_length_a 8.711028
_cell_length_b 15.572674
_cell_length_c 24.137478
_cell_angle_alpha 90.000000
_cell_angle_beta 90.000000
_cell_angle_gamma 90.000000
_cell_volume 3274.345422
_symmetry_space_group_name_H-M "P M M N"
_symmetry_group_IT_number 59
_space_group.IT_coordinate_system_code '2'
_symmetry_cell_setting 'orthorhombic'
loop_
_space_group_symop_operation_xyz
x,y,z
1/2-x,1/2-y,z
1/2+x,-y,-z
-x,1/2+y,-z
-x,-y,-z
1/2+x,1/2+y,-z
1/2-x,y,z
x,1/2-y,z
loop_
_atom_site_type_symbol
_atom_site_label
_atom_site_fract_x
_atom_site_fract_y
_atom_site_fract_z
Si Si1 0.567512 0.155697 0.131672
Si Si2 0.567433 0.345166 0.364722
Si Si3 0.073202 0.847096 0.131070
Si Si4 0.931509 0.897086 0.243727
Si Si5 0.932675 0.999596 0.439340
Si Si6 0.431712 0.002972 0.939447
Si Si7 0.931751 0.844976 0.364266
Si Si8 0.068376 0.593976 0.752230
O O1 0.750000 0.148573 0.132867
O O2 0.515442 0.250000 0.110095
O O3 0.503884 0.143744 0.194150
O O4 0.501992 0.080757 0.092469
O O5 0.750000 0.350544 0.362089
O O6 0.512969 0.250000 0.383007
O O7 0.506459 0.414821 0.408607
O O8 0.498455 0.365895 0.303922
O O9 0.250000 0.875037 0.128695
O O10 0.051773 0.750000 0.108707
O O11 0.015399 0.848758 0.194102
O O12 0.977405 0.910499 0.092180
O O13 0.750000 0.884525 0.236455
O O14 0.991806 0.858789 0.301812
O O15 0.980608 0.995769 0.242153
O O16 0.750000 0.997648 0.442285
O O17 0.997581 0.916542 0.406244
O O18 0.000000 0.000000 0.500000
O O19 0.250000 0.999363 0.943146
O O20 0.500000 0.000000 0.000000
O O21 0.750000 0.854659 0.362868
O O22 0.982110 0.750000 0.384753
O O23 0.250000 0.602199 0.749305
#
# Coordination Sequence:
#
# PCOD8239193 Si02
#       8
#     8   8   8   8   8   8   8   8
#     4   9  17  30  52  83 114 139 167 212 270 330
#     4   9  16  27  47  75 105 133 164 211 265 315
#     4  11  24  40  58  83 116 153 191 232 281 335
#     4  10  17  31  57  86 110 136 175 224 279 336
#     4  10  20  34  50  70  99 134 178 221 262 314
#     4  11  23  40  61  85 114 150 194 237 281 330
#     4   9  17  30  51  77 103 133 171 218 269 323
#     4   9  14  25  49  81 109 132 165 210 265 326
#
# _framework density 19.545891000000001
#
# number of rings (size 3 to 8) (size 9 to 14) (size 15 to 20)
#    0.000    2.250    2.500    1.500    0.000    4.000 
#    0.000    1.875    0.000    1.875    0.000    0.000 
#    0.000    0.000    0.000    0.000    0.000    0.000 
#
# Total GULP energy -793421.491585 kJ/mol
# GULP energy per Si atom -12397.210806 kJ/mol
# Density = 1.950140 g / cm^3
# Si number density = 19.545891 Si / 1000 Ang^3
#
#
#
# Elastic Constant Matrix: (Units=GPa)
#
#
# Indices 1 2 3 4 5 6 
#
# 1 29.2560 24.9435 21.3732 0.0000 0.0000 0.0000
# 2 24.9435 163.1854 84.9651 0.0000 0.0000 0.0000
# 3 21.3732 84.9651 163.0081 0.0000 0.0000 0.0000
# 4 0.0000 0.0000 0.0000 18.0331 0.0000 0.0000
# 5 0.0000 0.0000 0.0000 0.0000 26.7003 0.0000
# 6 0.0000 0.0000 0.0000 0.0000 0.0000 14.7893
#
#
#
# Elastic Compliance Matrix: (Units=1/GPa)
#
#
# Indices 1 2 3 4 5 6 
#
# 1 0.040240 -0.004671 -0.002841 0.000000 0.000000 0.000000
# 2 -0.004671 0.008953 -0.004054 0.000000 0.000000 0.000000
# 3 -0.002841 -0.004054 0.008620 0.000000 0.000000 0.000000
# 4 0.000000 0.000000 0.000000 0.055454 0.000000 0.000000
# 5 0.000000 0.000000 0.000000 0.000000 0.037453 0.000000
# 6 0.000000 0.000000 0.000000 0.000000 0.000000 0.067617
#
#
# Mechanical properties :
#
#
# Convention : Reuss Voigt Hill
#
# Bulk Modulus (GPa) = 28.83559 68.66810 48.75185
# Shear Modulus (GPa) = 19.76060 26.84903 23.30482
#
# Velocity S-wave (km/s) = 3.18305 3.71029 3.45673
# Velocity P-wave (km/s) = 5.31920 7.31867 6.39753
#
# Compressibility (1/GPa) = 0.03467936
#
# Stress axis : x y z
#
# Youngs Moduli (GPa) = 24.85119 111.69656 116.00566
#
# Poissons Ratio (x) = 0.52178 0.32959
# Poissons Ratio (y) = 0.11609 0.47029
# Poissons Ratio (z) = 0.07061 0.45282
#
# Static dielectric constant tensor:
#      x y z
#    x 2.998050 0.000000 0.000000 
#    y 0.000000 3.865470 0.000000 
#    z 0.000000 0.000000 3.714450 
# 
# 
# High freq. dielectric constant tensor:
#      x y z
#    x 1.701000 0.000000 0.000000 
#    y 0.000000 1.781290 0.000000 
#    z 0.000000 0.000000 1.764040 
# 
# From -- ./inp_files/31534.got.cif
#   From: 2010.03.12/outbox.cif.g09.slc.cpg/sg59_16_cif.got.tgz:31534.got - 2010.04.16 16:29:54.
