data_PCOD8239999
_publ_section_title
;
Structure prediction by ZEFSAII (Michael W. Deem and Ramdas Pophale) SiO2 
 PCOD8239999
Probable space group: P M M N
;
_chemical_formula_sum "Si O2"
_cell_formula_units_Z 56
_cell_length_a 8.912732
_cell_length_b 20.926299
_cell_length_c 15.891142
_cell_angle_alpha 90.000000
_cell_angle_beta 90.000000
_cell_angle_gamma 90.000000
_cell_volume 2963.864756
_symmetry_space_group_name_H-M "P M M N"
_symmetry_group_IT_number 59
_space_group.IT_coordinate_system_code '2'
_symmetry_cell_setting 'orthorhombic'
loop_
_space_group_symop_operation_xyz
x,y,z
1/2-x,1/2-y,z
1/2+x,-y,-z
-x,1/2+y,-z
-x,-y,-z
1/2+x,1/2+y,-z
1/2-x,y,z
x,1/2-y,z
loop_
_atom_site_type_symbol
_atom_site_label
_atom_site_fract_x
_atom_site_fract_y
_atom_site_fract_z
Si Si1 0.924235 0.007196 0.589012
Si Si2 0.419511 0.250000 0.725435
Si Si3 0.426872 0.133308 0.985918
Si Si4 0.072975 0.071771 0.250835
Si Si5 0.917357 0.612185 0.318822
Si Si6 0.572095 0.324152 0.153481
Si Si7 0.420617 0.462847 0.846242
Si Si8 0.925205 0.250000 0.893793
O O1 0.750000 0.000182 0.575154
O O2 0.979748 0.954967 0.657985
O O3 0.000000 0.000000 0.500000
O O4 0.961614 0.077372 0.623337
O O5 0.250000 0.250000 0.764940
O O6 0.441207 0.312360 0.667902
O O7 0.548818 0.250000 0.794698
O O8 0.250000 0.144405 0.995211
O O9 0.461029 0.066192 0.938134
O O10 0.498287 0.188457 0.931438
O O11 0.503046 0.135137 0.076944
O O12 0.250000 0.082079 0.247158
O O13 0.990415 0.139861 0.236559
O O14 0.028586 0.021464 0.177510
O O15 0.750000 0.591751 0.347749
O O16 0.940506 0.594622 0.220830
O O17 0.750000 0.327954 0.150553
O O18 0.519067 0.250000 0.152327
O O19 0.250000 0.488544 0.845266
O O20 0.750000 0.250000 0.916073
#
# Coordination Sequence:
#
# PCOD8239999 Si02
#       8
#     8   4   8   8   8   8   8   4
#     4  10  21  38  62  89 113 139 179 224 275 338
#     4  10  18  32  52  78 113 154 191 224 270 332
#     4  11  21  35  55  78 109 153 200 240 280 326
#     4  10  22  39  60  86 113 144 182 227 282 341
#     4   9  17  31  53  81 113 148 185 223 270 325
#     4  11  24  40  58  82 110 146 193 241 286 331
#     4   9  18  33  54  80 111 148 189 232 278 325
#     4  12  22  30  46  76 113 152 195 240 278 318
#
# _framework density 18.894248999999999
#
# number of rings (size 3 to 8) (size 9 to 14) (size 15 to 20)
#    0.000    1.857    2.143    2.357    0.000    4.857 
#    0.000    0.000    1.571    0.000    0.000    0.000 
#    0.000    0.000    0.000    0.000    0.000    0.000 
#
# Total GULP energy -694320.696315 kJ/mol
# GULP energy per Si atom -12398.583863 kJ/mol
# Density = 1.885124 g / cm^3
# Si number density = 18.894249 Si / 1000 Ang^3
#
#
#
# Elastic Constant Matrix: (Units=GPa)
#
#
# Indices 1 2 3 4 5 6 
#
# 1 75.5940 39.7228 44.2893 0.0000 0.0000 0.0000
# 2 39.7228 94.0797 54.0384 0.0000 0.0000 0.0000
# 3 44.2893 54.0384 104.7070 0.0000 0.0000 0.0000
# 4 0.0000 0.0000 0.0000 19.3150 0.0000 0.0000
# 5 0.0000 0.0000 0.0000 0.0000 30.4309 0.0000
# 6 0.0000 0.0000 0.0000 0.0000 0.0000 28.8424
#
#
#
# Elastic Compliance Matrix: (Units=1/GPa)
#
#
# Indices 1 2 3 4 5 6 
#
# 1 0.019025 -0.004848 -0.005545 0.000000 0.000000 0.000000
# 2 -0.004848 0.016343 -0.006384 0.000000 0.000000 0.000000
# 3 -0.005545 -0.006384 0.015191 0.000000 0.000000 0.000000
# 4 0.000000 0.000000 0.000000 0.051773 0.000000 0.000000
# 5 0.000000 0.000000 0.000000 0.000000 0.032861 0.000000
# 6 0.000000 0.000000 0.000000 0.000000 0.000000 0.034671
#
#
# Mechanical properties :
#
#
# Convention : Reuss Voigt Hill
#
# Bulk Modulus (GPa) = 58.80751 61.16466 59.98608
# Shear Modulus (GPa) = 23.91355 24.80633 24.35994
#
# Velocity S-wave (km/s) = 3.56146 3.62733 3.59455
# Velocity P-wave (km/s) = 6.93571 7.07006 7.00321
#
# Compressibility (1/GPa) = 0.01700463
#
# Stress axis : x y z
#
# Youngs Moduli (GPa) = 52.56297 61.18844 65.82921
#
# Poissons Ratio (x) = 0.29661 0.36505
# Poissons Ratio (y) = 0.25480 0.42026
# Poissons Ratio (z) = 0.29148 0.39063
#
# Static dielectric constant tensor:
#      x y z
#    x 3.501530 0.000000 0.000000 
#    y 0.000000 3.512520 0.000000 
#    z 0.000000 0.000000 3.386200 
# 
# 
# High freq. dielectric constant tensor:
#      x y z
#    x 1.738500 0.000000 0.000000 
#    y 0.000000 1.734840 0.000000 
#    z 0.000000 0.000000 1.708430 
# 
# From -- ./inp_files/21210.got.cif
#   From: 2010.03.12/outbox.cif.g09.slc.cpg/sg59_11_cif.got.tgz:21210.got - 2010.04.16 16:29:54.
