data_PCOD8239081
_publ_section_title
;
Structure prediction by ZEFSAII (Michael W. Deem and Ramdas Pophale) SiO2 
 PCOD8239081
Probable space group: P M M N
;
_chemical_formula_sum "Si O2"
_cell_formula_units_Z 56
_cell_length_a 27.753276
_cell_length_b 9.373360
_cell_length_c 13.689969
_cell_angle_alpha 90.000000
_cell_angle_beta 90.000000
_cell_angle_gamma 90.000000
_cell_volume 3561.328347
_symmetry_space_group_name_H-M "P M M N"
_symmetry_group_IT_number 59
_space_group.IT_coordinate_system_code '2'
_symmetry_cell_setting 'orthorhombic'
loop_
_space_group_symop_operation_xyz
x,y,z
1/2-x,1/2-y,z
1/2+x,-y,-z
-x,1/2+y,-z
-x,-y,-z
1/2+x,1/2+y,-z
1/2-x,y,z
x,1/2-y,z
loop_
_atom_site_type_symbol
_atom_site_label
_atom_site_fract_x
_atom_site_fract_y
_atom_site_fract_z
Si Si1 0.304072 0.086978 0.033816
Si Si2 0.040363 0.917484 0.789143
Si Si3 0.105205 0.083529 0.915389
Si Si4 0.110521 0.417205 0.295255
Si Si5 0.946686 0.918558 0.892006
Si Si6 0.804911 0.083779 0.768707
Si Si7 0.485119 0.083568 0.404758
O O1 0.250000 0.070529 0.992894
O O2 0.314501 0.250000 0.068295
O O3 0.312708 0.984890 0.125088
O O4 0.339756 0.047534 0.944658
O O5 0.049393 0.750000 0.798728
O O6 0.999819 0.975119 0.865211
O O7 0.022860 0.957079 0.680547
O O8 0.089825 0.998828 0.817455
O O9 0.098102 0.250000 0.895262
O O10 0.071000 0.027303 0.003278
O O11 0.122611 0.250000 0.300218
O O12 0.091378 0.467240 0.189601
O O13 0.159750 0.507586 0.310316
O O14 0.069669 0.456731 0.374900
O O15 0.948723 0.750000 0.886919
O O16 0.750000 0.059813 0.733345
O O17 0.817538 0.250000 0.775641
O O18 0.488310 0.250000 0.427082
O O19 0.500000 0.000000 0.500000
#
# Coordination Sequence:
#
# PCOD8239081 Si02
#       7
#     8   8   8   8   8   8   8
#     4   9  17  29  44  60  84 123 162 190 221 260
#     4   9  18  30  43  62  89 118 144 176 220 267
#     4  10  17  26  42  63  87 117 153 188 215 251
#     4   9  16  30  48  65  88 122 155 184 222 269
#     4   8  14  26  41  59  87 117 148 180 209 248
#     4  10  19  28  40  64  95 122 152 190 225 259
#     4   9  19  34  52  70  91 116 147 188 232 278
#
# _framework density 15.72447
#
# number of rings (size 3 to 8) (size 9 to 14) (size 15 to 20)
#    0.000    2.857    1.429    2.571    0.000    2.571 
#    0.000    2.143    0.000    0.000    0.000    1.000 
#    0.000    3.429    0.000    0.000    0.000    0.000 
#
# Total GULP energy -694021.281870 kJ/mol
# GULP energy per Si atom -12393.237176 kJ/mol
# Density = 1.568868 g / cm^3
# Si number density = 15.724470 Si / 1000 Ang^3
#
#
#
# Elastic Constant Matrix: (Units=GPa)
#
#
# Indices 1 2 3 4 5 6 
#
# 1 113.8473 58.8530 57.9777 0.0000 0.0000 0.0000
# 2 58.8530 66.5074 44.2041 0.0000 0.0000 0.0000
# 3 57.9777 44.2041 75.5955 0.0000 0.0000 0.0000
# 4 0.0000 0.0000 0.0000 25.0929 0.0000 0.0000
# 5 0.0000 0.0000 0.0000 0.0000 18.5891 0.0000
# 6 0.0000 0.0000 0.0000 0.0000 0.0000 25.9272
#
#
#
# Elastic Compliance Matrix: (Units=1/GPa)
#
#
# Indices 1 2 3 4 5 6 
#
# 1 0.018494 -0.011349 -0.007548 0.000000 0.000000 0.000000
# 2 -0.011349 0.031559 -0.009750 0.000000 0.000000 0.000000
# 3 -0.007548 -0.009750 0.024718 0.000000 0.000000 0.000000
# 4 0.000000 0.000000 0.000000 0.039852 0.000000 0.000000
# 5 0.000000 0.000000 0.000000 0.000000 0.053795 0.000000
# 6 0.000000 0.000000 0.000000 0.000000 0.000000 0.038569
#
#
# Mechanical properties :
#
#
# Convention : Reuss Voigt Hill
#
# Bulk Modulus (GPa) = 57.21448 64.22443 60.71946
# Shear Modulus (GPa) = 18.51110 20.24953 19.38031
#
# Velocity S-wave (km/s) = 3.43478 3.59245 3.51450
# Velocity P-wave (km/s) = 7.22460 7.62495 7.42748
#
# Compressibility (1/GPa) = 0.01747809
#
# Stress axis : x y z
#
# Youngs Moduli (GPa) = 54.07017 31.68648 40.45598
#
# Poissons Ratio (x) = 0.35962 0.30536
# Poissons Ratio (y) = 0.61366 0.39444
# Poissons Ratio (z) = 0.40811 0.30894
#
# Static dielectric constant tensor:
#      x y z
#    x 3.250910 0.000000 0.000000 
#    y 0.000000 2.837630 0.000000 
#    z 0.000000 0.000000 2.695160 
# 
# 
# High freq. dielectric constant tensor:
#      x y z
#    x 1.609120 0.000000 0.000000 
#    y 0.000000 1.593750 0.000000 
#    z 0.000000 0.000000 1.559100 
# 
# From -- ./inp_files/24939.got.cif
#   From: 2010.03.12/outbox.cif.g09.slc.cpg/sg59_13_cif.got.tgz:24939.got - 2010.04.16 16:29:54.
