data_PCOD8239811
_publ_section_title
;
Structure prediction by ZEFSAII (Michael W. Deem and Ramdas Pophale) SiO2 
 PCOD8239811
Probable space group: P M M N
;
_chemical_formula_sum "Si O2"
_cell_formula_units_Z 48
_cell_length_a 30.860087
_cell_length_b 8.938026
_cell_length_c 9.036817
_cell_angle_alpha 90.000000
_cell_angle_beta 90.000000
_cell_angle_gamma 90.000000
_cell_volume 2492.609509
_symmetry_space_group_name_H-M "P M M N"
_symmetry_group_IT_number 59
_space_group.IT_coordinate_system_code '2'
_symmetry_cell_setting 'orthorhombic'
loop_
_space_group_symop_operation_xyz
x,y,z
1/2-x,1/2-y,z
1/2+x,-y,-z
-x,1/2+y,-z
-x,-y,-z
1/2+x,1/2+y,-z
1/2-x,y,z
x,1/2-y,z
loop_
_atom_site_type_symbol
_atom_site_label
_atom_site_fract_x
_atom_site_fract_y
_atom_site_fract_z
Si Si1 0.420084 0.576636 0.324566
Si Si2 0.656059 0.580380 0.828695
Si Si3 0.498062 0.073979 0.158622
Si Si4 0.250000 0.575273 0.834903
Si Si5 0.250000 0.080763 0.136375
Si Si6 0.583848 0.076319 0.331477
Si Si7 0.337052 0.424263 0.825567
O O1 0.429003 0.750000 0.292093
O O2 0.372986 0.534242 0.262361
O O3 0.455677 0.478458 0.243650
O O4 0.422058 0.539935 0.496917
O O5 0.639722 0.750000 0.802820
O O6 0.705803 0.561756 0.769381
O O7 0.654320 0.539440 0.002253
O O8 0.495554 0.250000 0.137669
O O9 0.540099 0.025127 0.250597
O O10 0.500000 0.000000 0.000000
O O11 0.250000 0.750000 0.802816
O O12 0.293615 0.504715 0.765642
O O13 0.250000 0.542598 0.009188
O O14 0.250000 0.250000 0.065247
O O15 0.593889 0.250000 0.303351
O O16 0.622877 0.979803 0.269663
O O17 0.330913 0.250000 0.799066
#
# Coordination Sequence:
#
# PCOD8239811 Si02
#       7
#     8   8   8   4   4   8   8
#     4  11  23  38  56  81 114 148 182 222 272 330
#     4   9  18  34  56  82 110 143 185 230 274 321
#     4  11  23  40  62  85 109 140 182 229 276 328
#     4  10  18  30  53  82 113 146 182 228 278 324
#     4   8  16  32  53  78 109 142 182 230 272 316
#     4  10  23  40  56  79 112 148 184 225 275 329
#     4  10  20  35  57  83 111 145 187 231 274 324
#
# _framework density 19.256927000000001
#
# number of rings (size 3 to 8) (size 9 to 14) (size 15 to 20)
#    0.000    2.000    0.000    4.750    0.000    8.667 
#    0.000    0.833    0.000    4.000    0.000    0.000 
#    0.000    0.000    0.000    0.000    0.000    0.000 
#
# Total GULP energy -595256.375473 kJ/mol
# GULP energy per Si atom -12401.174489 kJ/mol
# Density = 1.921310 g / cm^3
# Si number density = 19.256927 Si / 1000 Ang^3
#
#
#
# Elastic Constant Matrix: (Units=GPa)
#
#
# Indices 1 2 3 4 5 6 
#
# 1 161.0234 63.2922 62.0121 0.0000 0.0000 0.0000
# 2 63.2922 88.4672 52.0132 0.0000 0.0000 0.0000
# 3 62.0121 52.0132 94.2558 0.0000 0.0000 0.0000
# 4 0.0000 0.0000 0.0000 28.5425 0.0000 0.0000
# 5 0.0000 0.0000 0.0000 0.0000 -24.1372 0.0000
# 6 0.0000 0.0000 0.0000 0.0000 0.0000 36.4184
#
#
#
# Elastic Compliance Matrix: (Units=1/GPa)
#
#
# Indices 1 2 3 4 5 6 
#
# 1 0.009427 -0.004585 -0.003671 0.000000 0.000000 0.000000
# 2 -0.004585 0.018963 -0.007447 0.000000 0.000000 0.000000
# 3 -0.003671 -0.007447 0.017135 0.000000 0.000000 0.000000
# 4 0.000000 0.000000 0.000000 0.035036 0.000000 0.000000
# 5 0.000000 0.000000 0.000000 0.000000 -0.041430 0.000000
# 6 0.000000 0.000000 0.000000 0.000000 0.000000 0.027459
#
#
# Mechanical properties :
#
#
# Convention : Reuss Voigt Hill
#
# Bulk Modulus (GPa) = 70.84495 77.59794 74.22145
# Shear Modulus (GPa) = 48.68441 19.25999 33.97220
#
# Velocity S-wave (km/s) = 5.03353 3.16596 4.20474
# Velocity P-wave (km/s) = 8.40542 7.33130 7.88667
#
# Compressibility (1/GPa) = 0.01411533
#
# Stress axis : x y z
#
# Youngs Moduli (GPa) = 106.08293 52.73473 58.36128
#
# Poissons Ratio (x) = 0.24181 0.21427
# Poissons Ratio (y) = 0.48644 0.43464
# Poissons Ratio (z) = 0.38948 0.39274
#
# Static dielectric constant tensor:
#      x y z
#    x 3.809350 0.000000 0.000000 
#    y 0.000000 3.505590 0.000000 
#    z 0.000000 0.000000 2.284040 
# 
# 
# High freq. dielectric constant tensor:
#      x y z
#    x 1.771940 0.000000 0.000000 
#    y 0.000000 1.754540 0.000000 
#    z 0.000000 0.000000 1.724950 
# 
# From -- ./inp_files/13018.got.cif
#   From: 2010.03.12/outbox.cif.g09.slc.cpg/sg59_7_cif.got.tgz:13018.got - 2010.04.16 16:29:54.
