data_PCOD8239408
_publ_section_title
;
Structure prediction by ZEFSAII (Michael W. Deem and Ramdas Pophale) SiO2 
 PCOD8239408
Probable space group: P M M N
;
_chemical_formula_sum "Si O2"
_cell_formula_units_Z 64
_cell_length_a 22.757906
_cell_length_b 9.252191
_cell_length_c 17.712022
_cell_angle_alpha 90.000000
_cell_angle_beta 90.000000
_cell_angle_gamma 90.000000
_cell_volume 3729.452086
_symmetry_space_group_name_H-M "P M M N"
_symmetry_group_IT_number 59
_space_group.IT_coordinate_system_code '2'
_symmetry_cell_setting 'orthorhombic'
loop_
_space_group_symop_operation_xyz
x,y,z
1/2-x,1/2-y,z
1/2+x,-y,-z
-x,1/2+y,-z
-x,-y,-z
1/2+x,1/2+y,-z
1/2-x,y,z
x,1/2-y,z
loop_
_atom_site_type_symbol
_atom_site_label
_atom_site_fract_x
_atom_site_fract_y
_atom_site_fract_z
Si Si1 0.904139 0.420219 0.679886
Si Si2 0.818733 0.917413 0.573035
Si Si3 0.815117 0.578713 0.254334
Si Si4 0.913313 0.577489 0.137743
Si Si5 0.561179 0.418983 0.997609
Si Si6 0.989910 0.585210 0.425050
Si Si7 0.045347 0.583355 0.167356
Si Si8 0.142717 0.417624 0.588666
O O1 0.890676 0.250000 0.678062
O O2 0.849589 0.500223 0.641766
O O3 0.915212 0.481754 0.764783
O O4 0.963863 0.462621 0.637410
O O5 0.750000 0.939365 0.583615
O O6 0.837265 0.750000 0.577176
O O7 0.838227 0.986287 0.491923
O O8 0.750000 0.534354 0.225543
O O9 0.822110 0.750000 0.258913
O O10 0.864893 0.520880 0.197328
O O11 0.823612 0.514477 0.339126
O O12 0.911326 0.750000 0.125967
O O13 0.978317 0.521974 0.162968
O O14 0.896755 0.499023 0.058057
O O15 0.554285 0.250000 0.017882
O O16 0.582167 0.437604 0.910479
O O17 0.500000 0.500000 0.000000
O O18 0.998376 0.750000 0.447523
O O19 0.925349 0.555401 0.393076
O O20 0.000000 0.500000 0.500000
O O21 0.036238 0.750000 0.187278
O O22 0.159142 0.250000 0.582440
#
# Coordination Sequence:
#
# PCOD8239408 Si02
#       8
#     8   8   8   8   8   8   8   8
#     4  10  19  31  48  69  92 121 157 195 233 276
#     4  10  20  33  48  66  90 121 157 197 239 278
#     4   9  16  26  44  70  95 123 163 202 230 267
#     4   9  16  28  47  71  99 126 153 189 233 280
#     4   9  16  28  48  72  97 122 149 183 226 280
#     4  10  18  28  45  68  93 120 151 188 234 281
#     4   8  15  28  46  69  94 119 150 188 232 277
#     4   9  16  28  46  67  93 123 157 196 234 274
#
# _framework density 17.160696999999999
#
# number of rings (size 3 to 8) (size 9 to 14) (size 15 to 20)
#    0.000    2.750    1.250    2.250    0.000    4.750 
#    0.000    3.125    0.000    5.625    0.000    3.500 
#    0.000    0.000    0.000    0.000    0.000    0.000 
#
# Total GULP energy -793041.026583 kJ/mol
# GULP energy per Si atom -12391.266040 kJ/mol
# Density = 1.712164 g / cm^3
# Si number density = 17.160697 Si / 1000 Ang^3
#
#
#
# Elastic Constant Matrix: (Units=GPa)
#
#
# Indices 1 2 3 4 5 6 
#
# 1 67.7998 20.6440 55.5401 0.0000 0.0000 0.0000
# 2 20.6440 34.9510 37.0423 0.0000 0.0000 0.0000
# 3 55.5401 37.0423 155.0805 0.0000 0.0000 0.0000
# 4 0.0000 0.0000 0.0000 24.4311 0.0000 0.0000
# 5 0.0000 0.0000 0.0000 0.0000 22.0109 0.0000
# 6 0.0000 0.0000 0.0000 0.0000 0.0000 17.9191
#
#
#
# Elastic Compliance Matrix: (Units=1/GPa)
#
#
# Indices 1 2 3 4 5 6 
#
# 1 0.021823 -0.006168 -0.006342 0.000000 0.000000 0.000000
# 2 -0.006168 0.040053 -0.007358 0.000000 0.000000 0.000000
# 3 -0.006342 -0.007358 0.010477 0.000000 0.000000 0.000000
# 4 0.000000 0.000000 0.000000 0.040931 0.000000 0.000000
# 5 0.000000 0.000000 0.000000 0.000000 0.045432 0.000000
# 6 0.000000 0.000000 0.000000 0.000000 0.000000 0.055807
#
#
# Mechanical properties :
#
#
# Convention : Reuss Voigt Hill
#
# Bulk Modulus (GPa) = 30.65948 53.80937 42.23442
# Shear Modulus (GPa) = 18.85856 22.51253 20.68555
#
# Velocity S-wave (km/s) = 3.31862 3.62590 3.47566
# Velocity P-wave (km/s) = 5.70870 6.99670 6.38526
#
# Compressibility (1/GPa) = 0.03261634
#
# Stress axis : x y z
#
# Youngs Moduli (GPa) = 45.82355 24.96701 95.44539
#
# Poissons Ratio (x) = 0.15400 0.60534
# Poissons Ratio (y) = 0.28264 0.70229
# Poissons Ratio (z) = 0.29063 0.18371
#
# Static dielectric constant tensor:
#      x y z
#    x 3.092400 0.000000 0.000000 
#    y 0.000000 2.934570 0.000000 
#    z 0.000000 0.000000 3.623090 
# 
# 
# High freq. dielectric constant tensor:
#      x y z
#    x 1.642000 0.000000 0.000000 
#    y 0.000000 1.620130 0.000000 
#    z 0.000000 0.000000 1.674940 
# 
# From -- ./inp_files/28453.got.cif
#   From: 2010.03.12/outbox.cif.g09.slc.cpg/sg59_15_cif.got.tgz:28453.got - 2010.04.16 16:29:54.
