data_PCOD8239805
_publ_section_title
;
Structure prediction by ZEFSAII (Michael W. Deem and Ramdas Pophale) SiO2 
 PCOD8239805
Probable space group: P M M N
;
_chemical_formula_sum "Si O2"
_cell_formula_units_Z 48
_cell_length_a 8.530446
_cell_length_b 15.379659
_cell_length_c 19.316460
_cell_angle_alpha 90.000000
_cell_angle_beta 90.000000
_cell_angle_gamma 90.000000
_cell_volume 2534.229742
_symmetry_space_group_name_H-M "P M M N"
_symmetry_group_IT_number 59
_space_group.IT_coordinate_system_code '2'
_symmetry_cell_setting 'orthorhombic'
loop_
_space_group_symop_operation_xyz
x,y,z
1/2-x,1/2-y,z
1/2+x,-y,-z
-x,1/2+y,-z
-x,-y,-z
1/2+x,1/2+y,-z
1/2-x,y,z
x,1/2-y,z
loop_
_atom_site_type_symbol
_atom_site_label
_atom_site_fract_x
_atom_site_fract_y
_atom_site_fract_z
Si Si1 0.930907 0.750000 0.790907
Si Si2 0.068369 0.849406 0.423725
Si Si3 0.564724 0.926221 0.951310
Si Si4 0.066870 0.750000 0.938188
Si Si5 0.068993 0.502249 0.660933
Si Si6 0.064122 0.437024 0.207892
Si Si7 0.431105 0.151653 0.429110
O O1 0.750000 0.750000 0.772294
O O2 0.999342 0.841882 0.764283
O O3 0.951180 0.750000 0.873102
O O4 0.250000 0.867594 0.409823
O O5 0.022486 0.750000 0.406834
O O6 0.033010 0.870668 0.503487
O O7 0.967601 0.910566 0.374300
O O8 0.750000 0.916092 0.958786
O O9 0.479127 0.838199 0.978502
O O10 0.516117 0.949804 0.872140
O O11 0.500000 0.000000 0.000000
O O12 0.250000 0.750000 0.918550
O O13 0.250000 0.523555 0.652138
O O14 0.021721 0.493977 0.742215
O O15 0.970033 0.581475 0.629077
O O16 0.250000 0.445688 0.215956
O O17 0.250000 0.143254 0.449817
O O18 0.467516 0.250000 0.402225
#
# Coordination Sequence:
#
# PCOD8239805 Si02
#       7
#     4   8   8   4   8   8   8
#     4   8  16  32  52  74 106 144 177 216 267 324
#     4  10  21  39  61  80 102 138 185 233 277 325
#     4  10  20  36  59  84 113 148 185 230 277 329
#     4  10  18  30  52  82 112 144 181 218 263 324
#     4  12  24  35  53  81 114 146 181 226 273 325
#     4   9  19  35  54  79 111 147 184 220 271 329
#     4  10  21  37  57  81 111 146 182 223 272 325
#
# _framework density 18.940666
#
# number of rings (size 3 to 8) (size 9 to 14) (size 15 to 20)
#    0.000    2.000    0.000    5.250    1.167    5.333 
#    0.000    0.000    1.833    0.000    0.000    0.000 
#    0.000    0.000    0.000    0.000    0.000    0.000 
#
# Total GULP energy -594990.311695 kJ/mol
# GULP energy per Si atom -12395.631494 kJ/mol
# Density = 1.889756 g / cm^3
# Si number density = 18.940666 Si / 1000 Ang^3
#
#
#
# Elastic Constant Matrix: (Units=GPa)
#
#
# Indices 1 2 3 4 5 6 
#
# 1 55.0450 28.2796 28.4418 0.0000 0.0000 0.0000
# 2 28.2796 106.8989 57.7472 0.0000 0.0000 0.0000
# 3 28.4418 57.7472 83.0319 0.0000 0.0000 0.0000
# 4 0.0000 0.0000 0.0000 29.6960 0.0000 0.0000
# 5 0.0000 0.0000 0.0000 0.0000 27.6909 0.0000
# 6 0.0000 0.0000 0.0000 0.0000 0.0000 29.8057
#
#
#
# Elastic Compliance Matrix: (Units=1/GPa)
#
#
# Indices 1 2 3 4 5 6 
#
# 1 0.022614 -0.002880 -0.005743 0.000000 0.000000 0.000000
# 2 -0.002880 0.015351 -0.009690 0.000000 0.000000 0.000000
# 3 -0.005743 -0.009690 0.020750 0.000000 0.000000 0.000000
# 4 0.000000 0.000000 0.000000 0.033675 0.000000 0.000000
# 5 0.000000 0.000000 0.000000 0.000000 0.036113 0.000000
# 6 0.000000 0.000000 0.000000 0.000000 0.000000 0.033551
#
#
# Mechanical properties :
#
#
# Convention : Reuss Voigt Hill
#
# Bulk Modulus (GPa) = 45.27152 52.65700 48.96426
# Shear Modulus (GPa) = 24.26687 26.13902 25.20295
#
# Velocity S-wave (km/s) = 3.58327 3.71893 3.65173
# Velocity P-wave (km/s) = 6.40886 6.80455 6.60967
#
# Compressibility (1/GPa) = 0.02208894
#
# Stress axis : x y z
#
# Youngs Moduli (GPa) = 44.22023 65.14234 48.19273
#
# Poissons Ratio (x) = 0.18760 0.27679
# Poissons Ratio (y) = 0.12735 0.46698
# Poissons Ratio (z) = 0.25397 0.63122
#
# Static dielectric constant tensor:
#      x y z
#    x 3.392940 0.000000 0.000000 
#    y 0.000000 3.643970 0.000000 
#    z 0.000000 0.000000 3.336520 
# 
# 
# High freq. dielectric constant tensor:
#      x y z
#    x 1.739240 0.000000 0.000000 
#    y 0.000000 1.736050 0.000000 
#    z 0.000000 0.000000 1.714960 
# 
# From -- ./inp_files/25535.got.cif
#   From: 2010.03.12/outbox.cif.g09.slc.cpg/sg59_13_cif.got.tgz:25535.got - 2010.04.16 16:29:54.
