data_PCOD8239519
_publ_section_title
;
Structure prediction by ZEFSAII (Michael W. Deem and Ramdas Pophale) SiO2 
 PCOD8239519
Probable space group: P M M N
;
_chemical_formula_sum "Si O2"
_cell_formula_units_Z 48
_cell_length_a 13.108599
_cell_length_b 22.310381
_cell_length_c 10.875534
_cell_angle_alpha 90.000000
_cell_angle_beta 90.000000
_cell_angle_gamma 90.000000
_cell_volume 3180.635161
_symmetry_space_group_name_H-M "P M M N"
_symmetry_group_IT_number 59
_space_group.IT_coordinate_system_code '2'
_symmetry_cell_setting 'orthorhombic'
loop_
_space_group_symop_operation_xyz
x,y,z
1/2-x,1/2-y,z
1/2+x,-y,-z
-x,1/2+y,-z
-x,-y,-z
1/2+x,1/2+y,-z
1/2-x,y,z
x,1/2-y,z
loop_
_atom_site_type_symbol
_atom_site_label
_atom_site_fract_x
_atom_site_fract_y
_atom_site_fract_z
Si Si1 0.990155 0.915320 0.927049
Si Si2 0.371818 0.064508 0.545956
Si Si3 0.630477 0.026838 0.898535
Si Si4 0.129084 0.183749 0.682436
Si Si5 0.986616 0.521861 0.688407
Si Si6 0.134962 0.319054 0.959337
O O1 0.025162 0.927504 0.785870
O O2 0.904470 0.965056 0.966079
O O3 0.937835 0.851049 0.941894
O O4 0.085965 0.918816 0.019910
O O5 0.250000 0.058392 0.543207
O O6 0.407450 0.130338 0.592891
O O7 0.418467 0.056245 0.411430
O O8 0.415961 0.012063 0.632743
O O9 0.750000 0.033688 0.891532
O O10 0.584609 0.026693 0.759664
O O11 0.250000 0.186899 0.683990
O O12 0.087517 0.250000 0.640610
O O13 0.092773 0.169622 0.821343
O O14 0.250000 0.343776 0.971877
O O15 0.131722 0.250000 0.993973
#
# Coordination Sequence:
#
# PCOD8239519 Si02
#       6
#     8   8   8   8   8   8
#     4   9  18  29  43  67  89 117 147 186 224 274
#     4  10  18  29  46  62  90 125 150 184 223 265
#     4   9  17  29  45  64  90 118 143 183 231 267
#     4   8  15  26  41  63  86 113 148 179 214 261
#     4   9  19  30  40  67  91 116 154 185 225 266
#     4   9  16  27  45  66  90 118 147 184 227 270
#
# _framework density 15.091324999999999
#
# number of rings (size 3 to 8) (size 9 to 14) (size 15 to 20)
#    1.000    2.000    0.000    3.000    0.000    0.667 
#    0.000    0.833    0.000    2.500    0.000    0.000 
#    0.000   21.333    0.000    0.000    0.000    0.000 
#
# Total GULP energy -594668.044004 kJ/mol
# GULP energy per Si atom -12388.917583 kJ/mol
# Density = 1.505698 g / cm^3
# Si number density = 15.091325 Si / 1000 Ang^3
#
#
#
# Elastic Constant Matrix: (Units=GPa)
#
#
# Indices 1 2 3 4 5 6 
#
# 1 41.4936 21.7982 21.6168 0.0000 0.0000 0.0000
# 2 21.7982 66.8453 43.0025 0.0000 0.0000 0.0000
# 3 21.6168 43.0025 96.8224 0.0000 0.0000 0.0000
# 4 0.0000 0.0000 0.0000 18.7997 0.0000 0.0000
# 5 0.0000 0.0000 0.0000 0.0000 19.0420 0.0000
# 6 0.0000 0.0000 0.0000 0.0000 0.0000 22.4762
#
#
#
# Elastic Compliance Matrix: (Units=1/GPa)
#
#
# Indices 1 2 3 4 5 6 
#
# 1 0.029805 -0.007614 -0.003273 0.000000 0.000000 0.000000
# 2 -0.007614 0.022889 -0.008466 0.000000 0.000000 0.000000
# 3 -0.003273 -0.008466 0.014819 0.000000 0.000000 0.000000
# 4 0.000000 0.000000 0.000000 0.053192 0.000000 0.000000
# 5 0.000000 0.000000 0.000000 0.000000 0.052516 0.000000
# 6 0.000000 0.000000 0.000000 0.000000 0.000000 0.044492
#
#
# Mechanical properties :
#
#
# Convention : Reuss Voigt Hill
#
# Bulk Modulus (GPa) = 34.71298 41.99959 38.35629
# Shear Modulus (GPa) = 18.79556 19.97984 19.38770
#
# Velocity S-wave (km/s) = 3.53293 3.64253 3.58815
# Velocity P-wave (km/s) = 6.30032 6.75140 6.52975
#
# Compressibility (1/GPa) = 0.02880767
#
# Stress axis : x y z
#
# Youngs Moduli (GPa) = 33.55140 43.68880 67.48133
#
# Poissons Ratio (x) = 0.33265 0.22084
# Poissons Ratio (y) = 0.25546 0.57130
# Poissons Ratio (z) = 0.10980 0.36987
#
# Static dielectric constant tensor:
#      x y z
#    x 2.621570 0.000000 0.000000 
#    y 0.000000 2.868390 0.000000 
#    z 0.000000 0.000000 2.929520 
# 
# 
# High freq. dielectric constant tensor:
#      x y z
#    x 1.551100 0.000000 0.000000 
#    y 0.000000 1.559790 0.000000 
#    z 0.000000 0.000000 1.575660 
# 
# From -- ./inp_files/16114.got.cif
#   From: 2010.03.12/outbox.cif.g09.slc.cpg/sg59_9_cif.got.tgz:16114.got - 2010.04.16 16:29:54.
