data_PCOD8239160
_publ_section_title
;
Structure prediction by ZEFSAII (Michael W. Deem and Ramdas Pophale) SiO2 
 PCOD8239160
Probable space group: P M M N
;
_chemical_formula_sum "Si O2"
_cell_formula_units_Z 56
_cell_length_a 9.449937
_cell_length_b 21.588523
_cell_length_c 16.745351
_cell_angle_alpha 90.000000
_cell_angle_beta 90.000000
_cell_angle_gamma 90.000000
_cell_volume 3416.222110
_symmetry_space_group_name_H-M "P M M N"
_symmetry_group_IT_number 59
_space_group.IT_coordinate_system_code '2'
_symmetry_cell_setting 'orthorhombic'
loop_
_space_group_symop_operation_xyz
x,y,z
1/2-x,1/2-y,z
1/2+x,-y,-z
-x,1/2+y,-z
-x,-y,-z
1/2+x,1/2+y,-z
1/2-x,y,z
x,1/2-y,z
loop_
_atom_site_type_symbol
_atom_site_label
_atom_site_fract_x
_atom_site_fract_y
_atom_site_fract_z
Si Si1 0.085162 0.007174 0.791865
Si Si2 0.088421 0.588147 0.514149
Si Si3 0.917750 0.130243 0.190190
Si Si4 0.411881 0.034391 0.617809
Si Si5 0.915237 0.944215 0.041573
Si Si6 0.418436 0.818327 0.641615
Si Si7 0.414326 0.319734 0.047138
O O1 0.250000 0.998116 0.774268
O O2 0.020608 0.029833 0.707192
O O3 0.053323 0.055342 0.863098
O O4 0.028311 0.940280 0.820657
O O5 0.250000 0.597615 0.488414
O O6 0.072889 0.530692 0.573726
O O7 0.026292 0.645726 0.563802
O O8 0.999967 0.584146 0.432726
O O9 0.750000 0.138013 0.178227
O O10 0.970480 0.150082 0.277327
O O11 0.994634 0.174024 0.126959
O O12 0.250000 0.056848 0.620865
O O13 0.750000 0.957094 0.025217
O O14 0.960667 0.875274 0.013014
O O15 0.000000 0.000000 0.000000
O O16 0.250000 0.818522 0.641352
O O17 0.482450 0.750000 0.637108
O O18 0.250000 0.327409 0.068647
O O19 0.441960 0.250000 0.011602
#
# Coordination Sequence:
#
# PCOD8239160 Si02
#       7
#     8   8   8   8   8   8   8
#     4   9  16  28  48  70  93 118 149 192 234 269
#     4   9  16  27  43  64  88 114 147 181 216 264
#     4  10  17  29  49  72  94 121 158 192 224 274
#     4   9  16  28  45  64  88 116 143 181 227 265
#     4  10  19  32  50  70  93 123 158 196 237 280
#     4   9  16  26  43  67  93 121 152 185 223 270
#     4  10  21  34  46  66  99 132 157 188 236 289
#
# _framework density 16.392375999999999
#
# number of rings (size 3 to 8) (size 9 to 14) (size 15 to 20)
#    0.000    2.571    2.857    0.429    0.000    0.857 
#    0.000    2.143    0.000    2.143    0.000    2.000 
#    0.000    0.000    0.000    0.000    0.000    0.000 
#
# Total GULP energy -694054.156879 kJ/mol
# GULP energy per Si atom -12393.824230 kJ/mol
# Density = 1.635507 g / cm^3
# Si number density = 16.392376 Si / 1000 Ang^3
#
#
#
# Elastic Constant Matrix: (Units=GPa)
#
#
# Indices 1 2 3 4 5 6 
#
# 1 35.2562 28.0913 33.3747 0.0000 0.0000 0.0000
# 2 28.0913 112.5740 57.3889 0.0000 0.0000 0.0000
# 3 33.3747 57.3889 109.6397 0.0000 0.0000 0.0000
# 4 0.0000 0.0000 0.0000 27.3113 0.0000 0.0000
# 5 0.0000 0.0000 0.0000 0.0000 22.7913 0.0000
# 6 0.0000 0.0000 0.0000 0.0000 0.0000 16.5797
#
#
#
# Elastic Compliance Matrix: (Units=1/GPa)
#
#
# Indices 1 2 3 4 5 6 
#
# 1 0.042141 -0.005423 -0.009989 0.000000 0.000000 0.000000
# 2 -0.005423 0.012814 -0.005056 0.000000 0.000000 0.000000
# 3 -0.009989 -0.005056 0.014808 0.000000 0.000000 0.000000
# 4 0.000000 0.000000 0.000000 0.036615 0.000000 0.000000
# 5 0.000000 0.000000 0.000000 0.000000 0.043876 0.000000
# 6 0.000000 0.000000 0.000000 0.000000 0.000000 0.060315
#
#
# Mechanical properties :
#
#
# Convention : Reuss Voigt Hill
#
# Bulk Modulus (GPa) = 34.69150 55.01996 44.85573
# Shear Modulus (GPa) = 19.14861 22.57746 20.86304
#
# Velocity S-wave (km/s) = 3.42152 3.71525 3.57140
# Velocity P-wave (km/s) = 6.06780 7.21396 6.66556
#
# Compressibility (1/GPa) = 0.02882550
#
# Stress axis : x y z
#
# Youngs Moduli (GPa) = 23.72988 78.03920 67.53032
#
# Poissons Ratio (x) = 0.42324 0.67456
# Poissons Ratio (y) = 0.12870 0.34146
# Poissons Ratio (z) = 0.23704 0.39460
#
# Static dielectric constant tensor:
#      x y z
#    x 2.862830 0.000000 0.000000 
#    y 0.000000 3.207000 0.000000 
#    z 0.000000 0.000000 3.179340 
# 
# 
# High freq. dielectric constant tensor:
#      x y z
#    x 1.599580 0.000000 0.000000 
#    y 0.000000 1.619210 0.000000 
#    z 0.000000 0.000000 1.630840 
# 
# From -- ./inp_files/26003.got.cif
#   From: 2010.03.12/outbox.cif.g09.slc.cpg/sg59_14_cif.got.tgz:26003.got - 2010.04.16 16:29:54.
