data_PCOD8239824
_publ_section_title
;
Structure prediction by ZEFSAII (Michael W. Deem and Ramdas Pophale) SiO2 
 PCOD8239824
Probable space group: P M M N
;
_chemical_formula_sum "Si O2"
_cell_formula_units_Z 64
_cell_length_a 9.032377
_cell_length_b 31.326244
_cell_length_c 12.170482
_cell_angle_alpha 90.000000
_cell_angle_beta 90.000000
_cell_angle_gamma 90.000000
_cell_volume 3443.643308
_symmetry_space_group_name_H-M "P M M N"
_symmetry_group_IT_number 59
_space_group.IT_coordinate_system_code '2'
_symmetry_cell_setting 'orthorhombic'
loop_
_space_group_symop_operation_xyz
x,y,z
1/2-x,1/2-y,z
1/2+x,-y,-z
-x,1/2+y,-z
-x,-y,-z
1/2+x,1/2+y,-z
1/2-x,y,z
x,1/2-y,z
loop_
_atom_site_type_symbol
_atom_site_label
_atom_site_fract_x
_atom_site_fract_y
_atom_site_fract_z
Si Si1 0.576805 0.938951 0.253355
Si Si2 0.922733 0.388194 0.366221
Si Si3 0.922851 0.016600 0.392836
Si Si4 0.575361 0.122528 0.119634
Si Si5 0.427829 0.046809 0.989641
Si Si6 0.575152 0.298119 0.975452
Si Si7 0.581040 0.701537 0.245389
Si Si8 0.923101 0.867746 0.416580
O O1 0.750000 0.930296 0.256001
O O2 0.522057 0.933563 0.128399
O O3 0.506598 0.905560 0.340703
O O4 0.535628 0.986804 0.289926
O O5 0.750000 0.385701 0.390729
O O6 0.980646 0.436684 0.364017
O O7 0.961241 0.368729 0.247475
O O8 0.003598 0.363488 0.464133
O O9 0.750000 0.015849 0.416284
O O10 0.000000 0.000000 0.500000
O O11 0.750000 0.114108 0.102048
O O12 0.519937 0.165988 0.060915
O O13 0.489288 0.080287 0.078963
O O14 0.250000 0.042524 0.999524
O O15 0.500000 0.000000 0.000000
O O16 0.750000 0.297090 0.972694
O O17 0.515505 0.250000 0.004936
O O18 0.518298 0.312883 0.856720
O O19 0.750000 0.692979 0.210229
O O20 0.550743 0.750000 0.277216
O O21 0.539406 0.675791 0.354074
O O22 0.750000 0.875026 0.435378
#
# Coordination Sequence:
#
# PCOD8239824 Si02
#       8
#     8   8   8   8   8   8   8   8
#     4   9  18  32  51  73 100 131 164 209 260 306
#     4  10  21  35  51  73 105 142 175 217 267 312
#     4  10  18  31  49  69  96 131 169 208 253 300
#     4  10  21  38  56  76 109 147 182 224 276 327
#     4  11  22  37  56  79 109 144 182 222 270 326
#     4   9  18  34  58  85 109 137 177 224 271 324
#     4   9  18  33  54  80 109 138 168 211 269 324
#     4  10  19  33  53  75 100 133 173 212 254 309
#
# _framework density 18.584968
#
# number of rings (size 3 to 8) (size 9 to 14) (size 15 to 20)
#    0.000    2.250    1.250    1.875    0.000    4.500 
#    0.000    4.375    0.000    0.750    0.000    0.000 
#    0.000    0.000    0.000    0.000    0.000    0.000 
#
# Total GULP energy -793382.144179 kJ/mol
# GULP energy per Si atom -12396.596003 kJ/mol
# Density = 1.854267 g / cm^3
# Si number density = 18.584968 Si / 1000 Ang^3
#
#
#
# Elastic Constant Matrix: (Units=GPa)
#
#
# Indices 1 2 3 4 5 6 
#
# 1 31.7307 35.5864 33.3169 0.0000 0.0000 0.0000
# 2 35.5864 111.8273 68.4774 0.0000 0.0000 0.0000
# 3 33.3169 68.4774 141.6021 0.0000 0.0000 0.0000
# 4 0.0000 0.0000 0.0000 32.1030 0.0000 0.0000
# 5 0.0000 0.0000 0.0000 0.0000 30.0483 0.0000
# 6 0.0000 0.0000 0.0000 0.0000 0.0000 21.7534
#
#
#
# Elastic Compliance Matrix: (Units=1/GPa)
#
#
# Indices 1 2 3 4 5 6 
#
# 1 0.052429 -0.012972 -0.006063 0.000000 0.000000 0.000000
# 2 -0.012972 0.015914 -0.004644 0.000000 0.000000 0.000000
# 3 -0.006063 -0.004644 0.010734 0.000000 0.000000 0.000000
# 4 0.000000 0.000000 0.000000 0.031150 0.000000 0.000000
# 5 0.000000 0.000000 0.000000 0.000000 0.033280 0.000000
# 6 0.000000 0.000000 0.000000 0.000000 0.000000 0.045970
#
#
# Mechanical properties :
#
#
# Convention : Reuss Voigt Hill
#
# Bulk Modulus (GPa) = 31.52520 62.21349 46.86935
# Shear Modulus (GPa) = 20.20964 26.63290 23.42127
#
# Velocity S-wave (km/s) = 3.30118 3.78965 3.55382
# Velocity P-wave (km/s) = 5.61515 7.25923 6.48947
#
# Compressibility (1/GPa) = 0.03172065
#
# Stress axis : x y z
#
# Youngs Moduli (GPa) = 19.07336 62.83809 93.16028
#
# Poissons Ratio (x) = 0.81512 0.56481
# Poissons Ratio (y) = 0.24742 0.43261
# Poissons Ratio (z) = 0.11564 0.29180
#
# Static dielectric constant tensor:
#      x y z
#    x 3.210410 0.000000 0.000000 
#    y 0.000000 3.585520 0.000000 
#    z 0.000000 0.000000 3.485910 
# 
# 
# High freq. dielectric constant tensor:
#      x y z
#    x 1.699770 0.000000 0.000000 
#    y 0.000000 1.722680 0.000000 
#    z 0.000000 0.000000 1.725820 
# 
# From -- ./inp_files/15044.got.cif
#   From: 2010.03.12/outbox.cif.g09.slc.cpg/sg59_8_cif.got.tgz:15044.got - 2010.04.16 16:29:54.
