data_PCOD8239754
_publ_section_title
;
Structure prediction by ZEFSAII (Michael W. Deem and Ramdas Pophale) SiO2 
 PCOD8239754
Probable space group: P M M N
;
_chemical_formula_sum "Si O2"
_cell_formula_units_Z 56
_cell_length_a 14.207407
_cell_length_b 9.349838
_cell_length_c 22.336718
_cell_angle_alpha 90.000000
_cell_angle_beta 90.000000
_cell_angle_gamma 90.000000
_cell_volume 2967.141578
_symmetry_space_group_name_H-M "P M M N"
_symmetry_group_IT_number 59
_space_group.IT_coordinate_system_code '2'
_symmetry_cell_setting 'orthorhombic'
loop_
_space_group_symop_operation_xyz
x,y,z
1/2-x,1/2-y,z
1/2+x,-y,-z
-x,1/2+y,-z
-x,-y,-z
1/2+x,1/2+y,-z
1/2-x,y,z
x,1/2-y,z
loop_
_atom_site_type_symbol
_atom_site_label
_atom_site_fract_x
_atom_site_fract_y
_atom_site_fract_z
Si Si1 0.140194 0.084563 0.687539
Si Si2 0.360375 0.916205 0.465052
Si Si3 0.583883 0.911468 0.973527
Si Si4 0.847697 0.586190 0.099040
Si Si5 0.144555 0.082271 0.156019
Si Si6 0.519033 0.915058 0.196364
Si Si7 0.969917 0.082694 0.413263
O O1 0.250000 0.040518 0.689580
O O2 0.129436 0.250000 0.668275
O O3 0.094268 0.056555 0.751948
O O4 0.083379 0.985553 0.642369
O O5 0.250000 0.964294 0.461300
O O6 0.369566 0.750000 0.447105
O O7 0.399587 0.942975 0.531445
O O8 0.427268 0.008889 0.421238
O O9 0.549398 0.750000 0.962833
O O10 0.627427 0.972766 0.912205
O O11 0.658140 0.921474 0.027328
O O12 0.500000 0.000000 0.000000
O O13 0.750000 0.515156 0.121746
O O14 0.849573 0.750000 0.120875
O O15 0.936589 0.519729 0.134130
O O16 0.250000 0.041139 0.174407
O O17 0.127759 0.250000 0.160499
O O18 0.077009 0.004129 0.203852
O O19 0.489728 0.750000 0.192684
O O20 0.987694 0.250000 0.402013
#
# Coordination Sequence:
#
# PCOD8239754 Si02
#       7
#     8   8   8   8   8   8   8
#     4  10  21  37  57  81 109 142 181 224 269 319
#     4   9  18  34  56  83 117 154 189 226 268 316
#     4  10  18  30  50  74 100 130 164 205 257 315
#     4   9  16  28  49  74  98 126 161 202 251 308
#     4  10  21  36  53  74 102 136 172 212 264 324
#     4  10  20  35  55  78 101 130 174 222 262 306
#     4  10  20  34  55  85 118 150 186 226 271 323
#
# _framework density 18.873381999999999
#
# number of rings (size 3 to 8) (size 9 to 14) (size 15 to 20)
#    0.000    2.286    1.429    1.714    0.000    6.000 
#    0.000    0.714    0.000    4.286    0.000    0.000 
#    0.000    0.000    0.000    0.000    0.000    0.000 
#
# Total GULP energy -693867.193050 kJ/mol
# GULP energy per Si atom -12390.485590 kJ/mol
# Density = 1.883043 g / cm^3
# Si number density = 18.873382 Si / 1000 Ang^3
#
#
#
# Elastic Constant Matrix: (Units=GPa)
#
#
# Indices 1 2 3 4 5 6 
#
# 1 167.3124 61.9474 40.8306 0.0000 0.0000 0.0000
# 2 61.9474 60.4570 31.8473 0.0000 0.0000 0.0000
# 3 40.8306 31.8473 58.7726 0.0000 0.0000 0.0000
# 4 0.0000 0.0000 0.0000 27.2425 0.0000 0.0000
# 5 0.0000 0.0000 0.0000 0.0000 26.1870 0.0000
# 6 0.0000 0.0000 0.0000 0.0000 0.0000 27.6587
#
#
#
# Elastic Compliance Matrix: (Units=1/GPa)
#
#
# Indices 1 2 3 4 5 6 
#
# 1 0.009781 -0.009016 -0.001909 0.000000 0.000000 0.000000
# 2 -0.009016 0.031460 -0.010783 0.000000 0.000000 0.000000
# 3 -0.001909 -0.010783 0.024184 0.000000 0.000000 0.000000
# 4 0.000000 0.000000 0.000000 0.036707 0.000000 0.000000
# 5 0.000000 0.000000 0.000000 0.000000 0.038187 0.000000
# 6 0.000000 0.000000 0.000000 0.000000 0.000000 0.036155
#
#
# Mechanical properties :
#
#
# Convention : Reuss Voigt Hill
#
# Bulk Modulus (GPa) = 45.43998 61.75473 53.59735
# Shear Modulus (GPa) = 22.00429 26.34542 24.17486
#
# Velocity S-wave (km/s) = 3.41822 3.74023 3.58284
# Velocity P-wave (km/s) = 6.30138 7.17245 6.75098
#
# Compressibility (1/GPa) = 0.02200705
#
# Stress axis : x y z
#
# Youngs Moduli (GPa) = 102.23750 31.78668 41.34898
#
# Poissons Ratio (x) = 0.28660 0.07895
# Poissons Ratio (y) = 0.92182 0.44588
# Poissons Ratio (z) = 0.19521 0.34276
#
# Static dielectric constant tensor:
#      x y z
#    x 3.545210 0.000000 0.000000 
#    y 0.000000 3.415140 0.000000 
#    z 0.000000 0.000000 4.434860 
# 
# 
# High freq. dielectric constant tensor:
#      x y z
#    x 1.747340 0.000000 0.000000 
#    y 0.000000 1.711470 0.000000 
#    z 0.000000 0.000000 1.718420 
# 
# From -- ./inp_files/30361.got.cif
#   From: 2010.03.12/outbox.cif.g09.slc.cpg/sg59_16_cif.got.tgz:30361.got - 2010.04.16 16:29:54.
