data_PCOD8239960
_publ_section_title
;
Structure prediction by ZEFSAII (Michael W. Deem and Ramdas Pophale) SiO2 
 PCOD8239960
Probable space group: P M M N
;
_chemical_formula_sum "Si O2"
_cell_formula_units_Z 56
_cell_length_a 20.419944
_cell_length_b 13.458969
_cell_length_c 11.996188
_cell_angle_alpha 90.000000
_cell_angle_beta 90.000000
_cell_angle_gamma 90.000000
_cell_volume 3296.929062
_symmetry_space_group_name_H-M "P M M N"
_symmetry_group_IT_number 59
_space_group.IT_coordinate_system_code '2'
_symmetry_cell_setting 'orthorhombic'
loop_
_space_group_symop_operation_xyz
x,y,z
1/2-x,1/2-y,z
1/2+x,-y,-z
-x,1/2+y,-z
-x,-y,-z
1/2+x,1/2+y,-z
1/2-x,y,z
x,1/2-y,z
loop_
_atom_site_type_symbol
_atom_site_label
_atom_site_fract_x
_atom_site_fract_y
_atom_site_fract_z
Si Si1 0.058360 0.866728 0.425203
Si Si2 0.326772 0.861382 0.045335
Si Si3 0.173790 0.944251 0.283684
Si Si4 0.104829 0.361002 0.262398
Si Si5 0.080357 0.960967 0.887280
Si Si6 0.975304 0.456827 0.346553
Si Si7 0.048514 0.138771 0.024336
O O1 0.039836 0.750000 0.425778
O O2 0.129191 0.880402 0.367656
O O3 0.063699 0.912238 0.549032
O O4 0.001517 0.930069 0.362826
O O5 0.250000 0.862178 0.033118
O O6 0.354361 0.750000 0.052889
O O7 0.348322 0.917261 0.158208
O O8 0.353104 0.914164 0.934070
O O9 0.250000 0.919584 0.306342
O O10 0.160625 0.061742 0.301015
O O11 0.126516 0.250000 0.297680
O O12 0.096564 0.368141 0.129741
O O13 0.036599 0.385594 0.322456
O O14 0.076715 0.955084 0.754030
O O15 0.022785 0.899554 0.944527
O O16 0.077746 0.075823 0.922898
O O17 0.042369 0.250000 0.979599
#
# Coordination Sequence:
#
# PCOD8239960 Si02
#       7
#     8   8   8   8   8   8   8
#     4  10  20  35  53  73  99 134 171 208 253 299
#     4  10  20  33  49  70  99 135 168 200 246 301
#     4  10  20  34  50  73 102 131 169 210 245 290
#     4   9  16  30  50  74 103 132 161 200 250 300
#     4  10  18  32  49  73 104 131 159 203 249 295
#     4   9  20  34  51  76 102 129 165 210 256 300
#     4   9  17  27  46  76 104 129 159 197 244 298
#
# _framework density 16.985503999999999
#
# number of rings (size 3 to 8) (size 9 to 14) (size 15 to 20)
#    0.000    2.429    1.429    1.286    2.000    3.429 
#    0.000    0.714    0.000    0.429    0.000    0.000 
#    0.000    1.143    0.000    0.000    0.000    0.000 
#
# Total GULP energy -694298.566414 kJ/mol
# GULP energy per Si atom -12398.188686 kJ/mol
# Density = 1.694684 g / cm^3
# Si number density = 16.985504 Si / 1000 Ang^3
#
#
#
# Elastic Constant Matrix: (Units=GPa)
#
#
# Indices 1 2 3 4 5 6 
#
# 1 46.3207 29.4067 41.3072 0.0000 0.0000 0.0000
# 2 29.4067 138.5583 37.3265 0.0000 0.0000 0.0000
# 3 41.3072 37.3265 105.7760 0.0000 0.0000 0.0000
# 4 0.0000 0.0000 0.0000 18.8961 0.0000 0.0000
# 5 0.0000 0.0000 0.0000 0.0000 26.1199 0.0000
# 6 0.0000 0.0000 0.0000 0.0000 0.0000 18.3707
#
#
#
# Elastic Compliance Matrix: (Units=1/GPa)
#
#
# Indices 1 2 3 4 5 6 
#
# 1 0.035167 -0.004159 -0.012266 0.000000 0.000000 0.000000
# 2 -0.004159 0.008467 -0.001364 0.000000 0.000000 0.000000
# 3 -0.012266 -0.001364 0.014725 0.000000 0.000000 0.000000
# 4 0.000000 0.000000 0.000000 0.052921 0.000000 0.000000
# 5 0.000000 0.000000 0.000000 0.000000 0.038285 0.000000
# 6 0.000000 0.000000 0.000000 0.000000 0.000000 0.054434
#
#
# Mechanical properties :
#
#
# Convention : Reuss Voigt Hill
#
# Bulk Modulus (GPa) = 43.89368 56.30398 50.09883
# Shear Modulus (GPa) = 20.22888 24.85165 22.54026
#
# Velocity S-wave (km/s) = 3.45476 3.82921 3.64679
# Velocity P-wave (km/s) = 6.46620 7.26434 6.87686
#
# Compressibility (1/GPa) = 0.02278232
#
# Stress axis : x y z
#
# Youngs Moduli (GPa) = 28.43556 118.10144 67.91150
#
# Poissons Ratio (x) = 0.49123 0.83297
# Poissons Ratio (y) = 0.11827 0.09261
# Poissons Ratio (z) = 0.34878 0.16105
#
# Static dielectric constant tensor:
#      x y z
#    x 2.852200 0.000000 0.000000 
#    y 0.000000 3.382720 0.000000 
#    z 0.000000 0.000000 3.168380 
# 
# 
# High freq. dielectric constant tensor:
#      x y z
#    x 1.624220 0.000000 0.000000 
#    y 0.000000 1.670900 0.000000 
#    z 0.000000 0.000000 1.644460 
# 
# From -- ./inp_files/18302.got.cif
#   From: 2010.03.12/outbox.cif.g09.slc.cpg/sg59_10_cif.got.tgz:18302.got - 2010.04.16 16:29:54.
