data_PCOD8239171
_publ_section_title
;
Structure prediction by ZEFSAII (Michael W. Deem and Ramdas Pophale) SiO2 
 PCOD8239171
Probable space group: P M M N
;
_chemical_formula_sum "Si O2"
_cell_formula_units_Z 64
_cell_length_a 20.173036
_cell_length_b 16.170272
_cell_length_c 11.034574
_cell_angle_alpha 90.000000
_cell_angle_beta 90.000000
_cell_angle_gamma 90.000000
_cell_volume 3599.516430
_symmetry_space_group_name_H-M "P M M N"
_symmetry_group_IT_number 59
_space_group.IT_coordinate_system_code '2'
_symmetry_cell_setting 'orthorhombic'
loop_
_space_group_symop_operation_xyz
x,y,z
1/2-x,1/2-y,z
1/2+x,-y,-z
-x,1/2+y,-z
-x,-y,-z
1/2+x,1/2+y,-z
1/2-x,y,z
x,1/2-y,z
loop_
_atom_site_type_symbol
_atom_site_label
_atom_site_fract_x
_atom_site_fract_y
_atom_site_fract_z
Si Si1 0.675636 0.077556 0.154298
Si Si2 0.502849 0.985174 0.297277
Si Si3 0.033930 0.923889 0.929978
Si Si4 0.673244 0.157687 0.405427
Si Si5 0.459035 0.341491 0.879451
Si Si6 0.176968 0.110674 0.810647
Si Si7 0.603176 0.002537 0.515255
Si Si8 0.673587 0.839896 0.459638
O O1 0.750000 0.092514 0.096436
O O2 0.614812 0.083522 0.057108
O O3 0.662440 0.141606 0.262422
O O4 0.673492 0.987062 0.214344
O O5 0.510774 0.901682 0.221089
O O6 0.552942 0.985611 0.407473
O O7 0.516308 0.065413 0.212123
O O8 0.429732 0.987196 0.352891
O O9 0.999132 0.845333 0.992762
O O10 0.000000 0.000000 0.000000
O O11 0.750000 0.155294 0.437137
O O12 0.644452 0.250000 0.433326
O O13 0.641311 0.087743 0.489874
O O14 0.466645 0.250000 0.827681
O O15 0.381025 0.362577 0.903561
O O16 0.250000 0.135393 0.861864
O O17 0.162386 0.154236 0.684095
O O18 0.645541 0.919060 0.529728
O O19 0.750000 0.839732 0.491616
O O20 0.642989 0.750000 0.499909
#
# Coordination Sequence:
#
# PCOD8239171 Si02
#       8
#     8   8   8   8   8   8   8   8
#     4  10  17  31  55  78 104 137 175 227 282 321
#     4  10  21  34  52  73 106 141 180 210 255 325
#     4  10  18  36  52  76 106 137 175 225 265 322
#     4  10  19  31  51  78 106 138 179 225 269 313
#     4  11  21  34  55  79 110 146 178 226 275 319
#     4  10  17  29  52  81 108 135 173 223 276 328
#     4  11  19  34  53  75 109 147 165 214 270 318
#     4  10  18  29  51  80 108 135 169 219 274 328
#
# _framework density 17.780166999999999
#
# number of rings (size 3 to 8) (size 9 to 14) (size 15 to 20)
#    0.000    1.750    6.250    0.750    0.000    1.750 
#    0.000    2.500    0.000    7.500    0.000    0.000 
#    0.000    0.000    0.000    0.000    0.000    0.000 
#
# Total GULP energy -792886.613353 kJ/mol
# GULP energy per Si atom -12388.853334 kJ/mol
# Density = 1.773970 g / cm^3
# Si number density = 17.780167 Si / 1000 Ang^3
#
#
#
# Elastic Constant Matrix: (Units=GPa)
#
#
# Indices 1 2 3 4 5 6 
#
# 1 131.1507 51.5771 45.2628 0.0000 0.0000 0.0000
# 2 51.5771 132.3792 26.8829 0.0000 0.0000 0.0000
# 3 45.2628 26.8829 54.6985 0.0000 0.0000 0.0000
# 4 0.0000 0.0000 0.0000 11.8137 0.0000 0.0000
# 5 0.0000 0.0000 0.0000 0.0000 30.9138 0.0000
# 6 0.0000 0.0000 0.0000 0.0000 0.0000 12.7156
#
#
#
# Elastic Compliance Matrix: (Units=1/GPa)
#
#
# Indices 1 2 3 4 5 6 
#
# 1 0.011564 -0.002846 -0.008170 0.000000 0.000000 0.000000
# 2 -0.002846 0.009092 -0.002113 0.000000 0.000000 0.000000
# 3 -0.008170 -0.002113 0.026081 0.000000 0.000000 0.000000
# 4 0.000000 0.000000 0.000000 0.084648 0.000000 0.000000
# 5 0.000000 0.000000 0.000000 0.000000 0.032348 0.000000
# 6 0.000000 0.000000 0.000000 0.000000 0.000000 0.078643
#
#
# Mechanical properties :
#
#
# Convention : Reuss Voigt Hill
#
# Bulk Modulus (GPa) = 48.83290 62.85265 55.84277
# Shear Modulus (GPa) = 18.15133 24.05566 21.10350
#
# Velocity S-wave (km/s) = 3.19858 3.68224 3.44890
# Velocity P-wave (km/s) = 6.41605 7.31472 6.88007
#
# Compressibility (1/GPa) = 0.02047800
#
# Stress axis : x y z
#
# Youngs Moduli (GPa) = 86.47624 109.98471 38.34149
#
# Poissons Ratio (x) = 0.31305 0.31326
# Poissons Ratio (y) = 0.24614 0.08102
# Poissons Ratio (z) = 0.70653 0.23242
#
# Static dielectric constant tensor:
#      x y z
#    x 3.754420 0.000000 0.000000 
#    y 0.000000 3.571010 0.000000 
#    z 0.000000 0.000000 3.204550 
# 
# 
# High freq. dielectric constant tensor:
#      x y z
#    x 1.695200 0.000000 0.000000 
#    y 0.000000 1.693230 0.000000 
#    z 0.000000 0.000000 1.635890 
# 
# From -- ./inp_files/18455.got.cif
#   From: 2010.03.12/outbox.cif.g09.slc.cpg/sg59_10_cif.got.tgz:18455.got - 2010.04.16 16:29:54.
