data_PCOD8239142
_publ_section_title
;
Structure prediction by ZEFSAII (Michael W. Deem and Ramdas Pophale) SiO2 
 PCOD8239142
Probable space group: P M M N
;
_chemical_formula_sum "Si O2"
_cell_formula_units_Z 64
_cell_length_a 8.846243
_cell_length_b 28.531933
_cell_length_c 15.529470
_cell_angle_alpha 90.000000
_cell_angle_beta 90.000000
_cell_angle_gamma 90.000000
_cell_volume 3919.644635
_symmetry_space_group_name_H-M "P M M N"
_symmetry_group_IT_number 59
_space_group.IT_coordinate_system_code '2'
_symmetry_cell_setting 'orthorhombic'
loop_
_space_group_symop_operation_xyz
x,y,z
1/2-x,1/2-y,z
1/2+x,-y,-z
-x,1/2+y,-z
-x,-y,-z
1/2+x,1/2+y,-z
1/2-x,y,z
x,1/2-y,z
loop_
_atom_site_type_symbol
_atom_site_label
_atom_site_fract_x
_atom_site_fract_y
_atom_site_fract_z
Si Si1 0.572041 0.547598 0.399154
Si Si2 0.570416 0.197589 0.506350
Si Si3 0.072045 0.450421 0.402964
Si Si4 0.917748 0.194424 0.016963
Si Si5 0.429808 0.861939 0.331481
Si Si6 0.075866 0.194979 0.187909
Si Si7 0.928504 0.141248 0.341037
Si Si8 0.570150 0.302338 0.828679
O O1 0.750000 0.544997 0.387166
O O2 0.526304 0.558821 0.497763
O O3 0.501274 0.498471 0.369881
O O4 0.504039 0.587137 0.337330
O O5 0.750000 0.199759 0.506268
O O6 0.502564 0.250000 0.508743
O O7 0.511779 0.169635 0.589332
O O8 0.510704 0.172206 0.420611
O O9 0.250000 0.453879 0.391085
O O10 0.007345 0.409163 0.343932
O O11 0.750000 0.173726 0.035040
O O12 0.906585 0.250000 0.013824
O O13 0.979271 0.178132 0.922998
O O14 0.031350 0.178056 0.091849
O O15 0.250000 0.867268 0.332975
O O16 0.489714 0.837704 0.244153
O O17 0.250000 0.182759 0.204232
O O18 0.043443 0.250000 0.199480
O O19 0.971531 0.167133 0.253636
O O20 0.750000 0.134219 0.345674
O O21 0.750000 0.299503 0.824962
O O22 0.504467 0.250000 0.811747
#
# Coordination Sequence:
#
# PCOD8239142 Si02
#       8
#     8   8   8   8   8   8   8   8
#     4  10  20  33  49  68  93 122 157 199 243 283
#     4   9  17  27  41  64  94 127 161 191 220 264
#     4  10  20  34  51  68  90 120 159 202 244 283
#     4   8  14  27  46  67  91 121 159 201 240 275
#     4  10  17  28  47  70  96 126 161 196 233 276
#     4  10  20  32  46  67  96 129 163 199 239 281
#     4  11  20  31  48  70  96 125 160 197 238 284
#     4   8  14  25  45  72  98 125 160 200 236 273
#
# _framework density 16.328011
#
# number of rings (size 3 to 8) (size 9 to 14) (size 15 to 20)
#    0.000    2.500    1.250    3.000    0.000    3.750 
#    0.000    0.625    0.000    3.000    0.000    0.875 
#    0.000    0.000    0.000    0.000    0.000    0.000 
#
# Total GULP energy -793565.988603 kJ/mol
# GULP energy per Si atom -12399.468572 kJ/mol
# Density = 1.629085 g / cm^3
# Si number density = 16.328011 Si / 1000 Ang^3
#
#
#
# Elastic Constant Matrix: (Units=GPa)
#
#
# Indices 1 2 3 4 5 6 
#
# 1 43.4284 28.6308 22.3740 0.0000 0.0000 0.0000
# 2 28.6308 101.4260 49.1657 0.0000 0.0000 0.0000
# 3 22.3740 49.1657 110.2867 0.0000 0.0000 0.0000
# 4 0.0000 0.0000 0.0000 11.8171 0.0000 0.0000
# 5 0.0000 0.0000 0.0000 0.0000 16.2603 0.0000
# 6 0.0000 0.0000 0.0000 0.0000 0.0000 23.1484
#
#
#
# Elastic Compliance Matrix: (Units=1/GPa)
#
#
# Indices 1 2 3 4 5 6 
#
# 1 0.028976 -0.006799 -0.002847 0.000000 0.000000 0.000000
# 2 -0.006799 0.014173 -0.004939 0.000000 0.000000 0.000000
# 3 -0.002847 -0.004939 0.011847 0.000000 0.000000 0.000000
# 4 0.000000 0.000000 0.000000 0.084623 0.000000 0.000000
# 5 0.000000 0.000000 0.000000 0.000000 0.061500 0.000000
# 6 0.000000 0.000000 0.000000 0.000000 0.000000 0.043199
#
#
# Mechanical properties :
#
#
# Convention : Reuss Voigt Hill
#
# Bulk Modulus (GPa) = 38.72283 50.60914 44.66598
# Shear Modulus (GPa) = 17.72446 20.57653 19.15050
#
# Velocity S-wave (km/s) = 3.29830 3.55378 3.42842
# Velocity P-wave (km/s) = 6.18645 6.92111 6.56406
#
# Compressibility (1/GPa) = 0.02582456
#
# Stress axis : x y z
#
# Youngs Moduli (GPa) = 34.51162 70.55780 84.41210
#
# Poissons Ratio (x) = 0.47973 0.24035
# Poissons Ratio (y) = 0.23465 0.41690
# Poissons Ratio (z) = 0.09826 0.34847
#
# Static dielectric constant tensor:
#      x y z
#    x 2.864440 0.000000 0.000000 
#    y 0.000000 2.998810 0.000000 
#    z 0.000000 0.000000 3.227970 
# 
# 
# High freq. dielectric constant tensor:
#      x y z
#    x 1.613040 0.000000 0.000000 
#    y 0.000000 1.610500 0.000000 
#    z 0.000000 0.000000 1.618630 
# 
# From -- ./inp_files/21950.got.cif
#   From: 2010.03.12/outbox.cif.g09.slc.cpg/sg59_11_cif.got.tgz:21950.got - 2010.04.16 16:29:54.
