data_PCOD8239356
_publ_section_title
;
Structure prediction by ZEFSAII (Michael W. Deem and Ramdas Pophale) SiO2 
 PCOD8239356
Probable space group: P M M N
;
_chemical_formula_sum "Si O2"
_cell_formula_units_Z 64
_cell_length_a 18.516474
_cell_length_b 8.921597
_cell_length_c 26.452410
_cell_angle_alpha 90.000000
_cell_angle_beta 90.000000
_cell_angle_gamma 90.000000
_cell_volume 4369.846048
_symmetry_space_group_name_H-M "P M M N"
_symmetry_group_IT_number 59
_space_group.IT_coordinate_system_code '2'
_symmetry_cell_setting 'orthorhombic'
loop_
_space_group_symop_operation_xyz
x,y,z
1/2-x,1/2-y,z
1/2+x,-y,-z
-x,1/2+y,-z
-x,-y,-z
1/2+x,1/2+y,-z
1/2-x,y,z
x,1/2-y,z
loop_
_atom_site_type_symbol
_atom_site_label
_atom_site_fract_x
_atom_site_fract_y
_atom_site_fract_z
Si Si1 0.666942 0.577010 0.797676
Si Si2 0.329489 0.426008 0.493917
Si Si3 0.965868 0.926310 0.451131
Si Si4 0.584242 0.927531 0.603871
Si Si5 0.170626 0.426057 0.006120
Si Si6 0.666544 0.075254 0.693879
Si Si7 0.534390 0.925724 0.048703
Si Si8 0.583488 0.572849 0.896998
O O1 0.750000 0.553520 0.813508
O O2 0.652368 0.750000 0.783853
O O3 0.645863 0.475054 0.750199
O O4 0.617707 0.522620 0.844050
O O5 0.250000 0.499405 0.501523
O O6 0.321267 0.250000 0.486855
O O7 0.379591 0.459454 0.543332
O O8 0.365742 0.487689 0.442241
O O9 0.981345 0.750000 0.450424
O O10 0.003280 0.002859 0.402390
O O11 0.000000 0.000000 0.500000
O O12 0.577364 0.750000 0.604151
O O13 0.617189 0.982138 0.656089
O O14 0.250000 0.499324 0.998238
O O15 0.179071 0.250000 0.013561
O O16 0.134180 0.488913 0.057583
O O17 0.120610 0.458965 0.956577
O O18 0.750000 0.037161 0.682616
O O19 0.650347 0.250000 0.687680
O O20 0.518820 0.750000 0.048754
O O21 0.496762 0.999642 0.097937
O O22 0.500000 0.000000 0.000000
O O23 0.574919 0.750000 0.900140
#
# Coordination Sequence:
#
# PCOD8239356 Si02
#       8
#     8   8   8   8   8   8   8   8
#     4   9  17  29  44  60  78 104 138 169 196 232
#     4   8  14  24  39  59  80 104 135 167 198 234
#     4   9  16  26  40  58  81 107 136 171 206 241
#     4  10  18  28  43  59  79 110 143 171 200 239
#     4   8  13  22  37  56  76 100 132 164 190 221
#     4  10  20  31  42  59  83 107 133 170 210 241
#     4   9  16  25  38  55  76 102 130 162 197 232
#     4   9  16  26  41  58  77 103 133 164 196 231
#
# _framework density 14.645823999999999
#
# number of rings (size 3 to 8) (size 9 to 14) (size 15 to 20)
#    0.000    3.000    0.000    3.750    0.000    3.250 
#    0.000    0.000    0.000   19.875    0.000    0.000 
#    0.000    1.000    0.000    9.750    0.000    2.750 
#
# Total GULP energy -792973.915369 kJ/mol
# GULP energy per Si atom -12390.217428 kJ/mol
# Density = 1.461249 g / cm^3
# Si number density = 14.645824 Si / 1000 Ang^3
#
#
#
# Elastic Constant Matrix: (Units=GPa)
#
#
# Indices 1 2 3 4 5 6 
#
# 1 104.9948 32.2140 53.3274 0.0000 0.0000 0.0000
# 2 32.2140 51.3838 29.6488 0.0000 0.0000 0.0000
# 3 53.3274 29.6488 73.9570 0.0000 0.0000 0.0000
# 4 0.0000 0.0000 0.0000 21.9757 0.0000 0.0000
# 5 0.0000 0.0000 0.0000 0.0000 27.9813 0.0000
# 6 0.0000 0.0000 0.0000 0.0000 0.0000 18.7619
#
#
#
# Elastic Compliance Matrix: (Units=1/GPa)
#
#
# Indices 1 2 3 4 5 6 
#
# 1 0.015731 -0.004315 -0.009613 0.000000 0.000000 0.000000
# 2 -0.004315 0.026502 -0.007513 0.000000 0.000000 0.000000
# 3 -0.009613 -0.007513 0.023464 0.000000 0.000000 0.000000
# 4 0.000000 0.000000 0.000000 0.045505 0.000000 0.000000
# 5 0.000000 0.000000 0.000000 0.000000 0.035738 0.000000
# 6 0.000000 0.000000 0.000000 0.000000 0.000000 0.053300
#
#
# Mechanical properties :
#
#
# Convention : Reuss Voigt Hill
#
# Bulk Modulus (GPa) = 43.83032 51.19068 47.51050
# Shear Modulus (GPa) = 19.94209 21.42014 20.68111
#
# Velocity S-wave (km/s) = 3.69402 3.82847 3.76185
# Velocity P-wave (km/s) = 6.94163 7.38723 7.16789
#
# Compressibility (1/GPa) = 0.02281526
#
# Stress axis : x y z
#
# Youngs Moduli (GPa) = 63.57011 37.73342 42.61763
#
# Poissons Ratio (x) = 0.16284 0.40967
# Poissons Ratio (y) = 0.27433 0.32017
# Poissons Ratio (z) = 0.61108 0.28348
#
# Static dielectric constant tensor:
#      x y z
#    x 3.364340 0.000000 0.000000 
#    y 0.000000 2.815320 0.000000 
#    z 0.000000 0.000000 2.710600 
# 
# 
# High freq. dielectric constant tensor:
#      x y z
#    x 1.553910 0.000000 0.000000 
#    y 0.000000 1.553360 0.000000 
#    z 0.000000 0.000000 1.525730 
# 
# From -- ./inp_files/32335.got.cif
#   From: 2010.03.12/outbox.cif.g09.slc.cpg/sg59_17_cif.got.tgz:32335.got - 2010.04.16 16:29:54.
