data_PCOD8239437
_publ_section_title
;
Structure prediction by ZEFSAII (Michael W. Deem and Ramdas Pophale) SiO2 
 PCOD8239437
Probable space group: P M M N
;
_chemical_formula_sum "Si O2"
_cell_formula_units_Z 48
_cell_length_a 26.116189
_cell_length_b 9.000671
_cell_length_c 11.755767
_cell_angle_alpha 90.000000
_cell_angle_beta 90.000000
_cell_angle_gamma 90.000000
_cell_volume 2763.348503
_symmetry_space_group_name_H-M "P M M N"
_symmetry_group_IT_number 59
_space_group.IT_coordinate_system_code '2'
_symmetry_cell_setting 'orthorhombic'
loop_
_space_group_symop_operation_xyz
x,y,z
1/2-x,1/2-y,z
1/2+x,-y,-z
-x,1/2+y,-z
-x,-y,-z
1/2+x,1/2+y,-z
1/2-x,y,z
x,1/2-y,z
loop_
_atom_site_type_symbol
_atom_site_label
_atom_site_fract_x
_atom_site_fract_y
_atom_site_fract_z
Si Si1 0.438501 0.577727 0.799209
Si Si2 0.606388 0.574466 0.654530
Si Si3 0.552955 0.424714 0.462370
Si Si4 0.807269 0.574595 0.825530
Si Si5 0.461900 0.919522 0.171876
Si Si6 0.127436 0.583204 0.998929
O O1 0.453592 0.750000 0.816400
O O2 0.432413 0.537447 0.667127
O O3 0.481350 0.474401 0.857393
O O4 0.385070 0.544726 0.866792
O O5 0.606331 0.750000 0.635092
O O6 0.600671 0.491218 0.534214
O O7 0.657761 0.519323 0.719961
O O8 0.557332 0.528100 0.728341
O O9 0.500000 0.500000 0.500000
O O10 0.547954 0.250000 0.483305
O O11 0.750000 0.511520 0.808317
O O12 0.807105 0.750000 0.829214
O O13 0.829538 0.521728 0.946753
O O14 0.462587 0.750000 0.216288
O O15 0.426760 0.935696 0.061866
O O16 0.148503 0.750000 0.011708
#
# Coordination Sequence:
#
# PCOD8239437 Si02
#       6
#     8   8   8   8   8   8
#     4  10  20  32  46  66 100 138 167 198 242 291
#     4  10  19  32  50  72 100 132 167 208 252 295
#     4  11  21  32  48  70 101 139 175 207 240 290
#     4   9  19  36  57  78  98 123 159 208 263 308
#     4  10  18  28  46  70  98 130 167 205 238 288
#     4   9  19  33  48  72 100 128 163 202 248 299
#
# _framework density 17.370228999999998
#
# number of rings (size 3 to 8) (size 9 to 14) (size 15 to 20)
#    0.000    2.167    1.667    2.000    0.000    3.000 
#    0.000    0.000    0.000    1.000    0.000    4.667 
#    0.000    0.000    0.000    0.000    0.000    0.000 
#
# Total GULP energy -595074.839825 kJ/mol
# GULP energy per Si atom -12397.392496 kJ/mol
# Density = 1.733069 g / cm^3
# Si number density = 17.370229 Si / 1000 Ang^3
#
#
#
# Elastic Constant Matrix: (Units=GPa)
#
#
# Indices 1 2 3 4 5 6 
#
# 1 97.6001 33.0111 47.9769 0.0000 0.0000 0.0000
# 2 33.0111 56.5708 35.0585 0.0000 0.0000 0.0000
# 3 47.9769 35.0585 104.3217 0.0000 0.0000 0.0000
# 4 0.0000 0.0000 0.0000 26.2372 0.0000 0.0000
# 5 0.0000 0.0000 0.0000 0.0000 16.7842 0.0000
# 6 0.0000 0.0000 0.0000 0.0000 0.0000 21.5016
#
#
#
# Elastic Compliance Matrix: (Units=1/GPa)
#
#
# Indices 1 2 3 4 5 6 
#
# 1 0.014458 -0.005451 -0.004817 0.000000 0.000000 0.000000
# 2 -0.005451 0.024382 -0.005687 0.000000 0.000000 0.000000
# 3 -0.004817 -0.005687 0.013712 0.000000 0.000000 0.000000
# 4 0.000000 0.000000 0.000000 0.038114 0.000000 0.000000
# 5 0.000000 0.000000 0.000000 0.000000 0.059580 0.000000
# 6 0.000000 0.000000 0.000000 0.000000 0.000000 0.046508
#
#
# Mechanical properties :
#
#
# Convention : Reuss Voigt Hill
#
# Bulk Modulus (GPa) = 48.44570 54.50952 51.47761
# Shear Modulus (GPa) = 21.22738 22.40100 21.81419
#
# Velocity S-wave (km/s) = 3.49958 3.59502 3.54762
# Velocity P-wave (km/s) = 6.65433 6.97721 6.81768
#
# Compressibility (1/GPa) = 0.02064167
#
# Stress axis : x y z
#
# Youngs Moduli (GPa) = 69.16811 41.01326 72.92785
#
# Poissons Ratio (x) = 0.22358 0.35129
# Poissons Ratio (y) = 0.37706 0.41474
# Poissons Ratio (z) = 0.33318 0.23324
#
# Static dielectric constant tensor:
#      x y z
#    x 3.153020 0.000000 0.000000 
#    y 0.000000 3.244470 0.000000 
#    z 0.000000 0.000000 3.456650 
# 
# 
# High freq. dielectric constant tensor:
#      x y z
#    x 1.635510 0.000000 0.000000 
#    y 0.000000 1.675870 0.000000 
#    z 0.000000 0.000000 1.672070 
# 
# From -- ./inp_files/14376.got.cif
#   From: 2010.03.12/outbox.cif.g09.slc.cpg/sg59_8_cif.got.tgz:14376.got - 2010.04.16 16:29:54.
