data_PCOD8239055
_publ_section_title
;
Structure prediction by ZEFSAII (Michael W. Deem and Ramdas Pophale) SiO2 
 PCOD8239055
Probable space group: P M M N
;
_chemical_formula_sum "Si O2"
_cell_formula_units_Z 56
_cell_length_a 22.277863
_cell_length_b 9.014973
_cell_length_c 17.723446
_cell_angle_alpha 90.000000
_cell_angle_beta 90.000000
_cell_angle_gamma 90.000000
_cell_volume 3559.476464
_symmetry_space_group_name_H-M "P M M N"
_symmetry_group_IT_number 59
_space_group.IT_coordinate_system_code '2'
_symmetry_cell_setting 'orthorhombic'
loop_
_space_group_symop_operation_xyz
x,y,z
1/2-x,1/2-y,z
1/2+x,-y,-z
-x,1/2+y,-z
-x,-y,-z
1/2+x,1/2+y,-z
1/2-x,y,z
x,1/2-y,z
loop_
_atom_site_type_symbol
_atom_site_label
_atom_site_fract_x
_atom_site_fract_y
_atom_site_fract_z
Si Si1 0.104240 0.423494 0.378707
Si Si2 0.320734 0.921022 0.252609
Si Si3 0.562403 0.077188 0.484567
Si Si4 0.601908 0.575086 0.866802
Si Si5 0.477782 0.423034 0.822921
Si Si6 0.559736 0.919768 0.020900
Si Si7 0.529974 0.418798 0.323644
O O1 0.116353 0.250000 0.387171
O O2 0.153401 0.493453 0.324364
O O3 0.111645 0.498994 0.461702
O O4 0.038381 0.457731 0.346013
O O5 0.250000 0.939828 0.253457
O O6 0.340448 0.750000 0.256485
O O7 0.344469 0.992170 0.175122
O O8 0.557860 0.250000 0.505130
O O9 0.574847 0.056060 0.394911
O O10 0.500000 0.000000 0.500000
O O11 0.605659 0.750000 0.849177
O O12 0.538212 0.516108 0.836648
O O13 0.609830 0.539347 0.957433
O O14 0.494396 0.250000 0.818274
O O15 0.428129 0.452718 0.890072
O O16 0.448462 0.475809 0.744428
O O17 0.544205 0.750000 0.009742
O O18 0.500000 0.000000 0.000000
O O19 0.533776 0.250000 0.295831
#
# Coordination Sequence:
#
# PCOD8239055 Si02
#       7
#     8   8   8   8   8   8   8
#     4  10  19  31  46  62  84 113 146 183 223 262
#     4  11  23  35  47  64  85 112 150 190 224 261
#     4   9  17  28  42  60  85 115 148 180 214 259
#     4  10  18  30  45  59  83 114 146 183 220 258
#     4  10  17  25  41  63  88 117 147 176 211 256
#     4   8  16  27  39  59  83 111 144 176 211 255
#     4   9  17  27  40  62  89 117 146 176 212 256
#
# _framework density 15.73265
#
# number of rings (size 3 to 8) (size 9 to 14) (size 15 to 20)
#    0.000    2.429    1.429    3.000    0.000    5.143 
#    0.000    0.000    0.000    0.000    0.000    0.000 
#    0.000    1.143    0.000    7.429    0.000    5.571 
#
# Total GULP energy -693763.327640 kJ/mol
# GULP energy per Si atom -12388.630851 kJ/mol
# Density = 1.569684 g / cm^3
# Si number density = 15.732650 Si / 1000 Ang^3
#
#
#
# Elastic Constant Matrix: (Units=GPa)
#
#
# Indices 1 2 3 4 5 6 
#
# 1 34.8816 29.5758 37.8980 0.0000 0.0000 0.0000
# 2 29.5758 96.6543 67.6352 0.0000 0.0000 0.0000
# 3 37.8980 67.6352 144.9138 0.0000 0.0000 0.0000
# 4 0.0000 0.0000 0.0000 29.8388 0.0000 0.0000
# 5 0.0000 0.0000 0.0000 0.0000 16.5970 0.0000
# 6 0.0000 0.0000 0.0000 0.0000 0.0000 15.5217
#
#
#
# Elastic Compliance Matrix: (Units=1/GPa)
#
#
# Indices 1 2 3 4 5 6 
#
# 1 0.043861 -0.008011 -0.007732 0.000000 0.000000 0.000000
# 2 -0.008011 0.016827 -0.005759 0.000000 0.000000 0.000000
# 3 -0.007732 -0.005759 0.011610 0.000000 0.000000 0.000000
# 4 0.000000 0.000000 0.000000 0.033513 0.000000 0.000000
# 5 0.000000 0.000000 0.000000 0.000000 0.060252 0.000000
# 6 0.000000 0.000000 0.000000 0.000000 0.000000 0.064426
#
#
# Mechanical properties :
#
#
# Convention : Reuss Voigt Hill
#
# Bulk Modulus (GPa) = 34.13425 60.74085 47.43755
# Shear Modulus (GPa) = 17.65176 21.81422 19.73299
#
# Velocity S-wave (km/s) = 3.35324 3.72769 3.54541
# Velocity P-wave (km/s) = 6.06101 7.56436 6.85403
#
# Compressibility (1/GPa) = 0.02929609
#
# Stress axis : x y z
#
# Youngs Moduli (GPa) = 22.79922 59.42768 86.12995
#
# Poissons Ratio (x) = 0.47607 0.66593
# Poissons Ratio (y) = 0.18264 0.49599
# Poissons Ratio (z) = 0.17628 0.34222
#
# Static dielectric constant tensor:
#      x y z
#    x 2.467500 0.000000 0.000000 
#    y 0.000000 3.121080 0.000000 
#    z 0.000000 0.000000 3.782030 
# 
# 
# High freq. dielectric constant tensor:
#      x y z
#    x 1.522870 0.000000 0.000000 
#    y 0.000000 1.623830 0.000000 
#    z 0.000000 0.000000 1.626830 
# 
# From -- ./inp_files/28359.got.cif
#   From: 2010.03.12/outbox.cif.g09.slc.cpg/sg59_15_cif.got.tgz:28359.got - 2010.04.16 16:29:54.
