data_PCOD8239721
_publ_section_title
;
Structure prediction by ZEFSAII (Michael W. Deem and Ramdas Pophale) SiO2 
 PCOD8239721
Probable space group: P M M N
;
_chemical_formula_sum "Si O2"
_cell_formula_units_Z 64
_cell_length_a 23.750789
_cell_length_b 9.352247
_cell_length_c 15.068083
_cell_angle_alpha 90.000000
_cell_angle_beta 90.000000
_cell_angle_gamma 90.000000
_cell_volume 3346.971494
_symmetry_space_group_name_H-M "P M M N"
_symmetry_group_IT_number 59
_space_group.IT_coordinate_system_code '2'
_symmetry_cell_setting 'orthorhombic'
loop_
_space_group_symop_operation_xyz
x,y,z
1/2-x,1/2-y,z
1/2+x,-y,-z
-x,1/2+y,-z
-x,-y,-z
1/2+x,1/2+y,-z
1/2-x,y,z
x,1/2-y,z
loop_
_atom_site_type_symbol
_atom_site_label
_atom_site_fract_x
_atom_site_fract_y
_atom_site_fract_z
Si Si1 0.315404 0.416790 0.988535
Si Si2 0.848567 0.410116 0.539332
Si Si3 0.810989 0.418242 0.718907
Si Si4 0.184950 0.582091 0.648371
Si Si5 0.610027 0.079767 0.871427
Si Si6 0.001056 0.082532 0.779163
Si Si7 0.627568 0.585203 0.196513
Si Si8 0.522033 0.089462 0.582211
O O1 0.250000 0.466721 0.001557
O O2 0.321114 0.250000 0.011920
O O3 0.360903 0.504172 0.045261
O O4 0.333733 0.447127 0.887915
O O5 0.824901 0.250000 0.525702
O O6 0.815377 0.486986 0.620273
O O7 0.837290 0.485527 0.444904
O O8 0.911787 0.408245 0.572107
O O9 0.750000 0.453304 0.759578
O O10 0.821435 0.250000 0.708146
O O11 0.856665 0.478895 0.785933
O O12 0.250000 0.543660 0.660527
O O13 0.173359 0.750000 0.655253
O O14 0.149060 0.509313 0.723868
O O15 0.615179 0.250000 0.886025
O O16 0.545784 0.028828 0.851070
O O17 0.990509 0.250000 0.768523
O O18 0.994084 0.019906 0.678510
O O19 0.061960 0.044601 0.820111
O O20 0.632021 0.750000 0.224410
O O21 0.497097 0.250000 0.575457
O O22 0.500000 0.000000 0.500000
#
# Coordination Sequence:
#
# PCOD8239721 Si02
#       8
#     8   8   8   8   8   8   8   8
#     4  10  22  39  56  76 104 139 179 222 272 329
#     4   9  16  28  46  71 104 138 169 206 260 316
#     4   9  15  25  46  75 103 132 167 204 248 309
#     4  10  20  33  51  78 109 138 175 228 276 308
#     4  10  19  34  57  84 109 135 173 222 268 314
#     4   9  18  34  55  80 110 140 177 223 265 311
#     4  10  21  38  58  76 102 146 187 217 262 326
#     4  10  18  30  49  73 104 141 177 216 257 304
#
# _framework density 19.121765
#
# number of rings (size 3 to 8) (size 9 to 14) (size 15 to 20)
#    0.000    2.375    1.250    1.875    0.000    4.000 
#    0.000    1.250    0.000    0.750    0.000    0.000 
#    0.000    0.000    0.000    0.000    0.000    0.000 
#
# Total GULP energy -793055.218306 kJ/mol
# GULP energy per Si atom -12391.487786 kJ/mol
# Density = 1.907824 g / cm^3
# Si number density = 19.121765 Si / 1000 Ang^3
#
#
#
# Elastic Constant Matrix: (Units=GPa)
#
#
# Indices 1 2 3 4 5 6 
#
# 1 104.3154 22.4819 35.8282 0.0000 0.0000 0.0000
# 2 22.4819 27.5296 21.8459 0.0000 0.0000 0.0000
# 3 35.8282 21.8459 77.2726 0.0000 0.0000 0.0000
# 4 0.0000 0.0000 0.0000 19.2737 0.0000 0.0000
# 5 0.0000 0.0000 0.0000 0.0000 39.0093 0.0000
# 6 0.0000 0.0000 0.0000 0.0000 0.0000 18.6145
#
#
#
# Elastic Compliance Matrix: (Units=1/GPa)
#
#
# Indices 1 2 3 4 5 6 
#
# 1 0.012414 -0.007181 -0.003725 0.000000 0.000000 0.000000
# 2 -0.007181 0.050985 -0.011085 0.000000 0.000000 0.000000
# 3 -0.003725 -0.011085 0.017802 0.000000 0.000000 0.000000
# 4 0.000000 0.000000 0.000000 0.051884 0.000000 0.000000
# 5 0.000000 0.000000 0.000000 0.000000 0.025635 0.000000
# 6 0.000000 0.000000 0.000000 0.000000 0.000000 0.053722
#
#
# Mechanical properties :
#
#
# Convention : Reuss Voigt Hill
#
# Bulk Modulus (GPa) = 26.86826 41.04774 33.95800
# Shear Modulus (GPa) = 18.59913 23.97694 21.28803
#
# Velocity S-wave (km/s) = 3.12215 3.54490 3.34022
# Velocity P-wave (km/s) = 5.20372 6.18613 5.71607
#
# Compressibility (1/GPa) = 0.03721863
#
# Stress axis : x y z
#
# Youngs Moduli (GPa) = 80.55730 19.61360 56.17265
#
# Poissons Ratio (x) = 0.14085 0.20927
# Poissons Ratio (y) = 0.57849 0.62265
# Poissons Ratio (z) = 0.30011 0.21741
#
# Static dielectric constant tensor:
#      x y z
#    x 5.638750 0.000000 0.000000 
#    y 0.000000 2.979430 0.000000 
#    z 0.000000 0.000000 3.630850 
# 
# 
# High freq. dielectric constant tensor:
#      x y z
#    x 1.760410 0.000000 0.000000 
#    y 0.000000 1.686100 0.000000 
#    z 0.000000 0.000000 1.754380 
# 
# From -- ./inp_files/24646.got.cif
#   From: 2010.03.12/outbox.cif.g09.slc.cpg/sg59_13_cif.got.tgz:24646.got - 2010.04.16 16:29:54.
