data_PCOD8239842
_publ_section_title
;
Structure prediction by ZEFSAII (Michael W. Deem and Ramdas Pophale) SiO2 
 PCOD8239842
Probable space group: P M M N
;
_chemical_formula_sum "Si O2"
_cell_formula_units_Z 56
_cell_length_a 10.325140
_cell_length_b 18.321918
_cell_length_c 16.257704
_cell_angle_alpha 90.000000
_cell_angle_beta 90.000000
_cell_angle_gamma 90.000000
_cell_volume 3075.573402
_symmetry_space_group_name_H-M "P M M N"
_symmetry_group_IT_number 59
_space_group.IT_coordinate_system_code '2'
_symmetry_cell_setting 'orthorhombic'
loop_
_space_group_symop_operation_xyz
x,y,z
1/2-x,1/2-y,z
1/2+x,-y,-z
-x,1/2+y,-z
-x,-y,-z
1/2+x,1/2+y,-z
1/2-x,y,z
x,1/2-y,z
loop_
_atom_site_type_symbol
_atom_site_label
_atom_site_fract_x
_atom_site_fract_y
_atom_site_fract_z
Si Si1 0.894279 0.522200 0.065276
Si Si2 0.099723 0.546758 0.756811
Si Si3 0.609488 0.168880 0.733083
Si Si4 0.530476 0.453285 0.620252
Si Si5 0.903020 0.665884 0.700557
Si Si6 0.390784 0.405001 0.462107
Si Si7 0.893468 0.830670 0.137477
O O1 0.750000 0.496595 0.037847
O O2 0.925639 0.491886 0.155873
O O3 0.900519 0.610348 0.065114
O O4 0.000000 0.500000 0.000000
O O5 0.250000 0.572637 0.749495
O O6 0.073735 0.489298 0.682925
O O7 0.999469 0.615043 0.754153
O O8 0.750000 0.168268 0.777595
O O9 0.582422 0.250000 0.696423
O O10 0.616707 0.107809 0.663354
O O11 0.497624 0.147129 0.795224
O O12 0.471996 0.408486 0.544398
O O13 0.618985 0.517067 0.584085
O O14 0.750000 0.645099 0.714411
O O15 0.927443 0.750000 0.724640
O O16 0.942116 0.653926 0.604569
O O17 0.250000 0.380905 0.491211
O O18 0.750000 0.833325 0.178379
O O19 0.921956 0.750000 0.100934
#
# Coordination Sequence:
#
# PCOD8239842 Si02
#       7
#     8   8   8   8   8   8   8
#     4  10  21  37  56  84 114 141 178 224 271 325
#     4  10  20  35  56  81 108 140 181 226 270 324
#     4  10  20  32  49  76 107 138 174 216 263 318
#     4  10  18  31  50  73 106 142 180 221 271 322
#     4   9  19  36  55  78 109 143 183 228 273 321
#     4   9  18  30  48  72 100 140 185 226 267 314
#     4   9  18  35  57  79 107 140 172 212 262 316
#
# _framework density 18.207986999999999
#
# number of rings (size 3 to 8) (size 9 to 14) (size 15 to 20)
#    0.000    2.429    1.429    0.857    0.000    3.143 
#    0.000    1.429    0.000    2.571    0.000    0.000 
#    0.000    0.000    0.000    0.000    0.000    0.000 
#
# Total GULP energy -693769.449358 kJ/mol
# GULP energy per Si atom -12388.740167 kJ/mol
# Density = 1.816654 g / cm^3
# Si number density = 18.207987 Si / 1000 Ang^3
#
#
#
# Elastic Constant Matrix: (Units=GPa)
#
#
# Indices 1 2 3 4 5 6 
#
# 1 111.1584 44.1350 49.7508 0.0000 0.0000 0.0000
# 2 44.1350 89.4179 28.8802 0.0000 0.0000 0.0000
# 3 49.7508 28.8802 74.7514 0.0000 0.0000 0.0000
# 4 0.0000 0.0000 0.0000 18.7276 0.0000 0.0000
# 5 0.0000 0.0000 0.0000 0.0000 9.1531 0.0000
# 6 0.0000 0.0000 0.0000 0.0000 0.0000 18.5260
#
#
#
# Elastic Compliance Matrix: (Units=1/GPa)
#
#
# Indices 1 2 3 4 5 6 
#
# 1 0.014262 -0.004540 -0.007738 0.000000 0.000000 0.000000
# 2 -0.004540 0.014223 -0.002473 0.000000 0.000000 0.000000
# 3 -0.007738 -0.002473 0.019483 0.000000 0.000000 0.000000
# 4 0.000000 0.000000 0.000000 0.053397 0.000000 0.000000
# 5 0.000000 0.000000 0.000000 0.000000 0.109253 0.000000
# 6 0.000000 0.000000 0.000000 0.000000 0.000000 0.053978
#
#
# Mechanical properties :
#
#
# Convention : Reuss Voigt Hill
#
# Bulk Modulus (GPa) = 54.15546 57.87329 56.01438
# Shear Modulus (GPa) = 16.65248 19.45212 18.05230
#
# Velocity S-wave (km/s) = 3.02747 3.27208 3.15215
# Velocity P-wave (km/s) = 6.48290 6.79182 6.63916
#
# Compressibility (1/GPa) = 0.01846536
#
# Stress axis : x y z
#
# Youngs Moduli (GPa) = 70.11556 70.30716 51.32595
#
# Poissons Ratio (x) = 0.31922 0.39716
# Poissons Ratio (y) = 0.31835 0.12695
# Poissons Ratio (z) = 0.54256 0.17390
#
# Static dielectric constant tensor:
#      x y z
#    x 3.300500 0.000000 0.000000 
#    y 0.000000 3.498000 0.000000 
#    z 0.000000 0.000000 3.069030 
# 
# 
# High freq. dielectric constant tensor:
#      x y z
#    x 1.712580 0.000000 0.000000 
#    y 0.000000 1.710360 0.000000 
#    z 0.000000 0.000000 1.672820 
# 
# From -- ./inp_files/26107.got.cif
#   From: 2010.03.12/outbox.cif.g09.slc.cpg/sg59_14_cif.got.tgz:26107.got - 2010.04.16 16:29:54.
