data_PCOD8239045
_publ_section_title
;
Structure prediction by ZEFSAII (Michael W. Deem and Ramdas Pophale) SiO2 
 PCOD8239045
Probable space group: P M M N
;
_chemical_formula_sum "Si O2"
_cell_formula_units_Z 64
_cell_length_a 9.190786
_cell_length_b 22.423960
_cell_length_c 20.160982
_cell_angle_alpha 90.000000
_cell_angle_beta 90.000000
_cell_angle_gamma 90.000000
_cell_volume 4155.053748
_symmetry_space_group_name_H-M "P M M N"
_symmetry_group_IT_number 59
_space_group.IT_coordinate_system_code '2'
_symmetry_cell_setting 'orthorhombic'
loop_
_space_group_symop_operation_xyz
x,y,z
1/2-x,1/2-y,z
1/2+x,-y,-z
-x,1/2+y,-z
-x,-y,-z
1/2+x,1/2+y,-z
1/2-x,y,z
x,1/2-y,z
loop_
_atom_site_type_symbol
_atom_site_label
_atom_site_fract_x
_atom_site_fract_y
_atom_site_fract_z
Si Si1 0.085042 0.091346 0.383696
Si Si2 0.919314 0.108125 0.255968
Si Si3 0.582385 0.529626 0.227321
Si Si4 0.578200 0.315990 0.131993
Si Si5 0.920841 0.062548 0.505145
Si Si6 0.917777 0.419611 0.040036
Si Si7 0.411254 0.952155 0.351439
Si Si8 0.081878 0.530595 0.098288
O O1 0.250000 0.114410 0.391149
O O2 0.009002 0.124433 0.321964
O O3 0.995967 0.106556 0.451423
O O4 0.078905 0.021183 0.370916
O O5 0.750000 0.117979 0.271494
O O6 0.978494 0.151409 0.198326
O O7 0.947490 0.040746 0.232168
O O8 0.750000 0.545431 0.219628
O O9 0.524648 0.563095 0.293324
O O10 0.499192 0.555203 0.163222
O O11 0.750000 0.310520 0.137023
O O12 0.507899 0.250000 0.125986
O O13 0.535861 0.354541 0.066961
O O14 0.750000 0.055090 0.488699
O O15 0.942909 0.085801 0.581151
O O16 0.000000 0.000000 0.500000
O O17 0.750000 0.433948 0.059105
O O18 0.017204 0.467717 0.075969
O O19 0.939709 0.421247 0.960710
O O20 0.250000 0.937462 0.324733
O O21 0.250000 0.520952 0.115441
#
# Coordination Sequence:
#
# PCOD8239045 Si02
#       8
#     8   8   8   8   8   8   8   8
#     4   9  16  24  35  50  70  98 130 164 195 228
#     4   9  16  26  39  55  74  98 130 167 201 238
#     4  10  17  25  38  55  77 103 133 167 198 237
#     4   9  16  28  46  63  79 101 132 172 211 246
#     4   9  15  23  34  49  70  97 129 163 193 227
#     4   9  17  30  43  60  79  99 132 166 202 248
#     4   8  15  24  33  49  73  99 129 160 194 232
#     4  10  18  26  41  59  80 105 129 165 205 242
#
# _framework density 15.402929
#
# number of rings (size 3 to 8) (size 9 to 14) (size 15 to 20)
#    0.000    2.875    1.250    2.250    0.000    4.500 
#    0.000    0.000    0.000    1.500    0.000    0.000 
#    0.000    0.000    0.000    1.125    0.000   23.625 
#
# Total GULP energy -793183.296208 kJ/mol
# GULP energy per Si atom -12393.489003 kJ/mol
# Density = 1.536787 g / cm^3
# Si number density = 15.402929 Si / 1000 Ang^3
#
#
#
# Elastic Constant Matrix: (Units=GPa)
#
#
# Indices 1 2 3 4 5 6 
#
# 1 96.4800 17.9042 70.5262 0.0000 0.0000 0.0000
# 2 17.9042 41.5130 37.0920 0.0000 0.0000 0.0000
# 3 70.5262 37.0920 143.0149 0.0000 0.0000 0.0000
# 4 0.0000 0.0000 0.0000 11.7470 0.0000 0.0000
# 5 0.0000 0.0000 0.0000 0.0000 30.1005 0.0000
# 6 0.0000 0.0000 0.0000 0.0000 0.0000 6.9169
#
#
#
# Elastic Compliance Matrix: (Units=1/GPa)
#
#
# Indices 1 2 3 4 5 6 
#
# 1 0.016208 0.000197 -0.008044 0.000000 0.000000 0.000000
# 2 0.000197 0.031357 -0.008230 0.000000 0.000000 0.000000
# 3 -0.008044 -0.008230 0.013094 0.000000 0.000000 0.000000
# 4 0.000000 0.000000 0.000000 0.085128 0.000000 0.000000
# 5 0.000000 0.000000 0.000000 0.000000 0.033222 0.000000
# 6 0.000000 0.000000 0.000000 0.000000 0.000000 0.144574
#
#
# Mechanical properties :
#
#
# Convention : Reuss Voigt Hill
#
# Bulk Modulus (GPa) = 35.08123 59.11694 47.09909
# Shear Modulus (GPa) = 13.68964 20.11857 16.90411
#
# Velocity S-wave (km/s) = 2.98446 3.61799 3.31639
# Velocity P-wave (km/s) = 5.89076 7.47775 6.73119
#
# Compressibility (1/GPa) = 0.02850527
#
# Stress axis : x y z
#
# Youngs Moduli (GPa) = 61.69610 31.89047 76.37320
#
# Poissons Ratio (x) = -0.00628 0.61435
# Poissons Ratio (y) = -0.01214 0.62854
# Poissons Ratio (z) = 0.49629 0.26245
#
# Static dielectric constant tensor:
#      x y z
#    x 3.000400 0.000000 0.000000 
#    y 0.000000 2.496050 0.000000 
#    z 0.000000 0.000000 3.437360 
# 
# 
# High freq. dielectric constant tensor:
#      x y z
#    x 1.593120 0.000000 0.000000 
#    y 0.000000 1.505570 0.000000 
#    z 0.000000 0.000000 1.609990 
# 
# From -- ./inp_files/29819.got.cif
#   From: 2010.03.12/outbox.cif.g09.slc.cpg/sg59_15_cif.got.tgz:29819.got - 2010.04.16 16:29:54.
