data_PCOD8239650
_publ_section_title
;
Structure prediction by ZEFSAII (Michael W. Deem and Ramdas Pophale) SiO2 
 PCOD8239650
Probable space group: P M M N
;
_chemical_formula_sum "Si O2"
_cell_formula_units_Z 64
_cell_length_a 18.891743
_cell_length_b 13.962630
_cell_length_c 15.366267
_cell_angle_alpha 90.000000
_cell_angle_beta 90.000000
_cell_angle_gamma 90.000000
_cell_volume 4053.289593
_symmetry_space_group_name_H-M "P M M N"
_symmetry_group_IT_number 59
_space_group.IT_coordinate_system_code '2'
_symmetry_cell_setting 'orthorhombic'
loop_
_space_group_symop_operation_xyz
x,y,z
1/2-x,1/2-y,z
1/2+x,-y,-z
-x,1/2+y,-z
-x,-y,-z
1/2+x,1/2+y,-z
1/2-x,y,z
x,1/2-y,z
loop_
_atom_site_type_symbol
_atom_site_label
_atom_site_fract_x
_atom_site_fract_y
_atom_site_fract_z
Si Si1 0.110485 0.857256 0.440724
Si Si2 0.666738 0.646097 0.996549
Si Si3 0.330561 0.364447 0.815433
Si Si4 0.950362 0.639632 0.492226
Si Si5 0.421616 0.471936 0.334617
Si Si6 0.168196 0.136219 0.192084
Si Si7 0.920718 0.972472 0.324055
Si Si8 0.329903 0.857806 0.621246
O O1 0.115749 0.750000 0.401450
O O2 0.166887 0.873687 0.517134
O O3 0.034133 0.875512 0.484665
O O4 0.122485 0.933558 0.363803
O O5 0.750000 0.662455 0.994799
O O6 0.629359 0.750000 0.997337
O O7 0.648187 0.593545 0.088038
O O8 0.646444 0.595923 0.904637
O O9 0.250000 0.395094 0.790758
O O10 0.335856 0.250000 0.816465
O O11 0.387207 0.405014 0.748618
O O12 0.927988 0.750000 0.484033
O O13 0.926696 0.601024 0.585258
O O14 0.911417 0.580476 0.416549
O O15 0.380934 0.419902 0.258228
O O16 0.498001 0.506604 0.300718
O O17 0.250000 0.113546 0.213334
O O18 0.154622 0.250000 0.198269
O O19 0.879765 0.072552 0.324595
O O20 0.250000 0.875956 0.651475
O O21 0.354817 0.750000 0.643224
#
# Coordination Sequence:
#
# PCOD8239650 Si02
#       8
#     8   8   8   8   8   8   8   8
#     4   9  17  31  45  58  82 120 162 192 213 252
#     4   7  12  27  49  69  91 120 150 181 223 281
#     4   9  17  30  50  74  98 123 150 184 231 282
#     4  10  18  30  46  64  91 123 154 182 222 279
#     4  11  19  30  46  69  92 124 154 186 232 277
#     4   9  18  32  50  72  94 116 149 192 237 285
#     4  11  19  31  44  69  95 124 153 191 229 277
#     4  10  19  30  44  60  83 120 162 199 224 249
#
# _framework density 15.789645
#
# number of rings (size 3 to 8) (size 9 to 14) (size 15 to 20)
#    0.000    2.500    2.500    3.375    0.000    1.500 
#    0.000    0.625    0.000    2.250    0.000    0.875 
#    0.000    3.000    0.000    0.000    0.000    0.000 
#
# Total GULP energy -793112.886710 kJ/mol
# GULP energy per Si atom -12392.388855 kJ/mol
# Density = 1.575371 g / cm^3
# Si number density = 15.789645 Si / 1000 Ang^3
#
#
#
# Elastic Constant Matrix: (Units=GPa)
#
#
# Indices 1 2 3 4 5 6 
#
# 1 46.2946 22.7795 37.3565 0.0000 0.0000 0.0000
# 2 22.7795 63.7635 28.5327 0.0000 0.0000 0.0000
# 3 37.3565 28.5327 106.2948 0.0000 0.0000 0.0000
# 4 0.0000 0.0000 0.0000 13.2110 0.0000 0.0000
# 5 0.0000 0.0000 0.0000 0.0000 19.2704 0.0000
# 6 0.0000 0.0000 0.0000 0.0000 0.0000 22.8525
#
#
#
# Elastic Compliance Matrix: (Units=1/GPa)
#
#
# Indices 1 2 3 4 5 6 
#
# 1 0.033039 -0.007509 -0.009595 0.000000 0.000000 0.000000
# 2 -0.007509 0.019531 -0.002604 0.000000 0.000000 0.000000
# 3 -0.009595 -0.002604 0.013479 0.000000 0.000000 0.000000
# 4 0.000000 0.000000 0.000000 0.075695 0.000000 0.000000
# 5 0.000000 0.000000 0.000000 0.000000 0.051893 0.000000
# 6 0.000000 0.000000 0.000000 0.000000 0.000000 0.043759
#
#
# Mechanical properties :
#
#
# Convention : Reuss Voigt Hill
#
# Bulk Modulus (GPa) = 37.54928 43.74336 40.64632
# Shear Modulus (GPa) = 17.50156 19.57904 18.54030
#
# Velocity S-wave (km/s) = 3.33291 3.52517 3.43039
# Velocity P-wave (km/s) = 6.21640 6.65831 6.44114
#
# Compressibility (1/GPa) = 0.02663167
#
# Stress axis : x y z
#
# Youngs Moduli (GPa) = 30.26758 51.20150 74.18998
#
# Poissons Ratio (x) = 0.38449 0.71189
# Poissons Ratio (y) = 0.22729 0.19316
# Poissons Ratio (z) = 0.29043 0.13331
#
# Static dielectric constant tensor:
#      x y z
#    x 2.825640 0.000000 0.000000 
#    y 0.000000 3.018940 0.000000 
#    z 0.000000 0.000000 3.117150 
# 
# 
# High freq. dielectric constant tensor:
#      x y z
#    x 1.585720 0.000000 0.000000 
#    y 0.000000 1.599170 0.000000 
#    z 0.000000 0.000000 1.595310 
# 
# From -- ./inp_files/24036.got.cif
#   From: 2010.03.12/outbox.cif.g09.slc.cpg/sg59_13_cif.got.tgz:24036.got - 2010.04.16 16:29:54.
