data_PCOD8239203
_publ_section_title
;
Structure prediction by ZEFSAII (Michael W. Deem and Ramdas Pophale) SiO2 
 PCOD8239203
Probable space group: P M M N
;
_chemical_formula_sum "Si O2"
_cell_formula_units_Z 64
_cell_length_a 9.040253
_cell_length_b 24.034322
_cell_length_c 15.484871
_cell_angle_alpha 90.000000
_cell_angle_beta 90.000000
_cell_angle_gamma 90.000000
_cell_volume 3364.496275
_symmetry_space_group_name_H-M "P M M N"
_symmetry_group_IT_number 59
_space_group.IT_coordinate_system_code '2'
_symmetry_cell_setting 'orthorhombic'
loop_
_space_group_symop_operation_xyz
x,y,z
1/2-x,1/2-y,z
1/2+x,-y,-z
-x,1/2+y,-z
-x,-y,-z
1/2+x,1/2+y,-z
1/2-x,y,z
x,1/2-y,z
loop_
_atom_site_type_symbol
_atom_site_label
_atom_site_fract_x
_atom_site_fract_y
_atom_site_fract_z
Si Si1 0.425080 0.500537 0.349005
Si Si2 0.077001 0.613822 0.094198
Si Si3 0.074531 0.881795 0.413794
Si Si4 0.575194 0.617759 0.587324
Si Si5 0.573713 0.187608 0.751081
Si Si6 0.576548 0.383574 0.099265
Si Si7 0.577613 0.814714 0.755208
Si Si8 0.074256 0.495179 0.153051
O O1 0.250000 0.502693 0.346903
O O2 0.485523 0.555664 0.396195
O O3 0.480464 0.445488 0.398230
O O4 0.482248 0.498630 0.251261
O O5 0.250000 0.610839 0.112953
O O6 0.007439 0.655263 0.165598
O O7 0.017380 0.550937 0.105526
O O8 0.042929 0.636679 0.998533
O O9 0.250000 0.880397 0.423253
O O10 0.020291 0.842744 0.335916
O O11 0.002592 0.858836 0.501662
O O12 0.750000 0.621351 0.575264
O O13 0.523716 0.654832 0.668331
O O14 0.750000 0.188502 0.754665
O O15 0.509493 0.250000 0.751660
O O16 0.750000 0.388681 0.116605
O O17 0.509667 0.338100 0.163111
O O18 0.504043 0.443563 0.108533
O O19 0.750000 0.826458 0.770935
O O20 0.542029 0.750000 0.745246
O O21 0.250000 0.486526 0.147206
#
# Coordination Sequence:
#
# PCOD8239203 Si02
#       8
#     8   8   8   8   8   8   8   8
#     4   9  16  30  54  77 101 136 178 217 258 312
#     4   9  18  32  53  80 110 145 181 217 266 321
#     4  10  19  32  53  81 107 135 173 219 268 318
#     4  10  20  35  54  77 103 136 177 220 266 319
#     4   9  17  31  52  77 105 139 180 219 258 315
#     4  11  22  34  53  86 117 138 170 225 284 323
#     4  10  22  41  61  77 100 145 196 226 256 318
#     4  10  17  33  58  78 105 147 186 217 257 324
#
# _framework density 19.022164
#
# number of rings (size 3 to 8) (size 9 to 14) (size 15 to 20)
#    0.000    2.250    2.500    1.125    0.000    1.750 
#    0.000    2.500    0.000    1.500    0.000    0.000 
#    0.000    0.000    0.000    0.000    0.000    0.000 
#
# Total GULP energy -793578.803015 kJ/mol
# GULP energy per Si atom -12399.668797 kJ/mol
# Density = 1.897887 g / cm^3
# Si number density = 19.022164 Si / 1000 Ang^3
#
#
#
# Elastic Constant Matrix: (Units=GPa)
#
#
# Indices 1 2 3 4 5 6 
#
# 1 33.5666 29.8963 40.4132 0.0000 0.0000 0.0000
# 2 29.8963 137.7296 71.8509 0.0000 0.0000 0.0000
# 3 40.4132 71.8509 161.0379 0.0000 0.0000 0.0000
# 4 0.0000 0.0000 0.0000 16.1308 0.0000 0.0000
# 5 0.0000 0.0000 0.0000 0.0000 25.7928 0.0000
# 6 0.0000 0.0000 0.0000 0.0000 0.0000 11.7701
#
#
#
# Elastic Compliance Matrix: (Units=1/GPa)
#
#
# Indices 1 2 3 4 5 6 
#
# 1 0.045264 -0.005082 -0.009092 0.000000 0.000000 0.000000
# 2 -0.005082 0.010034 -0.003201 0.000000 0.000000 0.000000
# 3 -0.009092 -0.003201 0.009920 0.000000 0.000000 0.000000
# 4 0.000000 0.000000 0.000000 0.061993 0.000000 0.000000
# 5 0.000000 0.000000 0.000000 0.000000 0.038771 0.000000
# 6 0.000000 0.000000 0.000000 0.000000 0.000000 0.084961
#
#
# Mechanical properties :
#
#
# Convention : Reuss Voigt Hill
#
# Bulk Modulus (GPa) = 32.82240 68.51721 50.66981
# Shear Modulus (GPa) = 16.90048 23.41698 20.15873
#
# Velocity S-wave (km/s) = 2.98394 3.51242 3.25891
# Velocity P-wave (km/s) = 5.40039 7.24895 6.39185
#
# Compressibility (1/GPa) = 0.03046700
#
# Stress axis : x y z
#
# Youngs Moduli (GPa) = 22.09247 99.66186 100.80930
#
# Poissons Ratio (x) = 0.50652 0.91653
# Poissons Ratio (y) = 0.11228 0.32273
# Poissons Ratio (z) = 0.20086 0.31906
#
# Static dielectric constant tensor:
#      x y z
#    x 3.012100 0.000000 0.000000 
#    y 0.000000 3.648660 0.000000 
#    z 0.000000 0.000000 3.634540 
# 
# 
# High freq. dielectric constant tensor:
#      x y z
#    x 1.691260 0.000000 0.000000 
#    y 0.000000 1.742720 0.000000 
#    z 0.000000 0.000000 1.755620 
# 
# From -- ./inp_files/21549.got.cif
#   From: 2010.03.12/outbox.cif.g09.slc.cpg/sg59_11_cif.got.tgz:21549.got - 2010.04.16 16:29:54.
