data_PCOD8239107
_publ_section_title
;
Structure prediction by ZEFSAII (Michael W. Deem and Ramdas Pophale) SiO2 
 PCOD8239107
Probable space group: P M M N
;
_chemical_formula_sum "Si O2"
_cell_formula_units_Z 64
_cell_length_a 30.203355
_cell_length_b 9.293782
_cell_length_c 14.464218
_cell_angle_alpha 90.000000
_cell_angle_beta 90.000000
_cell_angle_gamma 90.000000
_cell_volume 4060.155128
_symmetry_space_group_name_H-M "P M M N"
_symmetry_group_IT_number 59
_space_group.IT_coordinate_system_code '2'
_symmetry_cell_setting 'orthorhombic'
loop_
_space_group_symop_operation_xyz
x,y,z
1/2-x,1/2-y,z
1/2+x,-y,-z
-x,1/2+y,-z
-x,-y,-z
1/2+x,1/2+y,-z
1/2-x,y,z
x,1/2-y,z
loop_
_atom_site_type_symbol
_atom_site_label
_atom_site_fract_x
_atom_site_fract_y
_atom_site_fract_z
Si Si1 0.374002 0.911594 0.425574
Si Si2 0.068465 0.910873 0.250168
Si Si3 0.112909 0.919704 0.068592
Si Si4 0.799214 0.081515 0.846222
Si Si5 0.800482 0.584245 0.655654
Si Si6 0.537352 0.420733 0.059804
Si Si7 0.484416 0.914880 0.736510
Si Si8 0.042487 0.917182 0.538537
O O1 0.360606 0.750000 0.456577
O O2 0.391514 0.910563 0.321345
O O3 0.411945 0.974882 0.493452
O O4 0.330796 0.013263 0.424728
O O5 0.050624 0.750000 0.232948
O O6 0.085671 0.983030 0.155521
O O7 0.028674 0.002639 0.290789
O O8 0.112296 0.750000 0.077846
O O9 0.164530 0.968901 0.076209
O O10 0.086609 0.967192 0.976176
O O11 0.750000 0.049947 0.886043
O O12 0.804755 0.250000 0.822122
O O13 0.807450 0.994460 0.752930
O O14 0.750000 0.568737 0.622044
O O15 0.814053 0.750000 0.668360
O O16 0.530153 0.250000 0.048811
O O17 0.536139 0.471238 0.166757
O O18 0.500000 0.500000 0.000000
O O19 0.497447 0.750000 0.748558
O O20 0.451724 0.937270 0.649417
O O21 0.036121 0.750000 0.511333
O O22 0.000000 0.000000 0.500000
#
# Coordination Sequence:
#
# PCOD8239107 Si02
#       8
#     8   8   8   8   8   8   8   8
#     4  10  19  31  46  64  87 121 157 183 217 266
#     4  10  17  27  44  64  88 118 152 186 217 255
#     4   9  16  27  42  62  86 115 147 178 213 253
#     4   9  16  28  46  65  86 114 148 180 212 261
#     4  10  20  31  44  66  94 118 142 180 229 272
#     4  10  19  30  44  62  88 119 151 183 219 259
#     4  10  20  31  43  64  91 119 152 190 227 259
#     4  10  20  32  46  66  91 119 155 191 227 269
#
# _framework density 15.762945
#
# number of rings (size 3 to 8) (size 9 to 14) (size 15 to 20)
#    0.000    2.250    3.750    0.375    0.000    1.750 
#    0.000    0.625    0.000    0.000    0.000    0.875 
#    0.000    5.000    0.000    3.375    0.000    3.000 
#
# Total GULP energy -793124.229570 kJ/mol
# GULP energy per Si atom -12392.566087 kJ/mol
# Density = 1.572707 g / cm^3
# Si number density = 15.762945 Si / 1000 Ang^3
#
#
#
# Elastic Constant Matrix: (Units=GPa)
#
#
# Indices 1 2 3 4 5 6 
#
# 1 119.7917 40.4440 43.2498 0.0000 0.0000 0.0000
# 2 40.4440 46.7818 23.5115 0.0000 0.0000 0.0000
# 3 43.2498 23.5115 79.2992 0.0000 0.0000 0.0000
# 4 0.0000 0.0000 0.0000 12.6331 0.0000 0.0000
# 5 0.0000 0.0000 0.0000 0.0000 26.0059 0.0000
# 6 0.0000 0.0000 0.0000 0.0000 0.0000 21.8512
#
#
#
# Elastic Compliance Matrix: (Units=1/GPa)
#
#
# Indices 1 2 3 4 5 6 
#
# 1 0.012980 -0.009006 -0.004409 0.000000 0.000000 0.000000
# 2 -0.009006 0.031367 -0.004388 0.000000 0.000000 0.000000
# 3 -0.004409 -0.004388 0.016316 0.000000 0.000000 0.000000
# 4 0.000000 0.000000 0.000000 0.079157 0.000000 0.000000
# 5 0.000000 0.000000 0.000000 0.000000 0.038453 0.000000
# 6 0.000000 0.000000 0.000000 0.000000 0.000000 0.045764
#
#
# Mechanical properties :
#
#
# Convention : Reuss Voigt Hill
#
# Bulk Modulus (GPa) = 39.90908 51.14258 45.52583
# Shear Modulus (GPa) = 18.65693 21.34254 19.99974
#
# Velocity S-wave (km/s) = 3.44407 3.68362 3.56586
# Velocity P-wave (km/s) = 6.41785 7.11389 6.77481
#
# Compressibility (1/GPa) = 0.02505696
#
# Stress axis : x y z
#
# Youngs Moduli (GPa) = 77.03987 31.88061 61.28807
#
# Poissons Ratio (x) = 0.28711 0.27024
# Poissons Ratio (y) = 0.69380 0.26895
# Poissons Ratio (z) = 0.33969 0.13990
#
# Static dielectric constant tensor:
#      x y z
#    x 3.159780 0.000000 0.000000 
#    y 0.000000 2.953780 0.000000 
#    z 0.000000 0.000000 3.033390 
# 
# 
# High freq. dielectric constant tensor:
#      x y z
#    x 1.599120 0.000000 0.000000 
#    y 0.000000 1.594030 0.000000 
#    z 0.000000 0.000000 1.580400 
# 
# From -- ./inp_files/25032.got.cif
#   From: 2010.03.12/outbox.cif.g09.slc.cpg/sg59_13_cif.got.tgz:25032.got - 2010.04.16 16:29:54.
