data_PCOD8239253
_publ_section_title
;
Structure prediction by ZEFSAII (Michael W. Deem and Ramdas Pophale) SiO2 
 PCOD8239253
Probable space group: P M M N
;
_chemical_formula_sum "Si O2"
_cell_formula_units_Z 64
_cell_length_a 9.155503
_cell_length_b 24.614174
_cell_length_c 18.823572
_cell_angle_alpha 90.000000
_cell_angle_beta 90.000000
_cell_angle_gamma 90.000000
_cell_volume 4241.988777
_symmetry_space_group_name_H-M "P M M N"
_symmetry_group_IT_number 59
_space_group.IT_coordinate_system_code '2'
_symmetry_cell_setting 'orthorhombic'
loop_
_space_group_symop_operation_xyz
x,y,z
1/2-x,1/2-y,z
1/2+x,-y,-z
-x,1/2+y,-z
-x,-y,-z
1/2+x,1/2+y,-z
1/2-x,y,z
x,1/2-y,z
loop_
_atom_site_type_symbol
_atom_site_label
_atom_site_fract_x
_atom_site_fract_y
_atom_site_fract_z
Si Si1 0.582446 0.576561 0.048270
Si Si2 0.079137 0.914229 0.495403
Si Si3 0.418071 0.470657 0.091461
Si Si4 0.078607 0.615578 0.172668
Si Si5 0.578140 0.812067 0.437609
Si Si6 0.921405 0.512775 0.605471
Si Si7 0.418620 0.997052 0.238526
Si Si8 0.910795 0.813124 0.276319
O O1 0.750000 0.584981 0.069077
O O2 0.532530 0.516278 0.069009
O O3 0.489533 0.620351 0.093094
O O4 0.560490 0.581036 0.961737
O O5 0.250000 0.907103 0.508670
O O6 0.010305 0.854723 0.485064
O O7 0.008027 0.940363 0.565039
O O8 0.047541 0.953449 0.428198
O O9 0.250000 0.492536 0.083652
O O10 0.444511 0.457724 0.175784
O O11 0.250000 0.617645 0.164029
O O12 0.020566 0.560220 0.209316
O O13 0.027816 0.664778 0.221082
O O14 0.750000 0.820525 0.449292
O O15 0.534741 0.750000 0.458038
O O16 0.535111 0.824195 0.356200
O O17 0.750000 0.526817 0.601634
O O18 0.988092 0.513232 0.685781
O O19 0.250000 0.988627 0.255938
O O20 0.750000 0.839355 0.264485
O O21 0.899091 0.750000 0.262332
#
# Coordination Sequence:
#
# PCOD8239253 Si02
#       8
#     8   8   8   8   8   8   8   8
#     4   9  15  23  36  54  77 105 134 162 196 234
#     4  10  19  29  42  62  86 111 142 176 208 246
#     4   8  14  24  37  54  77 103 132 167 200 231
#     4  10  18  27  40  58  81 108 139 171 200 237
#     4   9  18  32  48  64  83 109 139 171 210 254
#     4   9  17  29  43  58  81 114 145 173 210 252
#     4   8  14  25  40  57  77 104 138 171 202 237
#     4   9  18  31  44  59  80 104 132 168 206 241
#
# _framework density 15.087263999999999
#
# number of rings (size 3 to 8) (size 9 to 14) (size 15 to 20)
#    0.000    3.000    0.000    3.375    0.000    3.000 
#    0.000    4.375    0.000    0.000    0.000    0.000 
#    0.000    1.000    0.000   11.500    0.000    3.500 
#
# Total GULP energy -792894.632745 kJ/mol
# GULP energy per Si atom -12388.978637 kJ/mol
# Density = 1.505292 g / cm^3
# Si number density = 15.087264 Si / 1000 Ang^3
#
#
#
# Elastic Constant Matrix: (Units=GPa)
#
#
# Indices 1 2 3 4 5 6 
#
# 1 59.3744 27.9391 35.2803 0.0000 0.0000 0.0000
# 2 27.9391 53.2431 34.7584 0.0000 0.0000 0.0000
# 3 35.2803 34.7584 115.0689 0.0000 0.0000 0.0000
# 4 0.0000 0.0000 0.0000 21.9045 0.0000 0.0000
# 5 0.0000 0.0000 0.0000 0.0000 17.9101 0.0000
# 6 0.0000 0.0000 0.0000 0.0000 0.0000 20.7896
#
#
#
# Elastic Compliance Matrix: (Units=1/GPa)
#
#
# Indices 1 2 3 4 5 6 
#
# 1 0.024056 -0.009726 -0.004438 0.000000 0.000000 0.000000
# 2 -0.009726 0.027328 -0.005273 0.000000 0.000000 0.000000
# 3 -0.004438 -0.005273 0.011644 0.000000 0.000000 0.000000
# 4 0.000000 0.000000 0.000000 0.045653 0.000000 0.000000
# 5 0.000000 0.000000 0.000000 0.000000 0.055834 0.000000
# 6 0.000000 0.000000 0.000000 0.000000 0.000000 0.048101
#
#
# Mechanical properties :
#
#
# Convention : Reuss Voigt Hill
#
# Bulk Modulus (GPa) = 41.40060 47.07131 44.23596
# Shear Modulus (GPa) = 19.26486 20.76808 20.01647
#
# Velocity S-wave (km/s) = 3.57724 3.71419 3.64636
# Velocity P-wave (km/s) = 6.67552 7.04703 6.86379
#
# Compressibility (1/GPa) = 0.02415424
#
# Stress axis : x y z
#
# Youngs Moduli (GPa) = 41.56994 36.59288 85.88326
#
# Poissons Ratio (x) = 0.35591 0.38111
# Poissons Ratio (y) = 0.40432 0.45284
# Poissons Ratio (z) = 0.18447 0.19294
#
# Static dielectric constant tensor:
#      x y z
#    x 2.895540 0.000000 0.000000 
#    y 0.000000 2.590920 0.000000 
#    z 0.000000 0.000000 3.237180 
# 
# 
# High freq. dielectric constant tensor:
#      x y z
#    x 1.578430 0.000000 0.000000 
#    y 0.000000 1.528450 0.000000 
#    z 0.000000 0.000000 1.580430 
# 
# From -- ./inp_files/26459.got.cif
#   From: 2010.03.12/outbox.cif.g09.slc.cpg/sg59_14_cif.got.tgz:26459.got - 2010.04.16 16:29:54.
