data_PCOD8239226
_publ_section_title
;
Structure prediction by ZEFSAII (Michael W. Deem and Ramdas Pophale) SiO2 
 PCOD8239226
Probable space group: P M M N
;
_chemical_formula_sum "Si O2"
_cell_formula_units_Z 56
_cell_length_a 26.295193
_cell_length_b 9.617825
_cell_length_c 14.268405
_cell_angle_alpha 90.000000
_cell_angle_beta 90.000000
_cell_angle_gamma 90.000000
_cell_volume 3608.516217
_symmetry_space_group_name_H-M "P M M N"
_symmetry_group_IT_number 59
_space_group.IT_coordinate_system_code '2'
_symmetry_cell_setting 'orthorhombic'
loop_
_space_group_symop_operation_xyz
x,y,z
1/2-x,1/2-y,z
1/2+x,-y,-z
-x,1/2+y,-z
-x,-y,-z
1/2+x,1/2+y,-z
1/2-x,y,z
x,1/2-y,z
loop_
_atom_site_type_symbol
_atom_site_label
_atom_site_fract_x
_atom_site_fract_y
_atom_site_fract_z
Si Si1 0.454978 0.090334 0.385844
Si Si2 0.055316 0.411192 0.173552
Si Si3 0.609310 0.409175 0.259087
Si Si4 0.376141 0.405616 0.010529
Si Si5 0.432028 0.593038 0.550052
Si Si6 0.192500 0.588531 0.887654
Si Si7 0.461805 0.410421 0.861332
O O1 0.442184 0.250000 0.403881
O O2 0.437976 0.044949 0.281817
O O3 0.514520 0.057919 0.399371
O O4 0.421848 0.004579 0.461097
O O5 0.037532 0.250000 0.166155
O O6 0.109094 0.432476 0.119328
O O7 0.014599 0.510223 0.122958
O O8 0.592517 0.250000 0.236181
O O9 0.612265 0.428854 0.371793
O O10 0.663247 0.442790 0.209942
O O11 0.567085 0.515359 0.223656
O O12 0.354673 0.250000 0.996228
O O13 0.333116 0.510665 0.975305
O O14 0.428703 0.424678 0.954706
O O15 0.432121 0.750000 0.512282
O O16 0.250000 0.535497 0.874627
O O17 0.190779 0.750000 0.912927
O O18 0.471886 0.250000 0.834942
#
# Coordination Sequence:
#
# PCOD8239226 Si02
#       7
#     8   8   8   8   8   8   8
#     4   9  17  27  40  58  83 116 149 180 209 242
#     4  10  18  30  43  58  86 122 154 178 210 255
#     4   9  16  29  46  62  86 118 147 175 215 266
#     4   9  19  31  44  63  87 116 147 180 216 259
#     4   9  16  27  41  59  82 114 149 178 212 249
#     4   9  18  32  50  70  89 110 139 178 222 267
#     4  10  18  26  39  63  89 114 148 183 214 247
#
# _framework density 15.518844
#
# number of rings (size 3 to 8) (size 9 to 14) (size 15 to 20)
#    0.000    2.714    1.429    0.857    0.000    2.571 
#    0.000    0.000    0.000    0.000    0.000    1.000 
#    0.000    3.429    0.000    0.000    0.000    0.000 
#
# Total GULP energy -694201.253647 kJ/mol
# GULP energy per Si atom -12396.450958 kJ/mol
# Density = 1.548352 g / cm^3
# Si number density = 15.518844 Si / 1000 Ang^3
#
#
#
# Elastic Constant Matrix: (Units=GPa)
#
#
# Indices 1 2 3 4 5 6 
#
# 1 69.4275 37.5493 37.5938 0.0000 0.0000 0.0000
# 2 37.5493 66.9520 41.2253 0.0000 0.0000 0.0000
# 3 37.5938 41.2253 100.3230 0.0000 0.0000 0.0000
# 4 0.0000 0.0000 0.0000 24.9398 0.0000 0.0000
# 5 0.0000 0.0000 0.0000 0.0000 13.7906 0.0000
# 6 0.0000 0.0000 0.0000 0.0000 0.0000 18.4098
#
#
#
# Elastic Compliance Matrix: (Units=1/GPa)
#
#
# Indices 1 2 3 4 5 6 
#
# 1 0.021943 -0.009697 -0.004238 0.000000 0.000000 0.000000
# 2 -0.009697 0.024281 -0.006344 0.000000 0.000000 0.000000
# 3 -0.004238 -0.006344 0.014163 0.000000 0.000000 0.000000
# 4 0.000000 0.000000 0.000000 0.040097 0.000000 0.000000
# 5 0.000000 0.000000 0.000000 0.000000 0.072513 0.000000
# 6 0.000000 0.000000 0.000000 0.000000 0.000000 0.054319
#
#
# Mechanical properties :
#
#
# Convention : Reuss Voigt Hill
#
# Bulk Modulus (GPa) = 50.43150 52.15994 51.29572
# Shear Modulus (GPa) = 18.21617 19.45033 18.83325
#
# Velocity S-wave (km/s) = 3.42981 3.54409 3.48742
# Velocity P-wave (km/s) = 6.94639 7.10149 7.02436
#
# Compressibility (1/GPa) = 0.01982888
#
# Stress axis : x y z
#
# Youngs Moduli (GPa) = 45.57322 41.18503 70.60811
#
# Poissons Ratio (x) = 0.39937 0.29922
# Poissons Ratio (y) = 0.44192 0.44793
# Poissons Ratio (z) = 0.19313 0.26127
#
# Static dielectric constant tensor:
#      x y z
#    x 2.668510 0.000000 0.000000 
#    y 0.000000 3.053780 0.000000 
#    z 0.000000 0.000000 3.044420 
# 
# 
# High freq. dielectric constant tensor:
#      x y z
#    x 1.544590 0.000000 0.000000 
#    y 0.000000 1.601810 0.000000 
#    z 0.000000 0.000000 1.593790 
# 
# From -- ./inp_files/24945.got.cif
#   From: 2010.03.12/outbox.cif.g09.slc.cpg/sg59_13_cif.got.tgz:24945.got - 2010.04.16 16:29:54.
