data_PCOD8239571
_publ_section_title
;
Structure prediction by ZEFSAII (Michael W. Deem and Ramdas Pophale) SiO2 
 PCOD8239571
Probable space group: P M M N
;
_chemical_formula_sum "Si O2"
_cell_formula_units_Z 56
_cell_length_a 13.816970
_cell_length_b 19.577911
_cell_length_c 12.649828
_cell_angle_alpha 90.000000
_cell_angle_beta 90.000000
_cell_angle_gamma 90.000000
_cell_volume 3421.872196
_symmetry_space_group_name_H-M "P M M N"
_symmetry_group_IT_number 59
_space_group.IT_coordinate_system_code '2'
_symmetry_cell_setting 'orthorhombic'
loop_
_space_group_symop_operation_xyz
x,y,z
1/2-x,1/2-y,z
1/2+x,-y,-z
-x,1/2+y,-z
-x,-y,-z
1/2+x,1/2+y,-z
1/2-x,y,z
x,1/2-y,z
loop_
_atom_site_type_symbol
_atom_site_label
_atom_site_fract_x
_atom_site_fract_y
_atom_site_fract_z
Si Si1 0.861709 0.114558 0.541178
Si Si2 0.358609 0.041701 0.413354
Si Si3 0.551750 0.417823 0.321408
Si Si4 0.356626 0.830921 0.094678
Si Si5 0.861231 0.563212 0.343290
Si Si6 0.510660 0.328649 0.717297
Si Si7 0.862454 0.329347 0.142741
O O1 0.750000 0.136401 0.544404
O O2 0.897245 0.118525 0.420751
O O3 0.922726 0.166023 0.613103
O O4 0.878189 0.039007 0.587039
O O5 0.250000 0.058261 0.373385
O O6 0.435887 0.078060 0.337748
O O7 0.374228 0.069537 0.531172
O O8 0.594613 0.492706 0.301517
O O9 0.569169 0.372527 0.218832
O O10 0.250000 0.861579 0.119499
O O11 0.349803 0.750000 0.101820
O O12 0.431665 0.858330 0.181367
O O13 0.388863 0.852058 0.976693
O O14 0.750000 0.565563 0.309336
O O15 0.913481 0.627494 0.290575
O O16 0.480832 0.250000 0.732613
O O17 0.750000 0.344423 0.166673
O O18 0.885473 0.250000 0.160289
#
# Coordination Sequence:
#
# PCOD8239571 Si02
#       7
#     8   8   8   8   8   8   8
#     4  10  18  29  47  74 100 124 156 197 245 291
#     4   9  17  31  51  69  95 134 166 189 228 297
#     4  11  17  32  53  74  99 129 161 196 244 292
#     4   8  16  32  50  68  95 131 164 192 239 305
#     4  10  19  33  50  70  98 135 171 196 231 293
#     4  11  20  31  48  71  99 130 164 205 243 279
#     4   9  18  32  51  75  99 125 159 199 246 299
#
# _framework density 16.365310000000001
#
# number of rings (size 3 to 8) (size 9 to 14) (size 15 to 20)
#    0.000    2.286    2.857    4.286    0.000    1.714 
#    0.000    0.714    0.000    1.286    0.000    2.000 
#    0.000    0.000    0.000    0.000    0.000    0.000 
#
# Total GULP energy -694408.721891 kJ/mol
# GULP energy per Si atom -12400.155748 kJ/mol
# Density = 1.632806 g / cm^3
# Si number density = 16.365310 Si / 1000 Ang^3
#
#
#
# Elastic Constant Matrix: (Units=GPa)
#
#
# Indices 1 2 3 4 5 6 
#
# 1 111.4303 43.9233 44.2605 0.0000 0.0000 0.0000
# 2 43.9233 58.8382 41.7625 0.0000 0.0000 0.0000
# 3 44.2605 41.7625 78.2798 0.0000 0.0000 0.0000
# 4 0.0000 0.0000 0.0000 18.6482 0.0000 0.0000
# 5 0.0000 0.0000 0.0000 0.0000 27.5916 0.0000
# 6 0.0000 0.0000 0.0000 0.0000 0.0000 25.4494
#
#
#
# Elastic Compliance Matrix: (Units=1/GPa)
#
#
# Indices 1 2 3 4 5 6 
#
# 1 0.013312 -0.007396 -0.003581 0.000000 0.000000 0.000000
# 2 -0.007396 0.031463 -0.012604 0.000000 0.000000 0.000000
# 3 -0.003581 -0.012604 0.021524 0.000000 0.000000 0.000000
# 4 0.000000 0.000000 0.000000 0.053624 0.000000 0.000000
# 5 0.000000 0.000000 0.000000 0.000000 0.036243 0.000000
# 6 0.000000 0.000000 0.000000 0.000000 0.000000 0.039294
#
#
# Mechanical properties :
#
#
# Convention : Reuss Voigt Hill
#
# Bulk Modulus (GPa) = 52.25464 56.49345 54.37405
# Shear Modulus (GPa) = 20.08038 22.24465 21.16251
#
# Velocity S-wave (km/s) = 3.50667 3.69081 3.59992
# Velocity P-wave (km/s) = 6.95666 7.26347 7.11172
#
# Compressibility (1/GPa) = 0.01913706
#
# Stress axis : x y z
#
# Youngs Moduli (GPa) = 75.12116 31.78369 46.46044
#
# Poissons Ratio (x) = 0.23506 0.16638
# Poissons Ratio (y) = 0.55557 0.58558
# Poissons Ratio (z) = 0.26902 0.40060
#
# Static dielectric constant tensor:
#      x y z
#    x 3.184760 0.000000 0.000000 
#    y 0.000000 2.832370 0.000000 
#    z 0.000000 0.000000 3.035480 
# 
# 
# High freq. dielectric constant tensor:
#      x y z
#    x 1.631340 0.000000 0.000000 
#    y 0.000000 1.605770 0.000000 
#    z 0.000000 0.000000 1.615210 
# 
# From -- ./inp_files/23419.got.cif
#   From: 2010.03.12/outbox.cif.g09.slc.cpg/sg59_12_cif.got.tgz:23419.got - 2010.04.16 16:29:54.
