data_PCOD8239829
_publ_section_title
;
Structure prediction by ZEFSAII (Michael W. Deem and Ramdas Pophale) SiO2 
 PCOD8239829
Probable space group: P M M N
;
_chemical_formula_sum "Si O2"
_cell_formula_units_Z 56
_cell_length_a 8.897039
_cell_length_b 23.330567
_cell_length_c 13.672807
_cell_angle_alpha 90.000000
_cell_angle_beta 90.000000
_cell_angle_gamma 90.000000
_cell_volume 2838.105082
_symmetry_space_group_name_H-M "P M M N"
_symmetry_group_IT_number 59
_space_group.IT_coordinate_system_code '2'
_symmetry_cell_setting 'orthorhombic'
loop_
_space_group_symop_operation_xyz
x,y,z
1/2-x,1/2-y,z
1/2+x,-y,-z
-x,1/2+y,-z
-x,-y,-z
1/2+x,1/2+y,-z
1/2-x,y,z
x,1/2-y,z
loop_
_atom_site_type_symbol
_atom_site_label
_atom_site_fract_x
_atom_site_fract_y
_atom_site_fract_z
Si Si1 0.429445 0.750000 0.781266
Si Si2 0.068971 0.250000 0.003888
Si Si3 0.572069 0.844852 0.646532
Si Si4 0.927113 0.968597 0.715186
Si Si5 0.571855 0.813540 0.430531
Si Si6 0.929069 0.587169 0.287573
Si Si7 0.577621 0.635754 0.085873
Si Si8 0.578762 0.544104 0.931810
O O1 0.250000 0.750000 0.782051
O O2 0.490710 0.750000 0.891253
O O3 0.487840 0.807306 0.727695
O O4 0.250000 0.250000 0.019383
O O5 0.010381 0.302084 0.936212
O O6 0.750000 0.835860 0.662131
O O7 0.529758 0.912299 0.653175
O O8 0.515837 0.824707 0.540530
O O9 0.750000 0.978915 0.712924
O O10 0.990448 0.955639 0.823885
O O11 0.006087 0.026229 0.675529
O O12 0.750000 0.816016 0.428535
O O13 0.516356 0.750000 0.397518
O O14 0.509272 0.862483 0.358277
O O15 0.750000 0.582262 0.290698
O O16 0.994346 0.602240 0.178678
O O17 0.750000 0.642265 0.115897
O O18 0.557201 0.605313 0.981666
O O19 0.750000 0.525512 0.924965
O O20 0.500000 0.500000 0.000000
#
# Coordination Sequence:
#
# PCOD8239829 Si02
#       8
#     4   4   8   8   8   8   8   8
#     4  12  24  38  57  88 118 140 179 236 293 336
#     4  10  20  36  57  78 108 150 189 224 267 328
#     4  10  20  39  64  83 107 149 192 229 274 340
#     4  10  21  35  55  82 111 147 193 230 273 339
#     4   9  18  34  60  88 108 140 191 237 277 326
#     4  10  20  34  55  84 117 146 185 237 283 325
#     4   9  18  32  53  81 109 143 187 228 269 320
#     4  10  18  31  49  73 103 139 180 219 261 321
#
# _framework density 19.731473999999999
#
# number of rings (size 3 to 8) (size 9 to 14) (size 15 to 20)
#    0.000    2.143    2.143    1.500    1.000    3.429 
#    0.000    3.571    0.000    0.000    0.000    0.000 
#    0.000    0.000    0.000    0.000    0.000    0.000 
#
# Total GULP energy -694084.344539 kJ/mol
# GULP energy per Si atom -12394.363295 kJ/mol
# Density = 1.968656 g / cm^3
# Si number density = 19.731474 Si / 1000 Ang^3
#
#
#
# Elastic Constant Matrix: (Units=GPa)
#
#
# Indices 1 2 3 4 5 6 
#
# 1 31.4505 36.6339 15.0131 0.0000 0.0000 0.0000
# 2 36.6339 163.9949 44.2702 0.0000 0.0000 0.0000
# 3 15.0131 44.2702 70.8269 0.0000 0.0000 0.0000
# 4 0.0000 0.0000 0.0000 22.5683 0.0000 0.0000
# 5 0.0000 0.0000 0.0000 0.0000 14.6226 0.0000
# 6 0.0000 0.0000 0.0000 0.0000 0.0000 26.4087
#
#
#
# Elastic Compliance Matrix: (Units=1/GPa)
#
#
# Indices 1 2 3 4 5 6 
#
# 1 0.043819 -0.008759 -0.003813 0.000000 0.000000 0.000000
# 2 -0.008759 0.009086 -0.003823 0.000000 0.000000 0.000000
# 3 -0.003813 -0.003823 0.017317 0.000000 0.000000 0.000000
# 4 0.000000 0.000000 0.000000 0.044310 0.000000 0.000000
# 5 0.000000 0.000000 0.000000 0.000000 0.068387 0.000000
# 6 0.000000 0.000000 0.000000 0.000000 0.000000 0.037866
#
#
# Mechanical properties :
#
#
# Convention : Reuss Voigt Hill
#
# Bulk Modulus (GPa) = 26.71545 50.90075 38.80810
# Shear Modulus (GPa) = 18.79322 24.07692 21.43507
#
# Velocity S-wave (km/s) = 3.08953 3.49697 3.29954
# Velocity P-wave (km/s) = 5.12794 6.49290 5.85037
#
# Compressibility (1/GPa) = 0.03743153
#
# Stress axis : x y z
#
# Youngs Moduli (GPa) = 22.82112 110.05542 57.74784
#
# Poissons Ratio (x) = 0.96398 0.22022
# Poissons Ratio (y) = 0.19989 0.22076
# Poissons Ratio (z) = 0.08703 0.42071
#
# Static dielectric constant tensor:
#      x y z
#    x 3.153520 0.000000 0.000000 
#    y 0.000000 3.703360 0.000000 
#    z 0.000000 0.000000 3.680530 
# 
# 
# High freq. dielectric constant tensor:
#      x y z
#    x 1.718320 0.000000 0.000000 
#    y 0.000000 1.789150 0.000000 
#    z 0.000000 0.000000 1.771850 
# 
# From -- ./inp_files/21221.got.cif
#   From: 2010.03.12/outbox.cif.g09.slc.cpg/sg59_11_cif.got.tgz:21221.got - 2010.04.16 16:29:54.
