data_PCOD8239940
_publ_section_title
;
Structure prediction by ZEFSAII (Michael W. Deem and Ramdas Pophale) SiO2 
 PCOD8239940
Probable space group: P M M N
;
_chemical_formula_sum "Si O2"
_cell_formula_units_Z 64
_cell_length_a 14.468837
_cell_length_b 21.540437
_cell_length_c 10.886394
_cell_angle_alpha 90.000000
_cell_angle_beta 90.000000
_cell_angle_gamma 90.000000
_cell_volume 3392.908768
_symmetry_space_group_name_H-M "P M M N"
_symmetry_group_IT_number 59
_space_group.IT_coordinate_system_code '2'
_symmetry_cell_setting 'orthorhombic'
loop_
_space_group_symop_operation_xyz
x,y,z
1/2-x,1/2-y,z
1/2+x,-y,-z
-x,1/2+y,-z
-x,-y,-z
1/2+x,1/2+y,-z
1/2-x,y,z
x,1/2-y,z
loop_
_atom_site_type_symbol
_atom_site_label
_atom_site_fract_x
_atom_site_fract_y
_atom_site_fract_z
Si Si1 0.352954 0.862111 0.263627
Si Si2 0.009510 0.597541 0.451991
Si Si3 0.521860 0.473838 0.305556
Si Si4 0.858513 0.435880 0.088214
Si Si5 0.148603 0.501592 0.159042
Si Si6 0.646418 0.820909 0.388516
Si Si7 0.149904 0.176466 0.888074
Si Si8 0.546015 0.178674 0.973839
O O1 0.250000 0.833517 0.282061
O O2 0.408779 0.860961 0.392268
O O3 0.342850 0.932593 0.223797
O O4 0.408245 0.823221 0.161250
O O5 0.980854 0.542549 0.359976
O O6 0.920068 0.639713 0.475578
O O7 0.039664 0.574322 0.585204
O O8 0.607868 0.466548 0.214254
O O9 0.426966 0.459765 0.229944
O O10 0.750000 0.424019 0.093837
O O11 0.883148 0.485226 0.981036
O O12 0.904312 0.368163 0.067141
O O13 0.250000 0.468934 0.163636
O O14 0.750000 0.828511 0.438839
O O15 0.614406 0.750000 0.393116
O O16 0.638061 0.848047 0.250561
O O17 0.250000 0.152326 0.941064
O O18 0.153026 0.250000 0.881184
O O19 0.061548 0.155731 0.968103
O O20 0.552885 0.250000 0.021495
#
# Coordination Sequence:
#
# PCOD8239940 Si02
#       8
#     8   8   8   8   8   8   8   8
#     4   9  17  29  47  72 101 132 169 217 267 307
#     4  10  20  34  53  78 104 140 179 220 268 324
#     4  10  21  35  53  75 105 141 181 220 264 326
#     4  10  21  36  53  75 106 141 178 224 273 315
#     4   8  16  33  53  71  96 131 168 214 263 306
#     4   9  17  31  52  78 108 137 167 213 270 323
#     4   8  14  26  47  76 107 133 161 208 267 315
#     4  10  18  31  54  78 103 138 181 224 269 323
#
# _framework density 18.862870000000001
#
# number of rings (size 3 to 8) (size 9 to 14) (size 15 to 20)
#    0.000    2.750    1.250    2.250    0.000    2.500 
#    0.000    3.750    0.000    0.000    0.000    3.500 
#    0.000    0.000    0.000    0.000    0.000    0.000 
#
# Total GULP energy -793223.225519 kJ/mol
# GULP energy per Si atom -12394.112899 kJ/mol
# Density = 1.881994 g / cm^3
# Si number density = 18.862870 Si / 1000 Ang^3
#
#
#
# Elastic Constant Matrix: (Units=GPa)
#
#
# Indices 1 2 3 4 5 6 
#
# 1 123.0207 25.4880 37.4200 0.0000 0.0000 0.0000
# 2 25.4880 25.2065 21.3379 0.0000 0.0000 0.0000
# 3 37.4200 21.3379 80.4618 0.0000 0.0000 0.0000
# 4 0.0000 0.0000 0.0000 15.8299 0.0000 0.0000
# 5 0.0000 0.0000 0.0000 0.0000 17.9175 0.0000
# 6 0.0000 0.0000 0.0000 0.0000 0.0000 27.0288
#
#
#
# Elastic Compliance Matrix: (Units=1/GPa)
#
#
# Indices 1 2 3 4 5 6 
#
# 1 0.010727 -0.008541 -0.002724 0.000000 0.000000 0.000000
# 2 -0.008541 0.057957 -0.011398 0.000000 0.000000 0.000000
# 3 -0.002724 -0.011398 0.016718 0.000000 0.000000 0.000000
# 4 0.000000 0.000000 0.000000 0.063172 0.000000 0.000000
# 5 0.000000 0.000000 0.000000 0.000000 0.055811 0.000000
# 6 0.000000 0.000000 0.000000 0.000000 0.000000 0.036998
#
#
# Mechanical properties :
#
#
# Convention : Reuss Voigt Hill
#
# Bulk Modulus (GPa) = 24.95211 44.13119 34.54165
# Shear Modulus (GPa) = 16.66303 21.78478 19.22391
#
# Velocity S-wave (km/s) = 2.97539 3.40207 3.19586
# Velocity P-wave (km/s) = 5.00608 6.23528 5.65418
#
# Compressibility (1/GPa) = 0.04007678
#
# Stress axis : x y z
#
# Youngs Moduli (GPa) = 93.22508 17.25416 59.81746
#
# Poissons Ratio (x) = 0.14737 0.16292
# Poissons Ratio (y) = 0.79623 0.68178
# Poissons Ratio (z) = 0.25391 0.19666
#
# Static dielectric constant tensor:
#      x y z
#    x 3.990710 0.000000 0.000000 
#    y 0.000000 3.112780 0.000000 
#    z 0.000000 0.000000 3.202040 
# 
# 
# High freq. dielectric constant tensor:
#      x y z
#    x 1.750600 0.000000 0.000000 
#    y 0.000000 1.704680 0.000000 
#    z 0.000000 0.000000 1.695380 
# 
# From -- ./inp_files/9584.got.cif
#   From: 2010.03.12/outbox.cif.g09.slc.cpg/sg59_5_cif.got.tgz:9584.got - 2010.04.16 16:29:54.
