data_PCOD8239875
_publ_section_title
;
Structure prediction by ZEFSAII (Michael W. Deem and Ramdas Pophale) SiO2 
 PCOD8239875
Probable space group: P M M N
;
_chemical_formula_sum "Si O2"
_cell_formula_units_Z 48
_cell_length_a 8.675197
_cell_length_b 15.599442
_cell_length_c 18.717808
_cell_angle_alpha 90.000000
_cell_angle_beta 90.000000
_cell_angle_gamma 90.000000
_cell_volume 2533.047872
_symmetry_space_group_name_H-M "P M M N"
_symmetry_group_IT_number 59
_space_group.IT_coordinate_system_code '2'
_symmetry_cell_setting 'orthorhombic'
loop_
_space_group_symop_operation_xyz
x,y,z
1/2-x,1/2-y,z
1/2+x,-y,-z
-x,1/2+y,-z
-x,-y,-z
1/2+x,1/2+y,-z
1/2-x,y,z
x,1/2-y,z
loop_
_atom_site_type_symbol
_atom_site_label
_atom_site_fract_x
_atom_site_fract_y
_atom_site_fract_z
Si Si1 0.068088 0.000458 0.667530
Si Si2 0.067969 0.003631 0.828576
Si Si3 0.066553 0.844796 0.918611
Si Si4 0.928972 0.151782 0.919725
Si Si5 0.067367 0.917524 0.460456
Si Si6 0.074347 0.154704 0.412684
O O1 0.250000 0.012392 0.663632
O O2 0.024887 0.906925 0.637688
O O3 0.004207 0.007415 0.747975
O O4 0.989368 0.077208 0.621647
O O5 0.250000 0.994884 0.827667
O O6 0.023930 0.090649 0.868017
O O7 0.997675 0.919219 0.867786
O O8 0.250000 0.844912 0.917080
O O9 0.007571 0.750000 0.894154
O O10 0.011813 0.863111 0.999505
O O11 0.750000 0.128445 0.913110
O O12 0.958763 0.250000 0.896721
O O13 0.250000 0.912647 0.463291
O O14 0.994548 0.840054 0.506318
O O15 0.000000 0.000000 0.500000
O O16 0.250000 0.120727 0.415319
O O17 0.066171 0.250000 0.380216
#
# Coordination Sequence:
#
# PCOD8239875 Si02
#       6
#     8   8   8   8   8   8
#     4  10  20  33  49  72 103 135 167 202 246 301
#     4  10  20  32  51  78 104 136 173 211 258 305
#     4   8  15  30  51  75 103 134 171 213 256 306
#     4   9  18  33  53  74  98 133 174 216 262 309
#     4  10  18  31  52  72  93 124 161 198 237 284
#     4  10  20  34  53  76 101 129 162 203 250 297
#
# _framework density 18.949503
#
# number of rings (size 3 to 8) (size 9 to 14) (size 15 to 20)
#    0.000    2.500    0.000    6.000    0.000    3.667 
#    0.000    2.500    0.000    2.500    0.000    0.000 
#    0.000    0.000    0.000    0.000    0.000    0.000 
#
# Total GULP energy -594944.229108 kJ/mol
# GULP energy per Si atom -12394.671440 kJ/mol
# Density = 1.890637 g / cm^3
# Si number density = 18.949503 Si / 1000 Ang^3
#
#
#
# Elastic Constant Matrix: (Units=GPa)
#
#
# Indices 1 2 3 4 5 6 
#
# 1 51.2297 4.9147 17.6008 0.0000 0.0000 0.0000
# 2 4.9147 69.9857 44.5812 0.0000 0.0000 0.0000
# 3 17.6008 44.5812 133.5647 0.0000 0.0000 0.0000
# 4 0.0000 0.0000 0.0000 18.9077 0.0000 0.0000
# 5 0.0000 0.0000 0.0000 0.0000 20.0557 0.0000
# 6 0.0000 0.0000 0.0000 0.0000 0.0000 26.0636
#
#
#
# Elastic Compliance Matrix: (Units=1/GPa)
#
#
# Indices 1 2 3 4 5 6 
#
# 1 0.020453 0.000356 -0.002814 0.000000 0.000000 0.000000
# 2 0.000356 0.018153 -0.006106 0.000000 0.000000 0.000000
# 3 -0.002814 -0.006106 0.009896 0.000000 0.000000 0.000000
# 4 0.000000 0.000000 0.000000 0.052889 0.000000 0.000000
# 5 0.000000 0.000000 0.000000 0.000000 0.049861 0.000000
# 6 0.000000 0.000000 0.000000 0.000000 0.000000 0.038368
#
#
# Mechanical properties :
#
#
# Convention : Reuss Voigt Hill
#
# Bulk Modulus (GPa) = 31.87362 43.21929 37.54646
# Shear Modulus (GPa) = 23.01973 25.51762 24.26867
#
# Velocity S-wave (km/s) = 3.48917 3.67360 3.58257
# Velocity P-wave (km/s) = 5.75232 6.39147 6.08030
#
# Compressibility (1/GPa) = 0.03137390
#
# Stress axis : x y z
#
# Youngs Moduli (GPa) = 48.89358 55.08660 101.05144
#
# Poissons Ratio (x) = -0.01963 0.28437
# Poissons Ratio (y) = -0.01742 0.61703
# Poissons Ratio (z) = 0.13759 0.33637
#
# Static dielectric constant tensor:
#      x y z
#    x 3.267150 0.000000 0.000000 
#    y 0.000000 3.638900 0.000000 
#    z 0.000000 0.000000 3.754600 
# 
# 
# High freq. dielectric constant tensor:
#      x y z
#    x 1.722050 0.000000 0.000000 
#    y 0.000000 1.729300 0.000000 
#    z 0.000000 0.000000 1.732930 
# 
# From -- ./inp_files/25507.got.cif
#   From: 2010.03.12/outbox.cif.g09.slc.cpg/sg59_13_cif.got.tgz:25507.got - 2010.04.16 16:29:54.
