data_PCOD8239027
_publ_section_title
;
Structure prediction by ZEFSAII (Michael W. Deem and Ramdas Pophale) SiO2 
 PCOD8239027
Probable space group: P M M N
;
_chemical_formula_sum "Si O2"
_cell_formula_units_Z 64
_cell_length_a 8.786123
_cell_length_b 29.953014
_cell_length_c 14.973986
_cell_angle_alpha 90.000000
_cell_angle_beta 90.000000
_cell_angle_gamma 90.000000
_cell_volume 3940.716851
_symmetry_space_group_name_H-M "P M M N"
_symmetry_group_IT_number 59
_space_group.IT_coordinate_system_code '2'
_symmetry_cell_setting 'orthorhombic'
loop_
_space_group_symop_operation_xyz
x,y,z
1/2-x,1/2-y,z
1/2+x,-y,-z
-x,1/2+y,-z
-x,-y,-z
1/2+x,1/2+y,-z
1/2-x,y,z
x,1/2-y,z
loop_
_atom_site_type_symbol
_atom_site_label
_atom_site_fract_x
_atom_site_fract_y
_atom_site_fract_z
Si Si1 0.069945 0.458363 0.682872
Si Si2 0.072224 0.533015 0.126824
Si Si3 0.431070 0.894222 0.456689
Si Si4 0.069153 0.798829 0.512305
Si Si5 0.070127 0.701524 0.712248
Si Si6 0.572273 0.937745 0.953885
Si Si7 0.069679 0.944107 0.633508
Si Si8 0.569226 0.113370 0.198867
O O1 0.250000 0.455774 0.679367
O O2 0.011528 0.504739 0.638317
O O3 0.017844 0.454540 0.784517
O O4 0.000581 0.416777 0.630350
O O5 0.250000 0.539802 0.143601
O O6 0.030402 0.482771 0.099039
O O7 0.016533 0.565321 0.047494
O O8 0.250000 0.897512 0.452660
O O9 0.486140 0.842158 0.456435
O O10 0.494060 0.919803 0.544895
O O11 0.250000 0.799171 0.515415
O O12 0.014695 0.750000 0.473607
O O13 0.003905 0.804470 0.612514
O O14 0.250000 0.697189 0.704572
O O15 0.022100 0.750000 0.750890
O O16 0.011256 0.663085 0.777638
O O17 0.750000 0.934100 0.973758
O O18 0.514950 0.897337 0.893091
O O19 0.250000 0.941886 0.631773
O O20 0.011284 0.918924 0.721910
O O21 0.750000 0.109616 0.185555
#
# Coordination Sequence:
#
# PCOD8239027 Si02
#       8
#     8   8   8   8   8   8   8   8
#     4  11  21  32  45  64  94 128 161 196 233 274
#     4  10  20  34  50  68  89 118 155 194 232 271
#     4  10  18  30  46  66  92 125 163 197 231 274
#     4   8  13  23  42  67  91 116 152 199 240 270
#     4   8  13  22  41  69  95 120 155 197 234 269
#     4  10  20  32  48  70  94 119 150 189 231 277
#     4   9  17  28  43  64  92 127 162 193 224 263
#     4  10  16  27  47  69  95 127 159 191 230 274
#
# _framework density 16.240701000000001
#
# number of rings (size 3 to 8) (size 9 to 14) (size 15 to 20)
#    0.000    2.500    2.500    2.250    0.000    1.000 
#    0.000    1.250    0.000    0.750    0.000    2.625 
#    0.000    7.000    0.000    0.000    0.000    0.000 
#
# Total GULP energy -793295.637676 kJ/mol
# GULP energy per Si atom -12395.244339 kJ/mol
# Density = 1.620374 g / cm^3
# Si number density = 16.240701 Si / 1000 Ang^3
#
#
#
# Elastic Constant Matrix: (Units=GPa)
#
#
# Indices 1 2 3 4 5 6 
#
# 1 23.3424 23.5194 15.6179 0.0000 0.0000 0.0000
# 2 23.5194 139.0397 59.7432 0.0000 0.0000 0.0000
# 3 15.6179 59.7432 85.6432 0.0000 0.0000 0.0000
# 4 0.0000 0.0000 0.0000 24.0232 0.0000 0.0000
# 5 0.0000 0.0000 0.0000 0.0000 21.0305 0.0000
# 6 0.0000 0.0000 0.0000 0.0000 0.0000 15.1223
#
#
#
# Elastic Compliance Matrix: (Units=1/GPa)
#
#
# Indices 1 2 3 4 5 6 
#
# 1 0.053030 -0.006876 -0.004874 0.000000 0.000000 0.000000
# 2 -0.006876 0.011162 -0.006533 0.000000 0.000000 0.000000
# 3 -0.004874 -0.006533 0.017122 0.000000 0.000000 0.000000
# 4 0.000000 0.000000 0.000000 0.041626 0.000000 0.000000
# 5 0.000000 0.000000 0.000000 0.000000 0.047550 0.000000
# 6 0.000000 0.000000 0.000000 0.000000 0.000000 0.066128
#
#
# Mechanical properties :
#
#
# Convention : Reuss Voigt Hill
#
# Bulk Modulus (GPa) = 22.34692 49.53181 35.93937
# Shear Modulus (GPa) = 17.35511 21.97819 19.66665
#
# Velocity S-wave (km/s) = 3.27252 3.68268 3.48364
# Velocity P-wave (km/s) = 5.29801 6.97479 6.19341
#
# Compressibility (1/GPa) = 0.04474890
#
# Stress axis : x y z
#
# Youngs Moduli (GPa) = 18.85740 89.58700 58.40347
#
# Poissons Ratio (x) = 0.61600 0.28465
# Poissons Ratio (y) = 0.12966 0.38153
# Poissons Ratio (z) = 0.09191 0.58525
#
# Static dielectric constant tensor:
#      x y z
#    x 2.724850 0.000000 0.000000 
#    y 0.000000 3.334130 0.000000 
#    z 0.000000 0.000000 2.968400 
# 
# 
# High freq. dielectric constant tensor:
#      x y z
#    x 1.595930 0.000000 0.000000 
#    y 0.000000 1.618270 0.000000 
#    z 0.000000 0.000000 1.607150 
# 
# From -- ./inp_files/21830.got.cif
#   From: 2010.03.12/outbox.cif.g09.slc.cpg/sg59_11_cif.got.tgz:21830.got - 2010.04.16 16:29:54.
