data_PCOD8239540
_publ_section_title
;
Structure prediction by ZEFSAII (Michael W. Deem and Ramdas Pophale) SiO2 
 PCOD8239540
Probable space group: P M M N
;
_chemical_formula_sum "Si O2"
_cell_formula_units_Z 64
_cell_length_a 20.442914
_cell_length_b 9.408640
_cell_length_c 19.947213
_cell_angle_alpha 90.000000
_cell_angle_beta 90.000000
_cell_angle_gamma 90.000000
_cell_volume 3836.647315
_symmetry_space_group_name_H-M "P M M N"
_symmetry_group_IT_number 59
_space_group.IT_coordinate_system_code '2'
_symmetry_cell_setting 'orthorhombic'
loop_
_space_group_symop_operation_xyz
x,y,z
1/2-x,1/2-y,z
1/2+x,-y,-z
-x,1/2+y,-z
-x,-y,-z
1/2+x,1/2+y,-z
1/2-x,y,z
x,1/2-y,z
loop_
_atom_site_type_symbol
_atom_site_label
_atom_site_fract_x
_atom_site_fract_y
_atom_site_fract_z
Si Si1 0.322773 0.081230 0.555320
Si Si2 0.677525 0.581217 0.595216
Si Si3 0.558418 0.582573 0.683684
Si Si4 0.530964 0.588223 0.831535
Si Si5 0.321433 0.082566 0.931094
Si Si6 0.572012 0.582572 0.338937
Si Si7 0.906258 0.586234 0.189322
Si Si8 0.563232 0.584647 0.976694
O O1 0.250000 0.026228 0.575373
O O2 0.323088 0.250000 0.559230
O O3 0.339835 0.029822 0.480071
O O4 0.377602 0.021486 0.605868
O O5 0.750000 0.524615 0.615663
O O6 0.678356 0.750000 0.597319
O O7 0.622881 0.522907 0.646316
O O8 0.548518 0.750000 0.670763
O O9 0.568310 0.547318 0.762636
O O10 0.495926 0.500968 0.653839
O O11 0.507187 0.750000 0.826639
O O12 0.466852 0.495965 0.841898
O O13 0.576323 0.564465 0.896847
O O14 0.250000 0.012911 0.943188
O O15 0.316296 0.250000 0.940877
O O16 0.342970 0.045914 0.854787
O O17 0.373394 0.022337 0.984916
O O18 0.558177 0.750000 0.348039
O O19 0.605390 0.549066 0.267134
O O20 0.924227 0.750000 0.180599
O O21 0.552124 0.750000 0.994566
O O22 0.500000 0.500000 0.000000
#
# Coordination Sequence:
#
# PCOD8239540 Si02
#       8
#     8   8   8   8   8   8   8   8
#     4   8  14  25  41  62  87 114 146 183 217 251
#     4   8  14  26  44  63  84 114 150 182 214 256
#     4   9  17  29  44  64  89 114 142 179 219 258
#     4   9  17  28  43  64  87 109 139 177 214 252
#     4   9  17  28  42  63  89 112 138 175 216 255
#     4   9  17  27  42  66  91 112 141 180 218 254
#     4   9  16  27  43  62  84 113 144 171 207 256
#     4  10  18  29  47  66  84 112 146 177 213 256
#
# _framework density 16.681231
#
# number of rings (size 3 to 8) (size 9 to 14) (size 15 to 20)
#    0.000    3.125    1.250    0.750    0.000    1.000 
#    0.000    3.125    0.000    6.000    0.000    5.250 
#    0.000    3.000    0.000    0.000    0.000    0.000 
#
# Total GULP energy -793127.164705 kJ/mol
# GULP energy per Si atom -12392.611949 kJ/mol
# Density = 1.664326 g / cm^3
# Si number density = 16.681231 Si / 1000 Ang^3
#
#
#
# Elastic Constant Matrix: (Units=GPa)
#
#
# Indices 1 2 3 4 5 6 
#
# 1 152.8808 27.0229 95.1197 0.0000 0.0000 0.0000
# 2 27.0229 21.1843 21.4624 0.0000 0.0000 0.0000
# 3 95.1197 21.4624 121.2553 0.0000 0.0000 0.0000
# 4 0.0000 0.0000 0.0000 13.9732 0.0000 0.0000
# 5 0.0000 0.0000 0.0000 0.0000 28.3115 0.0000
# 6 0.0000 0.0000 0.0000 0.0000 0.0000 18.4857
#
#
#
# Elastic Compliance Matrix: (Units=1/GPa)
#
#
# Indices 1 2 3 4 5 6 
#
# 1 0.013832 -0.008105 -0.009416 0.000000 0.000000 0.000000
# 2 -0.008105 0.062268 -0.004664 0.000000 0.000000 0.000000
# 3 -0.009416 -0.004664 0.016459 0.000000 0.000000 0.000000
# 4 0.000000 0.000000 0.000000 0.071565 0.000000 0.000000
# 5 0.000000 0.000000 0.000000 0.000000 0.035321 0.000000
# 6 0.000000 0.000000 0.000000 0.000000 0.000000 0.054096
#
#
# Mechanical properties :
#
#
# Convention : Reuss Voigt Hill
#
# Bulk Modulus (GPa) = 20.75109 64.72557 42.73833
# Shear Modulus (GPa) = 15.92483 22.26845 19.09664
#
# Velocity S-wave (km/s) = 3.09310 3.65765 3.38716
# Velocity P-wave (km/s) = 5.02227 7.53150 6.40104
#
# Compressibility (1/GPa) = 0.04819023
#
# Stress axis : x y z
#
# Youngs Moduli (GPa) = 72.29495 16.05955 60.75615
#
# Poissons Ratio (x) = 0.13016 0.57210
# Poissons Ratio (y) = 0.58592 0.28336
# Poissons Ratio (z) = 0.68075 0.07490
#
# Static dielectric constant tensor:
#      x y z
#    x 3.323410 0.000000 0.000000 
#    y 0.000000 2.791600 0.000000 
#    z 0.000000 0.000000 3.455870 
# 
# 
# High freq. dielectric constant tensor:
#      x y z
#    x 1.630980 0.000000 0.000000 
#    y 0.000000 1.600180 0.000000 
#    z 0.000000 0.000000 1.654890 
# 
# From -- ./inp_files/28322.got.cif
#   From: 2010.03.12/outbox.cif.g09.slc.cpg/sg59_15_cif.got.tgz:28322.got - 2010.04.16 16:29:54.
