data_PCOD8239103
_publ_section_title
;
Structure prediction by ZEFSAII (Michael W. Deem and Ramdas Pophale) SiO2 
 PCOD8239103
Probable space group: P M M N
;
_chemical_formula_sum "Si O2"
_cell_formula_units_Z 56
_cell_length_a 8.709824
_cell_length_b 27.924828
_cell_length_c 14.002477
_cell_angle_alpha 90.000000
_cell_angle_beta 90.000000
_cell_angle_gamma 90.000000
_cell_volume 3405.687176
_symmetry_space_group_name_H-M "P M M N"
_symmetry_group_IT_number 59
_space_group.IT_coordinate_system_code '2'
_symmetry_cell_setting 'orthorhombic'
loop_
_space_group_symop_operation_xyz
x,y,z
1/2-x,1/2-y,z
1/2+x,-y,-z
-x,1/2+y,-z
-x,-y,-z
1/2+x,1/2+y,-z
1/2-x,y,z
x,1/2-y,z
loop_
_atom_site_type_symbol
_atom_site_label
_atom_site_fract_x
_atom_site_fract_y
_atom_site_fract_z
Si Si1 0.429887 0.304001 0.239901
Si Si2 0.932887 0.516559 0.599319
Si Si3 0.575313 0.938898 0.878270
Si Si4 0.573051 0.303359 0.038344
Si Si5 0.428773 0.604458 0.697753
Si Si6 0.430736 0.602421 0.061488
Si Si7 0.576575 0.463375 0.780908
O O1 0.250000 0.310178 0.253478
O O2 0.483415 0.250000 0.265053
O O3 0.514772 0.340497 0.312058
O O4 0.470544 0.315683 0.129923
O O5 0.750000 0.515496 0.597308
O O6 0.002415 0.480893 0.681852
O O7 0.000000 0.500000 0.500000
O O8 0.984058 0.570776 0.621904
O O9 0.750000 0.921220 0.861486
O O10 0.464678 0.911187 0.805645
O O11 0.563587 0.995406 0.860569
O O12 0.521949 0.928588 0.984669
O O13 0.750000 0.307822 0.070469
O O14 0.536911 0.250000 0.999300
O O15 0.535129 0.341095 0.953761
O O16 0.250000 0.601219 0.675890
O O17 0.250000 0.591177 0.051624
O O18 0.489600 0.584639 0.166904
O O19 0.750000 0.452846 0.751544
#
# Coordination Sequence:
#
# PCOD8239103 Si02
#       7
#     8   8   8   8   8   8   8
#     4  10  19  30  45  66  95 129 162 196 234 275
#     4  10  20  36  54  72  94 119 153 200 248 300
#     4  10  18  28  41  61  92 124 156 193 229 269
#     4   9  17  27  40  61  90 124 161 195 224 263
#     4  11  20  31  48  70  95 127 161 195 236 286
#     4  10  17  27  43  62  88 124 158 187 226 273
#     4   8  17  30  44  64  89 117 151 191 233 279
#
# _framework density 16.443083000000001
#
# number of rings (size 3 to 8) (size 9 to 14) (size 15 to 20)
#    0.000    2.286    1.429    3.857    0.000    0.857 
#    0.000    3.571    0.000    0.000    0.000    1.000 
#    0.000    3.429    0.000    0.000    0.000    0.000 
#
# Total GULP energy -693999.839215 kJ/mol
# GULP energy per Si atom -12392.854272 kJ/mol
# Density = 1.640566 g / cm^3
# Si number density = 16.443083 Si / 1000 Ang^3
#
#
#
# Elastic Constant Matrix: (Units=GPa)
#
#
# Indices 1 2 3 4 5 6 
#
# 1 60.9090 32.0168 26.0943 0.0000 0.0000 0.0000
# 2 32.0168 113.2708 64.5998 0.0000 0.0000 0.0000
# 3 26.0943 64.5998 94.1164 0.0000 0.0000 0.0000
# 4 0.0000 0.0000 0.0000 20.5081 0.0000 0.0000
# 5 0.0000 0.0000 0.0000 0.0000 17.2010 0.0000
# 6 0.0000 0.0000 0.0000 0.0000 0.0000 21.4332
#
#
#
# Elastic Compliance Matrix: (Units=1/GPa)
#
#
# Indices 1 2 3 4 5 6 
#
# 1 0.019690 -0.004029 -0.002693 0.000000 0.000000 0.000000
# 2 -0.004029 0.015332 -0.009406 0.000000 0.000000 0.000000
# 3 -0.002693 -0.009406 0.017828 0.000000 0.000000 0.000000
# 4 0.000000 0.000000 0.000000 0.048761 0.000000 0.000000
# 5 0.000000 0.000000 0.000000 0.000000 0.058136 0.000000
# 6 0.000000 0.000000 0.000000 0.000000 0.000000 0.046657
#
#
# Mechanical properties :
#
#
# Convention : Reuss Voigt Hill
#
# Bulk Modulus (GPa) = 48.56331 57.07979 52.82155
# Shear Modulus (GPa) = 20.36441 21.53415 20.94928
#
# Velocity S-wave (km/s) = 3.52302 3.62279 3.57325
# Velocity P-wave (km/s) = 6.79317 7.23107 7.01554
#
# Compressibility (1/GPa) = 0.02059168
#
# Stress axis : x y z
#
# Youngs Moduli (GPa) = 50.78752 65.22340 56.09063
#
# Poissons Ratio (x) = 0.26281 0.15108
# Poissons Ratio (y) = 0.20464 0.52761
# Poissons Ratio (z) = 0.13679 0.61352
#
# Static dielectric constant tensor:
#      x y z
#    x 3.043880 0.000000 0.000000 
#    y 0.000000 3.435720 0.000000 
#    z 0.000000 0.000000 2.915380 
# 
# 
# High freq. dielectric constant tensor:
#      x y z
#    x 1.629650 0.000000 0.000000 
#    y 0.000000 1.637780 0.000000 
#    z 0.000000 0.000000 1.586700 
# 
# From -- ./inp_files/21755.got.cif
#   From: 2010.03.12/outbox.cif.g09.slc.cpg/sg59_11_cif.got.tgz:21755.got - 2010.04.16 16:29:54.
