data_PCOD8239105
_publ_section_title
;
Structure prediction by ZEFSAII (Michael W. Deem and Ramdas Pophale) SiO2 
 PCOD8239105
Probable space group: P M M N
;
_chemical_formula_sum "Si O2"
_cell_formula_units_Z 48
_cell_length_a 9.105209
_cell_length_b 21.559076
_cell_length_c 15.210871
_cell_angle_alpha 90.000000
_cell_angle_beta 90.000000
_cell_angle_gamma 90.000000
_cell_volume 2985.892347
_symmetry_space_group_name_H-M "P M M N"
_symmetry_group_IT_number 59
_space_group.IT_coordinate_system_code '2'
_symmetry_cell_setting 'orthorhombic'
loop_
_space_group_symop_operation_xyz
x,y,z
1/2-x,1/2-y,z
1/2+x,-y,-z
-x,1/2+y,-z
-x,-y,-z
1/2+x,1/2+y,-z
1/2-x,y,z
x,1/2-y,z
loop_
_atom_site_type_symbol
_atom_site_label
_atom_site_fract_x
_atom_site_fract_y
_atom_site_fract_z
Si Si1 0.081640 0.078050 0.435820
Si Si2 0.580422 0.820650 0.702208
Si Si3 0.417804 0.938099 0.019389
Si Si4 0.577501 0.036418 0.794285
Si Si5 0.577578 0.093778 0.165880
Si Si6 0.079716 0.041624 0.625313
O O1 0.250000 0.056035 0.422033
O O2 0.051422 0.143673 0.389469
O O3 0.048590 0.084464 0.540019
O O4 0.974802 0.028070 0.392497
O O5 0.750000 0.825924 0.730071
O O6 0.532351 0.750000 0.686683
O O7 0.483609 0.848113 0.780773
O O8 0.250000 0.957327 0.016602
O O9 0.455805 0.918812 0.120524
O O10 0.451262 0.890748 0.938874
O O11 0.500000 0.000000 0.000000
O O12 0.750000 0.027098 0.778929
O O13 0.507200 0.069573 0.708977
O O14 0.505471 0.968680 0.805580
O O15 0.750000 0.085378 0.185096
O O16 0.250000 0.039081 0.649155
#
# Coordination Sequence:
#
# PCOD8239105 Si02
#       6
#     8   8   8   8   8   8
#     4   9  18  31  44  61  88 119 149 183 226 272
#     4  10  20  33  48  65  87 119 154 185 222 271
#     4   8  16  27  40  60  87 116 144 173 212 259
#     4  10  17  27  43  64  91 121 146 174 219 271
#     4  10  18  29  44  64  89 116 149 187 220 257
#     4  10  18  27  43  66  90 117 148 184 225 270
#
# _framework density 16.075596000000001
#
# number of rings (size 3 to 8) (size 9 to 14) (size 15 to 20)
#    0.000    2.500    1.667    1.500    0.000    2.333 
#    0.000    0.000    0.000    0.000    0.000    1.167 
#    0.000    4.000    0.000    0.000    0.000    0.000 
#
# Total GULP energy -594677.413942 kJ/mol
# GULP energy per Si atom -12389.112790 kJ/mol
# Density = 1.603901 g / cm^3
# Si number density = 16.075596 Si / 1000 Ang^3
#
#
#
# Elastic Constant Matrix: (Units=GPa)
#
#
# Indices 1 2 3 4 5 6 
#
# 1 76.5818 26.1257 63.1192 0.0000 0.0000 0.0000
# 2 26.1257 58.3144 48.7362 0.0000 0.0000 0.0000
# 3 63.1192 48.7362 169.3775 0.0000 0.0000 0.0000
# 4 0.0000 0.0000 0.0000 17.1821 0.0000 0.0000
# 5 0.0000 0.0000 0.0000 0.0000 27.9714 0.0000
# 6 0.0000 0.0000 0.0000 0.0000 0.0000 13.6906
#
#
#
# Elastic Compliance Matrix: (Units=1/GPa)
#
#
# Indices 1 2 3 4 5 6 
#
# 1 0.019369 -0.003483 -0.006216 0.000000 0.000000 0.000000
# 2 -0.003483 0.023204 -0.005379 0.000000 0.000000 0.000000
# 3 -0.006216 -0.005379 0.009768 0.000000 0.000000 0.000000
# 4 0.000000 0.000000 0.000000 0.058200 0.000000 0.000000
# 5 0.000000 0.000000 0.000000 0.000000 0.035751 0.000000
# 6 0.000000 0.000000 0.000000 0.000000 0.000000 0.073043
#
#
# Mechanical properties :
#
#
# Convention : Reuss Voigt Hill
#
# Bulk Modulus (GPa) = 45.07263 64.47067 54.77165
# Shear Modulus (GPa) = 19.46395 22.85501 21.15948
#
# Velocity S-wave (km/s) = 3.48340 3.77466 3.63195
# Velocity P-wave (km/s) = 6.65414 7.69345 7.19259
#
# Compressibility (1/GPa) = 0.02218641
#
# Stress axis : x y z
#
# Youngs Moduli (GPa) = 51.62824 43.09589 102.37460
#
# Poissons Ratio (x) = 0.15009 0.63635
# Poissons Ratio (y) = 0.17981 0.55066
# Poissons Ratio (z) = 0.32092 0.23181
#
# Static dielectric constant tensor:
#      x y z
#    x 3.100420 0.000000 0.000000 
#    y 0.000000 2.551920 0.000000 
#    z 0.000000 0.000000 3.881010 
# 
# 
# High freq. dielectric constant tensor:
#      x y z
#    x 1.631300 0.000000 0.000000 
#    y 0.000000 1.543310 0.000000 
#    z 0.000000 0.000000 1.644850 
# 
# From -- ./inp_files/20739.got.cif
#   From: 2010.03.12/outbox.cif.g09.slc.cpg/sg59_11_cif.got.tgz:20739.got - 2010.04.16 16:29:54.
