data_PCOD8239441
_publ_section_title
;
Structure prediction by ZEFSAII (Michael W. Deem and Ramdas Pophale) SiO2 
 PCOD8239441
Probable space group: P M M N
;
_chemical_formula_sum "Si O2"
_cell_formula_units_Z 64
_cell_length_a 13.839014
_cell_length_b 9.222454
_cell_length_c 27.833888
_cell_angle_alpha 90.000000
_cell_angle_beta 90.000000
_cell_angle_gamma 90.000000
_cell_volume 3552.429941
_symmetry_space_group_name_H-M "P M M N"
_symmetry_group_IT_number 59
_space_group.IT_coordinate_system_code '2'
_symmetry_cell_setting 'orthorhombic'
loop_
_space_group_symop_operation_xyz
x,y,z
1/2-x,1/2-y,z
1/2+x,-y,-z
-x,1/2+y,-z
-x,-y,-z
1/2+x,1/2+y,-z
1/2-x,y,z
x,1/2-y,z
loop_
_atom_site_type_symbol
_atom_site_label
_atom_site_fract_x
_atom_site_fract_y
_atom_site_fract_z
Si Si1 0.856646 0.922226 0.474610
Si Si2 0.138468 0.920939 0.128333
Si Si3 0.531944 0.579644 0.195451
Si Si4 0.475855 0.415857 0.048141
Si Si5 0.638556 0.919057 0.581735
Si Si6 0.468839 0.078168 0.617467
Si Si7 0.857551 0.410153 0.120970
Si Si8 0.640097 0.922569 0.288156
O O1 0.750000 0.984886 0.464946
O O2 0.852725 0.750000 0.472712
O O3 0.890683 0.970908 0.527711
O O4 0.924275 0.981668 0.432350
O O5 0.250000 0.958387 0.139976
O O6 0.124418 0.750000 0.118901
O O7 0.072834 0.972308 0.174412
O O8 0.106162 0.005221 0.080222
O O9 0.531687 0.750000 0.198074
O O10 0.615308 0.530576 0.159514
O O11 0.564361 0.518608 0.247673
O O12 0.442549 0.250000 0.038051
O O13 0.577315 0.420366 0.074525
O O14 0.500000 0.500000 0.000000
O O15 0.750000 0.955027 0.591941
O O16 0.618068 0.750000 0.588336
O O17 0.575143 0.007470 0.620402
O O18 0.479617 0.250000 0.618782
O O19 0.401796 0.023327 0.661000
O O20 0.750000 0.441543 0.102962
O O21 0.867306 0.250000 0.144581
O O22 0.750000 0.982856 0.281047
O O23 0.644170 0.750000 0.286795
#
# Coordination Sequence:
#
# PCOD8239441 Si02
#       8
#     8   8   8   8   8   8   8   8
#     4   8  14  26  45  67  90 120 157 192 231 285
#     4   9  18  33  52  72  96 129 168 208 246 281
#     4   9  17  31  51  73  95 122 158 195 232 279
#     4  10  20  33  49  72 102 133 164 198 238 285
#     4   9  18  32  47  62  86 123 161 195 235 282
#     4  10  18  28  46  71  95 120 154 195 236 281
#     4   9  18  32  49  69  94 124 156 192 235 278
#     4   9  17  29  47  73 102 126 148 184 239 296
#
# _framework density 18.015837000000001
#
# number of rings (size 3 to 8) (size 9 to 14) (size 15 to 20)
#    0.000    2.875    0.000    2.250    0.000    3.750 
#    0.000    2.500    0.000    5.250    0.000    0.000 
#    0.000    0.000    0.000    0.000    0.000    0.000 
#
# Total GULP energy -793076.235288 kJ/mol
# GULP energy per Si atom -12391.816176 kJ/mol
# Density = 1.797483 g / cm^3
# Si number density = 18.015837 Si / 1000 Ang^3
#
#
#
# Elastic Constant Matrix: (Units=GPa)
#
#
# Indices 1 2 3 4 5 6 
#
# 1 133.3804 33.4755 68.1859 0.0000 0.0000 0.0000
# 2 33.4755 25.5158 27.7764 0.0000 0.0000 0.0000
# 3 68.1859 27.7764 97.2325 0.0000 0.0000 0.0000
# 4 0.0000 0.0000 0.0000 18.0505 0.0000 0.0000
# 5 0.0000 0.0000 0.0000 0.0000 22.0469 0.0000
# 6 0.0000 0.0000 0.0000 0.0000 0.0000 24.5127
#
#
#
# Elastic Compliance Matrix: (Units=1/GPa)
#
#
# Indices 1 2 3 4 5 6 
#
# 1 0.013437 -0.010698 -0.006367 0.000000 0.000000 0.000000
# 2 -0.010698 0.065397 -0.011180 0.000000 0.000000 0.000000
# 3 -0.006367 -0.011180 0.017943 0.000000 0.000000 0.000000
# 4 0.000000 0.000000 0.000000 0.055400 0.000000 0.000000
# 5 0.000000 0.000000 0.000000 0.000000 0.045358 0.000000
# 6 0.000000 0.000000 0.000000 0.000000 0.000000 0.040795
#
#
# Mechanical properties :
#
#
# Convention : Reuss Voigt Hill
#
# Bulk Modulus (GPa) = 24.82129 57.22268 41.02199
# Shear Modulus (GPa) = 16.22063 21.36807 18.79435
#
# Velocity S-wave (km/s) = 3.00385 3.44768 3.23338
# Velocity P-wave (km/s) = 5.08313 6.90507 6.06293
#
# Compressibility (1/GPa) = 0.04028800
#
# Stress axis : x y z
#
# Youngs Moduli (GPa) = 74.42045 15.29125 55.73101
#
# Poissons Ratio (x) = 0.16358 0.35484
# Poissons Ratio (y) = 0.79614 0.62307
# Poissons Ratio (z) = 0.47383 0.17095
#
# Static dielectric constant tensor:
#      x y z
#    x 3.514570 0.000000 0.000000 
#    y 0.000000 3.101950 0.000000 
#    z 0.000000 0.000000 3.418380 
# 
# 
# High freq. dielectric constant tensor:
#      x y z
#    x 1.704770 0.000000 0.000000 
#    y 0.000000 1.668820 0.000000 
#    z 0.000000 0.000000 1.686910 
# 
# From -- ./inp_files/32201.got.cif
#   From: 2010.03.12/outbox.cif.g09.slc.cpg/sg59_17_cif.got.tgz:32201.got - 2010.04.16 16:29:54.
