data_PCOD8239458
_publ_section_title
;
Structure prediction by ZEFSAII (Michael W. Deem and Ramdas Pophale) SiO2 
 PCOD8239458
Probable space group: P M M N
;
_chemical_formula_sum "Si O2"
_cell_formula_units_Z 56
_cell_length_a 14.262485
_cell_length_b 17.500289
_cell_length_c 12.975739
_cell_angle_alpha 90.000000
_cell_angle_beta 90.000000
_cell_angle_gamma 90.000000
_cell_volume 3238.713434
_symmetry_space_group_name_H-M "P M M N"
_symmetry_group_IT_number 59
_space_group.IT_coordinate_system_code '2'
_symmetry_cell_setting 'orthorhombic'
loop_
_space_group_symop_operation_xyz
x,y,z
1/2-x,1/2-y,z
1/2+x,-y,-z
-x,1/2+y,-z
-x,-y,-z
1/2+x,1/2+y,-z
1/2-x,y,z
x,1/2-y,z
loop_
_atom_site_type_symbol
_atom_site_label
_atom_site_fract_x
_atom_site_fract_y
_atom_site_fract_z
Si Si1 0.855969 0.425774 0.539201
Si Si2 0.955104 0.660854 0.763163
Si Si3 0.644811 0.840716 0.964123
Si Si4 0.854942 0.840852 0.191015
Si Si5 0.977559 0.661561 0.377971
Si Si6 0.640924 0.897368 0.562025
Si Si7 0.145922 0.662757 0.668534
O O1 0.750000 0.409561 0.576488
O O2 0.876958 0.515080 0.532965
O O3 0.874426 0.392406 0.426344
O O4 0.925847 0.385208 0.618413
O O5 0.930592 0.750000 0.752418
O O6 0.923745 0.628270 0.874605
O O7 0.897365 0.616825 0.676134
O O8 0.066998 0.646368 0.754431
O O9 0.750000 0.870990 0.942844
O O10 0.645186 0.750000 0.963411
O O11 0.610497 0.868439 0.077495
O O12 0.750000 0.872148 0.211259
O O13 0.853494 0.750000 0.196900
O O14 0.922408 0.873228 0.279749
O O15 0.002308 0.750000 0.362341
O O16 0.915506 0.653853 0.480828
O O17 0.750000 0.875042 0.556751
O O18 0.250000 0.647751 0.715185
O O19 0.137757 0.750000 0.628455
#
# Coordination Sequence:
#
# PCOD8239458 Si02
#       7
#     8   8   8   8   8   8   8
#     4  10  21  35  48  65  94 134 168 192 227 283
#     4  10  18  28  47  73  97 123 154 194 239 284
#     4   8  14  26  44  67  96 126 155 187 229 288
#     4   8  15  28  46  69  96 125 155 190 236 286
#     4  11  20  31  50  73  97 124 157 202 241 277
#     4  11  22  32  45  71 102 129 152 187 244 296
#     4   9  17  30  47  67  91 122 163 201 230 269
#
# _framework density 17.290817000000001
#
# number of rings (size 3 to 8) (size 9 to 14) (size 15 to 20)
#    0.000    2.429    1.429    3.000    0.000    3.143 
#    0.000    0.000    0.000    1.714    0.000    4.000 
#    0.000    0.000    0.000    0.000    0.000    0.000 
#
# Total GULP energy -694240.585472 kJ/mol
# GULP energy per Si atom -12397.153312 kJ/mol
# Density = 1.725146 g / cm^3
# Si number density = 17.290817 Si / 1000 Ang^3
#
#
#
# Elastic Constant Matrix: (Units=GPa)
#
#
# Indices 1 2 3 4 5 6 
#
# 1 108.9988 20.6228 57.2525 0.0000 0.0000 0.0000
# 2 20.6228 32.9642 11.2150 0.0000 0.0000 0.0000
# 3 57.2525 11.2150 114.4934 0.0000 0.0000 0.0000
# 4 0.0000 0.0000 0.0000 2.3570 0.0000 0.0000
# 5 0.0000 0.0000 0.0000 0.0000 30.1549 0.0000
# 6 0.0000 0.0000 0.0000 0.0000 0.0000 21.8108
#
#
#
# Elastic Compliance Matrix: (Units=1/GPa)
#
#
# Indices 1 2 3 4 5 6 
#
# 1 0.013644 -0.006429 -0.006193 0.000000 0.000000 0.000000
# 2 -0.006429 0.034411 -0.000156 0.000000 0.000000 0.000000
# 3 -0.006193 -0.000156 0.011846 0.000000 0.000000 0.000000
# 4 0.000000 0.000000 0.000000 0.424275 0.000000 0.000000
# 5 0.000000 0.000000 0.000000 0.000000 0.033162 0.000000
# 6 0.000000 0.000000 0.000000 0.000000 0.000000 0.045849
#
#
# Mechanical properties :
#
#
# Convention : Reuss Voigt Hill
#
# Bulk Modulus (GPa) = 29.11575 48.29299 38.70437
# Shear Modulus (GPa) = 8.33070 22.02228 15.17649
#
# Velocity S-wave (km/s) = 2.19737 3.57268 2.96585
# Velocity P-wave (km/s) = 4.82839 6.70889 5.84476
#
# Compressibility (1/GPa) = 0.03434567
#
# Stress axis : x y z
#
# Youngs Moduli (GPa) = 73.29490 29.06058 84.41602
#
# Poissons Ratio (x) = 0.18682 0.52277
# Poissons Ratio (y) = 0.47119 0.01317
# Poissons Ratio (z) = 0.45390 0.00453
#
# Static dielectric constant tensor:
#      x y z
#    x 3.492070 0.000000 0.000000 
#    y 0.000000 2.952630 0.000000 
#    z 0.000000 0.000000 3.346670 
# 
# 
# High freq. dielectric constant tensor:
#      x y z
#    x 1.676550 0.000000 0.000000 
#    y 0.000000 1.636950 0.000000 
#    z 0.000000 0.000000 1.652930 
# 
# From -- ./inp_files/16965.got.cif
#   From: 2010.03.12/outbox.cif.g09.slc.cpg/sg59_9_cif.got.tgz:16965.got - 2010.04.16 16:29:54.
