data_PCOD8239913
_publ_section_title
;
Structure prediction by ZEFSAII (Michael W. Deem and Ramdas Pophale) SiO2 
 PCOD8239913
Probable space group: P M M N
;
_chemical_formula_sum "Si O2"
_cell_formula_units_Z 48
_cell_length_a 8.663084
_cell_length_b 15.259285
_cell_length_c 18.567005
_cell_angle_alpha 90.000000
_cell_angle_beta 90.000000
_cell_angle_gamma 90.000000
_cell_volume 2454.418209
_symmetry_space_group_name_H-M "P M M N"
_symmetry_group_IT_number 59
_space_group.IT_coordinate_system_code '2'
_symmetry_cell_setting 'orthorhombic'
loop_
_space_group_symop_operation_xyz
x,y,z
1/2-x,1/2-y,z
1/2+x,-y,-z
-x,1/2+y,-z
-x,-y,-z
1/2+x,1/2+y,-z
1/2-x,y,z
x,1/2-y,z
loop_
_atom_site_type_symbol
_atom_site_label
_atom_site_fract_x
_atom_site_fract_y
_atom_site_fract_z
Si Si1 0.570424 0.149136 0.929513
Si Si2 0.074511 0.346665 0.405900
Si Si3 0.430449 0.009678 0.667471
Si Si4 0.429167 0.349696 0.082071
Si Si5 0.569426 0.996986 0.168657
Si Si6 0.432286 0.913499 0.463658
O O1 0.750000 0.128886 0.918521
O O2 0.530199 0.250000 0.911620
O O3 0.472192 0.088091 0.877399
O O4 0.526944 0.127054 0.011376
O O5 0.250000 0.381638 0.409146
O O6 0.066884 0.250000 0.371042
O O7 0.976384 0.411814 0.356540
O O8 0.006888 0.337369 0.487522
O O9 0.250000 0.021454 0.656236
O O10 0.480105 0.023585 0.749741
O O11 0.515052 0.084973 0.619885
O O12 0.250000 0.362657 0.063584
O O13 0.462457 0.250000 0.107579
O O14 0.478515 0.416225 0.144394
O O15 0.750000 0.016658 0.162276
O O16 0.250000 0.907500 0.468278
O O17 0.500000 0.000000 0.500000
#
# Coordination Sequence:
#
# PCOD8239913 Si02
#       6
#     8   8   8   8   8   8
#     4  10  21  38  60  83 108 141 184 234 281 328
#     4  10  20  34  54  79 106 137 174 217 264 315
#     4  10  21  36  53  75 106 142 177 215 264 319
#     4  10  21  37  58  83 112 147 186 229 275 326
#     4  11  23  37  56  82 113 150 186 225 277 333
#     4  10  18  31  53  75  98 130 168 209 251 300
#
# _framework density 19.556570000000001
#
# number of rings (size 3 to 8) (size 9 to 14) (size 15 to 20)
#    0.000    1.833    0.000    6.500    0.000    6.667 
#    0.000    4.167    0.000    1.000    0.000    0.000 
#    0.000    0.000    0.000    0.000    0.000    0.000 
#
# Total GULP energy -595155.852977 kJ/mol
# GULP energy per Si atom -12399.080270 kJ/mol
# Density = 1.951206 g / cm^3
# Si number density = 19.556570 Si / 1000 Ang^3
#
#
#
# Elastic Constant Matrix: (Units=GPa)
#
#
# Indices 1 2 3 4 5 6 
#
# 1 64.4435 13.5652 25.8408 0.0000 0.0000 0.0000
# 2 13.5652 52.0144 17.6725 0.0000 0.0000 0.0000
# 3 25.8408 17.6725 89.4987 0.0000 0.0000 0.0000
# 4 0.0000 0.0000 0.0000 17.8416 0.0000 0.0000
# 5 0.0000 0.0000 0.0000 0.0000 33.4301 0.0000
# 6 0.0000 0.0000 0.0000 0.0000 0.0000 28.3261
#
#
#
# Elastic Compliance Matrix: (Units=1/GPa)
#
#
# Indices 1 2 3 4 5 6 
#
# 1 0.018016 -0.003142 -0.004581 0.000000 0.000000 0.000000
# 2 -0.003142 0.021156 -0.003270 0.000000 0.000000 0.000000
# 3 -0.004581 -0.003270 0.013142 0.000000 0.000000 0.000000
# 4 0.000000 0.000000 0.000000 0.056049 0.000000 0.000000
# 5 0.000000 0.000000 0.000000 0.000000 0.029913 0.000000
# 6 0.000000 0.000000 0.000000 0.000000 0.000000 0.035303
#
#
# Mechanical properties :
#
#
# Convention : Reuss Voigt Hill
#
# Bulk Modulus (GPa) = 32.97432 35.56818 34.27125
# Shear Modulus (GPa) = 24.31024 25.84477 25.07750
#
# Velocity S-wave (km/s) = 3.52955 3.63924 3.58481
# Velocity P-wave (km/s) = 5.78860 5.99046 5.89039
#
# Compressibility (1/GPa) = 0.03032663
#
# Stress axis : x y z
#
# Youngs Moduli (GPa) = 55.50660 47.26792 76.09280
#
# Poissons Ratio (x) = 0.14851 0.34860
# Poissons Ratio (y) = 0.17440 0.24885
# Poissons Ratio (z) = 0.25429 0.15458
#
# Static dielectric constant tensor:
#      x y z
#    x 3.651680 0.000000 0.000000 
#    y 0.000000 3.620060 0.000000 
#    z 0.000000 0.000000 3.731230 
# 
# 
# High freq. dielectric constant tensor:
#      x y z
#    x 1.778500 0.000000 0.000000 
#    y 0.000000 1.752310 0.000000 
#    z 0.000000 0.000000 1.755220 
# 
# From -- ./inp_files/25471.got.cif
#   From: 2010.03.12/outbox.cif.g09.slc.cpg/sg59_13_cif.got.tgz:25471.got - 2010.04.16 16:29:54.
