data_PCOD8239267
_publ_section_title
;
Structure prediction by ZEFSAII (Michael W. Deem and Ramdas Pophale) SiO2 
 PCOD8239267
Probable space group: P M M N
;
_chemical_formula_sum "Si O2"
_cell_formula_units_Z 64
_cell_length_a 9.177312
_cell_length_b 26.350697
_cell_length_c 18.197072
_cell_angle_alpha 90.000000
_cell_angle_beta 90.000000
_cell_angle_gamma 90.000000
_cell_volume 4400.571860
_symmetry_space_group_name_H-M "P M M N"
_symmetry_group_IT_number 59
_space_group.IT_coordinate_system_code '2'
_symmetry_cell_setting 'orthorhombic'
loop_
_space_group_symop_operation_xyz
x,y,z
1/2-x,1/2-y,z
1/2+x,-y,-z
-x,1/2+y,-z
-x,-y,-z
1/2+x,1/2+y,-z
1/2-x,y,z
x,1/2-y,z
loop_
_atom_site_type_symbol
_atom_site_label
_atom_site_fract_x
_atom_site_fract_y
_atom_site_fract_z
Si Si1 0.578363 0.394513 0.592823
Si Si2 0.582268 0.546854 0.965248
Si Si3 0.584518 0.043477 0.461099
Si Si4 0.082079 0.807819 0.180603
Si Si5 0.079390 0.486404 0.675458
Si Si6 0.581627 0.396702 0.923958
Si Si7 0.584158 0.007584 0.823378
Si Si8 0.580025 0.808721 0.328588
O O1 0.750000 0.391661 0.610640
O O2 0.548633 0.404208 0.504807
O O3 0.507861 0.438539 0.642898
O O4 0.502832 0.341056 0.609771
O O5 0.750000 0.544694 0.988596
O O6 0.566090 0.541546 0.876956
O O7 0.500000 0.500000 0.000000
O O8 0.510207 0.597450 0.000216
O O9 0.750000 0.029986 0.476404
O O10 0.500000 0.000000 0.500000
O O11 0.552445 0.038014 0.373708
O O12 0.250000 0.816588 0.203650
O O13 0.053333 0.750000 0.156523
O O14 0.039827 0.842848 0.111702
O O15 0.982368 0.823444 0.249000
O O16 0.250000 0.472292 0.678382
O O17 0.024179 0.500015 0.756049
O O18 0.750000 0.399566 0.945875
O O19 0.542396 0.440915 0.866137
O O20 0.750000 0.011198 0.794608
O O21 0.750000 0.821747 0.329508
O O22 0.549811 0.750000 0.346362
#
# Coordination Sequence:
#
# PCOD8239267 Si02
#       8
#     8   8   8   8   8   8   8   8
#     4  10  18  29  44  58  78 109 139 165 197 238
#     4   9  17  28  41  56  76 102 132 165 198 235
#     4   8  16  28  40  57  79 103 132 164 195 230
#     4   9  17  29  44  61  82 109 138 166 198 236
#     4  10  18  27  41  61  83 106 134 166 198 233
#     4   9  17  28  41  57  79 106 136 167 196 230
#     4   9  17  27  38  56  81 107 135 165 197 236
#     4  10  20  31  42  59  82 105 134 173 206 231
#
# _framework density 14.543564
#
# number of rings (size 3 to 8) (size 9 to 14) (size 15 to 20)
#    0.000    2.750    0.000    3.000    0.000    5.750 
#    0.000    0.000    0.000    0.000    0.000    0.000 
#    0.000    1.000    0.000    4.500    0.000    3.750 
#
# Total GULP energy -792987.150780 kJ/mol
# GULP energy per Si atom -12390.424231 kJ/mol
# Density = 1.451046 g / cm^3
# Si number density = 14.543564 Si / 1000 Ang^3
#
#
#
# Elastic Constant Matrix: (Units=GPa)
#
#
# Indices 1 2 3 4 5 6 
#
# 1 80.3212 39.1295 45.5660 0.0000 0.0000 0.0000
# 2 39.1295 68.5436 45.7348 0.0000 0.0000 0.0000
# 3 45.5660 45.7348 78.4666 0.0000 0.0000 0.0000
# 4 0.0000 0.0000 0.0000 25.4810 0.0000 0.0000
# 5 0.0000 0.0000 0.0000 0.0000 23.8866 0.0000
# 6 0.0000 0.0000 0.0000 0.0000 0.0000 20.2526
#
#
#
# Elastic Compliance Matrix: (Units=1/GPa)
#
#
# Indices 1 2 3 4 5 6 
#
# 1 0.019965 -0.005992 -0.008101 0.000000 0.000000 0.000000
# 2 -0.005992 0.025672 -0.011484 0.000000 0.000000 0.000000
# 3 -0.008101 -0.011484 0.024142 0.000000 0.000000 0.000000
# 4 0.000000 0.000000 0.000000 0.039245 0.000000 0.000000
# 5 0.000000 0.000000 0.000000 0.000000 0.041865 0.000000
# 6 0.000000 0.000000 0.000000 0.000000 0.000000 0.049376
#
#
# Mechanical properties :
#
#
# Convention : Reuss Voigt Hill
#
# Bulk Modulus (GPa) = 53.69011 54.24356 53.96684
# Shear Modulus (GPa) = 19.40790 20.38412 19.89601
#
# Velocity S-wave (km/s) = 3.65700 3.74784 3.70270
# Velocity P-wave (km/s) = 7.40462 7.49044 7.44765
#
# Compressibility (1/GPa) = 0.01862541
#
# Stress axis : x y z
#
# Youngs Moduli (GPa) = 50.08793 38.95266 41.42145
#
# Poissons Ratio (x) = 0.23340 0.33557
# Poissons Ratio (y) = 0.30012 0.47567
# Poissons Ratio (z) = 0.40578 0.44732
#
# Static dielectric constant tensor:
#      x y z
#    x 3.000770 0.000000 0.000000 
#    y 0.000000 2.882960 0.000000 
#    z 0.000000 0.000000 3.202570 
# 
# 
# High freq. dielectric constant tensor:
#      x y z
#    x 1.571340 0.000000 0.000000 
#    y 0.000000 1.522780 0.000000 
#    z 0.000000 0.000000 1.542840 
# 
# From -- ./inp_files/26634.got.cif
#   From: 2010.03.12/outbox.cif.g09.slc.cpg/sg59_14_cif.got.tgz:26634.got - 2010.04.16 16:29:54.
