data_PCOD8240668
_publ_section_title
;
Structure prediction by ZEFSAII (Michael W. Deem and Ramdas Pophale) SiO2 
 PCOD8240668
Probable space group: P M M N
;
_chemical_formula_sum "Si O2"
_cell_formula_units_Z 64
_cell_length_a 9.295724
_cell_length_b 15.618451
_cell_length_c 24.024022
_cell_angle_alpha 90.000000
_cell_angle_beta 90.000000
_cell_angle_gamma 90.000000
_cell_volume 3487.923065
_symmetry_space_group_name_H-M "P M M N"
_symmetry_group_IT_number 59
_space_group.IT_coordinate_system_code '2'
_symmetry_cell_setting 'orthorhombic'
loop_
_space_group_symop_operation_xyz
x,y,z
1/2-x,1/2-y,z
1/2+x,-y,-z
-x,1/2+y,-z
-x,-y,-z
1/2+x,1/2+y,-z
1/2-x,y,z
x,1/2-y,z
loop_
_atom_site_type_symbol
_atom_site_label
_atom_site_fract_x
_atom_site_fract_y
_atom_site_fract_z
Si Si1 0.414851 0.845001 0.163273
Si Si2 0.918062 0.653093 0.559069
Si Si3 0.079497 0.503012 0.366023
Si Si4 0.414400 0.080281 0.060185
Si Si5 0.083814 0.092187 0.936680
Si Si6 0.081843 0.847057 0.445912
Si Si7 0.578112 0.496068 0.758551
Si Si8 0.918432 0.657535 0.825121
O O1 0.250000 0.867428 0.149446
O O2 0.429227 0.750000 0.189189
O O3 0.501585 0.846041 0.105571
O O4 0.477009 0.912855 0.207774
O O5 0.750000 0.641123 0.546796
O O6 0.951263 0.750000 0.579827
O O7 0.971852 0.585547 0.605331
O O8 0.000573 0.632137 0.502637
O O9 0.250000 0.504783 0.362666
O O10 0.024714 0.586363 0.399667
O O11 0.014668 0.507108 0.303861
O O12 0.250000 0.045923 0.064677
O O13 0.447821 0.146991 0.109095
O O14 0.522895 0.002835 0.068696
O O15 0.438282 0.125260 0.000190
O O16 0.250000 0.091193 0.919926
O O17 0.250000 0.860380 0.457378
O O18 0.049677 0.750000 0.425560
O O19 0.750000 0.497200 0.757576
O O20 0.514079 0.580614 0.788812
O O21 0.750000 0.658046 0.813183
O O22 0.984104 0.750000 0.807394
#
# Coordination Sequence:
#
# PCOD8240668 Si02
#       8
#     8   8   8   8   8   8   8   8
#     4  10  20  34  52  71  95 130 167 203 246 295
#     4   9  17  29  46  70  99 126 152 187 233 283
#     4   9  17  28  45  69  96 124 156 197 238 275
#     4   9  17  31  50  73 101 128 158 197 242 295
#     4  10  19  30  50  75  99 128 159 199 250 296
#     4   9  17  29  46  69  96 124 155 192 232 276
#     4   9  17  30  47  69  96 123 159 205 243 280
#     4   9  16  27  47  72  95 121 154 195 241 287
#
# _framework density 18.349029999999999
#
# number of rings (size 3 to 8) (size 9 to 14) (size 15 to 20)
#    0.000    2.750    1.250    0.750    0.000    2.250 
#    0.000    6.250    0.000    1.875    0.000    1.750 
#    0.000    0.000    0.000    0.000    0.000    0.000 
#
# Total GULP energy -793312.062515 kJ/mol
# GULP energy per Si atom -12395.500977 kJ/mol
# Density = 1.830727 g / cm^3
# Si number density = 18.349030 Si / 1000 Ang^3
#
#
#
# Elastic Constant Matrix: (Units=GPa)
#
#
# Indices 1 2 3 4 5 6 
#
# 1 33.6664 23.1611 28.6609 0.0000 0.0000 0.0000
# 2 23.1611 146.6001 88.1243 0.0000 0.0000 0.0000
# 3 28.6609 88.1243 147.3596 0.0000 0.0000 0.0000
# 4 0.0000 0.0000 0.0000 17.5068 0.0000 0.0000
# 5 0.0000 0.0000 0.0000 0.0000 19.8277 0.0000
# 6 0.0000 0.0000 0.0000 0.0000 0.0000 13.8921
#
#
#
# Elastic Compliance Matrix: (Units=1/GPa)
#
#
# Indices 1 2 3 4 5 6 
#
# 1 0.036093 -0.002314 -0.005636 0.000000 0.000000 0.000000
# 2 -0.002314 0.010798 -0.006007 0.000000 0.000000 0.000000
# 3 -0.005636 -0.006007 0.011475 0.000000 0.000000 0.000000
# 4 0.000000 0.000000 0.000000 0.057121 0.000000 0.000000
# 5 0.000000 0.000000 0.000000 0.000000 0.050435 0.000000
# 6 0.000000 0.000000 0.000000 0.000000 0.000000 0.071983
#
#
# Mechanical properties :
#
#
# Convention : Reuss Voigt Hill
#
# Bulk Modulus (GPa) = 32.83978 67.50206 50.17092
# Shear Modulus (GPa) = 18.11787 22.75730 20.43759
#
# Velocity S-wave (km/s) = 3.14570 3.52553 3.34102
# Velocity P-wave (km/s) = 5.57943 7.31028 6.50270
#
# Compressibility (1/GPa) = 0.03045088
#
# Stress axis : x y z
#
# Youngs Moduli (GPa) = 27.70582 92.60920 87.14741
#
# Poissons Ratio (x) = 0.21434 0.49116
# Poissons Ratio (y) = 0.06412 0.52352
# Poissons Ratio (z) = 0.15615 0.55633
#
# Static dielectric constant tensor:
#      x y z
#    x 3.001680 0.000000 0.000000 
#    y 0.000000 3.538820 0.000000 
#    z 0.000000 0.000000 3.569260 
# 
# 
# High freq. dielectric constant tensor:
#      x y z
#    x 1.662250 0.000000 0.000000 
#    y 0.000000 1.718250 0.000000 
#    z 0.000000 0.000000 1.709440 
# 
# From -- ./inp_files/29623.got.cif
#   From: 2010.03.12/outbox.cif.g09.slc.cpg/sg59_15_cif.got.tgz:29623.got - 2010.04.16 16:29:54.
