data_PCOD8240509
_publ_section_title
;
Structure prediction by ZEFSAII (Michael W. Deem and Ramdas Pophale) SiO2 
 PCOD8240509
Probable space group: P M M N
;
_chemical_formula_sum "Si O2"
_cell_formula_units_Z 48
_cell_length_a 23.622045
_cell_length_b 8.969378
_cell_length_c 13.684021
_cell_angle_alpha 90.000000
_cell_angle_beta 90.000000
_cell_angle_gamma 90.000000
_cell_volume 2899.302644
_symmetry_space_group_name_H-M "P M M N"
_symmetry_group_IT_number 59
_space_group.IT_coordinate_system_code '2'
_symmetry_cell_setting 'orthorhombic'
loop_
_space_group_symop_operation_xyz
x,y,z
1/2-x,1/2-y,z
1/2+x,-y,-z
-x,1/2+y,-z
-x,-y,-z
1/2+x,1/2+y,-z
1/2-x,y,z
x,1/2-y,z
loop_
_atom_site_type_symbol
_atom_site_label
_atom_site_fract_x
_atom_site_fract_y
_atom_site_fract_z
Si Si1 0.687729 0.927260 0.351298
Si Si2 0.815397 0.577637 0.131607
Si Si3 0.023138 0.074750 0.145193
Si Si4 0.914013 0.075095 0.023799
Si Si5 0.473632 0.577401 0.352216
Si Si6 0.084223 0.076508 0.523026
O O1 0.750000 0.983861 0.384171
O O2 0.686600 0.750000 0.348529
O O3 0.674404 0.983005 0.241645
O O4 0.641437 0.986927 0.427620
O O5 0.750000 0.556901 0.101870
O O6 0.833458 0.750000 0.123280
O O7 0.853082 0.480855 0.058781
O O8 0.032593 0.250000 0.146487
O O9 0.961262 0.031559 0.104131
O O10 0.029606 0.012993 0.253122
O O11 0.071678 0.002929 0.078451
O O12 0.911820 0.250000 0.005536
O O13 0.462507 0.750000 0.330889
O O14 0.425313 0.517121 0.424920
O O15 0.534584 0.549119 0.399575
O O16 0.088901 0.250000 0.495186
#
# Coordination Sequence:
#
# PCOD8240509 Si02
#       6
#     8   8   8   8   8   8
#     4   8  14  26  46  70  93 120 155 190 223 265
#     4   9  17  30  49  72  98 128 159 190 227 274
#     4  10  20  33  49  69  94 124 157 193 235 284
#     4  10  20  32  48  71  97 124 154 192 237 280
#     4  10  19  30  46  68  94 123 154 190 232 277
#     4   9  17  29  46  68  94 123 153 188 230 274
#
# _framework density 16.555705
#
# number of rings (size 3 to 8) (size 9 to 14) (size 15 to 20)
#    0.000    2.667    0.000    3.500    0.000    4.333 
#    0.000    0.833    0.000    2.500    0.000    2.333 
#    0.000    0.000    0.000    0.000    0.000    0.000 
#
# Total GULP energy -595224.589946 kJ/mol
# GULP energy per Si atom -12400.512291 kJ/mol
# Density = 1.651802 g / cm^3
# Si number density = 16.555705 Si / 1000 Ang^3
#
#
#
# Elastic Constant Matrix: (Units=GPa)
#
#
# Indices 1 2 3 4 5 6 
#
# 1 90.8189 36.4308 47.9623 0.0000 0.0000 0.0000
# 2 36.4308 62.9337 41.6418 0.0000 0.0000 0.0000
# 3 47.9623 41.6418 93.8221 0.0000 0.0000 0.0000
# 4 0.0000 0.0000 0.0000 27.5168 0.0000 0.0000
# 5 0.0000 0.0000 0.0000 0.0000 26.5894 0.0000
# 6 0.0000 0.0000 0.0000 0.0000 0.0000 23.0154
#
#
#
# Elastic Compliance Matrix: (Units=1/GPa)
#
#
# Indices 1 2 3 4 5 6 
#
# 1 0.016356 -0.005572 -0.005888 0.000000 0.000000 0.000000
# 2 -0.005572 0.024395 -0.007979 0.000000 0.000000 0.000000
# 3 -0.005888 -0.007979 0.017210 0.000000 0.000000 0.000000
# 4 0.000000 0.000000 0.000000 0.036341 0.000000 0.000000
# 5 0.000000 0.000000 0.000000 0.000000 0.037609 0.000000
# 6 0.000000 0.000000 0.000000 0.000000 0.000000 0.043449
#
#
# Mechanical properties :
#
#
# Convention : Reuss Voigt Hill
#
# Bulk Modulus (GPa) = 52.40434 55.51605 53.96019
# Shear Modulus (GPa) = 22.66567 23.52696 23.09632
#
# Velocity S-wave (km/s) = 3.70409 3.77381 3.73911
# Velocity P-wave (km/s) = 7.07218 7.25221 7.16276
#
# Compressibility (1/GPa) = 0.01908239
#
# Stress axis : x y z
#
# Youngs Moduli (GPa) = 61.14147 40.99267 58.10644
#
# Poissons Ratio (x) = 0.22840 0.34213
# Poissons Ratio (y) = 0.34067 0.46363
# Poissons Ratio (z) = 0.36000 0.32708
#
# Static dielectric constant tensor:
#      x y z
#    x 3.218130 0.000000 0.000000 
#    y 0.000000 3.003150 0.000000 
#    z 0.000000 0.000000 3.053700 
# 
# 
# High freq. dielectric constant tensor:
#      x y z
#    x 1.628460 0.000000 0.000000 
#    y 0.000000 1.630400 0.000000 
#    z 0.000000 0.000000 1.630340 
# 
# From -- ./inp_files/14328.got.cif
#   From: 2010.03.12/outbox.cif.g09.slc.cpg/sg59_8_cif.got.tgz:14328.got - 2010.04.16 16:29:54.
