data_PCOD8240397
_publ_section_title
;
Structure prediction by ZEFSAII (Michael W. Deem and Ramdas Pophale) SiO2 
 PCOD8240397
Probable space group: P M M N
;
_chemical_formula_sum "Si O2"
_cell_formula_units_Z 48
_cell_length_a 9.191581
_cell_length_b 21.415519
_cell_length_c 14.930945
_cell_angle_alpha 90.000000
_cell_angle_beta 90.000000
_cell_angle_gamma 90.000000
_cell_volume 2939.044206
_symmetry_space_group_name_H-M "P M M N"
_symmetry_group_IT_number 59
_space_group.IT_coordinate_system_code '2'
_symmetry_cell_setting 'orthorhombic'
loop_
_space_group_symop_operation_xyz
x,y,z
1/2-x,1/2-y,z
1/2+x,-y,-z
-x,1/2+y,-z
-x,-y,-z
1/2+x,1/2+y,-z
1/2-x,y,z
x,1/2-y,z
loop_
_atom_site_type_symbol
_atom_site_label
_atom_site_fract_x
_atom_site_fract_y
_atom_site_fract_z
Si Si1 0.081635 0.899620 0.646429
Si Si2 0.918012 0.564268 0.486826
Si Si3 0.919973 0.910390 0.950135
Si Si4 0.418059 0.676921 0.817308
Si Si5 0.084324 0.038892 0.707001
Si Si6 0.919431 0.452493 0.881441
O O1 0.250000 0.895497 0.620340
O O2 0.037054 0.848227 0.719519
O O3 0.990021 0.885943 0.555271
O O4 0.041886 0.967576 0.685140
O O5 0.750000 0.555421 0.511979
O O6 0.934568 0.582346 0.381727
O O7 0.000000 0.500000 0.500000
O O8 0.750000 0.899910 0.965626
O O9 0.982929 0.853747 0.892889
O O10 0.952623 0.974796 0.898823
O O11 0.998541 0.910151 0.046033
O O12 0.250000 0.660142 0.836743
O O13 0.447459 0.750000 0.818945
O O14 0.250000 0.041428 0.742028
O O15 0.979102 0.065324 0.783572
O O16 0.750000 0.436893 0.886640
#
# Coordination Sequence:
#
# PCOD8240397 Si02
#       6
#     8   8   8   8   8   8
#     4   9  17  29  44  64  92 124 156 192 231 275
#     4   9  17  27  41  63  91 123 153 184 226 273
#     4  10  20  32  46  67  94 124 157 197 240 285
#     4  10  20  34  51  69  93 127 164 200 237 279
#     4   9  16  27  43  65  93 123 152 188 231 279
#     4  10  19  29  46  69  93 124 157 191 238 292
#
# _framework density 16.331838999999999
#
# number of rings (size 3 to 8) (size 9 to 14) (size 15 to 20)
#    0.000    2.500    1.667    2.500    0.000    5.667 
#    0.000    0.000    0.000    0.000    0.000    1.167 
#    0.000    4.000    0.000    0.000    0.000    0.000 
#
# Total GULP energy -595113.548405 kJ/mol
# GULP energy per Si atom -12398.198925 kJ/mol
# Density = 1.629467 g / cm^3
# Si number density = 16.331839 Si / 1000 Ang^3
#
#
#
# Elastic Constant Matrix: (Units=GPa)
#
#
# Indices 1 2 3 4 5 6 
#
# 1 100.9737 34.2408 79.6237 0.0000 0.0000 0.0000
# 2 34.2408 50.2383 41.5339 0.0000 0.0000 0.0000
# 3 79.6237 41.5339 139.6279 0.0000 0.0000 0.0000
# 4 0.0000 0.0000 0.0000 18.3599 0.0000 0.0000
# 5 0.0000 0.0000 0.0000 0.0000 37.5657 0.0000
# 6 0.0000 0.0000 0.0000 0.0000 0.0000 17.0502
#
#
#
# Elastic Compliance Matrix: (Units=1/GPa)
#
#
# Indices 1 2 3 4 5 6 
#
# 1 0.019002 -0.005295 -0.009261 0.000000 0.000000 0.000000
# 2 -0.005295 0.027872 -0.005272 0.000000 0.000000 0.000000
# 3 -0.009261 -0.005272 0.014011 0.000000 0.000000 0.000000
# 4 0.000000 0.000000 0.000000 0.054466 0.000000 0.000000
# 5 0.000000 0.000000 0.000000 0.000000 0.026620 0.000000
# 6 0.000000 0.000000 0.000000 0.000000 0.000000 0.058650
#
#
# Mechanical properties :
#
#
# Convention : Reuss Voigt Hill
#
# Bulk Modulus (GPa) = 47.10177 66.84850 56.97514
# Shear Modulus (GPa) = 20.21405 23.62460 21.91933
#
# Velocity S-wave (km/s) = 3.52192 3.80746 3.66747
# Velocity P-wave (km/s) = 6.74104 7.76848 7.27293
#
# Compressibility (1/GPa) = 0.02123062
#
# Stress axis : x y z
#
# Youngs Moduli (GPa) = 52.62657 35.87836 71.37200
#
# Poissons Ratio (x) = 0.18996 0.66097
# Poissons Ratio (y) = 0.27864 0.37624
# Poissons Ratio (z) = 0.48737 0.18913
#
# Static dielectric constant tensor:
#      x y z
#    x 3.218550 0.000000 0.000000 
#    y 0.000000 2.654870 0.000000 
#    z 0.000000 0.000000 3.427110 
# 
# 
# High freq. dielectric constant tensor:
#      x y z
#    x 1.638840 0.000000 0.000000 
#    y 0.000000 1.564090 0.000000 
#    z 0.000000 0.000000 1.641700 
# 
# From -- ./inp_files/20688.got.cif
#   From: 2010.03.12/outbox.cif.g09.slc.cpg/sg59_11_cif.got.tgz:20688.got - 2010.04.16 16:29:54.
