data_PCOD8240916
_publ_section_title
;
Structure prediction by ZEFSAII (Michael W. Deem and Ramdas Pophale) SiO2 
 PCOD8240916
Probable space group: P M M N
;
_chemical_formula_sum "Si O2"
_cell_formula_units_Z 64
_cell_length_a 19.151910
_cell_length_b 9.424212
_cell_length_c 21.198635
_cell_angle_alpha 90.000000
_cell_angle_beta 90.000000
_cell_angle_gamma 90.000000
_cell_volume 3826.176822
_symmetry_space_group_name_H-M "P M M N"
_symmetry_group_IT_number 59
_space_group.IT_coordinate_system_code '2'
_symmetry_cell_setting 'orthorhombic'
loop_
_space_group_symop_operation_xyz
x,y,z
1/2-x,1/2-y,z
1/2+x,-y,-z
-x,1/2+y,-z
-x,-y,-z
1/2+x,1/2+y,-z
1/2-x,y,z
x,1/2-y,z
loop_
_atom_site_type_symbol
_atom_site_label
_atom_site_fract_x
_atom_site_fract_y
_atom_site_fract_z
Si Si1 0.362109 0.405720 0.275724
Si Si2 0.526617 0.081390 0.560746
Si Si3 0.915057 0.580783 0.853249
Si Si4 0.174186 0.912054 0.387976
Si Si5 0.332020 0.088067 0.889949
Si Si6 0.063945 0.582634 0.808568
Si Si7 0.827804 0.581092 0.969417
Si Si8 0.982557 0.406531 0.325477
O O1 0.326688 0.250000 0.277253
O O2 0.364214 0.467139 0.204364
O O3 0.319727 0.507334 0.321733
O O4 0.440762 0.391797 0.298476
O O5 0.515736 0.250000 0.553815
O O6 0.608739 0.038682 0.569133
O O7 0.500000 0.000000 0.500000
O O8 0.480526 0.024408 0.619461
O O9 0.917519 0.750000 0.853309
O O10 0.882793 0.519852 0.918296
O O11 0.993633 0.523250 0.842566
O O12 0.250000 0.932846 0.422631
O O13 0.161121 0.750000 0.370076
O O14 0.250000 0.073616 0.878676
O O15 0.356245 0.250000 0.880893
O O16 0.369723 0.991518 0.838933
O O17 0.351334 0.034078 0.960531
O O18 0.070101 0.750000 0.818509
O O19 0.065430 0.546028 0.733619
O O20 0.750000 0.522595 0.954582
O O21 0.825682 0.750000 0.966480
O O22 0.959364 0.250000 0.351252
#
# Coordination Sequence:
#
# PCOD8240916 Si02
#       8
#     8   8   8   8   8   8   8   8
#     4   8  14  25  42  64  88 114 145 181 218 255
#     4  10  19  31  50  73  96 125 157 186 219 261
#     4   8  14  25  41  64  92 117 146 186 227 267
#     4   9  18  31  45  64  93 126 155 182 215 258
#     4   9  18  31  45  62  85 115 153 195 236 279
#     4   9  17  29  47  69  91 115 144 186 235 274
#     4   8  14  25  40  58  84 119 154 187 227 276
#     4   8  15  29  46  66  93 117 140 176 220 266
#
# _framework density 16.726880000000001
#
# number of rings (size 3 to 8) (size 9 to 14) (size 15 to 20)
#    0.000    3.375    0.000    2.625    0.000    2.500 
#    0.000    3.125    0.000    1.500    0.000    1.750 
#    0.000    0.000    0.000    0.000    0.000    0.000 
#
# Total GULP energy -792960.811566 kJ/mol
# GULP energy per Si atom -12390.012681 kJ/mol
# Density = 1.668881 g / cm^3
# Si number density = 16.726880 Si / 1000 Ang^3
#
#
#
# Elastic Constant Matrix: (Units=GPa)
#
#
# Indices 1 2 3 4 5 6 
#
# 1 64.4551 32.6957 54.8839 0.0000 0.0000 0.0000
# 2 32.6957 54.0243 51.3469 0.0000 0.0000 0.0000
# 3 54.8839 51.3469 121.6275 0.0000 0.0000 0.0000
# 4 0.0000 0.0000 0.0000 22.3915 0.0000 0.0000
# 5 0.0000 0.0000 0.0000 0.0000 19.7434 0.0000
# 6 0.0000 0.0000 0.0000 0.0000 0.0000 18.3455
#
#
#
# Elastic Compliance Matrix: (Units=1/GPa)
#
#
# Indices 1 2 3 4 5 6 
#
# 1 0.027112 -0.007984 -0.008864 0.000000 0.000000 0.000000
# 2 -0.007984 0.033265 -0.010441 0.000000 0.000000 0.000000
# 3 -0.008864 -0.010441 0.016629 0.000000 0.000000 0.000000
# 4 0.000000 0.000000 0.000000 0.044660 0.000000 0.000000
# 5 0.000000 0.000000 0.000000 0.000000 0.050650 0.000000
# 6 0.000000 0.000000 0.000000 0.000000 0.000000 0.054509
#
#
# Mechanical properties :
#
#
# Convention : Reuss Voigt Hill
#
# Bulk Modulus (GPa) = 44.58316 57.55109 51.06712
# Shear Modulus (GPa) = 17.30827 18.84144 18.07486
#
# Velocity S-wave (km/s) = 3.22025 3.35985 3.29080
# Velocity P-wave (km/s) = 6.36696 7.03794 6.71084
#
# Compressibility (1/GPa) = 0.02242999
#
# Stress axis : x y z
#
# Youngs Moduli (GPa) = 36.88390 30.06119 60.13495
#
# Poissons Ratio (x) = 0.24001 0.53302
# Poissons Ratio (y) = 0.29448 0.62786
# Poissons Ratio (z) = 0.32693 0.31386
#
# Static dielectric constant tensor:
#      x y z
#    x 3.074830 0.000000 0.000000 
#    y 0.000000 3.026630 0.000000 
#    z 0.000000 0.000000 3.320240 
# 
# 
# High freq. dielectric constant tensor:
#      x y z
#    x 1.627630 0.000000 0.000000 
#    y 0.000000 1.618280 0.000000 
#    z 0.000000 0.000000 1.638460 
# 
# From -- ./inp_files/30927.got.cif
#   From: 2010.03.12/outbox.cif.g09.slc.cpg/sg59_16_cif.got.tgz:30927.got - 2010.04.16 16:29:54.
