data_PCOD8240724
_publ_section_title
;
Structure prediction by ZEFSAII (Michael W. Deem and Ramdas Pophale) SiO2 
 PCOD8240724
Probable space group: P M M N
;
_chemical_formula_sum "Si O2"
_cell_formula_units_Z 56
_cell_length_a 19.773406
_cell_length_b 8.962108
_cell_length_c 16.448724
_cell_angle_alpha 90.000000
_cell_angle_beta 90.000000
_cell_angle_gamma 90.000000
_cell_volume 2914.901410
_symmetry_space_group_name_H-M "P M M N"
_symmetry_group_IT_number 59
_space_group.IT_coordinate_system_code '2'
_symmetry_cell_setting 'orthorhombic'
loop_
_space_group_symop_operation_xyz
x,y,z
1/2-x,1/2-y,z
1/2+x,-y,-z
-x,1/2+y,-z
-x,-y,-z
1/2+x,1/2+y,-z
1/2-x,y,z
x,1/2-y,z
loop_
_atom_site_type_symbol
_atom_site_label
_atom_site_fract_x
_atom_site_fract_y
_atom_site_fract_z
Si Si1 0.940783 0.082097 0.392242
Si Si2 0.977735 0.916355 0.241170
Si Si3 0.094018 0.083478 0.453857
Si Si4 0.873616 0.414590 0.695193
Si Si5 0.671290 0.924838 0.022200
Si Si6 0.958803 0.071316 0.075106
Si Si7 0.827460 0.085098 0.863440
O O1 0.914831 0.250000 0.380694
O O2 0.017775 0.080212 0.421876
O O3 0.928807 0.998917 0.305892
O O4 0.896166 0.004736 0.462090
O O5 0.949809 0.750000 0.220382
O O6 0.047345 0.902024 0.288653
O O7 0.989982 0.012768 0.159733
O O8 0.119108 0.250000 0.469951
O O9 0.141724 0.012521 0.384249
O O10 0.842921 0.250000 0.680162
O O11 0.838967 0.487152 0.774879
O O12 0.750000 0.966107 0.040556
O O13 0.659225 0.750000 0.033881
O O14 0.619973 0.017716 0.078854
O O15 0.647082 0.969627 0.931227
O O16 0.962909 0.250000 0.070061
O O17 0.000000 0.000000 0.000000
O O18 0.750000 0.112721 0.880087
O O19 0.864016 0.250000 0.869785
#
# Coordination Sequence:
#
# PCOD8240724 Si02
#       7
#     8   8   8   8   8   8   8
#     4   9  16  27  42  62  90 122 156 192 233 285
#     4  10  19  31  47  69  98 129 162 201 247 298
#     4   9  16  25  40  62  88 120 155 191 231 280
#     4   9  17  28  43  65  94 127 159 194 239 290
#     4  10  21  37  56  77 102 134 173 215 258 306
#     4  12  24  37  54  77 106 138 173 214 262 312
#     4   9  17  30  48  69  94 126 164 203 243 290
#
# _framework density 19.211628000000001
#
# number of rings (size 3 to 8) (size 9 to 14) (size 15 to 20)
#    0.000    2.286    0.000    3.857    0.000    6.571 
#    0.000    0.000    0.000    0.000    0.000    1.000 
#    0.000    5.714    0.000    0.000    0.000    0.000 
#
# Total GULP energy -694007.006135 kJ/mol
# GULP energy per Si atom -12392.982252 kJ/mol
# Density = 1.916790 g / cm^3
# Si number density = 19.211628 Si / 1000 Ang^3
#
#
#
# Elastic Constant Matrix: (Units=GPa)
#
#
# Indices 1 2 3 4 5 6 
#
# 1 23.6288 17.4767 1.6525 0.0000 0.0000 0.0000
# 2 17.4767 141.6052 49.2756 0.0000 0.0000 0.0000
# 3 1.6525 49.2756 101.5665 0.0000 0.0000 0.0000
# 4 0.0000 0.0000 0.0000 33.7751 0.0000 0.0000
# 5 0.0000 0.0000 0.0000 0.0000 22.4453 0.0000
# 6 0.0000 0.0000 0.0000 0.0000 0.0000 17.9305
#
#
#
# Elastic Compliance Matrix: (Units=1/GPa)
#
#
# Indices 1 2 3 4 5 6 
#
# 1 0.047082 -0.006670 0.002470 0.000000 0.000000 0.000000
# 2 -0.006670 0.009441 -0.004472 0.000000 0.000000 0.000000
# 3 0.002470 -0.004472 0.011975 0.000000 0.000000 0.000000
# 4 0.000000 0.000000 0.000000 0.029608 0.000000 0.000000
# 5 0.000000 0.000000 0.000000 0.000000 0.044553 0.000000
# 6 0.000000 0.000000 0.000000 0.000000 0.000000 0.055771
#
#
# Mechanical properties :
#
#
# Convention : Reuss Voigt Hill
#
# Bulk Modulus (GPa) = 19.54872 44.84557 32.19715
# Shear Modulus (GPa) = 21.47529 28.05656 24.76592
#
# Velocity S-wave (km/s) = 3.34702 3.82566 3.59431
# Velocity P-wave (km/s) = 5.01341 6.55040 5.83276
#
# Compressibility (1/GPa) = 0.05115425
#
# Stress axis : x y z
#
# Youngs Moduli (GPa) = 21.23946 105.91785 83.50608
#
# Poissons Ratio (x) = 0.70651 -0.20627
# Poissons Ratio (y) = 0.14167 0.37344
# Poissons Ratio (z) = -0.05246 0.47366
#
# Static dielectric constant tensor:
#      x y z
#    x 3.136640 0.000000 0.000000 
#    y 0.000000 3.871200 0.000000 
#    z 0.000000 0.000000 3.656970 
# 
# 
# High freq. dielectric constant tensor:
#      x y z
#    x 1.689970 0.000000 0.000000 
#    y 0.000000 1.756430 0.000000 
#    z 0.000000 0.000000 1.748550 
# 
# From -- ./inp_files/24253.got.cif
#   From: 2010.03.12/outbox.cif.g09.slc.cpg/sg59_13_cif.got.tgz:24253.got - 2010.04.16 16:29:54.
