data_PCOD8240145
_publ_section_title
;
Structure prediction by ZEFSAII (Michael W. Deem and Ramdas Pophale) SiO2 
 PCOD8240145
Probable space group: P M M N
;
_chemical_formula_sum "Si O2"
_cell_formula_units_Z 48
_cell_length_a 14.107764
_cell_length_b 8.773845
_cell_length_c 20.351656
_cell_angle_alpha 90.000000
_cell_angle_beta 90.000000
_cell_angle_gamma 90.000000
_cell_volume 2519.114438
_symmetry_space_group_name_H-M "P M M N"
_symmetry_group_IT_number 59
_space_group.IT_coordinate_system_code '2'
_symmetry_cell_setting 'orthorhombic'
loop_
_space_group_symop_operation_xyz
x,y,z
1/2-x,1/2-y,z
1/2+x,-y,-z
-x,1/2+y,-z
-x,-y,-z
1/2+x,1/2+y,-z
1/2-x,y,z
x,1/2-y,z
loop_
_atom_site_type_symbol
_atom_site_label
_atom_site_fract_x
_atom_site_fract_y
_atom_site_fract_z
Si Si1 0.250000 0.569535 0.367230
Si Si2 0.750000 0.926538 0.998365
Si Si3 0.445664 0.427836 0.059225
Si Si4 0.559605 0.572842 0.683273
Si Si5 0.547139 0.431401 0.188029
Si Si6 0.936922 0.073159 0.444692
Si Si7 0.250000 0.569275 0.858520
Si Si8 0.250000 0.069704 0.512699
O O1 0.250000 0.750000 0.374120
O O2 0.156925 0.518021 0.327443
O O3 0.250000 0.498707 0.439734
O O4 0.750000 0.750000 0.018865
O O5 0.750000 0.019656 0.065687
O O6 0.663631 0.968890 0.950728
O O7 0.465621 0.250000 0.057975
O O8 0.484067 0.494714 0.127768
O O9 0.500000 0.500000 0.000000
O O10 0.586302 0.750000 0.691792
O O11 0.503202 0.506565 0.746235
O O12 0.487831 0.547778 0.623933
O O13 0.548433 0.250000 0.190581
O O14 0.655655 0.491495 0.179148
O O15 0.919648 0.250000 0.460224
O O16 0.838240 0.984918 0.444283
O O17 0.000000 0.000000 0.500000
O O18 0.250000 0.750000 0.859102
O O19 0.250000 0.250000 0.504616
#
# Coordination Sequence:
#
# PCOD8240145 Si02
#       8
#     4   4   8   8   8   8   4   4
#     4  12  24  39  62  88 118 154 196 245 302 358
#     4  10  20  31  50  82 116 148 186 232 287 341
#     4  10  19  33  54  82 112 147 191 237 284 336
#     4  10  22  40  62  87 118 156 197 241 297 359
#     4   9  19  35  58  86 114 149 194 240 284 345
#     4  11  22  37  61  91 121 154 199 249 298 352
#     4  10  18  33  58  84 110 146 192 236 282 336
#     4  12  24  39  62  90 122 160 204 247 295 353
#
# _framework density 19.054314000000002
#
# number of rings (size 3 to 8) (size 9 to 14) (size 15 to 20)
#    0.000    1.667    3.333    2.000    0.000    2.000 
#    0.000    6.667    0.000    2.000    0.000    0.000 
#    0.000    0.000    0.000    0.000    0.000    0.000 
#
# Total GULP energy -595154.478250 kJ/mol
# GULP energy per Si atom -12399.051630 kJ/mol
# Density = 1.901095 g / cm^3
# Si number density = 19.054314 Si / 1000 Ang^3
#
#
#
# Elastic Constant Matrix: (Units=GPa)
#
#
# Indices 1 2 3 4 5 6 
#
# 1 180.4912 59.5611 74.1116 0.0000 0.0000 0.0000
# 2 59.5611 73.7349 46.7180 0.0000 0.0000 0.0000
# 3 74.1116 46.7180 138.1134 0.0000 0.0000 0.0000
# 4 0.0000 0.0000 0.0000 24.5457 0.0000 0.0000
# 5 0.0000 0.0000 0.0000 0.0000 30.6173 0.0000
# 6 0.0000 0.0000 0.0000 0.0000 0.0000 29.2003
#
#
#
# Elastic Compliance Matrix: (Units=1/GPa)
#
#
# Indices 1 2 3 4 5 6 
#
# 1 0.008320 -0.004954 -0.002789 0.000000 0.000000 0.000000
# 2 -0.004954 0.020211 -0.004178 0.000000 0.000000 0.000000
# 3 -0.002789 -0.004178 0.010150 0.000000 0.000000 0.000000
# 4 0.000000 0.000000 0.000000 0.040740 0.000000 0.000000
# 5 0.000000 0.000000 0.000000 0.000000 0.032661 0.000000
# 6 0.000000 0.000000 0.000000 0.000000 0.000000 0.034246
#
#
# Mechanical properties :
#
#
# Convention : Reuss Voigt Hill
#
# Bulk Modulus (GPa) = 67.38823 83.68011 75.53417
# Shear Modulus (GPa) = 28.55207 31.00257 29.77732
#
# Velocity S-wave (km/s) = 3.87519 4.03806 3.95746
# Velocity P-wave (km/s) = 7.44755 8.10884 7.78522
#
# Compressibility (1/GPa) = 0.01483939
#
# Stress axis : x y z
#
# Youngs Moduli (GPa) = 120.18654 49.47781 98.51856
#
# Poissons Ratio (x) = 0.24511 0.27477
# Poissons Ratio (y) = 0.59539 0.41164
# Poissons Ratio (z) = 0.33520 0.20673
#
# Static dielectric constant tensor:
#      x y z
#    x 3.823460 0.000000 0.000000 
#    y 0.000000 3.354570 0.000000 
#    z 0.000000 0.000000 3.539320 
# 
# 
# High freq. dielectric constant tensor:
#      x y z
#    x 1.762490 0.000000 0.000000 
#    y 0.000000 1.720670 0.000000 
#    z 0.000000 0.000000 1.740310 
# 
# From -- ./inp_files/27491.got.cif
#   From: 2010.03.12/outbox.cif.g09.slc.cpg/sg59_14_cif.got.tgz:27491.got - 2010.04.16 16:29:54.
