data_PCOD8240257
_publ_section_title
;
Structure prediction by ZEFSAII (Michael W. Deem and Ramdas Pophale) SiO2 
 PCOD8240257
Probable space group: P M M N
;
_chemical_formula_sum "Si O2"
_cell_formula_units_Z 64
_cell_length_a 9.201012
_cell_length_b 31.219494
_cell_length_c 12.250209
_cell_angle_alpha 90.000000
_cell_angle_beta 90.000000
_cell_angle_gamma 90.000000
_cell_volume 3518.884037
_symmetry_space_group_name_H-M "P M M N"
_symmetry_group_IT_number 59
_space_group.IT_coordinate_system_code '2'
_symmetry_cell_setting 'orthorhombic'
loop_
_space_group_symop_operation_xyz
x,y,z
1/2-x,1/2-y,z
1/2+x,-y,-z
-x,1/2+y,-z
-x,-y,-z
1/2+x,1/2+y,-z
1/2-x,y,z
x,1/2-y,z
loop_
_atom_site_type_symbol
_atom_site_label
_atom_site_fract_x
_atom_site_fract_y
_atom_site_fract_z
Si Si1 0.081235 0.298874 0.680374
Si Si2 0.082159 0.644845 0.481291
Si Si3 0.083239 0.129222 0.846078
Si Si4 0.581151 0.430835 0.688711
Si Si5 0.094579 0.971897 0.925627
Si Si6 0.585983 0.015631 0.318678
Si Si7 0.918010 0.894447 0.673176
Si Si8 0.911859 0.890894 0.915782
O O1 0.250000 0.304523 0.649686
O O2 0.042669 0.250000 0.707951
O O3 0.039278 0.326679 0.786880
O O4 0.985261 0.313956 0.578291
O O5 0.250000 0.653913 0.507181
O O6 0.061375 0.602964 0.407830
O O7 0.995520 0.638870 0.593561
O O8 0.250000 0.117296 0.821141
O O9 0.989227 0.089238 0.799337
O O10 0.060628 0.138369 0.976634
O O11 0.750000 0.440844 0.712894
O O12 0.503412 0.473823 0.641487
O O13 0.250000 0.969229 0.982130
O O14 0.103238 0.993473 0.808531
O O15 0.036189 0.924944 0.918973
O O16 0.000000 0.000000 0.000000
O O17 0.750000 0.018494 0.371133
O O18 0.498355 0.059597 0.337650
O O19 0.750000 0.901529 0.640282
O O20 0.927472 0.871498 0.793504
O O21 0.750000 0.911223 0.925518
#
# Coordination Sequence:
#
# PCOD8240257 Si02
#       8
#     8   8   8   8   8   8   8   8
#     4   9  18  34  58  85 107 127 154 191 239 296
#     4  10  21  36  53  74 101 132 166 206 251 298
#     4   9  17  31  51  75 103 131 159 197 247 299
#     4  10  20  32  47  70  98 129 169 214 258 302
#     4  10  19  28  40  60  88 124 166 209 248 287
#     4  10  20  32  45  64  93 130 172 215 258 300
#     4  10  20  34  51  70  96 134 178 217 250 290
#     4   9  18  31  47  68  95 128 164 201 242 287
#
# _framework density 18.187584000000001
#
# number of rings (size 3 to 8) (size 9 to 14) (size 15 to 20)
#    0.000    2.375    0.000    2.625    0.000    7.750 
#    0.000    0.000    0.000    0.750    0.000    3.500 
#    0.000    0.000    0.000    0.000    0.000    0.000 
#
# Total GULP energy -793012.059334 kJ/mol
# GULP energy per Si atom -12390.813427 kJ/mol
# Density = 1.814619 g / cm^3
# Si number density = 18.187584 Si / 1000 Ang^3
#
#
#
# Elastic Constant Matrix: (Units=GPa)
#
#
# Indices 1 2 3 4 5 6 
#
# 1 118.7030 30.0192 39.4619 0.0000 0.0000 0.0000
# 2 30.0192 65.1965 24.3486 0.0000 0.0000 0.0000
# 3 39.4619 24.3486 87.2916 0.0000 0.0000 0.0000
# 4 0.0000 0.0000 0.0000 17.3240 0.0000 0.0000
# 5 0.0000 0.0000 0.0000 0.0000 25.6582 0.0000
# 6 0.0000 0.0000 0.0000 0.0000 0.0000 20.1107
#
#
#
# Elastic Compliance Matrix: (Units=1/GPa)
#
#
# Indices 1 2 3 4 5 6 
#
# 1 0.010562 -0.003438 -0.003816 0.000000 0.000000 0.000000
# 2 -0.003438 0.018241 -0.003534 0.000000 0.000000 0.000000
# 3 -0.003816 -0.003534 0.014167 0.000000 0.000000 0.000000
# 4 0.000000 0.000000 0.000000 0.057723 0.000000 0.000000
# 5 0.000000 0.000000 0.000000 0.000000 0.038974 0.000000
# 6 0.000000 0.000000 0.000000 0.000000 0.000000 0.049725
#
#
# Mechanical properties :
#
#
# Convention : Reuss Voigt Hill
#
# Bulk Modulus (GPa) = 46.74140 50.98339 48.86240
# Shear Modulus (GPa) = 22.92533 24.44268 23.68400
#
# Velocity S-wave (km/s) = 3.55419 3.66993 3.61253
# Velocity P-wave (km/s) = 6.52675 6.78607 6.65767
#
# Compressibility (1/GPa) = 0.02139431
#
# Stress axis : x y z
#
# Youngs Moduli (GPa) = 94.67473 54.82125 70.58855
#
# Poissons Ratio (x) = 0.18849 0.26936
# Poissons Ratio (y) = 0.32552 0.24944
# Poissons Ratio (z) = 0.36127 0.19372
#
# Static dielectric constant tensor:
#      x y z
#    x 4.085030 0.000000 0.000000 
#    y 0.000000 2.987320 0.000000 
#    z 0.000000 0.000000 3.577280 
# 
# 
# High freq. dielectric constant tensor:
#      x y z
#    x 1.721010 0.000000 0.000000 
#    y 0.000000 1.660520 0.000000 
#    z 0.000000 0.000000 1.707190 
# 
# From -- ./inp_files/15015.got.cif
#   From: 2010.03.12/outbox.cif.g09.slc.cpg/sg59_8_cif.got.tgz:15015.got - 2010.04.16 16:29:54.
