data_PCOD8240748
_publ_section_title
;
Structure prediction by ZEFSAII (Michael W. Deem and Ramdas Pophale) SiO2 
 PCOD8240748
Probable space group: P M M N
;
_chemical_formula_sum "Si O2"
_cell_formula_units_Z 64
_cell_length_a 17.597108
_cell_length_b 8.913382
_cell_length_c 22.805328
_cell_angle_alpha 90.000000
_cell_angle_beta 90.000000
_cell_angle_gamma 90.000000
_cell_volume 3577.009897
_symmetry_space_group_name_H-M "P M M N"
_symmetry_group_IT_number 59
_space_group.IT_coordinate_system_code '2'
_symmetry_cell_setting 'orthorhombic'
loop_
_space_group_symop_operation_xyz
x,y,z
1/2-x,1/2-y,z
1/2+x,-y,-z
-x,1/2+y,-z
-x,-y,-z
1/2+x,1/2+y,-z
1/2-x,y,z
x,1/2-y,z
loop_
_atom_site_type_symbol
_atom_site_label
_atom_site_fract_x
_atom_site_fract_y
_atom_site_fract_z
Si Si1 0.664845 0.423574 0.299438
Si Si2 0.562654 0.422558 0.037406
Si Si3 0.463114 0.577245 0.379613
Si Si4 0.466610 0.426865 0.140740
Si Si5 0.627465 0.923744 0.418717
Si Si6 0.480110 0.428706 0.743537
Si Si7 0.665139 0.077499 0.537816
Si Si8 0.836221 0.426554 0.936691
O O1 0.750000 0.444127 0.273872
O O2 0.641528 0.250000 0.301333
O O3 0.664063 0.487405 0.365052
O O4 0.606166 0.509442 0.256795
O O5 0.544598 0.250000 0.031516
O O6 0.545695 0.466863 0.105258
O O7 0.500000 0.500000 0.000000
O O8 0.643471 0.459697 0.006138
O O9 0.444425 0.750000 0.369824
O O10 0.536846 0.552686 0.419962
O O11 0.477522 0.508785 0.314946
O O12 0.391407 0.504876 0.413622
O O13 0.458415 0.250000 0.151630
O O14 0.471782 0.511687 0.202057
O O15 0.391782 0.483655 0.106590
O O16 0.648748 0.750000 0.410951
O O17 0.661930 0.983868 0.478523
O O18 0.475960 0.250000 0.744577
O O19 0.750000 0.066901 0.563593
O O20 0.642540 0.250000 0.524100
O O21 0.750000 0.481040 0.926428
O O22 0.844642 0.250000 0.923444
#
# Coordination Sequence:
#
# PCOD8240748 Si02
#       8
#     8   8   8   8   8   8   8   8
#     4  10  20  34  52  74  99 126 159 202 252 303
#     4   8  15  28  47  71  98 128 161 197 240 291
#     4   8  17  33  49  67  91 123 163 202 242 289
#     4  10  19  32  51  75 104 137 172 208 250 301
#     4  10  19  31  49  71  96 125 156 194 242 301
#     4  10  20  35  54  73  97 132 174 213 246 290
#     4  10  19  31  48  69  93 120 153 198 249 298
#     4   9  17  31  52  77 103 132 169 212 254 294
#
# _framework density 17.892039
#
# number of rings (size 3 to 8) (size 9 to 14) (size 15 to 20)
#    0.000    2.625    0.000    3.000    0.000    3.500 
#    0.000    4.375    0.000    4.500    0.000    0.000 
#    0.000    0.000    0.000    0.000    0.000    0.000 
#
# Total GULP energy -793003.008101 kJ/mol
# GULP energy per Si atom -12390.672002 kJ/mol
# Density = 1.785132 g / cm^3
# Si number density = 17.892039 Si / 1000 Ang^3
#
#
#
# Elastic Constant Matrix: (Units=GPa)
#
#
# Indices 1 2 3 4 5 6 
#
# 1 99.5163 32.5621 45.5500 0.0000 0.0000 0.0000
# 2 32.5621 64.6439 29.7857 0.0000 0.0000 0.0000
# 3 45.5500 29.7857 83.1426 0.0000 0.0000 0.0000
# 4 0.0000 0.0000 0.0000 24.6316 0.0000 0.0000
# 5 0.0000 0.0000 0.0000 0.0000 21.0289 0.0000
# 6 0.0000 0.0000 0.0000 0.0000 0.0000 23.4274
#
#
#
# Elastic Compliance Matrix: (Units=1/GPa)
#
#
# Indices 1 2 3 4 5 6 
#
# 1 0.014353 -0.004320 -0.006316 0.000000 0.000000 0.000000
# 2 -0.004320 0.019828 -0.004737 0.000000 0.000000 0.000000
# 3 -0.006316 -0.004737 0.017185 0.000000 0.000000 0.000000
# 4 0.000000 0.000000 0.000000 0.040598 0.000000 0.000000
# 5 0.000000 0.000000 0.000000 0.000000 0.047554 0.000000
# 6 0.000000 0.000000 0.000000 0.000000 0.000000 0.042685
#
#
# Mechanical properties :
#
#
# Convention : Reuss Voigt Hill
#
# Bulk Modulus (GPa) = 48.49451 51.45539 49.97495
# Shear Modulus (GPa) = 22.74589 23.11125 22.92857
#
# Velocity S-wave (km/s) = 3.56938 3.59793 3.58368
# Velocity P-wave (km/s) = 6.64455 6.78833 6.71682
#
# Compressibility (1/GPa) = 0.02062089
#
# Stress axis : x y z
#
# Youngs Moduli (GPa) = 69.67280 50.43438 58.19187
#
# Poissons Ratio (x) = 0.21786 0.36752
# Poissons Ratio (y) = 0.30096 0.27564
# Poissons Ratio (z) = 0.44003 0.23889
#
# Static dielectric constant tensor:
#      x y z
#    x 3.709390 0.000000 0.000000 
#    y 0.000000 2.696680 0.000000 
#    z 0.000000 0.000000 3.503270 
# 
# 
# High freq. dielectric constant tensor:
#      x y z
#    x 1.687070 0.000000 0.000000 
#    y 0.000000 1.688210 0.000000 
#    z 0.000000 0.000000 1.680230 
# 
# From -- ./inp_files/30711.got.cif
#   From: 2010.03.12/outbox.cif.g09.slc.cpg/sg59_16_cif.got.tgz:30711.got - 2010.04.16 16:29:54.
