data_PCOD8240175
_publ_section_title
;
Structure prediction by ZEFSAII (Michael W. Deem and Ramdas Pophale) SiO2 
 PCOD8240175
Probable space group: P M M N
;
_chemical_formula_sum "Si O2"
_cell_formula_units_Z 56
_cell_length_a 9.237451
_cell_length_b 21.598755
_cell_length_c 14.760822
_cell_angle_alpha 90.000000
_cell_angle_beta 90.000000
_cell_angle_gamma 90.000000
_cell_volume 2945.041432
_symmetry_space_group_name_H-M "P M M N"
_symmetry_group_IT_number 59
_space_group.IT_coordinate_system_code '2'
_symmetry_cell_setting 'orthorhombic'
loop_
_space_group_symop_operation_xyz
x,y,z
1/2-x,1/2-y,z
1/2+x,-y,-z
-x,1/2+y,-z
-x,-y,-z
1/2+x,1/2+y,-z
1/2-x,y,z
x,1/2-y,z
loop_
_atom_site_type_symbol
_atom_site_label
_atom_site_fract_x
_atom_site_fract_y
_atom_site_fract_z
Si Si1 0.079614 0.044310 0.296744
Si Si2 0.577759 0.250000 0.430064
Si Si3 0.083161 0.420688 0.657863
Si Si4 0.419074 0.819765 0.024801
Si Si5 0.914669 0.750000 0.753806
Si Si6 0.584271 0.871947 0.866782
Si Si7 0.083029 0.371452 0.463991
Si Si8 0.084200 0.677779 0.231249
O O1 0.250000 0.032782 0.305249
O O2 0.037539 0.071700 0.198417
O O3 0.029565 0.091742 0.375114
O O4 0.999669 0.979855 0.305317
O O5 0.750000 0.250000 0.438228
O O6 0.528942 0.250000 0.326435
O O7 0.514998 0.189089 0.478824
O O8 0.250000 0.427220 0.684347
O O9 0.062590 0.416095 0.549910
O O10 0.021904 0.359112 0.703672
O O11 0.250000 0.820756 0.005330
O O12 0.478862 0.750000 0.007598
O O13 0.452012 0.839639 0.127561
O O14 0.492981 0.870100 0.959163
O O15 0.750000 0.750000 0.715536
O O16 0.944983 0.690671 0.813398
O O17 0.750000 0.878825 0.895366
O O18 0.250000 0.350791 0.452768
O O19 0.250000 0.660412 0.253372
O O20 0.057298 0.750000 0.248420
#
# Coordination Sequence:
#
# PCOD8240175 Si02
#       8
#     8   4   8   8   4   8   8   8
#     4  10  21  39  60  80 112 158 193 224 277 344
#     4  12  24  34  54  89 118 147 190 239 280 324
#     4  11  24  39  60  86 111 145 192 243 286 328
#     4   9  18  33  55  84 116 148 182 231 289 334
#     4  10  18  34  54  77 118 157 186 225 282 342
#     4  10  19  32  56  85 113 152 190 223 275 340
#     4  10  22  41  60  80 116 156 188 230 287 341
#     4   9  20  40  62  83 113 150 187 232 288 344
#
# _framework density 19.015013
#
# number of rings (size 3 to 8) (size 9 to 14) (size 15 to 20)
#    0.000    2.000    2.143    2.357    1.000    3.714 
#    0.000    2.143    0.000    0.000    0.000    0.000 
#    0.000    0.000    0.000    0.000    0.000    0.000 
#
# Total GULP energy -694508.356602 kJ/mol
# GULP energy per Si atom -12401.934939 kJ/mol
# Density = 1.897173 g / cm^3
# Si number density = 19.015013 Si / 1000 Ang^3
#
#
#
# Elastic Constant Matrix: (Units=GPa)
#
#
# Indices 1 2 3 4 5 6 
#
# 1 65.1733 36.6234 33.1547 0.0000 0.0000 0.0000
# 2 36.6234 81.5826 23.3632 0.0000 0.0000 0.0000
# 3 33.1547 23.3632 76.8956 0.0000 0.0000 0.0000
# 4 0.0000 0.0000 0.0000 -7.4283 0.0000 0.0000
# 5 0.0000 0.0000 0.0000 0.0000 31.9535 0.0000
# 6 0.0000 0.0000 0.0000 0.0000 0.0000 29.1567
#
#
#
# Elastic Compliance Matrix: (Units=1/GPa)
#
#
# Indices 1 2 3 4 5 6 
#
# 1 0.024146 -0.008607 -0.007796 0.000000 0.000000 0.000000
# 2 -0.008607 0.016494 -0.001300 0.000000 0.000000 0.000000
# 3 -0.007796 -0.001300 0.016761 0.000000 0.000000 0.000000
# 4 0.000000 0.000000 0.000000 -0.134620 0.000000 0.000000
# 5 0.000000 0.000000 0.000000 0.000000 0.031295 0.000000
# 6 0.000000 0.000000 0.000000 0.000000 0.000000 0.034297
#
#
# Mechanical properties :
#
#
# Convention : Reuss Voigt Hill
#
# Bulk Modulus (GPa) = 45.46574 45.54824 45.50699
# Shear Modulus (GPa) = 160.71006 19.43706 90.07356
#
# Velocity S-wave (km/s) = 9.20331 3.20065 6.89003
# Velocity P-wave (km/s) = 11.70030 6.13716 9.34242
#
# Compressibility (1/GPa) = 0.02199458
#
# Stress axis : x y z
#
# Youngs Moduli (GPa) = 41.41433 60.62935 59.66215
#
# Poissons Ratio (x) = 0.52184 0.46512
# Poissons Ratio (y) = 0.35645 0.07758
# Poissons Ratio (z) = 0.32286 0.07883
#
# Static dielectric constant tensor:
#      x y z
#    x 3.378700 0.000000 0.000000 
#    y 0.000000 3.416310 0.000000 
#    z 0.000000 0.000000 3.523710 
# 
# 
# High freq. dielectric constant tensor:
#      x y z
#    x 1.730450 0.000000 0.000000 
#    y 0.000000 1.731130 0.000000 
#    z 0.000000 0.000000 1.744050 
# 
# From -- ./inp_files/21102.got.cif
#   From: 2010.03.12/outbox.cif.g09.slc.cpg/sg59_11_cif.got.tgz:21102.got - 2010.04.16 16:29:54.
