data_PCOD8240567
_publ_section_title
;
Structure prediction by ZEFSAII (Michael W. Deem and Ramdas Pophale) SiO2 
 PCOD8240567
Probable space group: P M M N
;
_chemical_formula_sum "Si O2"
_cell_formula_units_Z 64
_cell_length_a 15.607126
_cell_length_b 8.898784
_cell_length_c 23.585285
_cell_angle_alpha 90.000000
_cell_angle_beta 90.000000
_cell_angle_gamma 90.000000
_cell_volume 3275.629173
_symmetry_space_group_name_H-M "P M M N"
_symmetry_group_IT_number 59
_space_group.IT_coordinate_system_code '2'
_symmetry_cell_setting 'orthorhombic'
loop_
_space_group_symop_operation_xyz
x,y,z
1/2-x,1/2-y,z
1/2+x,-y,-z
-x,1/2+y,-z
-x,-y,-z
1/2+x,1/2+y,-z
1/2-x,y,z
x,1/2-y,z
loop_
_atom_site_type_symbol
_atom_site_label
_atom_site_fract_x
_atom_site_fract_y
_atom_site_fract_z
Si Si1 0.417489 0.414117 0.863951
Si Si2 0.152811 0.424287 0.975740
Si Si3 0.345149 0.419988 0.190917
Si Si4 0.152097 0.574227 0.548459
Si Si5 0.348033 0.427386 0.427733
Si Si6 0.010231 0.073023 0.626697
Si Si7 0.000044 0.426563 0.755554
Si Si8 0.603499 0.415143 0.916068
O O1 0.376722 0.250000 0.852600
O O2 0.359657 0.496264 0.912021
O O3 0.431050 0.493594 0.802049
O O4 0.509579 0.400598 0.891982
O O5 0.250000 0.443167 0.994807
O O6 0.124182 0.250000 0.973373
O O7 0.096706 0.508150 0.022452
O O8 0.250000 0.428148 0.217158
O O9 0.377795 0.250000 0.185548
O O10 0.406476 0.504867 0.234719
O O11 0.341029 0.488264 0.127875
O O12 0.250000 0.547475 0.569248
O O13 0.134135 0.750000 0.538651
O O14 0.134850 0.486650 0.490632
O O15 0.085762 0.510208 0.593753
O O16 0.250000 0.465255 0.408967
O O17 0.364513 0.250000 0.426521
O O18 0.415947 0.508392 0.386850
O O19 0.011354 0.250000 0.613135
O O20 0.031008 0.039257 0.692323
O O21 0.991006 0.250000 0.767076
O O22 0.645180 0.250000 0.922470
#
# Coordination Sequence:
#
# PCOD8240567 Si02
#       8
#     8   8   8   8   8   8   8   8
#     4   8  16  33  51  67  91 124 163 202 243 293
#     4  10  19  30  47  71  96 120 151 198 252 302
#     4  10  20  33  50  73 101 132 167 210 259 310
#     4  10  21  38  60  85 114 148 187 231 277 324
#     4  10  21  37  58  85 118 153 187 224 268 323
#     4  11  22  36  57  84 115 149 185 229 277 326
#     4   9  20  37  54  73  99 135 178 217 253 303
#     4  10  19  31  49  70  95 127 160 198 245 304
#
# _framework density 19.538229999999999
#
# number of rings (size 3 to 8) (size 9 to 14) (size 15 to 20)
#    0.000    2.250    0.000    3.750    0.000    5.750 
#    0.000    5.625    0.000    2.250    0.000    0.000 
#    0.000    0.000    0.000    0.000    0.000    0.000 
#
# Total GULP energy -793136.823199 kJ/mol
# GULP energy per Si atom -12392.762862 kJ/mol
# Density = 1.949376 g / cm^3
# Si number density = 19.538230 Si / 1000 Ang^3
#
#
#
# Elastic Constant Matrix: (Units=GPa)
#
#
# Indices 1 2 3 4 5 6 
#
# 1 47.1368 16.7037 22.8661 0.0000 0.0000 0.0000
# 2 16.7037 67.5375 25.7801 0.0000 0.0000 0.0000
# 3 22.8661 25.7801 98.4686 0.0000 0.0000 0.0000
# 4 0.0000 0.0000 0.0000 25.5085 0.0000 0.0000
# 5 0.0000 0.0000 0.0000 0.0000 15.8919 0.0000
# 6 0.0000 0.0000 0.0000 0.0000 0.0000 24.5889
#
#
#
# Elastic Compliance Matrix: (Units=1/GPa)
#
#
# Indices 1 2 3 4 5 6 
#
# 1 0.025039 -0.004414 -0.004659 0.000000 0.000000 0.000000
# 2 -0.004414 0.017229 -0.003486 0.000000 0.000000 0.000000
# 3 -0.004659 -0.003486 0.012150 0.000000 0.000000 0.000000
# 4 0.000000 0.000000 0.000000 0.039203 0.000000 0.000000
# 5 0.000000 0.000000 0.000000 0.000000 0.062925 0.000000
# 6 0.000000 0.000000 0.000000 0.000000 0.000000 0.040669
#
#
# Mechanical properties :
#
#
# Convention : Reuss Voigt Hill
#
# Bulk Modulus (GPa) = 34.12930 38.20474 36.16702
# Shear Modulus (GPa) = 21.54251 23.05071 22.29661
#
# Velocity S-wave (km/s) = 3.32412 3.43851 3.38180
# Velocity P-wave (km/s) = 5.67793 5.94649 5.81376
#
# Compressibility (1/GPa) = 0.02930034
#
# Stress axis : x y z
#
# Youngs Moduli (GPa) = 39.93742 58.04206 82.30494
#
# Poissons Ratio (x) = 0.25622 0.38344
# Poissons Ratio (y) = 0.17630 0.28688
# Poissons Ratio (z) = 0.18606 0.20231
#
# Static dielectric constant tensor:
#      x y z
#    x 3.536230 0.000000 0.000000 
#    y 0.000000 3.579350 0.000000 
#    z 0.000000 0.000000 3.731380 
# 
# 
# High freq. dielectric constant tensor:
#      x y z
#    x 1.751610 0.000000 0.000000 
#    y 0.000000 1.751920 0.000000 
#    z 0.000000 0.000000 1.762110 
# 
# From -- ./inp_files/32196.got.cif
#   From: 2010.03.12/outbox.cif.g09.slc.cpg/sg59_17_cif.got.tgz:32196.got - 2010.04.16 16:29:54.
