data_PCOD8240706
_publ_section_title
;
Structure prediction by ZEFSAII (Michael W. Deem and Ramdas Pophale) SiO2 
 PCOD8240706
Probable space group: P M M N
;
_chemical_formula_sum "Si O2"
_cell_formula_units_Z 64
_cell_length_a 9.793873
_cell_length_b 19.348575
_cell_length_c 21.498840
_cell_angle_alpha 90.000000
_cell_angle_beta 90.000000
_cell_angle_gamma 90.000000
_cell_volume 4073.976138
_symmetry_space_group_name_H-M "P M M N"
_symmetry_group_IT_number 59
_space_group.IT_coordinate_system_code '2'
_symmetry_cell_setting 'orthorhombic'
loop_
_space_group_symop_operation_xyz
x,y,z
1/2-x,1/2-y,z
1/2+x,-y,-z
-x,1/2+y,-z
-x,-y,-z
1/2+x,1/2+y,-z
1/2-x,y,z
x,1/2-y,z
loop_
_atom_site_type_symbol
_atom_site_label
_atom_site_fract_x
_atom_site_fract_y
_atom_site_fract_z
Si Si1 0.411029 0.040862 0.202081
Si Si2 0.592608 0.968113 0.446243
Si Si3 0.098693 0.399797 0.007373
Si Si4 0.899906 0.040820 0.918186
Si Si5 0.092999 0.538259 0.681753
Si Si6 0.094814 0.326635 0.501227
Si Si7 0.587506 0.827087 0.871758
Si Si8 0.594988 0.326909 0.386652
O O1 0.250000 0.042284 0.217018
O O2 0.494616 0.017299 0.262275
O O3 0.462575 0.116773 0.178986
O O4 0.446465 0.983766 0.150073
O O5 0.750000 0.989349 0.459048
O O6 0.574907 0.884603 0.445701
O O7 0.500000 0.000000 0.500000
O O8 0.546946 0.995344 0.378957
O O9 0.250000 0.375942 0.986255
O O10 0.003254 0.402218 0.946217
O O11 0.107929 0.474964 0.037437
O O12 0.035963 0.347339 0.058871
O O13 0.750000 0.075157 0.914478
O O14 0.250000 0.521943 0.699244
O O15 0.071509 0.619845 0.669287
O O16 0.250000 0.327281 0.476671
O O17 0.056844 0.250000 0.527262
O O18 0.000794 0.347336 0.443585
O O19 0.750000 0.830503 0.873780
O O20 0.534694 0.750000 0.854407
O O21 0.750000 0.332228 0.411286
O O22 0.561425 0.250000 0.361702
#
# Coordination Sequence:
#
# PCOD8240706 Si02
#       8
#     8   8   8   8   8   8   8   8
#     4   9  18  30  43  60  83 116 153 181 210 254
#     4  10  19  31  47  67  90 114 143 183 233 280
#     4   8  13  22  40  63  81 103 136 170 207 246
#     4   8  14  25  39  57  82 106 133 173 213 245
#     4  10  20  31  42  61  88 117 149 185 225 265
#     4   9  17  29  46  67  87 107 136 177 222 268
#     4   8  14  26  43  63  89 118 147 179 210 243
#     4   9  17  29  43  59  84 116 144 172 213 266
#
# _framework density 15.709467999999999
#
# number of rings (size 3 to 8) (size 9 to 14) (size 15 to 20)
#    0.000    3.125    1.250    1.500    0.000    2.000 
#    0.000    1.875    0.000    1.125    0.000    0.875 
#    0.000    5.000    0.000    0.000    0.000    0.000 
#
# Total GULP energy -793128.164238 kJ/mol
# GULP energy per Si atom -12392.627566 kJ/mol
# Density = 1.567371 g / cm^3
# Si number density = 15.709468 Si / 1000 Ang^3
#
#
#
# Elastic Constant Matrix: (Units=GPa)
#
#
# Indices 1 2 3 4 5 6 
#
# 1 59.6001 22.0348 54.4382 0.0000 0.0000 0.0000
# 2 22.0348 43.1983 36.0105 0.0000 0.0000 0.0000
# 3 54.4382 36.0105 108.5101 0.0000 0.0000 0.0000
# 4 0.0000 0.0000 0.0000 16.5984 0.0000 0.0000
# 5 0.0000 0.0000 0.0000 0.0000 28.5223 0.0000
# 6 0.0000 0.0000 0.0000 0.0000 0.0000 15.3518
#
#
#
# Elastic Compliance Matrix: (Units=1/GPa)
#
#
# Indices 1 2 3 4 5 6 
#
# 1 0.031461 -0.003996 -0.014458 0.000000 0.000000 0.000000
# 2 -0.003996 0.032510 -0.008784 0.000000 0.000000 0.000000
# 3 -0.014458 -0.008784 0.019384 0.000000 0.000000 0.000000
# 4 0.000000 0.000000 0.000000 0.060247 0.000000 0.000000
# 5 0.000000 0.000000 0.000000 0.000000 0.035060 0.000000
# 6 0.000000 0.000000 0.000000 0.000000 0.000000 0.065139
#
#
# Mechanical properties :
#
#
# Convention : Reuss Voigt Hill
#
# Bulk Modulus (GPa) = 34.62617 48.47506 41.55062
# Shear Modulus (GPa) = 16.23886 18.68282 17.46084
#
# Velocity S-wave (km/s) = 3.21861 3.45232 3.33751
# Velocity P-wave (km/s) = 5.99183 6.84219 6.43108
#
# Compressibility (1/GPa) = 0.02887989
#
# Stress axis : x y z
#
# Youngs Moduli (GPa) = 31.78508 30.75988 51.58861
#
# Poissons Ratio (x) = 0.12291 0.74585
# Poissons Ratio (y) = 0.12701 0.45316
# Poissons Ratio (z) = 0.45954 0.27020
#
# Static dielectric constant tensor:
#      x y z
#    x 3.080890 0.000000 0.000000 
#    y 0.000000 3.096440 0.000000 
#    z 0.000000 0.000000 2.792090 
# 
# 
# High freq. dielectric constant tensor:
#      x y z
#    x 1.596370 0.000000 0.000000 
#    y 0.000000 1.586330 0.000000 
#    z 0.000000 0.000000 1.576440 
# 
# From -- ./inp_files/27233.got.cif
#   From: 2010.03.12/outbox.cif.g09.slc.cpg/sg59_14_cif.got.tgz:27233.got - 2010.04.16 16:29:54.
