data_PCOD8240135
_publ_section_title
;
Structure prediction by ZEFSAII (Michael W. Deem and Ramdas Pophale) SiO2 
 PCOD8240135
Probable space group: P M M N
;
_chemical_formula_sum "Si O2"
_cell_formula_units_Z 64
_cell_length_a 28.175227
_cell_length_b 9.295988
_cell_length_c 12.996892
_cell_angle_alpha 90.000000
_cell_angle_beta 90.000000
_cell_angle_gamma 90.000000
_cell_volume 3404.101400
_symmetry_space_group_name_H-M "P M M N"
_symmetry_group_IT_number 59
_space_group.IT_coordinate_system_code '2'
_symmetry_cell_setting 'orthorhombic'
loop_
_space_group_symop_operation_xyz
x,y,z
1/2-x,1/2-y,z
1/2+x,-y,-z
-x,1/2+y,-z
-x,-y,-z
1/2+x,1/2+y,-z
1/2-x,y,z
x,1/2-y,z
loop_
_atom_site_type_symbol
_atom_site_label
_atom_site_fract_x
_atom_site_fract_y
_atom_site_fract_z
Si Si1 0.358207 0.420422 0.874308
Si Si2 0.861742 0.080246 0.922876
Si Si3 0.353091 0.082018 0.466797
Si Si4 0.302951 0.079309 0.673059
Si Si5 0.954959 0.581705 0.459022
Si Si6 0.049512 0.084077 0.767607
Si Si7 0.969856 0.415848 0.917082
Si Si8 0.805051 0.080936 0.720617
O O1 0.354797 0.250000 0.893401
O O2 0.325822 0.473197 0.779659
O O3 0.411643 0.476500 0.848312
O O4 0.340905 0.500352 0.977214
O O5 0.858263 0.250000 0.940344
O O6 0.916109 0.029170 0.904747
O O7 0.830534 0.031617 0.825638
O O8 0.341611 0.250000 0.452714
O O9 0.331815 0.023016 0.574195
O O10 0.409593 0.053789 0.468428
O O11 0.329947 0.997561 0.373560
O O12 0.250000 0.016464 0.666452
O O13 0.303176 0.250000 0.671654
O O14 0.967206 0.750000 0.452800
O O15 0.944824 0.516579 0.345414
O O16 0.000000 0.500000 0.500000
O O17 0.063151 0.250000 0.756205
O O18 0.996074 0.059895 0.807847
O O19 0.970825 0.250000 0.949982
O O20 0.000000 0.500000 0.000000
O O21 0.750000 0.036340 0.726629
O O22 0.811217 0.250000 0.703569
#
# Coordination Sequence:
#
# PCOD8240135 Si02
#       8
#     8   8   8   8   8   8   8   8
#     4  10  18  33  56  80 107 142 179 218 272 334
#     4  10  22  37  54  79 110 145 187 232 276 324
#     4  10  20  37  60  86 112 142 185 234 281 330
#     4   9  17  31  55  85 110 134 172 225 280 329
#     4  10  21  36  55  82 115 148 182 222 274 336
#     4   9  17  32  53  74 104 142 177 215 266 327
#     4  10  19  32  52  77 102 136 178 216 259 314
#     4  10  23  42  60  79 109 152 196 236 283 338
#
# _framework density 18.800851999999999
#
# number of rings (size 3 to 8) (size 9 to 14) (size 15 to 20)
#    0.000    2.250    2.500    0.375    1.750    2.250 
#    0.000    1.875    0.000    0.750    0.000    0.000 
#    0.000    0.000    0.000    0.000    0.000    0.000 
#
# Total GULP energy -793484.250642 kJ/mol
# GULP energy per Si atom -12398.191416 kJ/mol
# Density = 1.875806 g / cm^3
# Si number density = 18.800852 Si / 1000 Ang^3
#
#
#
# Elastic Constant Matrix: (Units=GPa)
#
#
# Indices 1 2 3 4 5 6 
#
# 1 135.9161 39.3999 76.9845 0.0000 0.0000 0.0000
# 2 39.3999 35.6053 47.9173 0.0000 0.0000 0.0000
# 3 76.9845 47.9173 164.5514 0.0000 0.0000 0.0000
# 4 0.0000 0.0000 0.0000 31.1833 0.0000 0.0000
# 5 0.0000 0.0000 0.0000 0.0000 30.9946 0.0000
# 6 0.0000 0.0000 0.0000 0.0000 0.0000 23.7529
#
#
#
# Elastic Compliance Matrix: (Units=1/GPa)
#
#
# Indices 1 2 3 4 5 6 
#
# 1 0.011550 -0.009059 -0.002766 0.000000 0.000000 0.000000
# 2 -0.009059 0.053291 -0.011280 0.000000 0.000000 0.000000
# 3 -0.002766 -0.011280 0.010656 0.000000 0.000000 0.000000
# 4 0.000000 0.000000 0.000000 0.032068 0.000000 0.000000
# 5 0.000000 0.000000 0.000000 0.000000 0.032264 0.000000
# 6 0.000000 0.000000 0.000000 0.000000 0.000000 0.042100
#
#
# Mechanical properties :
#
#
# Convention : Reuss Voigt Hill
#
# Bulk Modulus (GPa) = 34.14463 73.85291 53.99877
# Shear Modulus (GPa) = 21.01719 28.63756 24.82737
#
# Velocity S-wave (km/s) = 3.34711 3.90706 3.63787
# Velocity P-wave (km/s) = 5.75657 7.72790 6.81390
#
# Compressibility (1/GPa) = 0.02928719
#
# Stress axis : x y z
#
# Youngs Moduli (GPa) = 86.57986 18.76499 93.84603
#
# Poissons Ratio (x) = 0.16999 0.25954
# Poissons Ratio (y) = 0.78433 1.05858
# Poissons Ratio (z) = 0.23945 0.21167
#
# Static dielectric constant tensor:
#      x y z
#    x 3.688090 0.000000 0.000000 
#    y 0.000000 2.957610 0.000000 
#    z 0.000000 0.000000 3.635210 
# 
# 
# High freq. dielectric constant tensor:
#      x y z
#    x 1.740820 0.000000 0.000000 
#    y 0.000000 1.691360 0.000000 
#    z 0.000000 0.000000 1.739280 
# 
# From -- ./inp_files/19258.got.cif
#   From: 2010.03.12/outbox.cif.g09.slc.cpg/sg59_10_cif.got.tgz:19258.got - 2010.04.16 16:29:54.
