data_PCOD8240554
_publ_section_title
;
Structure prediction by ZEFSAII (Michael W. Deem and Ramdas Pophale) SiO2 
 PCOD8240554
Probable space group: P M M N
;
_chemical_formula_sum "Si O2"
_cell_formula_units_Z 64
_cell_length_a 23.190471
_cell_length_b 9.032023
_cell_length_c 18.919798
_cell_angle_alpha 90.000000
_cell_angle_beta 90.000000
_cell_angle_gamma 90.000000
_cell_volume 3962.881622
_symmetry_space_group_name_H-M "P M M N"
_symmetry_group_IT_number 59
_space_group.IT_coordinate_system_code '2'
_symmetry_cell_setting 'orthorhombic'
loop_
_space_group_symop_operation_xyz
x,y,z
1/2-x,1/2-y,z
1/2+x,-y,-z
-x,1/2+y,-z
-x,-y,-z
1/2+x,1/2+y,-z
1/2-x,y,z
x,1/2-y,z
loop_
_atom_site_type_symbol
_atom_site_label
_atom_site_fract_x
_atom_site_fract_y
_atom_site_fract_z
Si Si1 0.183901 0.575568 0.103889
Si Si2 0.521301 0.578177 0.390494
Si Si3 0.504900 0.576779 0.744044
Si Si4 0.976159 0.421397 0.099430
Si Si5 0.590016 0.923375 0.983615
Si Si6 0.814906 0.580939 0.621728
Si Si7 0.078930 0.419620 0.468742
Si Si8 0.372023 0.924597 0.251136
O O1 0.250000 0.523436 0.099572
O O2 0.178352 0.750000 0.094208
O O3 0.149190 0.498069 0.040832
O O4 0.158015 0.524428 0.178706
O O5 0.517028 0.750000 0.371413
O O6 0.534826 0.488458 0.318716
O O7 0.571471 0.545089 0.447873
O O8 0.460194 0.527011 0.421955
O O9 0.514032 0.750000 0.733193
O O10 0.473095 0.542181 0.817647
O O11 0.566970 0.502386 0.740905
O O12 0.964298 0.250000 0.083201
O O13 0.039533 0.466324 0.071455
O O14 0.927033 0.516742 0.061023
O O15 0.600121 0.750000 0.988454
O O16 0.750000 0.547125 0.597039
O O17 0.821899 0.750000 0.648111
O O18 0.855106 0.552174 0.553358
O O19 0.830533 0.472879 0.685581
O O20 0.059740 0.250000 0.454067
O O21 0.381271 0.750000 0.253672
#
# Coordination Sequence:
#
# PCOD8240554 Si02
#       8
#     8   8   8   8   8   8   8   8
#     4  10  21  35  49  67  97 135 168 198 236 282
#     4  10  19  30  47  70  94 124 160 198 241 286
#     4  11  20  32  49  71  99 129 160 196 242 293
#     4   9  19  33  49  69  96 126 157 195 246 297
#     4  10  19  32  50  72  95 123 161 203 241 281
#     4  10  20  33  49  68  93 129 166 198 236 281
#     4   9  18  32  47  66  95 126 158 198 240 286
#     4  11  21  32  47  69  98 131 168 202 233 274
#
# _framework density 16.149864000000001
#
# number of rings (size 3 to 8) (size 9 to 14) (size 15 to 20)
#    0.000    2.000    2.500    1.875    0.000    3.500 
#    0.000    0.000    0.000    0.000    0.000    0.875 
#    0.000    3.000    0.000    0.000    0.000    0.000 
#
# Total GULP energy -793718.202437 kJ/mol
# GULP energy per Si atom -12401.846913 kJ/mol
# Density = 1.611311 g / cm^3
# Si number density = 16.149864 Si / 1000 Ang^3
#
#
#
# Elastic Constant Matrix: (Units=GPa)
#
#
# Indices 1 2 3 4 5 6 
#
# 1 81.6888 31.4470 54.9908 0.0000 0.0000 0.0000
# 2 31.4470 58.5938 46.2385 0.0000 0.0000 0.0000
# 3 54.9908 46.2385 117.2103 0.0000 0.0000 0.0000
# 4 0.0000 0.0000 0.0000 27.3419 0.0000 0.0000
# 5 0.0000 0.0000 0.0000 0.0000 20.3883 0.0000
# 6 0.0000 0.0000 0.0000 0.0000 0.0000 19.3279
#
#
#
# Elastic Compliance Matrix: (Units=1/GPa)
#
#
# Indices 1 2 3 4 5 6 
#
# 1 0.018681 -0.004515 -0.006983 0.000000 0.000000 0.000000
# 2 -0.004515 0.025873 -0.008088 0.000000 0.000000 0.000000
# 3 -0.006983 -0.008088 0.014999 0.000000 0.000000 0.000000
# 4 0.000000 0.000000 0.000000 0.036574 0.000000 0.000000
# 5 0.000000 0.000000 0.000000 0.000000 0.049048 0.000000
# 6 0.000000 0.000000 0.000000 0.000000 0.000000 0.051739
#
#
# Mechanical properties :
#
#
# Convention : Reuss Voigt Hill
#
# Bulk Modulus (GPa) = 49.07027 58.09397 53.58212
# Shear Modulus (GPa) = 20.58649 21.73273 21.15961
#
# Velocity S-wave (km/s) = 3.57419 3.67235 3.62360
# Velocity P-wave (km/s) = 6.89082 7.35060 7.12442
#
# Compressibility (1/GPa) = 0.02037894
#
# Stress axis : x y z
#
# Youngs Moduli (GPa) = 53.53162 38.65092 66.67295
#
# Poissons Ratio (x) = 0.17452 0.46558
# Poissons Ratio (y) = 0.24171 0.53926
# Poissons Ratio (z) = 0.37381 0.31262
#
# Static dielectric constant tensor:
#      x y z
#    x 2.899150 0.000000 0.000000 
#    y 0.000000 3.119090 0.000000 
#    z 0.000000 0.000000 3.221960 
# 
# 
# High freq. dielectric constant tensor:
#      x y z
#    x 1.590820 0.000000 0.000000 
#    y 0.000000 1.630870 0.000000 
#    z 0.000000 0.000000 1.618130 
# 
# From -- ./inp_files/26514.got.cif
#   From: 2010.03.12/outbox.cif.g09.slc.cpg/sg59_14_cif.got.tgz:26514.got - 2010.04.16 16:29:54.
