data_PCOD8240544
_publ_section_title
;
Structure prediction by ZEFSAII (Michael W. Deem and Ramdas Pophale) SiO2 
 PCOD8240544
Probable space group: P M M N
;
_chemical_formula_sum "Si O2"
_cell_formula_units_Z 56
_cell_length_a 7.746701
_cell_length_b 23.406569
_cell_length_c 17.068705
_cell_angle_alpha 90.000000
_cell_angle_beta 90.000000
_cell_angle_gamma 90.000000
_cell_volume 3094.960599
_symmetry_space_group_name_H-M "P M M N"
_symmetry_group_IT_number 59
_space_group.IT_coordinate_system_code '2'
_symmetry_cell_setting 'orthorhombic'
loop_
_space_group_symop_operation_xyz
x,y,z
1/2-x,1/2-y,z
1/2+x,-y,-z
-x,1/2+y,-z
-x,-y,-z
1/2+x,1/2+y,-z
1/2-x,y,z
x,1/2-y,z
loop_
_atom_site_type_symbol
_atom_site_label
_atom_site_fract_x
_atom_site_fract_y
_atom_site_fract_z
Si Si1 0.050496 0.816985 0.704415
Si Si2 0.553808 0.879082 0.157831
Si Si3 0.250000 0.317751 0.584104
Si Si4 0.442326 0.684450 0.306990
Si Si5 0.451385 0.815866 0.008667
Si Si6 0.250000 0.317410 0.410094
Si Si7 0.454689 0.617619 0.858559
Si Si8 0.046944 0.496433 0.909447
O O1 0.250000 0.831239 0.682833
O O2 0.030302 0.750000 0.723582
O O3 0.982614 0.852285 0.779253
O O4 0.925669 0.836490 0.633815
O O5 0.750000 0.886463 0.186401
O O6 0.445383 0.853707 0.229251
O O7 0.551839 0.835724 0.085396
O O8 0.469233 0.939613 0.131048
O O9 0.250000 0.250000 0.577712
O O10 0.421486 0.338796 0.629298
O O11 0.250000 0.344951 0.496982
O O12 0.250000 0.680127 0.343233
O O13 0.486521 0.750000 0.284210
O O14 0.250000 0.828827 0.021058
O O15 0.488085 0.750000 0.993660
O O16 0.528070 0.849018 0.933759
O O17 0.250000 0.250000 0.417387
O O18 0.250000 0.620394 0.861684
O O19 0.522496 0.552285 0.863293
O O20 0.250000 0.492726 0.902465
O O21 0.000000 0.500000 0.000000
#
# Coordination Sequence:
#
# PCOD8240544 Si02
#       8
#     8   8   4   8   8   4   8   8
#     4   9  17  31  52  77 107 139 171 209 256 311
#     4  11  21  32  47  70 102 136 175 220 263 302
#     4   9  18  34  54  79 113 139 161 206 258 313
#     4  10  20  34  54  78 105 138 173 209 257 314
#     4  10  19  30  47  68  92 133 178 210 252 306
#     4   9  18  32  52  81 113 139 163 202 258 317
#     4   9  17  32  50  67  97 134 174 221 259 296
#     4  10  20  34  50  68  95 135 179 224 262 299
#
# _framework density 18.093928999999999
#
# number of rings (size 3 to 8) (size 9 to 14) (size 15 to 20)
#    0.000    2.286    2.143    1.286    0.000    4.857 
#    2.571    2.857    0.000    0.000    0.000    1.000 
#    0.000    0.000    0.000    0.000    0.000    0.000 
#
# Total GULP energy -694296.364963 kJ/mol
# GULP energy per Si atom -12398.149374 kJ/mol
# Density = 1.805275 g / cm^3
# Si number density = 18.093929 Si / 1000 Ang^3
#
#
#
# Elastic Constant Matrix: (Units=GPa)
#
#
# Indices 1 2 3 4 5 6 
#
# 1 77.0476 23.3461 47.2131 0.0000 0.0000 0.0000
# 2 23.3461 81.2781 42.6739 0.0000 0.0000 0.0000
# 3 47.2131 42.6739 142.6608 0.0000 0.0000 0.0000
# 4 0.0000 0.0000 0.0000 10.0399 0.0000 0.0000
# 5 0.0000 0.0000 0.0000 0.0000 25.2032 0.0000
# 6 0.0000 0.0000 0.0000 0.0000 0.0000 13.1349
#
#
#
# Elastic Compliance Matrix: (Units=1/GPa)
#
#
# Indices 1 2 3 4 5 6 
#
# 1 0.016617 -0.002237 -0.004830 0.000000 0.000000 0.000000
# 2 -0.002237 0.014897 -0.003716 0.000000 0.000000 0.000000
# 3 -0.004830 -0.003716 0.009720 0.000000 0.000000 0.000000
# 4 0.000000 0.000000 0.000000 0.099603 0.000000 0.000000
# 5 0.000000 0.000000 0.000000 0.000000 0.039677 0.000000
# 6 0.000000 0.000000 0.000000 0.000000 0.000000 0.076133
#
#
# Mechanical properties :
#
#
# Convention : Reuss Voigt Hill
#
# Bulk Modulus (GPa) = 50.84527 58.60585 54.72556
# Shear Modulus (GPa) = 17.55815 22.19248 19.87532
#
# Velocity S-wave (km/s) = 3.11849 3.50596 3.31789
# Velocity P-wave (km/s) = 6.41314 6.98922 6.70737
#
# Compressibility (1/GPa) = 0.01966751
#
# Stress axis : x y z
#
# Youngs Moduli (GPa) = 60.18092 67.12813 102.88466
#
# Poissons Ratio (x) = 0.15016 0.49694
# Poissons Ratio (y) = 0.13462 0.38230
# Poissons Ratio (z) = 0.29068 0.24943
#
# Static dielectric constant tensor:
#      x y z
#    x 3.332040 0.000000 0.000000 
#    y 0.000000 3.393830 0.000000 
#    z 0.000000 0.000000 3.360640 
# 
# 
# High freq. dielectric constant tensor:
#      x y z
#    x 1.700770 0.000000 0.000000 
#    y 0.000000 1.679760 0.000000 
#    z 0.000000 0.000000 1.683120 
# 
# From -- ./inp_files/21132.got.cif
#   From: 2010.03.12/outbox.cif.g09.slc.cpg/sg59_11_cif.got.tgz:21132.got - 2010.04.16 16:29:54.
