data_PCOD8240745
_publ_section_title
;
Structure prediction by ZEFSAII (Michael W. Deem and Ramdas Pophale) SiO2 
 PCOD8240745
Probable space group: P M M N
;
_chemical_formula_sum "Si O2"
_cell_formula_units_Z 64
_cell_length_a 9.076251
_cell_length_b 17.684755
_cell_length_c 22.867330
_cell_angle_alpha 90.000000
_cell_angle_beta 90.000000
_cell_angle_gamma 90.000000
_cell_volume 3670.464300
_symmetry_space_group_name_H-M "P M M N"
_symmetry_group_IT_number 59
_space_group.IT_coordinate_system_code '2'
_symmetry_cell_setting 'orthorhombic'
loop_
_space_group_symop_operation_xyz
x,y,z
1/2-x,1/2-y,z
1/2+x,-y,-z
-x,1/2+y,-z
-x,-y,-z
1/2+x,1/2+y,-z
1/2-x,y,z
x,1/2-y,z
loop_
_atom_site_type_symbol
_atom_site_label
_atom_site_fract_x
_atom_site_fract_y
_atom_site_fract_z
Si Si1 0.420448 0.586034 0.431462
Si Si2 0.922527 0.166399 0.453717
Si Si3 0.919702 0.331012 0.684272
Si Si4 0.577892 0.043739 0.363950
Si Si5 0.574661 0.019925 0.743027
Si Si6 0.081812 0.931253 0.970909
Si Si7 0.922054 0.663955 0.055355
Si Si8 0.582134 0.525079 0.137570
O O1 0.250000 0.559868 0.436247
O O2 0.486484 0.617106 0.492417
O O3 0.437036 0.652905 0.384347
O O4 0.517900 0.515774 0.411100
O O5 0.750000 0.173897 0.465795
O O6 0.994752 0.250000 0.451658
O O7 0.952399 0.126080 0.391709
O O8 0.750000 0.325621 0.701536
O O9 0.996567 0.250000 0.698259
O O10 0.988574 0.398103 0.723105
O O11 0.750000 0.028784 0.353562
O O12 0.494212 0.040963 0.301732
O O13 0.750000 0.014116 0.738362
O O14 0.523772 0.006547 0.808764
O O15 0.250000 0.929009 0.991735
O O16 0.071008 0.948817 0.901796
O O17 0.004259 0.854264 0.993656
O O18 0.000000 0.000000 0.000000
O O19 0.750000 0.655217 0.042976
O O20 0.961605 0.750000 0.074970
O O21 0.970544 0.602392 0.104488
O O22 0.750000 0.536650 0.158760
#
# Coordination Sequence:
#
# PCOD8240745 Si02
#       8
#     8   8   8   8   8   8   8   8
#     4   9  16  28  48  70  92 119 152 190 230 280
#     4   9  17  29  48  73  94 116 151 193 238 287
#     4   8  14  25  41  62  88 117 149 186 226 267
#     4  10  19  31  48  68  94 125 155 193 238 285
#     4  10  20  32  48  68  90 122 164 203 235 274
#     4   9  17  30  49  72  98 129 164 199 234 275
#     4   9  18  32  50  75 108 138 158 186 236 290
#     4   9  18  32  49  70  97 128 162 199 237 277
#
# _framework density 17.436485000000001
#
# number of rings (size 3 to 8) (size 9 to 14) (size 15 to 20)
#    0.000    2.875    0.000    3.375    0.000    4.750 
#    0.000    0.625    0.000   16.125    0.000    1.750 
#    0.000    0.000    0.000    0.000    0.000    0.000 
#
# Total GULP energy -793088.778776 kJ/mol
# GULP energy per Si atom -12392.012168 kJ/mol
# Density = 1.739680 g / cm^3
# Si number density = 17.436485 Si / 1000 Ang^3
#
#
#
# Elastic Constant Matrix: (Units=GPa)
#
#
# Indices 1 2 3 4 5 6 
#
# 1 66.2338 28.6064 44.1437 0.0000 0.0000 0.0000
# 2 28.6064 65.0821 42.8700 0.0000 0.0000 0.0000
# 3 44.1437 42.8700 108.6314 0.0000 0.0000 0.0000
# 4 0.0000 0.0000 0.0000 14.8152 0.0000 0.0000
# 5 0.0000 0.0000 0.0000 0.0000 27.3198 0.0000
# 6 0.0000 0.0000 0.0000 0.0000 0.0000 18.5016
#
#
#
# Elastic Compliance Matrix: (Units=1/GPa)
#
#
# Indices 1 2 3 4 5 6 
#
# 1 0.021883 -0.005082 -0.006887 0.000000 0.000000 0.000000
# 2 -0.005082 0.021943 -0.006594 0.000000 0.000000 0.000000
# 3 -0.006887 -0.006594 0.014606 0.000000 0.000000 0.000000
# 4 0.000000 0.000000 0.000000 0.067498 0.000000 0.000000
# 5 0.000000 0.000000 0.000000 0.000000 0.036603 0.000000
# 6 0.000000 0.000000 0.000000 0.000000 0.000000 0.054049
#
#
# Mechanical properties :
#
#
# Convention : Reuss Voigt Hill
#
# Bulk Modulus (GPa) = 46.93594 52.35418 49.64506
# Shear Modulus (GPa) = 19.17094 20.41579 19.79337
#
# Velocity S-wave (km/s) = 3.31943 3.42550 3.37288
# Velocity P-wave (km/s) = 6.45509 6.76286 6.61076
#
# Compressibility (1/GPa) = 0.02130564
#
# Stress axis : x y z
#
# Youngs Moduli (GPa) = 45.69767 45.57325 68.46354
#
# Poissons Ratio (x) = 0.23161 0.47150
# Poissons Ratio (y) = 0.23224 0.45146
# Poissons Ratio (z) = 0.31471 0.30052
#
# Static dielectric constant tensor:
#      x y z
#    x 3.128630 0.000000 0.000000 
#    y 0.000000 3.378960 0.000000 
#    z 0.000000 0.000000 3.253750 
# 
# 
# High freq. dielectric constant tensor:
#      x y z
#    x 1.656200 0.000000 0.000000 
#    y 0.000000 1.658480 0.000000 
#    z 0.000000 0.000000 1.663810 
# 
# From -- ./inp_files/31773.got.cif
#   From: 2010.03.12/outbox.cif.g09.slc.cpg/sg59_16_cif.got.tgz:31773.got - 2010.04.16 16:29:54.
