data_PCOD8240780
_publ_section_title
;
Structure prediction by ZEFSAII (Michael W. Deem and Ramdas Pophale) SiO2 
 PCOD8240780
Probable space group: P M M N
;
_chemical_formula_sum "Si O2"
_cell_formula_units_Z 48
_cell_length_a 24.942871
_cell_length_b 9.190555
_cell_length_c 12.543879
_cell_angle_alpha 90.000000
_cell_angle_beta 90.000000
_cell_angle_gamma 90.000000
_cell_volume 2875.544118
_symmetry_space_group_name_H-M "P M M N"
_symmetry_group_IT_number 59
_space_group.IT_coordinate_system_code '2'
_symmetry_cell_setting 'orthorhombic'
loop_
_space_group_symop_operation_xyz
x,y,z
1/2-x,1/2-y,z
1/2+x,-y,-z
-x,1/2+y,-z
-x,-y,-z
1/2+x,1/2+y,-z
1/2-x,y,z
x,1/2-y,z
loop_
_atom_site_type_symbol
_atom_site_label
_atom_site_fract_x
_atom_site_fract_y
_atom_site_fract_z
Si Si1 0.313686 0.414979 0.274523
Si Si2 0.312519 0.918903 0.714388
Si Si3 0.118576 0.578875 0.104993
Si Si4 0.502340 0.415398 0.892715
Si Si5 0.813613 0.410952 0.523822
Si Si6 0.613755 0.579338 0.121338
O O1 0.250000 0.424422 0.268131
O O2 0.334097 0.250000 0.264388
O O3 0.336231 0.510086 0.178547
O O4 0.335036 0.476992 0.387573
O O5 0.250000 0.952005 0.730159
O O6 0.324748 0.750000 0.737806
O O7 0.331469 0.959852 0.594486
O O8 0.344395 0.021047 0.793890
O O9 0.130232 0.750000 0.092030
O O10 0.060005 0.549640 0.162015
O O11 0.121553 0.504765 0.989487
O O12 0.502717 0.250000 0.928599
O O13 0.446728 0.448181 0.829671
O O14 0.500000 0.500000 0.000000
O O15 0.750000 0.403563 0.525797
O O16 0.836581 0.250000 0.549757
O O17 0.624285 0.750000 0.101845
#
# Coordination Sequence:
#
# PCOD8240780 Si02
#       6
#     8   8   8   8   8   8
#     4  10  20  32  47  70  98 123 150 189 235 278
#     4   9  18  32  49  70  96 125 157 190 225 272
#     4  10  19  32  50  69  92 124 159 191 227 275
#     4   8  16  30  47  67  89 117 154 193 229 268
#     4   8  15  30  50  68  88 119 158 193 224 266
#     4  10  19  31  48  71  98 123 151 191 236 277
#
# _framework density 16.692494
#
# number of rings (size 3 to 8) (size 9 to 14) (size 15 to 20)
#    0.000    2.833    0.000    2.500    0.000    4.000 
#    0.000    1.667    0.000    1.000    0.000    0.000 
#    0.000    0.000    0.000    0.000    0.000    0.000 
#
# Total GULP energy -594642.226283 kJ/mol
# GULP energy per Si atom -12388.379714 kJ/mol
# Density = 1.665450 g / cm^3
# Si number density = 16.692494 Si / 1000 Ang^3
#
#
#
# Elastic Constant Matrix: (Units=GPa)
#
#
# Indices 1 2 3 4 5 6 
#
# 1 50.9035 41.1089 37.1409 0.0000 0.0000 0.0000
# 2 41.1089 102.9057 56.5821 0.0000 0.0000 0.0000
# 3 37.1409 56.5821 93.8216 0.0000 0.0000 0.0000
# 4 0.0000 0.0000 0.0000 28.0625 0.0000 0.0000
# 5 0.0000 0.0000 0.0000 0.0000 -0.8954 0.0000
# 6 0.0000 0.0000 0.0000 0.0000 0.0000 19.0921
#
#
#
# Elastic Compliance Matrix: (Units=1/GPa)
#
#
# Indices 1 2 3 4 5 6 
#
# 1 0.032143 -0.008743 -0.007451 0.000000 0.000000 0.000000
# 2 -0.008743 0.016917 -0.006741 0.000000 0.000000 0.000000
# 3 -0.007451 -0.006741 0.017674 0.000000 0.000000 0.000000
# 4 0.000000 0.000000 0.000000 0.035635 0.000000 0.000000
# 5 0.000000 0.000000 0.000000 0.000000 -1.116830 0.000000
# 6 0.000000 0.000000 0.000000 0.000000 0.000000 0.052378
#
#
# Mechanical properties :
#
#
# Convention : Reuss Voigt Hill
#
# Bulk Modulus (GPa) = 47.93433 57.47715 52.70574
# Shear Modulus (GPa) = -5.49899 16.77176 5.63639
#
# Velocity S-wave (km/s) = -1.81699 3.17322 1.83955
# Velocity P-wave (km/s) = 4.93726 6.92340 6.01290
#
# Compressibility (1/GPa) = 0.02086188
#
# Stress axis : x y z
#
# Youngs Moduli (GPa) = 31.11124 59.11205 56.58124
#
# Poissons Ratio (x) = 0.51684 0.42160
# Poissons Ratio (y) = 0.27202 0.38142
# Poissons Ratio (z) = 0.23182 0.39848
#
# Static dielectric constant tensor:
#      x y z
#    x 3.456400 0.000000 0.000000 
#    y 0.000000 3.344340 0.000000 
#    z 0.000000 0.000000 3.002750 
# 
# 
# High freq. dielectric constant tensor:
#      x y z
#    x 1.631840 0.000000 0.000000 
#    y 0.000000 1.656140 0.000000 
#    z 0.000000 0.000000 1.621160 
# 
# From -- ./inp_files/14350.got.cif
#   From: 2010.03.12/outbox.cif.g09.slc.cpg/sg59_8_cif.got.tgz:14350.got - 2010.04.16 16:29:54.
