data_PCOD8240373
_publ_section_title
;
Structure prediction by ZEFSAII (Michael W. Deem and Ramdas Pophale) SiO2 
 PCOD8240373
Probable space group: P M M N
;
_chemical_formula_sum "Si O2"
_cell_formula_units_Z 64
_cell_length_a 18.039430
_cell_length_b 9.329204
_cell_length_c 21.414847
_cell_angle_alpha 90.000000
_cell_angle_beta 90.000000
_cell_angle_gamma 90.000000
_cell_volume 3603.980036
_symmetry_space_group_name_H-M "P M M N"
_symmetry_group_IT_number 59
_space_group.IT_coordinate_system_code '2'
_symmetry_cell_setting 'orthorhombic'
loop_
_space_group_symop_operation_xyz
x,y,z
1/2-x,1/2-y,z
1/2+x,-y,-z
-x,1/2+y,-z
-x,-y,-z
1/2+x,1/2+y,-z
1/2-x,y,z
x,1/2-y,z
loop_
_atom_site_type_symbol
_atom_site_label
_atom_site_fract_x
_atom_site_fract_y
_atom_site_fract_z
Si Si1 0.479599 0.918309 0.937607
Si Si2 0.338163 0.590917 0.504091
Si Si3 0.838350 0.910681 0.610840
Si Si4 0.335696 0.582236 0.643466
Si Si5 0.892909 0.914279 0.243351
Si Si6 0.542912 0.412860 0.826616
Si Si7 0.165237 0.584086 0.269713
Si Si8 0.832605 0.086178 0.131538
O O1 0.493836 0.750000 0.946139
O O2 0.393664 0.952691 0.920917
O O3 0.532736 0.977065 0.883192
O O4 0.500000 0.000000 0.000000
O O5 0.250000 0.596275 0.500494
O O6 0.369629 0.750000 0.491030
O O7 0.370785 0.484545 0.451692
O O8 0.361185 0.539444 0.573406
O O9 0.750000 0.912528 0.608619
O O10 0.869755 0.750000 0.613679
O O11 0.866082 0.994283 0.672010
O O12 0.250000 0.542839 0.654338
O O13 0.348844 0.750000 0.655109
O O14 0.385472 0.490978 0.690306
O O15 0.868077 0.750000 0.249342
O O16 0.978013 0.929428 0.223765
O O17 0.840348 0.987782 0.192169
O O18 0.544862 0.250000 0.852840
O O19 0.619207 0.453319 0.792309
O O20 0.250000 0.543955 0.254773
O O21 0.156555 0.750000 0.287930
O O22 0.750000 0.063430 0.103258
O O23 0.844271 0.250000 0.153311
#
# Coordination Sequence:
#
# PCOD8240373 Si02
#       8
#     8   8   8   8   8   8   8   8
#     4  10  20  35  56  78 101 132 164 193 230 276
#     4   8  14  25  40  58  83 118 158 195 232 278
#     4   9  16  25  40  65  94 119 146 190 245 290
#     4   9  17  28  42  62  90 124 161 199 235 275
#     4  10  19  29  44  68  97 126 154 191 240 285
#     4   9  19  35  52  72  98 125 155 192 232 277
#     4   9  17  31  52  73  92 120 158 196 235 282
#     4   9  18  33  52  73  97 127 165 202 230 265
#
# _framework density 17.758144999999999
#
# number of rings (size 3 to 8) (size 9 to 14) (size 15 to 20)
#    0.000    2.875    0.000    2.250    0.000    5.500 
#    0.000    1.875    0.000    4.500    0.000    0.000 
#    0.000    0.000    0.000    0.000    0.000    0.000 
#
# Total GULP energy -793525.198450 kJ/mol
# GULP energy per Si atom -12398.831226 kJ/mol
# Density = 1.771773 g / cm^3
# Si number density = 17.758145 Si / 1000 Ang^3
#
#
#
# Elastic Constant Matrix: (Units=GPa)
#
#
# Indices 1 2 3 4 5 6 
#
# 1 61.0796 39.4138 52.6722 0.0000 0.0000 0.0000
# 2 39.4138 110.6003 83.1734 0.0000 0.0000 0.0000
# 3 52.6722 83.1734 138.3193 0.0000 0.0000 0.0000
# 4 0.0000 0.0000 0.0000 36.0638 0.0000 0.0000
# 5 0.0000 0.0000 0.0000 0.0000 18.8697 0.0000
# 6 0.0000 0.0000 0.0000 0.0000 0.0000 19.3922
#
#
#
# Elastic Compliance Matrix: (Units=1/GPa)
#
#
# Indices 1 2 3 4 5 6 
#
# 1 0.024980 -0.003192 -0.007593 0.000000 0.000000 0.000000
# 2 -0.003192 0.016913 -0.008955 0.000000 0.000000 0.000000
# 3 -0.007593 -0.008955 0.015506 0.000000 0.000000 0.000000
# 4 0.000000 0.000000 0.000000 0.027729 0.000000 0.000000
# 5 0.000000 0.000000 0.000000 0.000000 0.052995 0.000000
# 6 0.000000 0.000000 0.000000 0.000000 0.000000 0.051567
#
#
# Mechanical properties :
#
#
# Convention : Reuss Voigt Hill
#
# Bulk Modulus (GPa) = 55.80520 73.39087 64.59804
# Shear Modulus (GPa) = 21.26384 23.84778 22.55581
#
# Velocity S-wave (km/s) = 3.46412 3.66856 3.56781
# Velocity P-wave (km/s) = 6.89155 7.70469 7.30944
#
# Compressibility (1/GPa) = 0.01791948
#
# Stress axis : x y z
#
# Youngs Moduli (GPa) = 40.03278 59.12613 64.49254
#
# Poissons Ratio (x) = 0.18871 0.48970
# Poissons Ratio (y) = 0.12777 0.57751
# Poissons Ratio (z) = 0.30397 0.52945
#
# Static dielectric constant tensor:
#      x y z
#    x 3.061520 0.000000 0.000000 
#    y 0.000000 3.444660 0.000000 
#    z 0.000000 0.000000 3.254440 
# 
# 
# High freq. dielectric constant tensor:
#      x y z
#    x 1.655520 0.000000 0.000000 
#    y 0.000000 1.691850 0.000000 
#    z 0.000000 0.000000 1.682000 
# 
# From -- ./inp_files/30705.got.cif
#   From: 2010.03.12/outbox.cif.g09.slc.cpg/sg59_16_cif.got.tgz:30705.got - 2010.04.16 16:29:54.
