data_PCOD8240218
_publ_section_title
;
Structure prediction by ZEFSAII (Michael W. Deem and Ramdas Pophale) SiO2 
 PCOD8240218
Probable space group: P M M N
;
_chemical_formula_sum "Si O2"
_cell_formula_units_Z 64
_cell_length_a 27.228147
_cell_length_b 12.794486
_cell_length_c 10.511439
_cell_angle_alpha 90.000000
_cell_angle_beta 90.000000
_cell_angle_gamma 90.000000
_cell_volume 3661.871535
_symmetry_space_group_name_H-M "P M M N"
_symmetry_group_IT_number 59
_space_group.IT_coordinate_system_code '2'
_symmetry_cell_setting 'orthorhombic'
loop_
_space_group_symop_operation_xyz
x,y,z
1/2-x,1/2-y,z
1/2+x,-y,-z
-x,1/2+y,-z
-x,-y,-z
1/2+x,1/2+y,-z
1/2-x,y,z
x,1/2-y,z
loop_
_atom_site_type_symbol
_atom_site_label
_atom_site_fract_x
_atom_site_fract_y
_atom_site_fract_z
Si Si1 0.890357 0.512340 0.362427
Si Si2 0.019979 0.871070 0.160976
Si Si3 0.994694 0.034244 0.360562
Si Si4 0.113738 0.498362 0.123893
Si Si5 0.804811 0.371067 0.984958
Si Si6 0.089256 0.368952 0.890904
Si Si7 0.806740 0.129330 0.276655
Si Si8 0.407714 0.129244 0.369752
O O1 0.937652 0.435435 0.337560
O O2 0.890553 0.590349 0.243680
O O3 0.841272 0.442443 0.365485
O O4 0.894719 0.577058 0.494326
O O5 0.033723 0.750000 0.182582
O O6 0.969327 0.882841 0.081921
O O7 0.065512 0.930758 0.096812
O O8 0.009846 0.926433 0.293640
O O9 0.033634 0.127186 0.335336
O O10 0.000000 0.000000 0.500000
O O11 0.160987 0.572126 0.117033
O O12 0.117632 0.437876 0.257979
O O13 0.117970 0.418500 0.008045
O O14 0.750000 0.415678 0.968979
O O15 0.805903 0.250000 0.951192
O O16 0.822410 0.388455 0.130301
O O17 0.104287 0.250000 0.890423
O O18 0.750000 0.097217 0.298306
O O19 0.814313 0.250000 0.314875
O O20 0.390401 0.250000 0.368754
#
# Coordination Sequence:
#
# PCOD8240218 Si02
#       8
#     8   8   8   8   8   8   8   8
#     4  10  18  35  55  78 103 140 179 215 259 310
#     4   9  18  30  46  72 104 135 168 213 261 306
#     4   8  17  30  48  73 102 138 179 211 246 302
#     4  11  19  33  52  76 104 137 173 212 257 307
#     4   9  18  34  57  82 104 131 167 211 268 322
#     4  10  19  31  50  74 102 137 179 218 251 296
#     4   9  18  34  57  84 108 129 162 216 274 315
#     4  10  21  35  51  74 110 147 176 210 256 306
#
# _framework density 17.477402000000001
#
# number of rings (size 3 to 8) (size 9 to 14) (size 15 to 20)
#    0.000    2.500    1.250    2.250    0.000    3.500 
#    0.000    6.250    0.000    6.000    0.000    0.000 
#    0.000    0.000    0.000    0.000    0.000    0.000 
#
# Total GULP energy -792932.385826 kJ/mol
# GULP energy per Si atom -12389.568529 kJ/mol
# Density = 1.743762 g / cm^3
# Si number density = 17.477402 Si / 1000 Ang^3
#
#
#
# Elastic Constant Matrix: (Units=GPa)
#
#
# Indices 1 2 3 4 5 6 
#
# 1 83.1836 53.5205 31.7716 0.0000 0.0000 0.0000
# 2 53.5205 89.2916 38.6003 0.0000 0.0000 0.0000
# 3 31.7716 38.6003 94.0226 0.0000 0.0000 0.0000
# 4 0.0000 0.0000 0.0000 22.3095 0.0000 0.0000
# 5 0.0000 0.0000 0.0000 0.0000 22.8512 0.0000
# 6 0.0000 0.0000 0.0000 0.0000 0.0000 27.9731
#
#
#
# Elastic Compliance Matrix: (Units=1/GPa)
#
#
# Indices 1 2 3 4 5 6 
#
# 1 0.019944 -0.010992 -0.002227 0.000000 0.000000 0.000000
# 2 -0.010992 0.019674 -0.004363 0.000000 0.000000 0.000000
# 3 -0.002227 -0.004363 0.013179 0.000000 0.000000 0.000000
# 4 0.000000 0.000000 0.000000 0.044824 0.000000 0.000000
# 5 0.000000 0.000000 0.000000 0.000000 0.043761 0.000000
# 6 0.000000 0.000000 0.000000 0.000000 0.000000 0.035749
#
#
# Mechanical properties :
#
#
# Convention : Reuss Voigt Hill
#
# Bulk Modulus (GPa) = 56.70640 57.14252 56.92446
# Shear Modulus (GPa) = 22.91775 24.13379 23.52577
#
# Velocity S-wave (km/s) = 3.62509 3.72002 3.67286
# Velocity P-wave (km/s) = 7.07373 7.15664 7.11530
#
# Compressibility (1/GPa) = 0.01763469
#
# Stress axis : x y z
#
# Youngs Moduli (GPa) = 50.13975 50.82976 75.87687
#
# Poissons Ratio (x) = 0.55871 0.16897
# Poissons Ratio (y) = 0.55112 0.33102
# Poissons Ratio (z) = 0.11165 0.22175
#
# Static dielectric constant tensor:
#      x y z
#    x 3.160950 0.000000 0.000000 
#    y 0.000000 3.112440 0.000000 
#    z 0.000000 0.000000 3.145380 
# 
# 
# High freq. dielectric constant tensor:
#      x y z
#    x 1.663120 0.000000 0.000000 
#    y 0.000000 1.668110 0.000000 
#    z 0.000000 0.000000 1.669140 
# 
# From -- ./inp_files/13202.got.cif
#   From: 2010.03.12/outbox.cif.g09.slc.cpg/sg59_7_cif.got.tgz:13202.got - 2010.04.16 16:29:54.
