data_PCOD8240328
_publ_section_title
;
Structure prediction by ZEFSAII (Michael W. Deem and Ramdas Pophale) SiO2 
 PCOD8240328
Probable space group: P M M N
;
_chemical_formula_sum "Si O2"
_cell_formula_units_Z 56
_cell_length_a 9.215096
_cell_length_b 17.944032
_cell_length_c 20.155359
_cell_angle_alpha 90.000000
_cell_angle_beta 90.000000
_cell_angle_gamma 90.000000
_cell_volume 3332.809089
_symmetry_space_group_name_H-M "P M M N"
_symmetry_group_IT_number 59
_space_group.IT_coordinate_system_code '2'
_symmetry_cell_setting 'orthorhombic'
loop_
_space_group_symop_operation_xyz
x,y,z
1/2-x,1/2-y,z
1/2+x,-y,-z
-x,1/2+y,-z
-x,-y,-z
1/2+x,1/2+y,-z
1/2-x,y,z
x,1/2-y,z
loop_
_atom_site_type_symbol
_atom_site_label
_atom_site_fract_x
_atom_site_fract_y
_atom_site_fract_z
Si Si1 0.914228 0.455955 0.903600
Si Si2 0.420878 0.972637 0.788662
Si Si3 0.086380 0.831789 0.870586
Si Si4 0.585461 0.534675 0.654225
Si Si5 0.915695 0.434997 0.535670
Si Si6 0.081217 0.335297 0.447593
Si Si7 0.586783 0.891377 0.984360
O O1 0.750000 0.429580 0.889040
O O2 0.915151 0.530520 0.946483
O O3 0.997822 0.466526 0.834064
O O4 0.998622 0.394003 0.946607
O O5 0.250000 0.988676 0.790973
O O6 0.462659 0.890593 0.815269
O O7 0.475259 0.976324 0.713947
O O8 0.250000 0.850543 0.893712
O O9 0.075198 0.750000 0.837966
O O10 0.987202 0.831922 0.935891
O O11 0.750000 0.546532 0.680077
O O12 0.576626 0.456798 0.613273
O O13 0.538347 0.607874 0.611711
O O14 0.750000 0.432178 0.511220
O O15 0.000000 0.500000 0.500000
O O16 0.992823 0.357338 0.514756
O O17 0.250000 0.344167 0.464459
O O18 0.043162 0.250000 0.427655
O O19 0.750000 0.866045 0.000568
#
# Coordination Sequence:
#
# PCOD8240328 Si02
#       7
#     8   8   8   8   8   8   8
#     4   9  16  27  43  61  83 110 139 176 222 264
#     4  10  19  29  43  64  89 118 153 189 221 259
#     4   9  18  31  43  58  86 121 152 182 219 263
#     4   9  18  31  45  64  93 126 156 187 229 279
#     4   9  17  30  48  68  91 120 155 195 235 276
#     4   9  18  32  49  70  96 124 155 193 235 278
#     4   9  16  26  42  63  83 105 140 183 220 255
#
# _framework density 16.802641999999999
#
# number of rings (size 3 to 8) (size 9 to 14) (size 15 to 20)
#    0.000    2.857    0.000    2.571    0.000    8.000 
#    0.000    0.000    0.000    0.000    0.000    1.000 
#    0.000    3.429    0.000    0.000    0.000    0.000 
#
# Total GULP energy -694072.122641 kJ/mol
# GULP energy per Si atom -12394.145047 kJ/mol
# Density = 1.676440 g / cm^3
# Si number density = 16.802642 Si / 1000 Ang^3
#
#
#
# Elastic Constant Matrix: (Units=GPa)
#
#
# Indices 1 2 3 4 5 6 
#
# 1 108.4172 17.1008 56.7762 0.0000 0.0000 0.0000
# 2 17.1008 19.2824 27.8142 0.0000 0.0000 0.0000
# 3 56.7762 27.8142 96.0920 0.0000 0.0000 0.0000
# 4 0.0000 0.0000 0.0000 16.5596 0.0000 0.0000
# 5 0.0000 0.0000 0.0000 0.0000 33.6595 0.0000
# 6 0.0000 0.0000 0.0000 0.0000 0.0000 20.4114
#
#
#
# Elastic Compliance Matrix: (Units=1/GPa)
#
#
# Indices 1 2 3 4 5 6 
#
# 1 0.013363 -0.000793 -0.007666 0.000000 0.000000 0.000000
# 2 -0.000793 0.089083 -0.025317 0.000000 0.000000 0.000000
# 3 -0.007666 -0.025317 0.022264 0.000000 0.000000 0.000000
# 4 0.000000 0.000000 0.000000 0.060388 0.000000 0.000000
# 5 0.000000 0.000000 0.000000 0.000000 0.029709 0.000000
# 6 0.000000 0.000000 0.000000 0.000000 0.000000 0.048992
#
#
# Mechanical properties :
#
#
# Convention : Reuss Voigt Hill
#
# Bulk Modulus (GPa) = 17.49530 47.46377 32.47953
# Shear Modulus (GPa) = 14.26924 22.26614 18.26769
#
# Velocity S-wave (km/s) = 2.91731 3.64422 3.30084
# Velocity P-wave (km/s) = 4.66716 6.78353 5.82231
#
# Compressibility (1/GPa) = 0.05715822
#
# Stress axis : x y z
#
# Youngs Moduli (GPa) = 74.83125 11.22554 44.91508
#
# Poissons Ratio (x) = 0.00890 0.34433
# Poissons Ratio (y) = 0.05936 1.13709
# Poissons Ratio (z) = 0.57367 0.28419
#
# Static dielectric constant tensor:
#      x y z
#    x 3.371250 0.000000 0.000000 
#    y 0.000000 3.176100 0.000000 
#    z 0.000000 0.000000 3.099440 
# 
# 
# High freq. dielectric constant tensor:
#      x y z
#    x 1.662760 0.000000 0.000000 
#    y 0.000000 1.610670 0.000000 
#    z 0.000000 0.000000 1.627870 
# 
# From -- ./inp_files/29339.got.cif
#   From: 2010.03.12/outbox.cif.g09.slc.cpg/sg59_15_cif.got.tgz:29339.got - 2010.04.16 16:29:54.
