data_PCOD8240444
_publ_section_title
;
Structure prediction by ZEFSAII (Michael W. Deem and Ramdas Pophale) SiO2 
 PCOD8240444
Probable space group: P M M N
;
_chemical_formula_sum "Si O2"
_cell_formula_units_Z 64
_cell_length_a 9.108826
_cell_length_b 25.100922
_cell_length_c 17.813832
_cell_angle_alpha 90.000000
_cell_angle_beta 90.000000
_cell_angle_gamma 90.000000
_cell_volume 4072.953318
_symmetry_space_group_name_H-M "P M M N"
_symmetry_group_IT_number 59
_space_group.IT_coordinate_system_code '2'
_symmetry_cell_setting 'orthorhombic'
loop_
_space_group_symop_operation_xyz
x,y,z
1/2-x,1/2-y,z
1/2+x,-y,-z
-x,1/2+y,-z
-x,-y,-z
1/2+x,1/2+y,-z
1/2-x,y,z
x,1/2-y,z
loop_
_atom_site_type_symbol
_atom_site_label
_atom_site_fract_x
_atom_site_fract_y
_atom_site_fract_z
Si Si1 0.081553 0.313048 0.696533
Si Si2 0.415873 0.686578 0.155597
Si Si3 0.077210 0.618508 0.423706
Si Si4 0.578697 0.688561 0.715449
Si Si5 0.921433 0.612228 0.582751
Si Si6 0.916008 0.813568 0.009435
Si Si7 0.584520 0.313385 0.136143
Si Si8 0.417132 0.996718 0.423761
O O1 0.250000 0.331296 0.700942
O O2 0.068063 0.250000 0.689692
O O3 0.999886 0.334301 0.770840
O O4 0.005789 0.337160 0.623559
O O5 0.250000 0.664341 0.156443
O O6 0.415462 0.750000 0.154006
O O7 0.498733 0.664379 0.082232
O O8 0.250000 0.631353 0.424136
O O9 0.042724 0.560118 0.385069
O O10 0.017664 0.620725 0.508600
O O11 0.750000 0.680534 0.731824
O O12 0.541090 0.750000 0.698730
O O13 0.525907 0.654842 0.643978
O O14 0.492556 0.666846 0.787848
O O15 0.750000 0.620521 0.562464
O O16 0.947108 0.552669 0.619502
O O17 0.750000 0.835336 0.010939
O O18 0.916388 0.750000 0.009379
O O19 0.996316 0.836013 0.935372
O O20 0.750000 0.335581 0.133514
O O21 0.583397 0.250000 0.133362
O O22 0.250000 0.993110 0.447680
O O23 0.500000 0.000000 0.500000
#
# Coordination Sequence:
#
# PCOD8240444 Si02
#       8
#     8   8   8   8   8   8   8   8
#     4  10  20  32  44  59  83 115 146 173 206 252
#     4   9  16  26  40  58  81 108 138 172 208 244
#     4  10  19  30  45  64  84 107 139 179 219 255
#     4   9  17  28  41  58  82 112 143 173 206 246
#     4   9  17  30  46  62  83 112 144 177 213 254
#     4   9  15  23  37  56  78 106 140 173 204 242
#     4   9  16  25  37  54  78 108 140 173 208 244
#     4   8  15  28  45  63  81 103 134 174 218 257
#
# _framework density 15.713414
#
# number of rings (size 3 to 8) (size 9 to 14) (size 15 to 20)
#    0.000    2.875    0.000    1.875    0.000    6.750 
#    0.000    1.250    0.000    0.000    0.000    0.000 
#    0.000    1.000    0.000    2.750    0.000    4.000 
#
# Total GULP energy -793089.199614 kJ/mol
# GULP energy per Si atom -12392.018744 kJ/mol
# Density = 1.567765 g / cm^3
# Si number density = 15.713414 Si / 1000 Ang^3
#
#
#
# Elastic Constant Matrix: (Units=GPa)
#
#
# Indices 1 2 3 4 5 6 
#
# 1 112.2889 29.2382 62.9199 0.0000 0.0000 0.0000
# 2 29.2382 32.4382 33.4448 0.0000 0.0000 0.0000
# 3 62.9199 33.4448 111.2200 0.0000 0.0000 0.0000
# 4 0.0000 0.0000 0.0000 1.1028 0.0000 0.0000
# 5 0.0000 0.0000 0.0000 0.0000 29.2723 0.0000
# 6 0.0000 0.0000 0.0000 0.0000 0.0000 12.1402
#
#
#
# Elastic Compliance Matrix: (Units=1/GPa)
#
#
# Indices 1 2 3 4 5 6 
#
# 1 0.013901 -0.006408 -0.005937 0.000000 0.000000 0.000000
# 2 -0.006408 0.047635 -0.010699 0.000000 0.000000 0.000000
# 3 -0.005937 -0.010699 0.015567 0.000000 0.000000 0.000000
# 4 0.000000 0.000000 0.000000 0.906799 0.000000 0.000000
# 5 0.000000 0.000000 0.000000 0.000000 0.034162 0.000000
# 6 0.000000 0.000000 0.000000 0.000000 0.000000 0.082371
#
#
# Mechanical properties :
#
#
# Convention : Reuss Voigt Hill
#
# Bulk Modulus (GPa) = 32.24301 56.35034 44.29667
# Shear Modulus (GPa) = 4.32204 17.19267 10.75735
#
# Velocity S-wave (km/s) = 1.66027 3.31137 2.61932
# Velocity P-wave (km/s) = 4.92334 7.11051 6.11550
#
# Compressibility (1/GPa) = 0.03101448
#
# Stress axis : x y z
#
# Youngs Moduli (GPa) = 71.93705 20.99300 64.23764
#
# Poissons Ratio (x) = 0.13453 0.38139
# Poissons Ratio (y) = 0.46100 0.68727
# Poissons Ratio (z) = 0.42710 0.22460
#
# Static dielectric constant tensor:
#      x y z
#    x 3.177210 0.000000 0.000000 
#    y 0.000000 3.004330 0.000000 
#    z 0.000000 0.000000 2.951330 
# 
# 
# High freq. dielectric constant tensor:
#      x y z
#    x 1.619680 0.000000 0.000000 
#    y 0.000000 1.555140 0.000000 
#    z 0.000000 0.000000 1.593670 
# 
# From -- ./inp_files/25060.got.cif
#   From: 2010.03.12/outbox.cif.g09.slc.cpg/sg59_13_cif.got.tgz:25060.got - 2010.04.16 16:29:54.
