data_PCOD8240165
_publ_section_title
;
Structure prediction by ZEFSAII (Michael W. Deem and Ramdas Pophale) SiO2 
 PCOD8240165
Probable space group: P M M N
;
_chemical_formula_sum "Si O2"
_cell_formula_units_Z 40
_cell_length_a 10.058777
_cell_length_b 9.399274
_cell_length_c 23.623802
_cell_angle_alpha 90.000000
_cell_angle_beta 90.000000
_cell_angle_gamma 90.000000
_cell_volume 2233.517111
_symmetry_space_group_name_H-M "P M M N"
_symmetry_group_IT_number 59
_space_group.IT_coordinate_system_code '2'
_symmetry_cell_setting 'orthorhombic'
loop_
_space_group_symop_operation_xyz
x,y,z
1/2-x,1/2-y,z
1/2+x,-y,-z
-x,1/2+y,-z
-x,-y,-z
1/2+x,1/2+y,-z
1/2-x,y,z
x,1/2-y,z
loop_
_atom_site_type_symbol
_atom_site_label
_atom_site_fract_x
_atom_site_fract_y
_atom_site_fract_z
Si Si1 0.097406 0.417494 0.249997
Si Si2 0.099676 0.084679 0.961060
Si Si3 0.474974 0.082671 0.373291
Si Si4 0.250000 0.080849 0.457128
Si Si5 0.902192 0.915004 0.169479
Si Si6 0.750000 0.417138 0.426065
O O1 0.250000 0.452444 0.235045
O O2 0.069841 0.250000 0.247663
O O3 0.064201 0.480563 0.312237
O O4 0.002230 0.490924 0.205252
O O5 0.250000 0.039480 0.976235
O O6 0.078871 0.250000 0.973064
O O7 0.070116 0.049642 0.895855
O O8 0.000000 0.000000 0.000000
O O9 0.455585 0.250000 0.369690
O O10 0.378200 0.026310 0.422483
O O11 0.624200 0.038211 0.388486
O O12 0.250000 0.250000 0.466951
O O13 0.250000 0.004352 0.516717
O O14 0.750000 0.953433 0.185161
O O15 0.929434 0.750000 0.182044
O O16 0.750000 0.250000 0.440704
#
# Coordination Sequence:
#
# PCOD8240165 Si02
#       6
#     8   8   8   4   8   4
#     4  10  20  35  55  79 105 137 180 223 263 314
#     4   9  19  36  56  79 110 145 179 217 262 310
#     4   9  18  33  52  73  99 132 168 209 258 308
#     4  10  18  34  54  70  98 134 163 202 259 314
#     4   9  20  38  56  77 109 145 177 216 267 315
#     4  10  20  32  50  76 100 126 167 212 253 306
#
# _framework density 17.908974000000001
#
# number of rings (size 3 to 8) (size 9 to 14) (size 15 to 20)
#    0.000    2.600    1.000    1.800    1.400    2.800 
#    0.000    8.000    0.000    0.000    0.000    0.000 
#    0.000    0.000    0.000    0.000    0.000    0.000 
#
# Total GULP energy -495977.726550 kJ/mol
# GULP energy per Si atom -12399.443164 kJ/mol
# Density = 1.786821 g / cm^3
# Si number density = 17.908974 Si / 1000 Ang^3
#
#
#
# Elastic Constant Matrix: (Units=GPa)
#
#
# Indices 1 2 3 4 5 6 
#
# 1 157.3720 59.8128 87.1736 0.0000 0.0000 0.0000
# 2 59.8128 50.6158 57.2642 0.0000 0.0000 0.0000
# 3 87.1736 57.2642 121.7337 0.0000 0.0000 0.0000
# 4 0.0000 0.0000 0.0000 34.3232 0.0000 0.0000
# 5 0.0000 0.0000 0.0000 0.0000 53.7905 0.0000
# 6 0.0000 0.0000 0.0000 0.0000 0.0000 27.4433
#
#
#
# Elastic Compliance Matrix: (Units=1/GPa)
#
#
# Indices 1 2 3 4 5 6 
#
# 1 0.012498 -0.009926 -0.004281 0.000000 0.000000 0.000000
# 2 -0.009926 0.050116 -0.016467 0.000000 0.000000 0.000000
# 3 -0.004281 -0.016467 0.019026 0.000000 0.000000 0.000000
# 4 0.000000 0.000000 0.000000 0.029135 0.000000 0.000000
# 5 0.000000 0.000000 0.000000 0.000000 0.018591 0.000000
# 6 0.000000 0.000000 0.000000 0.000000 0.000000 0.036439
#
#
# Mechanical properties :
#
#
# Convention : Reuss Voigt Hill
#
# Bulk Modulus (GPa) = 49.27749 82.02475 65.65112
# Shear Modulus (GPa) = 21.37511 31.47611 26.42561
#
# Velocity S-wave (km/s) = 3.45852 4.19688 3.84546
# Velocity P-wave (km/s) = 6.59725 8.32979 7.51362
#
# Compressibility (1/GPa) = 0.02029324
#
# Stress axis : x y z
#
# Youngs Moduli (GPa) = 80.01097 19.95355 52.55952
#
# Poissons Ratio (x) = 0.19807 0.22499
# Poissons Ratio (y) = 0.79422 0.86548
# Poissons Ratio (z) = 0.34249 0.32857
#
# Static dielectric constant tensor:
#      x y z
#    x 3.581450 0.000000 0.000000 
#    y 0.000000 3.012280 0.000000 
#    z 0.000000 0.000000 3.372320 
# 
# 
# High freq. dielectric constant tensor:
#      x y z
#    x 1.708810 0.000000 0.000000 
#    y 0.000000 1.665230 0.000000 
#    z 0.000000 0.000000 1.700140 
# 
# From -- ./inp_files/32449.got.cif
#   From: 2010.03.12/outbox.cif.g09.slc.cpg/sg59_17_cif.got.tgz:32449.got - 2010.04.16 16:29:54.
