data_PCOD8240951
_publ_section_title
;
Structure prediction by ZEFSAII (Michael W. Deem and Ramdas Pophale) SiO2 
 PCOD8240951
Probable space group: P M M N
;
_chemical_formula_sum "Si O2"
_cell_formula_units_Z 64
_cell_length_a 15.955242
_cell_length_b 8.855366
_cell_length_c 23.259654
_cell_angle_alpha 90.000000
_cell_angle_beta 90.000000
_cell_angle_gamma 90.000000
_cell_volume 3286.345059
_symmetry_space_group_name_H-M "P M M N"
_symmetry_group_IT_number 59
_space_group.IT_coordinate_system_code '2'
_symmetry_cell_setting 'orthorhombic'
loop_
_space_group_symop_operation_xyz
x,y,z
1/2-x,1/2-y,z
1/2+x,-y,-z
-x,1/2+y,-z
-x,-y,-z
1/2+x,1/2+y,-z
1/2-x,y,z
x,1/2-y,z
loop_
_atom_site_type_symbol
_atom_site_label
_atom_site_fract_x
_atom_site_fract_y
_atom_site_fract_z
Si Si1 0.842428 0.571289 0.925880
Si Si2 0.343820 0.425731 0.306148
Si Si3 0.654278 0.926161 0.057747
Si Si4 0.011793 0.929364 0.866452
Si Si5 0.655119 0.582796 0.458581
Si Si6 0.093894 0.077186 0.424545
Si Si7 0.577147 0.422363 0.361850
Si Si8 0.999910 0.428387 0.745971
O O1 0.750000 0.511252 0.904537
O O2 0.841486 0.750000 0.921381
O O3 0.921251 0.508272 0.889175
O O4 0.855616 0.523358 0.991759
O O5 0.250000 0.446119 0.282657
O O6 0.372512 0.250000 0.304898
O O7 0.350174 0.487576 0.371679
O O8 0.404777 0.518025 0.264746
O O9 0.750000 0.958071 0.078339
O O10 0.632791 0.750000 0.065770
O O11 0.588091 0.025541 0.092457
O O12 0.009325 0.750000 0.860657
O O13 0.031737 0.003285 0.805411
O O14 0.750000 0.596031 0.477998
O O15 0.616917 0.750000 0.446456
O O16 0.609763 0.499460 0.513357
O O17 0.653077 0.487781 0.399311
O O18 0.120241 0.250000 0.433742
O O19 0.998498 0.057008 0.406480
O O20 0.593309 0.250000 0.344400
O O21 0.562302 0.515001 0.303772
O O22 0.003441 0.250000 0.748851
#
# Coordination Sequence:
#
# PCOD8240951 Si02
#       8
#     8   8   8   8   8   8   8   8
#     4   8  16  32  55  84 117 151 183 214 256 316
#     4   9  17  32  54  78 106 140 176 215 261 313
#     4   9  18  35  58  83 113 148 183 220 267 321
#     4  11  21  34  56  84 112 144 185 230 273 317
#     4  10  19  31  50  77 106 133 162 200 253 316
#     4   8  15  29  51  77 102 131 166 203 249 310
#     4  10  20  36  55  73  97 131 173 216 259 307
#     4  11  23  38  54  73 102 139 182 226 266 314
#
# _framework density 19.474523999999999
#
# number of rings (size 3 to 8) (size 9 to 14) (size 15 to 20)
#    0.000    2.500    0.000    4.500    0.000    2.750 
#    0.000    5.000    0.000    9.375    0.000    0.000 
#    0.000    0.000    0.000    0.000    0.000    0.000 
#
# Total GULP energy -793209.122006 kJ/mol
# GULP energy per Si atom -12393.892531 kJ/mol
# Density = 1.943020 g / cm^3
# Si number density = 19.474524 Si / 1000 Ang^3
#
#
#
# Elastic Constant Matrix: (Units=GPa)
#
#
# Indices 1 2 3 4 5 6 
#
# 1 67.6307 24.0291 36.1185 0.0000 0.0000 0.0000
# 2 24.0291 79.8320 35.7031 0.0000 0.0000 0.0000
# 3 36.1185 35.7031 104.6229 0.0000 0.0000 0.0000
# 4 0.0000 0.0000 0.0000 27.6241 0.0000 0.0000
# 5 0.0000 0.0000 0.0000 0.0000 15.6269 0.0000
# 6 0.0000 0.0000 0.0000 0.0000 0.0000 26.0420
#
#
#
# Elastic Compliance Matrix: (Units=1/GPa)
#
#
# Indices 1 2 3 4 5 6 
#
# 1 0.018819 -0.003256 -0.005386 0.000000 0.000000 0.000000
# 2 -0.003256 0.015346 -0.004113 0.000000 0.000000 0.000000
# 3 -0.005386 -0.004113 0.012821 0.000000 0.000000 0.000000
# 4 0.000000 0.000000 0.000000 0.036200 0.000000 0.000000
# 5 0.000000 0.000000 0.000000 0.000000 0.063992 0.000000
# 6 0.000000 0.000000 0.000000 0.000000 0.000000 0.038399
#
#
# Mechanical properties :
#
#
# Convention : Reuss Voigt Hill
#
# Bulk Modulus (GPa) = 46.56138 49.30966 47.93552
# Shear Modulus (GPa) = 22.90993 24.27425 23.59209
#
# Velocity S-wave (km/s) = 3.43360 3.53436 3.48434
# Velocity P-wave (km/s) = 6.29922 6.48310 6.39182
#
# Compressibility (1/GPa) = 0.02147703
#
# Stress axis : x y z
#
# Youngs Moduli (GPa) = 53.13692 65.16508 77.99723
#
# Poissons Ratio (x) = 0.21217 0.42008
# Poissons Ratio (y) = 0.17300 0.32079
# Poissons Ratio (z) = 0.28619 0.26801
#
# Static dielectric constant tensor:
#      x y z
#    x 3.601880 0.000000 0.000000 
#    y 0.000000 3.289260 0.000000 
#    z 0.000000 0.000000 3.572480 
# 
# 
# High freq. dielectric constant tensor:
#      x y z
#    x 1.754330 0.000000 0.000000 
#    y 0.000000 1.728090 0.000000 
#    z 0.000000 0.000000 1.759620 
# 
# From -- ./inp_files/31401.got.cif
#   From: 2010.03.12/outbox.cif.g09.slc.cpg/sg59_16_cif.got.tgz:31401.got - 2010.04.16 16:29:54.
