data_PCOD8240885
_publ_section_title
;
Structure prediction by ZEFSAII (Michael W. Deem and Ramdas Pophale) SiO2 
 PCOD8240885
Probable space group: P M M N
;
_chemical_formula_sum "Si O2"
_cell_formula_units_Z 48
_cell_length_a 19.123083
_cell_length_b 9.064817
_cell_length_c 15.898633
_cell_angle_alpha 90.000000
_cell_angle_beta 90.000000
_cell_angle_gamma 90.000000
_cell_volume 2755.984275
_symmetry_space_group_name_H-M "P M M N"
_symmetry_group_IT_number 59
_space_group.IT_coordinate_system_code '2'
_symmetry_cell_setting 'orthorhombic'
loop_
_space_group_symop_operation_xyz
x,y,z
1/2-x,1/2-y,z
1/2+x,-y,-z
-x,1/2+y,-z
-x,-y,-z
1/2+x,1/2+y,-z
1/2-x,y,z
x,1/2-y,z
loop_
_atom_site_type_symbol
_atom_site_label
_atom_site_fract_x
_atom_site_fract_y
_atom_site_fract_z
Si Si1 0.528359 0.578633 0.372403
Si Si2 0.527418 0.421990 0.196823
Si Si3 0.250000 0.575111 0.403074
Si Si4 0.373374 0.083687 0.128391
Si Si5 0.935402 0.920104 0.041721
Si Si6 0.895101 0.078274 0.518811
Si Si7 0.750000 0.423583 0.784739
O O1 0.542820 0.750000 0.356154
O O2 0.540135 0.489723 0.287579
O O3 0.584366 0.519370 0.439168
O O4 0.449720 0.551748 0.405476
O O5 0.544830 0.250000 0.199286
O O6 0.448638 0.454137 0.167422
O O7 0.580805 0.499724 0.130500
O O8 0.250000 0.750000 0.397241
O O9 0.180690 0.521293 0.451407
O O10 0.250000 0.507953 0.309081
O O11 0.351793 0.250000 0.152741
O O12 0.318705 0.971183 0.166150
O O13 0.372824 0.066881 0.026464
O O14 0.954165 0.750000 0.058798
O O15 0.000000 0.000000 0.000000
O O16 0.894427 0.250000 0.492748
O O17 0.750000 0.250000 0.779468
#
# Coordination Sequence:
#
# PCOD8240885 Si02
#       7
#     8   8   4   8   8   8   4
#     4  10  19  31  49  74 102 130 163 206 253 299
#     4  10  19  31  50  74  98 127 163 202 244 290
#     4   9  18  33  51  72  97 128 165 203 244 289
#     4   9  19  33  47  68 100 132 160 194 239 287
#     4   9  17  30  48  70  96 126 158 195 238 280
#     4   9  18  33  51  70  97 131 166 205 249 297
#     4  11  21  31  49  74  99 130 165 197 232 283
#
# _framework density 17.416644999999999
#
# number of rings (size 3 to 8) (size 9 to 14) (size 15 to 20)
#    0.000    2.500    0.000    3.750    0.000    6.000 
#    0.000    2.083    0.000    1.000    0.000    4.667 
#    0.000    0.000    0.000    0.000    0.000    0.000 
#
# Total GULP energy -595100.917791 kJ/mol
# GULP energy per Si atom -12397.935787 kJ/mol
# Density = 1.737700 g / cm^3
# Si number density = 17.416645 Si / 1000 Ang^3
#
#
#
# Elastic Constant Matrix: (Units=GPa)
#
#
# Indices 1 2 3 4 5 6 
#
# 1 81.6643 35.2773 46.5424 0.0000 0.0000 0.0000
# 2 35.2773 100.2377 64.7544 0.0000 0.0000 0.0000
# 3 46.5424 64.7544 134.4182 0.0000 0.0000 0.0000
# 4 0.0000 0.0000 0.0000 34.3118 0.0000 0.0000
# 5 0.0000 0.0000 0.0000 0.0000 16.9755 0.0000
# 6 0.0000 0.0000 0.0000 0.0000 0.0000 24.3674
#
#
#
# Elastic Compliance Matrix: (Units=1/GPa)
#
#
# Indices 1 2 3 4 5 6 
#
# 1 0.015834 -0.002948 -0.004062 0.000000 0.000000 0.000000
# 2 -0.002948 0.015033 -0.006221 0.000000 0.000000 0.000000
# 3 -0.004062 -0.006221 0.011843 0.000000 0.000000 0.000000
# 4 0.000000 0.000000 0.000000 0.029144 0.000000 0.000000
# 5 0.000000 0.000000 0.000000 0.000000 0.058909 0.000000
# 6 0.000000 0.000000 0.000000 0.000000 0.000000 0.041038
#
#
# Mechanical properties :
#
#
# Convention : Reuss Voigt Hill
#
# Bulk Modulus (GPa) = 61.55141 67.71871 64.63506
# Shear Modulus (GPa) = 24.54835 26.44734 25.49785
#
# Velocity S-wave (km/s) = 3.75837 3.90103 3.83037
# Velocity P-wave (km/s) = 7.36553 7.69784 7.53352
#
# Compressibility (1/GPa) = 0.01624658
#
# Stress axis : x y z
#
# Youngs Moduli (GPa) = 63.15512 66.52155 84.43875
#
# Poissons Ratio (x) = 0.19613 0.34301
# Poissons Ratio (y) = 0.18620 0.52529
# Poissons Ratio (z) = 0.25655 0.41383
#
# Static dielectric constant tensor:
#      x y z
#    x 3.072260 0.000000 0.000000 
#    y 0.000000 3.299550 0.000000 
#    z 0.000000 0.000000 3.375110 
# 
# 
# High freq. dielectric constant tensor:
#      x y z
#    x 1.637220 0.000000 0.000000 
#    y 0.000000 1.678450 0.000000 
#    z 0.000000 0.000000 1.683330 
# 
# From -- ./inp_files/20582.got.cif
#   From: 2010.03.12/outbox.cif.g09.slc.cpg/sg59_11_cif.got.tgz:20582.got - 2010.04.16 16:29:54.
