data_PCOD8240269
_publ_section_title
;
Structure prediction by ZEFSAII (Michael W. Deem and Ramdas Pophale) SiO2 
 PCOD8240269
Probable space group: P M M N
;
_chemical_formula_sum "Si O2"
_cell_formula_units_Z 56
_cell_length_a 9.098665
_cell_length_b 26.993310
_cell_length_c 14.486191
_cell_angle_alpha 90.000000
_cell_angle_beta 90.000000
_cell_angle_gamma 90.000000
_cell_volume 3557.853199
_symmetry_space_group_name_H-M "P M M N"
_symmetry_group_IT_number 59
_space_group.IT_coordinate_system_code '2'
_symmetry_cell_setting 'orthorhombic'
loop_
_space_group_symop_operation_xyz
x,y,z
1/2-x,1/2-y,z
1/2+x,-y,-z
-x,1/2+y,-z
-x,-y,-z
1/2+x,1/2+y,-z
1/2-x,y,z
x,1/2-y,z
loop_
_atom_site_type_symbol
_atom_site_label
_atom_site_fract_x
_atom_site_fract_y
_atom_site_fract_z
Si Si1 0.424161 0.566976 0.564775
Si Si2 0.584168 0.042853 0.109983
Si Si3 0.586251 0.377854 0.263313
Si Si4 0.425115 0.806738 0.890111
Si Si5 0.077194 0.044613 0.613378
Si Si6 0.921877 0.940827 0.183867
Si Si7 0.078495 0.118535 0.986472
O O1 0.250000 0.571731 0.555013
O O2 0.486651 0.608318 0.637707
O O3 0.467201 0.512744 0.602463
O O4 0.498500 0.576914 0.466012
O O5 0.750000 0.040703 0.068424
O O6 0.588832 0.071477 0.206537
O O7 0.475591 0.069917 0.039825
O O8 0.514625 0.988891 0.130328
O O9 0.750000 0.358986 0.283846
O O10 0.510365 0.334246 0.201936
O O11 0.250000 0.813107 0.895809
O O12 0.474831 0.750000 0.887326
O O13 0.492209 0.832402 0.981269
O O14 0.250000 0.052894 0.602979
O O15 0.015595 0.064422 0.712205
O O16 0.750000 0.951880 0.193998
O O17 0.952139 0.891541 0.122739
O O18 0.250000 0.126334 0.005870
#
# Coordination Sequence:
#
# PCOD8240269 Si02
#       7
#     8   8   8   8   8   8   8
#     4   9  15  25  40  59  82 111 143 176 210 240
#     4   9  15  27  43  58  82 119 153 176 201 243
#     4   8  13  24  44  63  81 108 141 173 208 251
#     4   9  18  33  51  67  82 107 143 177 214 267
#     4   9  16  26  40  57  82 117 149 175 200 237
#     4   9  16  27  42  59  84 121 155 176 202 248
#     4  10  19  28  41  64  89 112 141 179 220 255
#
# _framework density 15.739829
#
# number of rings (size 3 to 8) (size 9 to 14) (size 15 to 20)
#    0.000    3.000    1.429    1.714    0.000    0.286 
#    0.000    5.714    0.000    0.000    0.000    1.000 
#    0.000    3.429    0.000    0.000    0.000    0.000 
#
# Total GULP energy -693829.889882 kJ/mol
# GULP energy per Si atom -12389.819462 kJ/mol
# Density = 1.570400 g / cm^3
# Si number density = 15.739829 Si / 1000 Ang^3
#
#
#
# Elastic Constant Matrix: (Units=GPa)
#
#
# Indices 1 2 3 4 5 6 
#
# 1 28.1700 20.8934 29.5367 0.0000 0.0000 0.0000
# 2 20.8934 87.7958 56.2168 0.0000 0.0000 0.0000
# 3 29.5367 56.2168 122.8217 0.0000 0.0000 0.0000
# 4 0.0000 0.0000 0.0000 14.7712 0.0000 0.0000
# 5 0.0000 0.0000 0.0000 0.0000 22.1211 0.0000
# 6 0.0000 0.0000 0.0000 0.0000 0.0000 15.8831
#
#
#
# Elastic Compliance Matrix: (Units=1/GPa)
#
#
# Indices 1 2 3 4 5 6 
#
# 1 0.049528 -0.005885 -0.009217 0.000000 0.000000 0.000000
# 2 -0.005885 0.016811 -0.006280 0.000000 0.000000 0.000000
# 3 -0.009217 -0.006280 0.013233 0.000000 0.000000 0.000000
# 4 0.000000 0.000000 0.000000 0.067699 0.000000 0.000000
# 5 0.000000 0.000000 0.000000 0.000000 0.045206 0.000000
# 6 0.000000 0.000000 0.000000 0.000000 0.000000 0.062960
#
#
# Mechanical properties :
#
#
# Convention : Reuss Voigt Hill
#
# Bulk Modulus (GPa) = 27.16725 50.23126 38.69926
# Shear Modulus (GPa) = 16.10466 19.36445 17.73455
#
# Velocity S-wave (km/s) = 3.20219 3.51134 3.36032
# Velocity P-wave (km/s) = 5.56504 6.95860 6.30047
#
# Compressibility (1/GPa) = 0.03680903
#
# Stress axis : x y z
#
# Youngs Moduli (GPa) = 20.19072 59.48358 75.57028
#
# Poissons Ratio (x) = 0.35004 0.69655
# Poissons Ratio (y) = 0.11881 0.47455
# Poissons Ratio (z) = 0.18610 0.37353
#
# Static dielectric constant tensor:
#      x y z
#    x 2.752520 0.000000 0.000000 
#    y 0.000000 2.771780 0.000000 
#    z 0.000000 0.000000 3.218440 
# 
# 
# High freq. dielectric constant tensor:
#      x y z
#    x 1.577510 0.000000 0.000000 
#    y 0.000000 1.563500 0.000000 
#    z 0.000000 0.000000 1.607850 
# 
# From -- ./inp_files/21750.got.cif
#   From: 2010.03.12/outbox.cif.g09.slc.cpg/sg59_11_cif.got.tgz:21750.got - 2010.04.16 16:29:54.
