data_PCOD8240224
_publ_section_title
;
Structure prediction by ZEFSAII (Michael W. Deem and Ramdas Pophale) SiO2 
 PCOD8240224
Probable space group: P M M N
;
_chemical_formula_sum "Si O2"
_cell_formula_units_Z 48
_cell_length_a 14.098795
_cell_length_b 8.736749
_cell_length_c 20.421632
_cell_angle_alpha 90.000000
_cell_angle_beta 90.000000
_cell_angle_gamma 90.000000
_cell_volume 2515.488294
_symmetry_space_group_name_H-M "P M M N"
_symmetry_group_IT_number 59
_space_group.IT_coordinate_system_code '2'
_symmetry_cell_setting 'orthorhombic'
loop_
_space_group_symop_operation_xyz
x,y,z
1/2-x,1/2-y,z
1/2+x,-y,-z
-x,1/2+y,-z
-x,-y,-z
1/2+x,1/2+y,-z
1/2-x,y,z
x,1/2-y,z
loop_
_atom_site_type_symbol
_atom_site_label
_atom_site_fract_x
_atom_site_fract_y
_atom_site_fract_z
Si Si1 0.250000 0.569388 0.362693
Si Si2 0.750000 0.927482 0.998126
Si Si3 0.445549 0.428792 0.059289
Si Si4 0.553063 0.568476 0.681147
Si Si5 0.547109 0.432095 0.187400
Si Si6 0.949266 0.927857 0.438762
Si Si7 0.250000 0.931340 0.858881
Si Si8 0.250000 0.076445 0.503290
O O1 0.250000 0.750000 0.354874
O O2 0.156918 0.503652 0.327308
O O3 0.250000 0.531308 0.439891
O O4 0.750000 0.750000 0.018127
O O5 0.750000 0.019912 0.065481
O O6 0.663656 0.970851 0.950752
O O7 0.464761 0.250000 0.058540
O O8 0.484055 0.496776 0.127479
O O9 0.500000 0.500000 0.000000
O O10 0.565339 0.750000 0.681380
O O11 0.502759 0.506016 0.746969
O O12 0.481939 0.520072 0.624225
O O13 0.547516 0.250000 0.188826
O O14 0.655651 0.492672 0.178583
O O15 0.976702 0.750000 0.431548
O O16 0.837972 0.953435 0.449074
O O17 0.000000 0.000000 0.500000
O O18 0.250000 0.750000 0.858917
O O19 0.250000 0.250000 0.475949
#
# Coordination Sequence:
#
# PCOD8240224 Si02
#       8
#     4   4   8   8   8   8   4   4
#     4  12  24  39  62  88 116 154 199 246 300 358
#     4  10  20  31  52  86 118 146 188 241 295 345
#     4  10  19  34  55  83 113 148 194 240 287 342
#     4  11  23  40  61  87 121 159 199 244 300 357
#     4   9  20  36  58  85 115 155 196 238 287 350
#     4  11  22  38  61  90 120 155 200 246 293 347
#     4  10  18  35  60  84 112 150 197 236 282 348
#     4  10  22  39  62  88 120 158 198 241 295 355
#
# _framework density 19.081783000000001
#
# number of rings (size 3 to 8) (size 9 to 14) (size 15 to 20)
#    0.000    1.667    3.333    1.750    0.000    2.000 
#    0.000    6.667    0.000    1.000    0.000    0.000 
#    0.000    0.000    0.000    0.000    0.000    0.000 
#
# Total GULP energy -595142.193028 kJ/mol
# GULP energy per Si atom -12398.795688 kJ/mol
# Density = 1.903835 g / cm^3
# Si number density = 19.081783 Si / 1000 Ang^3
#
#
#
# Elastic Constant Matrix: (Units=GPa)
#
#
# Indices 1 2 3 4 5 6 
#
# 1 184.0846 45.6698 90.6014 0.0000 0.0000 0.0000
# 2 45.6698 60.3203 35.0170 0.0000 0.0000 0.0000
# 3 90.6014 35.0170 168.5184 0.0000 0.0000 0.0000
# 4 0.0000 0.0000 0.0000 27.1993 0.0000 0.0000
# 5 0.0000 0.0000 0.0000 0.0000 28.1687 0.0000
# 6 0.0000 0.0000 0.0000 0.0000 0.0000 23.9882
#
#
#
# Elastic Compliance Matrix: (Units=1/GPa)
#
#
# Indices 1 2 3 4 5 6 
#
# 1 0.008211 -0.004155 -0.003551 0.000000 0.000000 0.000000
# 2 -0.004155 0.020955 -0.002120 0.000000 0.000000 0.000000
# 3 -0.003551 -0.002120 0.008284 0.000000 0.000000 0.000000
# 4 0.000000 0.000000 0.000000 0.036766 0.000000 0.000000
# 5 0.000000 0.000000 0.000000 0.000000 0.035500 0.000000
# 6 0.000000 0.000000 0.000000 0.000000 0.000000 0.041687
#
#
# Mechanical properties :
#
#
# Convention : Reuss Voigt Hill
#
# Bulk Modulus (GPa) = 56.19048 83.94441 70.06744
# Shear Modulus (GPa) = 28.25045 31.98024 30.11534
#
# Velocity S-wave (km/s) = 3.85189 4.09829 3.97700
# Velocity P-wave (km/s) = 7.02096 8.15365 7.60841
#
# Compressibility (1/GPa) = 0.01779661
#
# Stress axis : x y z
#
# Youngs Moduli (GPa) = 121.78973 47.72119 120.71716
#
# Poissons Ratio (x) = 0.19829 0.42867
# Poissons Ratio (y) = 0.50606 0.25596
# Poissons Ratio (z) = 0.43248 0.10119
#
# Static dielectric constant tensor:
#      x y z
#    x 3.789520 0.000000 0.000000 
#    y 0.000000 3.370350 0.000000 
#    z 0.000000 0.000000 3.514230 
# 
# 
# High freq. dielectric constant tensor:
#      x y z
#    x 1.763890 0.000000 0.000000 
#    y 0.000000 1.726450 0.000000 
#    z 0.000000 0.000000 1.740800 
# 
# From -- ./inp_files/27490.got.cif
#   From: 2010.03.12/outbox.cif.g09.slc.cpg/sg59_14_cif.got.tgz:27490.got - 2010.04.16 16:29:54.
