data_PCOD8240386
_publ_section_title
;
Structure prediction by ZEFSAII (Michael W. Deem and Ramdas Pophale) SiO2 
 PCOD8240386
Probable space group: P M M N
;
_chemical_formula_sum "Si O2"
_cell_formula_units_Z 48
_cell_length_a 9.439508
_cell_length_b 25.266800
_cell_length_c 11.869578
_cell_angle_alpha 90.000000
_cell_angle_beta 90.000000
_cell_angle_gamma 90.000000
_cell_volume 2830.967478
_symmetry_space_group_name_H-M "P M M N"
_symmetry_group_IT_number 59
_space_group.IT_coordinate_system_code '2'
_symmetry_cell_setting 'orthorhombic'
loop_
_space_group_symop_operation_xyz
x,y,z
1/2-x,1/2-y,z
1/2+x,-y,-z
-x,1/2+y,-z
-x,-y,-z
1/2+x,1/2+y,-z
1/2-x,y,z
x,1/2-y,z
loop_
_atom_site_type_symbol
_atom_site_label
_atom_site_fract_x
_atom_site_fract_y
_atom_site_fract_z
Si Si1 0.416622 0.948393 0.460450
Si Si2 0.413263 0.188132 0.171495
Si Si3 0.912765 0.370328 0.995297
Si Si4 0.914899 0.065362 0.792451
Si Si5 0.089638 0.616418 0.668620
Si Si6 0.907558 0.468499 0.149428
O O1 0.250000 0.961993 0.463538
O O2 0.467734 0.930130 0.336156
O O3 0.449915 0.897530 0.539618
O O4 0.500000 0.000000 0.500000
O O5 0.250000 0.170715 0.165054
O O6 0.429609 0.250000 0.191630
O O7 0.487179 0.173455 0.052400
O O8 0.484629 0.159502 0.278433
O O9 0.750000 0.352641 0.014514
O O10 0.943210 0.426533 0.052998
O O11 0.946502 0.380088 0.862304
O O12 0.750000 0.053012 0.796567
O O13 0.985877 0.016846 0.857575
O O14 0.250000 0.638621 0.679682
O O15 0.076128 0.560321 0.730810
O O16 0.750000 0.491389 0.134813
#
# Coordination Sequence:
#
# PCOD8240386 Si02
#       6
#     8   8   8   8   8   8
#     4  10  19  31  47  70 103 138 171 202 232 278
#     4  10  21  36  55  77  95 115 155 211 261 302
#     4   9  19  33  47  69  99 128 161 198 241 293
#     4  10  19  29  45  69  99 135 168 196 230 277
#     4   9  18  32  49  72 101 132 166 202 240 287
#     4   9  16  27  43  65  98 133 164 198 231 276
#
# _framework density 16.955335999999999
#
# number of rings (size 3 to 8) (size 9 to 14) (size 15 to 20)
#    0.000    2.500    1.667    2.000    0.000    5.333 
#    0.000    0.000    0.000    1.000    0.000    7.000 
#    0.000    0.000    0.000    0.000    0.000    0.000 
#
# Total GULP energy -594968.225700 kJ/mol
# GULP energy per Si atom -12395.171369 kJ/mol
# Density = 1.691674 g / cm^3
# Si number density = 16.955336 Si / 1000 Ang^3
#
#
#
# Elastic Constant Matrix: (Units=GPa)
#
#
# Indices 1 2 3 4 5 6 
#
# 1 78.3568 44.0022 40.9830 0.0000 0.0000 0.0000
# 2 44.0022 59.2092 30.1645 0.0000 0.0000 0.0000
# 3 40.9830 30.1645 89.9668 0.0000 0.0000 0.0000
# 4 0.0000 0.0000 0.0000 14.3737 0.0000 0.0000
# 5 0.0000 0.0000 0.0000 0.0000 18.1476 0.0000
# 6 0.0000 0.0000 0.0000 0.0000 0.0000 26.9978
#
#
#
# Elastic Compliance Matrix: (Units=1/GPa)
#
#
# Indices 1 2 3 4 5 6 
#
# 1 0.024369 -0.015021 -0.006065 0.000000 0.000000 0.000000
# 2 -0.015021 0.029627 -0.003091 0.000000 0.000000 0.000000
# 3 -0.006065 -0.003091 0.014914 0.000000 0.000000 0.000000
# 4 0.000000 0.000000 0.000000 0.069571 0.000000 0.000000
# 5 0.000000 0.000000 0.000000 0.000000 0.055104 0.000000
# 6 0.000000 0.000000 0.000000 0.000000 0.000000 0.037040
#
#
# Mechanical properties :
#
#
# Convention : Reuss Voigt Hill
#
# Bulk Modulus (GPa) = 48.64419 50.87025 49.75722
# Shear Modulus (GPa) = 17.49286 19.39604 18.44445
#
# Velocity S-wave (km/s) = 3.21550 3.38590 3.30180
# Velocity P-wave (km/s) = 6.52210 6.73449 6.62915
#
# Compressibility (1/GPa) = 0.02055744
#
# Stress axis : x y z
#
# Youngs Moduli (GPa) = 41.03533 33.75324 67.04961
#
# Poissons Ratio (x) = 0.50699 0.40665
# Poissons Ratio (y) = 0.61638 0.20725
# Poissons Ratio (z) = 0.24887 0.10433
#
# Static dielectric constant tensor:
#      x y z
#    x 3.192700 0.000000 0.000000 
#    y 0.000000 2.785040 0.000000 
#    z 0.000000 0.000000 3.682410 
# 
# 
# High freq. dielectric constant tensor:
#      x y z
#    x 1.654920 0.000000 0.000000 
#    y 0.000000 1.611830 0.000000 
#    z 0.000000 0.000000 1.663360 
# 
# From -- ./inp_files/14494.got.cif
#   From: 2010.03.12/outbox.cif.g09.slc.cpg/sg59_8_cif.got.tgz:14494.got - 2010.04.16 16:29:54.
