data_PCOD8240661
_publ_section_title
;
Structure prediction by ZEFSAII (Michael W. Deem and Ramdas Pophale) SiO2 
 PCOD8240661
Probable space group: P M M N
;
_chemical_formula_sum "Si O2"
_cell_formula_units_Z 64
_cell_length_a 8.910846
_cell_length_b 19.869563
_cell_length_c 20.065365
_cell_angle_alpha 90.000000
_cell_angle_beta 90.000000
_cell_angle_gamma 90.000000
_cell_volume 3552.665495
_symmetry_space_group_name_H-M "P M M N"
_symmetry_group_IT_number 59
_space_group.IT_coordinate_system_code '2'
_symmetry_cell_setting 'orthorhombic'
loop_
_space_group_symop_operation_xyz
x,y,z
1/2-x,1/2-y,z
1/2+x,-y,-z
-x,1/2+y,-z
-x,-y,-z
1/2+x,1/2+y,-z
1/2-x,y,z
x,1/2-y,z
loop_
_atom_site_type_symbol
_atom_site_label
_atom_site_fract_x
_atom_site_fract_y
_atom_site_fract_z
Si Si1 0.427978 0.578277 0.725993
Si Si2 0.073716 0.324117 0.669189
Si Si3 0.424014 0.594748 0.949857
Si Si4 0.577060 0.580286 0.445512
Si Si5 0.924007 0.554711 0.592814
Si Si6 0.576180 0.559113 0.079725
Si Si7 0.072121 0.067168 0.771472
Si Si8 0.575757 0.671205 0.833980
O O1 0.250000 0.581572 0.729095
O O2 0.483377 0.591834 0.650729
O O3 0.490924 0.505535 0.749394
O O4 0.490922 0.635586 0.773645
O O5 0.250000 0.318748 0.681727
O O6 0.000108 0.250000 0.675784
O O7 0.041118 0.351794 0.594962
O O8 0.003767 0.374557 0.724344
O O9 0.250000 0.613202 0.946393
O O10 0.456808 0.520266 0.922687
O O11 0.513834 0.647353 0.905189
O O12 0.479169 0.600119 0.026129
O O13 0.750000 0.557769 0.435152
O O14 0.473787 0.522281 0.415273
O O15 0.543507 0.593637 0.523344
O O16 0.750000 0.556709 0.611826
O O17 0.750000 0.573576 0.065029
O O18 0.526521 0.584185 0.152723
O O19 0.250000 0.063973 0.764145
O O20 0.750000 0.653061 0.829932
O O21 0.546102 0.750000 0.827205
#
# Coordination Sequence:
#
# PCOD8240661 Si02
#       8
#     8   8   8   8   8   8   8   8
#     4  11  20  35  57  80 108 142 181 228 275 327
#     4   9  16  28  50  78 105 137 178 222 269 321
#     4  10  19  33  54  80 107 141 179 217 264 320
#     4   9  17  31  50  74 106 140 180 226 271 326
#     4  10  19  30  49  79 108 137 178 228 280 324
#     4   9  17  31  51  78 110 139 172 220 268 310
#     4   9  16  29  50  77 107 138 176 223 269 315
#     4  11  24  40  57  80 111 144 180 227 280 334
#
# _framework density 18.014644000000001
#
# number of rings (size 3 to 8) (size 9 to 14) (size 15 to 20)
#    0.000    2.250    2.500    1.500    0.000    2.000 
#    0.000    1.250    0.000    4.875    0.000    0.000 
#    0.000    0.000    0.000    0.000    0.000    0.000 
#
# Total GULP energy -793593.240297 kJ/mol
# GULP energy per Si atom -12399.894380 kJ/mol
# Density = 1.797364 g / cm^3
# Si number density = 18.014644 Si / 1000 Ang^3
#
#
#
# Elastic Constant Matrix: (Units=GPa)
#
#
# Indices 1 2 3 4 5 6 
#
# 1 67.3237 42.8780 46.9034 0.0000 0.0000 0.0000
# 2 42.8780 98.3900 68.3552 0.0000 0.0000 0.0000
# 3 46.9034 68.3552 149.7302 0.0000 0.0000 0.0000
# 4 0.0000 0.0000 0.0000 25.7561 0.0000 0.0000
# 5 0.0000 0.0000 0.0000 0.0000 28.8428 0.0000
# 6 0.0000 0.0000 0.0000 0.0000 0.0000 19.8515
#
#
#
# Elastic Compliance Matrix: (Units=1/GPa)
#
#
# Indices 1 2 3 4 5 6 
#
# 1 0.021847 -0.006980 -0.003657 0.000000 0.000000 0.000000
# 2 -0.006980 0.017115 -0.005627 0.000000 0.000000 0.000000
# 3 -0.003657 -0.005627 0.010393 0.000000 0.000000 0.000000
# 4 0.000000 0.000000 0.000000 0.038826 0.000000 0.000000
# 5 0.000000 0.000000 0.000000 0.000000 0.034671 0.000000
# 6 0.000000 0.000000 0.000000 0.000000 0.000000 0.050374
#
#
# Mechanical properties :
#
#
# Convention : Reuss Voigt Hill
#
# Bulk Modulus (GPa) = 59.42872 70.19079 64.80975
# Shear Modulus (GPa) = 23.65613 25.37724 24.51668
#
# Velocity S-wave (km/s) = 3.62769 3.75734 3.69308
# Velocity P-wave (km/s) = 7.11390 7.60731 7.36474
#
# Compressibility (1/GPa) = 0.01682688
#
# Stress axis : x y z
#
# Youngs Moduli (GPa) = 45.77278 58.42957 96.21910
#
# Poissons Ratio (x) = 0.40785 0.35188
# Poissons Ratio (y) = 0.31950 0.54139
# Poissons Ratio (z) = 0.16739 0.32876
#
# Static dielectric constant tensor:
#      x y z
#    x 3.179530 0.000000 0.000000 
#    y 0.000000 3.220630 0.000000 
#    z 0.000000 0.000000 3.588490 
# 
# 
# High freq. dielectric constant tensor:
#      x y z
#    x 1.679030 0.000000 0.000000 
#    y 0.000000 1.668190 0.000000 
#    z 0.000000 0.000000 1.715290 
# 
# From -- ./inp_files/29423.got.cif
#   From: 2010.03.12/outbox.cif.g09.slc.cpg/sg59_15_cif.got.tgz:29423.got - 2010.04.16 16:29:54.
