data_PCOD8240695
_publ_section_title
;
Structure prediction by ZEFSAII (Michael W. Deem and Ramdas Pophale) SiO2 
 PCOD8240695
Probable space group: P M M N
;
_chemical_formula_sum "Si O2"
_cell_formula_units_Z 48
_cell_length_a 19.100299
_cell_length_b 27.952139
_cell_length_c 5.040185
_cell_angle_alpha 90.000000
_cell_angle_beta 90.000000
_cell_angle_gamma 90.000000
_cell_volume 2690.925602
_symmetry_space_group_name_H-M "P M M N"
_symmetry_group_IT_number 59
_space_group.IT_coordinate_system_code '2'
_symmetry_cell_setting 'orthorhombic'
loop_
_space_group_symop_operation_xyz
x,y,z
1/2-x,1/2-y,z
1/2+x,-y,-z
-x,1/2+y,-z
-x,-y,-z
1/2+x,1/2+y,-z
1/2-x,y,z
x,1/2-y,z
loop_
_atom_site_type_symbol
_atom_site_label
_atom_site_fract_x
_atom_site_fract_y
_atom_site_fract_z
Si Si1 0.327958 0.989421 0.462361
Si Si2 0.469719 0.397704 0.035642
Si Si3 0.173722 0.304494 0.415615
Si Si4 0.030021 0.553054 0.465493
Si Si5 0.413920 0.195435 0.899852
Si Si6 0.171792 0.446994 0.961308
O O1 0.250000 0.967597 0.504089
O O2 0.385817 0.948130 0.501783
O O3 0.341044 0.032618 0.667447
O O4 0.336927 0.009548 0.166818
O O5 0.497971 0.409952 0.325880
O O6 0.477353 0.340621 0.980112
O O7 0.512659 0.429299 0.828595
O O8 0.386100 0.407152 0.022385
O O9 0.250000 0.330160 0.432375
O O10 0.183065 0.250000 0.506148
O O11 0.146596 0.307548 0.118023
O O12 0.118204 0.325835 0.625557
O O13 0.000000 0.500000 0.500000
O O14 0.443048 0.250000 0.873953
O O15 0.250000 0.424667 0.986389
#
# Coordination Sequence:
#
# PCOD8240695 Si02
#       6
#     8   8   8   8   8   8
#     4  10  20  34  51  72 101 133 162 202 252 298
#     4  12  22  34  52  77 100 138 179 208 258 308
#     4   9  17  31  50  68  91 132 180 222 263 294
#     4  12  21  35  56  76 104 133 168 215 253 312
#     4  10  21  35  49  70 102 135 175 226 263 301
#     4  10  19  31  46  70 101 134 169 205 244 290
#
# _framework density 17.837727999999998
#
# number of rings (size 3 to 8) (size 9 to 14) (size 15 to 20)
#    0.000    1.500    3.333    3.000    0.000    3.333 
#    0.000    1.667    0.000    0.000    0.000    0.000 
#    0.000    4.000    0.000    0.000    0.000    0.000 
#
# Total GULP energy -595122.300136 kJ/mol
# GULP energy per Si atom -12398.381253 kJ/mol
# Density = 1.779713 g / cm^3
# Si number density = 17.837728 Si / 1000 Ang^3
#
#
#
# Elastic Constant Matrix: (Units=GPa)
#
#
# Indices 1 2 3 4 5 6 
#
# 1 88.8567 25.0790 3.3852 0.0000 0.0000 0.0000
# 2 25.0790 59.9233 -1.5473 0.0000 0.0000 0.0000
# 3 3.3852 -1.5473 64.0998 0.0000 0.0000 0.0000
# 4 0.0000 0.0000 0.0000 19.5023 0.0000 0.0000
# 5 0.0000 0.0000 0.0000 0.0000 26.7372 0.0000
# 6 0.0000 0.0000 0.0000 0.0000 0.0000 15.4515
#
#
#
# Elastic Compliance Matrix: (Units=1/GPa)
#
#
# Indices 1 2 3 4 5 6 
#
# 1 0.012803 -0.005379 -0.000806 0.000000 0.000000 0.000000
# 2 -0.005379 0.018958 0.000742 0.000000 0.000000 0.000000
# 3 -0.000806 0.000742 0.015661 0.000000 0.000000 0.000000
# 4 0.000000 0.000000 0.000000 0.051276 0.000000 0.000000
# 5 0.000000 0.000000 0.000000 0.000000 0.037401 0.000000
# 6 0.000000 0.000000 0.000000 0.000000 0.000000 0.064719
#
#
# Mechanical properties :
#
#
# Convention : Reuss Voigt Hill
#
# Bulk Modulus (GPa) = 27.37042 29.63484 28.50263
# Shear Modulus (GPa) = 22.33305 24.73573 23.53439
#
# Velocity S-wave (km/s) = 3.54222 3.72789 3.63624
# Velocity P-wave (km/s) = 5.66632 5.93121 5.80028
#
# Compressibility (1/GPa) = 0.03653579
#
# Stress axis : x y z
#
# Youngs Moduli (GPa) = 78.10683 52.74704 63.85229
#
# Poissons Ratio (x) = 0.28373 0.05146
# Poissons Ratio (y) = 0.42014 -0.04736
# Poissons Ratio (z) = 0.06295 -0.03912
#
# Static dielectric constant tensor:
#      x y z
#    x 3.370950 0.000000 0.000000 
#    y 0.000000 3.121230 0.000000 
#    z 0.000000 0.000000 3.468290 
# 
# 
# High freq. dielectric constant tensor:
#      x y z
#    x 1.662970 0.000000 0.000000 
#    y 0.000000 1.653760 0.000000 
#    z 0.000000 0.000000 1.717370 
# 
# From -- ./inp_files/2864.got.cif
#   From: 2010.03.12/outbox.cif.g09.slc.cpg/sg59_2_cif.got.tgz:2864.got - 2010.04.16 16:29:54.
