data_PCOD8240972
_publ_section_title
;
Structure prediction by ZEFSAII (Michael W. Deem and Ramdas Pophale) SiO2 
 PCOD8240972
Probable space group: P M M N
;
_chemical_formula_sum "Si O2"
_cell_formula_units_Z 64
_cell_length_a 27.903575
_cell_length_b 10.939246
_cell_length_c 11.098250
_cell_angle_alpha 90.000000
_cell_angle_beta 90.000000
_cell_angle_gamma 90.000000
_cell_volume 3387.675013
_symmetry_space_group_name_H-M "P M M N"
_symmetry_group_IT_number 59
_space_group.IT_coordinate_system_code '2'
_symmetry_cell_setting 'orthorhombic'
loop_
_space_group_symop_operation_xyz
x,y,z
1/2-x,1/2-y,z
1/2+x,-y,-z
-x,1/2+y,-z
-x,-y,-z
1/2+x,1/2+y,-z
1/2-x,y,z
x,1/2-y,z
loop_
_atom_site_type_symbol
_atom_site_label
_atom_site_fract_x
_atom_site_fract_y
_atom_site_fract_z
Si Si1 0.696981 0.394688 0.107037
Si Si2 0.939599 0.617413 0.949430
Si Si3 0.035224 0.948768 0.846115
Si Si4 0.122721 0.885627 0.699849
Si Si5 0.306736 0.609353 0.164947
Si Si6 0.133146 0.390280 0.259839
Si Si7 0.418995 0.471436 0.488747
Si Si8 0.996850 0.384574 0.643589
O O1 0.750000 0.449781 0.130453
O O2 0.698706 0.250000 0.117916
O O3 0.661029 0.446890 0.208409
O O4 0.679448 0.427314 0.972232
O O5 0.922611 0.750000 0.995915
O O6 0.908345 0.577948 0.835010
O O7 0.995729 0.631777 0.913850
O O8 0.932727 0.522316 0.057251
O O9 0.071575 0.869833 0.766708
O O10 0.004448 0.035716 0.760880
O O11 0.138998 0.750000 0.659608
O O12 0.118559 0.971653 0.583902
O O13 0.250000 0.606966 0.182147
O O14 0.324636 0.750000 0.194869
O O15 0.328321 0.501094 0.248728
O O16 0.153296 0.250000 0.240722
O O17 0.111060 0.393113 0.393500
O O18 0.448482 0.579568 0.425570
O O19 0.457335 0.385239 0.554979
O O20 0.988916 0.250000 0.692840
#
# Coordination Sequence:
#
# PCOD8240972 Si02
#       8
#     8   8   8   8   8   8   8   8
#     4   8  15  31  55  82 108 133 167 217 278 332
#     4  10  20  33  48  71 106 141 177 224 275 331
#     4  10  19  32  48  72 100 134 181 223 279 324
#     4  10  19  31  51  75 102 137 180 230 276 321
#     4   9  19  37  61  87 112 138 174 223 274 328
#     4  11  22  37  55  79 112 150 185 224 276 334
#     4  10  21  34  47  73 101 142 187 226 263 317
#     4  10  19  33  50  67  95 138 187 232 271 311
#
# _framework density 18.892012000000001
#
# number of rings (size 3 to 8) (size 9 to 14) (size 15 to 20)
#    0.000    2.250    1.250    3.000    0.000    1.250 
#    0.000    1.250    0.000    2.250    0.000    0.000 
#    0.000    0.000    0.000    0.000    0.000    0.000 
#
# Total GULP energy -793197.851838 kJ/mol
# GULP energy per Si atom -12393.716435 kJ/mol
# Density = 1.884901 g / cm^3
# Si number density = 18.892012 Si / 1000 Ang^3
#
#
#
# Elastic Constant Matrix: (Units=GPa)
#
#
# Indices 1 2 3 4 5 6 
#
# 1 48.4255 22.7194 17.9340 0.0000 0.0000 0.0000
# 2 22.7194 89.2955 25.5205 0.0000 0.0000 0.0000
# 3 17.9340 25.5205 83.3129 0.0000 0.0000 0.0000
# 4 0.0000 0.0000 0.0000 7.7349 0.0000 0.0000
# 5 0.0000 0.0000 0.0000 0.0000 33.1440 0.0000
# 6 0.0000 0.0000 0.0000 0.0000 0.0000 10.4709
#
#
#
# Elastic Compliance Matrix: (Units=1/GPa)
#
#
# Indices 1 2 3 4 5 6 
#
# 1 0.024436 -0.005166 -0.003678 0.000000 0.000000 0.000000
# 2 -0.005166 0.013365 -0.002982 0.000000 0.000000 0.000000
# 3 -0.003678 -0.002982 0.013708 0.000000 0.000000 0.000000
# 4 0.000000 0.000000 0.000000 0.129285 0.000000 0.000000
# 5 0.000000 0.000000 0.000000 0.000000 0.030171 0.000000
# 6 0.000000 0.000000 0.000000 0.000000 0.000000 0.095503
#
#
# Mechanical properties :
#
#
# Convention : Reuss Voigt Hill
#
# Bulk Modulus (GPa) = 35.89652 39.26465 37.58058
# Shear Modulus (GPa) = 14.73162 20.59395 17.66279
#
# Velocity S-wave (km/s) = 2.79548 3.30523 3.06099
# Velocity P-wave (km/s) = 5.42787 5.94936 5.69459
#
# Compressibility (1/GPa) = 0.02785786
#
# Stress axis : x y z
#
# Youngs Moduli (GPa) = 40.92319 74.81967 72.94982
#
# Poissons Ratio (x) = 0.38653 0.26828
# Poissons Ratio (y) = 0.21142 0.21754
# Poissons Ratio (z) = 0.15050 0.22312
#
# Static dielectric constant tensor:
#      x y z
#    x 3.385850 0.000000 0.000000 
#    y 0.000000 3.252890 0.000000 
#    z 0.000000 0.000000 3.489800 
# 
# 
# High freq. dielectric constant tensor:
#      x y z
#    x 1.713020 0.000000 0.000000 
#    y 0.000000 1.719440 0.000000 
#    z 0.000000 0.000000 1.733210 
# 
# From -- ./inp_files/19013.got.cif
#   From: 2010.03.12/outbox.cif.g09.slc.cpg/sg59_10_cif.got.tgz:19013.got - 2010.04.16 16:29:54.
