data_PCOD8240344
_publ_section_title
;
Structure prediction by ZEFSAII (Michael W. Deem and Ramdas Pophale) SiO2 
 PCOD8240344
Probable space group: P M M N
;
_chemical_formula_sum "Si O2"
_cell_formula_units_Z 64
_cell_length_a 8.988457
_cell_length_b 17.854763
_cell_length_c 21.560661
_cell_angle_alpha 90.000000
_cell_angle_beta 90.000000
_cell_angle_gamma 90.000000
_cell_volume 3460.200832
_symmetry_space_group_name_H-M "P M M N"
_symmetry_group_IT_number 59
_space_group.IT_coordinate_system_code '2'
_symmetry_cell_setting 'orthorhombic'
loop_
_space_group_symop_operation_xyz
x,y,z
1/2-x,1/2-y,z
1/2+x,-y,-z
-x,1/2+y,-z
-x,-y,-z
1/2+x,1/2+y,-z
1/2-x,y,z
x,1/2-y,z
loop_
_atom_site_type_symbol
_atom_site_label
_atom_site_fract_x
_atom_site_fract_y
_atom_site_fract_z
Si Si1 0.422064 0.661780 0.634057
Si Si2 0.078125 0.835540 0.873246
Si Si3 0.418327 0.950065 0.185257
Si Si4 0.576766 0.664007 0.264887
Si Si5 0.421917 0.392694 0.245256
Si Si6 0.417507 0.839183 0.388868
Si Si7 0.417512 0.160871 0.490072
Si Si8 0.925075 0.532344 0.939327
O O1 0.250000 0.639230 0.636932
O O2 0.444717 0.750000 0.642317
O O3 0.510974 0.619814 0.687398
O O4 0.488049 0.633516 0.568852
O O5 0.250000 0.859934 0.870248
O O6 0.061412 0.750000 0.895382
O O7 0.009182 0.843174 0.804876
O O8 0.993329 0.886818 0.923091
O O9 0.250000 0.920180 0.188514
O O10 0.527162 0.883402 0.205240
O O11 0.440373 0.020055 0.230651
O O12 0.459598 0.974104 0.115641
O O13 0.750000 0.653967 0.276888
O O14 0.535076 0.750000 0.251656
O O15 0.493300 0.632791 0.325628
O O16 0.250000 0.368088 0.243584
O O17 0.250000 0.870377 0.391017
O O18 0.419386 0.750000 0.391188
O O19 0.506659 0.871789 0.447766
O O20 0.250000 0.129508 0.485265
O O21 0.416226 0.250000 0.492921
O O22 0.750000 0.542897 0.949187
O O23 0.000000 0.500000 0.000000
#
# Coordination Sequence:
#
# PCOD8240344 Si02
#       8
#     8   8   8   8   8   8   8   8
#     4  10  19  29  43  67  99 134 173 214 257 307
#     4  10  20  34  54  81 111 142 179 221 261 304
#     4   9  20  37  55  77 103 133 168 204 248 303
#     4  10  20  33  52  79 105 129 164 210 256 303
#     4  10  20  33  50  73 102 136 174 215 259 308
#     4   9  16  27  45  68  95 128 164 205 255 307
#     4   9  16  26  41  63  93 128 167 212 258 303
#     4  10  21  38  60  84 111 144 180 216 257 308
#
# _framework density 18.496037000000001
#
# number of rings (size 3 to 8) (size 9 to 14) (size 15 to 20)
#    0.000    2.375    0.000    3.750    0.000   10.000 
#    0.000    0.625    0.000    1.500    0.000    0.000 
#    0.000    0.000    0.000    0.000    0.000    0.000 
#
# Total GULP energy -793753.928984 kJ/mol
# GULP energy per Si atom -12402.405140 kJ/mol
# Density = 1.845394 g / cm^3
# Si number density = 18.496037 Si / 1000 Ang^3
#
#
#
# Elastic Constant Matrix: (Units=GPa)
#
#
# Indices 1 2 3 4 5 6 
#
# 1 145.7228 49.7972 72.6657 0.0000 0.0000 0.0000
# 2 49.7972 55.3278 52.9105 0.0000 0.0000 0.0000
# 3 72.6657 52.9105 131.3631 0.0000 0.0000 0.0000
# 4 0.0000 0.0000 0.0000 21.6698 0.0000 0.0000
# 5 0.0000 0.0000 0.0000 0.0000 39.6871 0.0000
# 6 0.0000 0.0000 0.0000 0.0000 0.0000 26.7013
#
#
#
# Elastic Compliance Matrix: (Units=1/GPa)
#
#
# Indices 1 2 3 4 5 6 
#
# 1 0.010737 -0.006480 -0.003329 0.000000 0.000000 0.000000
# 2 -0.006480 0.033308 -0.009831 0.000000 0.000000 0.000000
# 3 -0.003329 -0.009831 0.013414 0.000000 0.000000 0.000000
# 4 0.000000 0.000000 0.000000 0.046147 0.000000 0.000000
# 5 0.000000 0.000000 0.000000 0.000000 0.025197 0.000000
# 6 0.000000 0.000000 0.000000 0.000000 0.000000 0.037451
#
#
# Mechanical properties :
#
#
# Convention : Reuss Voigt Hill
#
# Bulk Modulus (GPa) = 55.01185 75.90673 65.45929
# Shear Modulus (GPa) = 23.63007 28.08099 25.85553
#
# Velocity S-wave (km/s) = 3.57820 3.90066 3.74290
# Velocity P-wave (km/s) = 6.84678 7.83680 7.35846
#
# Compressibility (1/GPa) = 0.01817790
#
# Stress axis : x y z
#
# Youngs Moduli (GPa) = 93.13733 30.02286 74.54843
#
# Poissons Ratio (x) = 0.19454 0.24820
# Poissons Ratio (y) = 0.60350 0.73292
# Poissons Ratio (z) = 0.31009 0.29517
#
# Static dielectric constant tensor:
#      x y z
#    x 3.579330 0.000000 0.000000 
#    y 0.000000 3.054170 0.000000 
#    z 0.000000 0.000000 3.382670 
# 
# 
# High freq. dielectric constant tensor:
#      x y z
#    x 1.736130 0.000000 0.000000 
#    y 0.000000 1.682920 0.000000 
#    z 0.000000 0.000000 1.717020 
# 
# From -- ./inp_files/29366.got.cif
#   From: 2010.03.12/outbox.cif.g09.slc.cpg/sg59_15_cif.got.tgz:29366.got - 2010.04.16 16:29:54.
