data_PCOD8240555
_publ_section_title
;
Structure prediction by ZEFSAII (Michael W. Deem and Ramdas Pophale) SiO2 
 PCOD8240555
Probable space group: P M M N
;
_chemical_formula_sum "Si O2"
_cell_formula_units_Z 64
_cell_length_a 9.371980
_cell_length_b 14.408231
_cell_length_c 27.960898
_cell_angle_alpha 90.000000
_cell_angle_beta 90.000000
_cell_angle_gamma 90.000000
_cell_volume 3775.662192
_symmetry_space_group_name_H-M "P M M N"
_symmetry_group_IT_number 59
_space_group.IT_coordinate_system_code '2'
_symmetry_cell_setting 'orthorhombic'
loop_
_space_group_symop_operation_xyz
x,y,z
1/2-x,1/2-y,z
1/2+x,-y,-z
-x,1/2+y,-z
-x,-y,-z
1/2+x,1/2+y,-z
1/2-x,y,z
x,1/2-y,z
loop_
_atom_site_type_symbol
_atom_site_label
_atom_site_fract_x
_atom_site_fract_y
_atom_site_fract_z
Si Si1 0.585544 0.856411 0.694519
Si Si2 0.081411 0.148802 0.571926
Si Si3 0.919191 0.460728 0.384307
Si Si4 0.584438 0.645268 0.805203
Si Si5 0.585722 0.357583 0.025351
Si Si6 0.084325 0.965249 0.881364
Si Si7 0.088821 0.141477 0.465166
Si Si8 0.915198 0.854015 0.067642
O O1 0.750000 0.875441 0.681384
O O2 0.547009 0.750000 0.682269
O O3 0.485915 0.925237 0.664936
O O4 0.556484 0.876924 0.749906
O O5 0.250000 0.157266 0.568226
O O6 0.019040 0.250000 0.587767
O O7 0.028701 0.122161 0.518550
O O8 0.037653 0.069328 0.609606
O O9 0.750000 0.446915 0.382597
O O10 0.980027 0.405453 0.429055
O O11 0.750000 0.635956 0.817603
O O12 0.532317 0.750000 0.817128
O O13 0.499588 0.569546 0.835346
O O14 0.750000 0.380941 0.015178
O O15 0.560534 0.250000 0.036208
O O16 0.529186 0.412697 0.071361
O O17 0.498665 0.389214 0.978933
O O18 0.250000 0.943991 0.872679
O O19 0.055053 0.075357 0.888617
O O20 0.250000 0.102085 0.458351
O O21 0.089938 0.250000 0.454143
O O22 0.750000 0.856289 0.053450
O O23 0.963056 0.750000 0.083116
#
# Coordination Sequence:
#
# PCOD8240555 Si02
#       8
#     8   8   8   8   8   8   8   8
#     4   9  19  36  53  68  92 124 150 176 222 284
#     4   8  16  31  47  64  91 127 162 191 222 266
#     4  11  20  28  46  74  96 117 152 197 234 263
#     4   9  19  35  53  72  92 116 149 186 224 274
#     4   9  17  28  42  64  94 124 154 189 230 274
#     4  10  19  30  47  70  95 123 153 189 235 276
#     4   9  17  30  47  65  91 130 163 183 218 275
#     4   9  18  31  45  64  93 128 163 194 221 257
#
# _framework density 16.950669000000001
#
# number of rings (size 3 to 8) (size 9 to 14) (size 15 to 20)
#    0.000    2.750    0.000    3.375    0.000    4.250 
#    0.000    3.125    0.000    3.750    0.000    5.250 
#    0.000    0.000    0.000    0.000    0.000    0.000 
#
# Total GULP energy -793443.255042 kJ/mol
# GULP energy per Si atom -12397.550860 kJ/mol
# Density = 1.691209 g / cm^3
# Si number density = 16.950669 Si / 1000 Ang^3
#
#
#
# Elastic Constant Matrix: (Units=GPa)
#
#
# Indices 1 2 3 4 5 6 
#
# 1 61.4873 45.4860 49.1611 0.0000 0.0000 0.0000
# 2 45.4860 95.6014 67.9730 0.0000 0.0000 0.0000
# 3 49.1611 67.9730 92.2843 0.0000 0.0000 0.0000
# 4 0.0000 0.0000 0.0000 29.2357 0.0000 0.0000
# 5 0.0000 0.0000 0.0000 0.0000 30.2913 0.0000
# 6 0.0000 0.0000 0.0000 0.0000 0.0000 21.4560
#
#
#
# Elastic Compliance Matrix: (Units=1/GPa)
#
#
# Indices 1 2 3 4 5 6 
#
# 1 0.029932 -0.006097 -0.011454 0.000000 0.000000 0.000000
# 2 -0.006097 0.023203 -0.013842 0.000000 0.000000 0.000000
# 3 -0.011454 -0.013842 0.027134 0.000000 0.000000 0.000000
# 4 0.000000 0.000000 0.000000 0.034205 0.000000 0.000000
# 5 0.000000 0.000000 0.000000 0.000000 0.033013 0.000000
# 6 0.000000 0.000000 0.000000 0.000000 0.000000 0.046607
#
#
# Mechanical properties :
#
#
# Convention : Reuss Voigt Hill
#
# Bulk Modulus (GPa) = 57.20479 63.84590 60.52535
# Shear Modulus (GPa) = 19.03254 21.98014 20.50634
#
# Velocity S-wave (km/s) = 3.35448 3.60490 3.48194
# Velocity P-wave (km/s) = 6.98745 7.42122 7.20760
#
# Compressibility (1/GPa) = 0.01748105
#
# Stress axis : x y z
#
# Youngs Moduli (GPa) = 33.40902 43.09761 36.85469
#
# Poissons Ratio (x) = 0.26278 0.42214
# Poissons Ratio (y) = 0.20371 0.51016
# Poissons Ratio (z) = 0.38267 0.59657
#
# Static dielectric constant tensor:
#      x y z
#    x 3.067670 0.000000 0.000000 
#    y 0.000000 3.459240 0.000000 
#    z 0.000000 0.000000 3.005560 
# 
# 
# High freq. dielectric constant tensor:
#      x y z
#    x 1.641860 0.000000 0.000000 
#    y 0.000000 1.656870 0.000000 
#    z 0.000000 0.000000 1.634690 
# 
# From -- ./inp_files/33212.got.cif
#   From: 2010.03.12/outbox.cif.g09.slc.cpg/sg59_17_cif.got.tgz:33212.got - 2010.04.16 16:29:54.
