data_PCOD8240981
_publ_section_title
;
Structure prediction by ZEFSAII (Michael W. Deem and Ramdas Pophale) SiO2 
 PCOD8240981
Probable space group: P M M N
;
_chemical_formula_sum "Si O2"
_cell_formula_units_Z 64
_cell_length_a 13.319560
_cell_length_b 10.494835
_cell_length_c 24.733389
_cell_angle_alpha 90.000000
_cell_angle_beta 90.000000
_cell_angle_gamma 90.000000
_cell_volume 3457.395971
_symmetry_space_group_name_H-M "P M M N"
_symmetry_group_IT_number 59
_space_group.IT_coordinate_system_code '2'
_symmetry_cell_setting 'orthorhombic'
loop_
_space_group_symop_operation_xyz
x,y,z
1/2-x,1/2-y,z
1/2+x,-y,-z
-x,1/2+y,-z
-x,-y,-z
1/2+x,1/2+y,-z
1/2-x,y,z
x,1/2-y,z
loop_
_atom_site_type_symbol
_atom_site_label
_atom_site_fract_x
_atom_site_fract_y
_atom_site_fract_z
Si Si1 0.638086 0.608539 0.005133
Si Si2 0.136195 0.890240 0.818635
Si Si3 0.860148 0.900001 0.461831
Si Si4 0.002204 0.467143 0.087751
Si Si5 0.639496 0.102565 0.830077
Si Si6 0.989080 0.102889 0.629629
Si Si7 0.466856 0.395847 0.752777
Si Si8 0.868494 0.891819 0.581389
O O1 0.750000 0.550497 0.995511
O O2 0.648459 0.750000 0.027818
O O3 0.576269 0.615860 0.949147
O O4 0.580920 0.531032 0.050499
O O5 0.250000 0.912080 0.839325
O O6 0.127032 0.750000 0.790759
O O7 0.059300 0.885563 0.868799
O O8 0.112295 0.004099 0.777037
O O9 0.750000 0.963396 0.454505
O O10 0.849062 0.750000 0.456414
O O11 0.905256 0.932606 0.521079
O O12 0.930545 0.948840 0.413704
O O13 0.073754 0.567031 0.117921
O O14 0.750000 0.034476 0.828458
O O15 0.659552 0.250000 0.834247
O O16 0.577915 0.069721 0.775348
O O17 0.954767 0.250000 0.618929
O O18 0.036056 0.090473 0.688664
O O19 0.898461 0.002134 0.623907
O O20 0.438135 0.250000 0.769606
O O21 0.750000 0.882902 0.580540
O O22 0.910979 0.750000 0.596834
#
# Coordination Sequence:
#
# PCOD8240981 Si02
#       8
#     8   8   8   8   8   8   8   8
#     4  10  20  32  48  73 103 131 160 201 252 299
#     4  10  21  37  56  76 100 133 171 210 251 293
#     4   8  15  29  48  70  98 132 168 206 251 306
#     4  10  19  33  51  72  99 130 167 205 244 298
#     4   9  17  31  50  69  93 128 168 208 250 296
#     4  10  19  31  51  77 101 128 166 212 259 303
#     4   9  20  35  51  76 104 130 165 209 256 304
#     4   9  18  32  49  70  99 136 172 204 247 305
#
# _framework density 18.511040999999999
#
# number of rings (size 3 to 8) (size 9 to 14) (size 15 to 20)
#    0.000    2.625    0.000    2.625    0.000    2.500 
#    0.000    2.500    0.000   10.500    0.000    0.000 
#    0.000    0.000    0.000    0.000    0.000    0.000 
#
# Total GULP energy -793025.845937 kJ/mol
# GULP energy per Si atom -12391.028843 kJ/mol
# Density = 1.846891 g / cm^3
# Si number density = 18.511041 Si / 1000 Ang^3
#
#
#
# Elastic Constant Matrix: (Units=GPa)
#
#
# Indices 1 2 3 4 5 6 
#
# 1 99.3424 40.8033 29.6024 0.0000 0.0000 0.0000
# 2 40.8033 83.7799 40.5728 0.0000 0.0000 0.0000
# 3 29.6024 40.5728 76.9831 0.0000 0.0000 0.0000
# 4 0.0000 0.0000 0.0000 21.0230 0.0000 0.0000
# 5 0.0000 0.0000 0.0000 0.0000 14.0510 0.0000
# 6 0.0000 0.0000 0.0000 0.0000 0.0000 25.1926
#
#
#
# Elastic Compliance Matrix: (Units=1/GPa)
#
#
# Indices 1 2 3 4 5 6 
#
# 1 0.012857 -0.005193 -0.002207 0.000000 0.000000 0.000000
# 2 -0.005193 0.018124 -0.007555 0.000000 0.000000 0.000000
# 3 -0.002207 -0.007555 0.017820 0.000000 0.000000 0.000000
# 4 0.000000 0.000000 0.000000 0.047567 0.000000 0.000000
# 5 0.000000 0.000000 0.000000 0.000000 0.071170 0.000000
# 6 0.000000 0.000000 0.000000 0.000000 0.000000 0.039694
#
#
# Mechanical properties :
#
#
# Convention : Reuss Voigt Hill
#
# Bulk Modulus (GPa) = 52.93512 53.56249 53.24881
# Shear Modulus (GPa) = 20.53908 21.99512 21.26710
#
# Velocity S-wave (km/s) = 3.33462 3.45079 3.39320
# Velocity P-wave (km/s) = 6.59430 6.69892 6.64682
#
# Compressibility (1/GPa) = 0.01889105
#
# Stress axis : x y z
#
# Youngs Moduli (GPa) = 77.78043 55.17591 56.11568
#
# Poissons Ratio (x) = 0.28652 0.12385
# Poissons Ratio (y) = 0.40390 0.42396
# Poissons Ratio (z) = 0.17166 0.41686
#
# Static dielectric constant tensor:
#      x y z
#    x 3.668420 0.000000 0.000000 
#    y 0.000000 3.267980 0.000000 
#    z 0.000000 0.000000 3.380710 
# 
# 
# High freq. dielectric constant tensor:
#      x y z
#    x 1.721310 0.000000 0.000000 
#    y 0.000000 1.702870 0.000000 
#    z 0.000000 0.000000 1.710150 
# 
# From -- ./inp_files/31960.got.cif
#   From: 2010.03.12/outbox.cif.g09.slc.cpg/sg59_16_cif.got.tgz:31960.got - 2010.04.16 16:29:54.
