data_PCOD8240794
_publ_section_title
;
Structure prediction by ZEFSAII (Michael W. Deem and Ramdas Pophale) SiO2 
 PCOD8240794
Probable space group: P M M N
;
_chemical_formula_sum "Si O2"
_cell_formula_units_Z 48
_cell_length_a 9.067286
_cell_length_b 31.410838
_cell_length_c 9.535260
_cell_angle_alpha 90.000000
_cell_angle_beta 90.000000
_cell_angle_gamma 90.000000
_cell_volume 2715.747428
_symmetry_space_group_name_H-M "P M M N"
_symmetry_group_IT_number 59
_space_group.IT_coordinate_system_code '2'
_symmetry_cell_setting 'orthorhombic'
loop_
_space_group_symop_operation_xyz
x,y,z
1/2-x,1/2-y,z
1/2+x,-y,-z
-x,1/2+y,-z
-x,-y,-z
1/2+x,1/2+y,-z
1/2-x,y,z
x,1/2-y,z
loop_
_atom_site_type_symbol
_atom_site_label
_atom_site_fract_x
_atom_site_fract_y
_atom_site_fract_z
Si Si1 0.422464 0.090912 0.356313
Si Si2 0.584248 0.250000 0.162736
Si Si3 0.076306 0.906633 0.345056
Si Si4 0.082619 0.750000 0.170791
Si Si5 0.578023 0.833428 0.843561
Si Si6 0.581888 0.498700 0.643337
Si Si7 0.923694 0.834689 0.167377
O O1 0.250000 0.096511 0.395203
O O2 0.519448 0.096397 0.495497
O O3 0.474163 0.125672 0.243855
O O4 0.449659 0.044280 0.281385
O O5 0.750000 0.250000 0.220416
O O6 0.504093 0.292235 0.219275
O O7 0.577994 0.250000 0.995940
O O8 0.250000 0.895929 0.341147
O O9 0.041665 0.954117 0.279210
O O10 0.987189 0.874428 0.249877
O O11 0.250000 0.750000 0.227428
O O12 0.998658 0.791771 0.226902
O O13 0.750000 0.824506 0.827336
O O14 0.535980 0.841554 0.004814
O O15 0.500000 0.500000 0.500000
O O16 0.750000 0.495536 0.600245
O O17 0.750000 0.831093 0.192021
#
# Coordination Sequence:
#
# PCOD8240794 Si02
#       7
#     8   4   8   4   8   8   8
#     4   9  17  32  52  72  94 124 161 201 241 284
#     4   9  17  29  48  71  96 125 156 190 234 285
#     4  10  19  31  48  72  99 127 159 198 240 283
#     4   9  17  31  50  71  94 123 158 196 236 281
#     4   9  18  32  51  72  95 124 160 197 234 279
#     4   8  15  28  47  68  92 123 159 195 235 282
#     4  10  19  32  50  72  97 127 160 194 233 282
#
# _framework density 17.674692
#
# number of rings (size 3 to 8) (size 9 to 14) (size 15 to 20)
#    0.000    2.833    0.000    1.500    0.000    4.000 
#    0.000    1.667    0.000    3.000    0.000    0.000 
#    0.000    0.000    0.000    0.000    0.000    0.000 
#
# Total GULP energy -594717.625821 kJ/mol
# GULP energy per Si atom -12389.950538 kJ/mol
# Density = 1.763446 g / cm^3
# Si number density = 17.674692 Si / 1000 Ang^3
#
#
#
# Elastic Constant Matrix: (Units=GPa)
#
#
# Indices 1 2 3 4 5 6 
#
# 1 76.4359 69.1213 30.0315 0.0000 0.0000 0.0000
# 2 69.1213 200.9728 57.2777 0.0000 0.0000 0.0000
# 3 30.0315 57.2777 46.2533 0.0000 0.0000 0.0000
# 4 0.0000 0.0000 0.0000 30.7869 0.0000 0.0000
# 5 0.0000 0.0000 0.0000 0.0000 19.7413 0.0000
# 6 0.0000 0.0000 0.0000 0.0000 0.0000 24.3428
#
#
#
# Elastic Compliance Matrix: (Units=1/GPa)
#
#
# Indices 1 2 3 4 5 6 
#
# 1 0.020368 -0.005001 -0.007031 0.000000 0.000000 0.000000
# 2 -0.005001 0.008918 -0.007796 0.000000 0.000000 0.000000
# 3 -0.007031 -0.007796 0.035840 0.000000 0.000000 0.000000
# 4 0.000000 0.000000 0.000000 0.032481 0.000000 0.000000
# 5 0.000000 0.000000 0.000000 0.000000 0.050655 0.000000
# 6 0.000000 0.000000 0.000000 0.000000 0.000000 0.041080
#
#
# Mechanical properties :
#
#
# Convention : Reuss Voigt Hill
#
# Bulk Modulus (GPa) = 39.26467 70.72480 54.99474
# Shear Modulus (GPa) = 21.05361 26.12297 23.58829
#
# Velocity S-wave (km/s) = 3.45508 3.84863 3.65715
# Velocity P-wave (km/s) = 6.17901 7.73633 7.00111
#
# Compressibility (1/GPa) = 0.02546819
#
# Stress axis : x y z
#
# Youngs Moduli (GPa) = 49.09619 112.13470 27.90207
#
# Poissons Ratio (x) = 0.56083 0.19619
# Poissons Ratio (y) = 0.24555 0.21753
# Poissons Ratio (z) = 0.34521 0.87421
#
# Static dielectric constant tensor:
#      x y z
#    x 3.301120 0.000000 0.000000 
#    y 0.000000 4.031730 0.000000 
#    z 0.000000 0.000000 2.844450 
# 
# 
# High freq. dielectric constant tensor:
#      x y z
#    x 1.692510 0.000000 0.000000 
#    y 0.000000 1.710800 0.000000 
#    z 0.000000 0.000000 1.630060 
# 
# From -- ./inp_files/6351.got.cif
#   From: 2010.03.12/outbox.cif.g09.slc.cpg/sg59_4_cif.got.tgz:6351.got - 2010.04.16 16:29:54.
