data_PCOD8240239
_publ_section_title
;
Structure prediction by ZEFSAII (Michael W. Deem and Ramdas Pophale) SiO2 
 PCOD8240239
Probable space group: P M M N
;
_chemical_formula_sum "Si O2"
_cell_formula_units_Z 64
_cell_length_a 30.772169
_cell_length_b 8.665908
_cell_length_c 11.897409
_cell_angle_alpha 90.000000
_cell_angle_beta 90.000000
_cell_angle_gamma 90.000000
_cell_volume 3172.667609
_symmetry_space_group_name_H-M "P M M N"
_symmetry_group_IT_number 59
_space_group.IT_coordinate_system_code '2'
_symmetry_cell_setting 'orthorhombic'
loop_
_space_group_symop_operation_xyz
x,y,z
1/2-x,1/2-y,z
1/2+x,-y,-z
-x,1/2+y,-z
-x,-y,-z
1/2+x,1/2+y,-z
1/2-x,y,z
x,1/2-y,z
loop_
_atom_site_type_symbol
_atom_site_label
_atom_site_fract_x
_atom_site_fract_y
_atom_site_fract_z
Si Si1 0.453444 0.932663 0.975450
Si Si2 0.623364 0.930249 0.628544
Si Si3 0.584601 0.066979 0.254411
Si Si4 0.682610 0.430930 0.242741
Si Si5 0.701581 0.427930 0.493939
Si Si6 0.701715 0.926621 0.014418
Si Si7 0.873549 0.068838 0.871585
Si Si8 0.047450 0.932927 0.513324
O O1 0.455810 0.750000 0.973711
O O2 0.440769 0.998241 0.853213
O O3 0.417646 0.986173 0.066346
O O4 0.500000 0.000000 0.000000
O O5 0.614894 0.750000 0.620223
O O6 0.666452 0.970023 0.558213
O O7 0.631208 0.976505 0.756734
O O8 0.580286 0.014763 0.584068
O O9 0.582994 0.250000 0.257209
O O10 0.633501 0.009565 0.246661
O O11 0.564112 0.000330 0.368073
O O12 0.686336 0.250000 0.215400
O O13 0.703897 0.470484 0.362406
O O14 0.705930 0.524637 0.144542
O O15 0.750000 0.456247 0.544037
O O16 0.687239 0.250000 0.508038
O O17 0.750000 0.945713 0.961566
O O18 0.686101 0.750000 0.005160
O O19 0.667885 0.034825 0.949613
O O20 0.874696 0.250000 0.846126
O O21 0.045169 0.750000 0.511441
O O22 0.000000 0.000000 0.500000
#
# Coordination Sequence:
#
# PCOD8240239 Si02
#       8
#     8   8   8   8   8   8   8   8
#     4  10  22  40  62  92 122 156 198 248 306 360
#     4  12  26  43  63  90 126 167 207 257 318 375
#     4   9  18  37  64  90 122 158 199 254 304 352
#     4  10  18  37  65  92 123 162 205 251 303 362
#     4  10  21  39  65  94 123 161 209 258 310 371
#     4  11  24  40  60  92 130 163 200 253 314 371
#     4  11  24  44  67  89 118 161 212 260 305 367
#     4  11  23  42  66  94 128 165 209 259 310 369
#
# _framework density 20.1723
#
# number of rings (size 3 to 8) (size 9 to 14) (size 15 to 20)
#    0.000    1.500    2.500    2.625    1.750    3.750 
#    0.000    0.625    0.000    0.000    0.000    0.000 
#    0.000    0.000    0.000    0.000    0.000    0.000 
#
# Total GULP energy -793706.290369 kJ/mol
# GULP energy per Si atom -12401.660787 kJ/mol
# Density = 2.012639 g / cm^3
# Si number density = 20.172300 Si / 1000 Ang^3
#
#
#
# Elastic Constant Matrix: (Units=GPa)
#
#
# Indices 1 2 3 4 5 6 
#
# 1 140.5342 30.0062 40.3206 0.0000 0.0000 0.0000
# 2 30.0062 62.5241 25.6896 0.0000 0.0000 0.0000
# 3 40.3206 25.6896 103.4628 0.0000 0.0000 0.0000
# 4 0.0000 0.0000 0.0000 24.7681 0.0000 0.0000
# 5 0.0000 0.0000 0.0000 0.0000 10.1437 0.0000
# 6 0.0000 0.0000 0.0000 0.0000 0.0000 31.9917
#
#
#
# Elastic Compliance Matrix: (Units=1/GPa)
#
#
# Indices 1 2 3 4 5 6 
#
# 1 0.008496 -0.003026 -0.002560 0.000000 0.000000 0.000000
# 2 -0.003026 0.018888 -0.003511 0.000000 0.000000 0.000000
# 3 -0.002560 -0.003511 0.011535 0.000000 0.000000 0.000000
# 4 0.000000 0.000000 0.000000 0.040375 0.000000 0.000000
# 5 0.000000 0.000000 0.000000 0.000000 0.098583 0.000000
# 6 0.000000 0.000000 0.000000 0.000000 0.000000 0.031258
#
#
# Mechanical properties :
#
#
# Convention : Reuss Voigt Hill
#
# Bulk Modulus (GPa) = 48.24711 55.39489 51.82100
# Shear Modulus (GPa) = 21.34594 27.41433 24.38014
#
# Velocity S-wave (km/s) = 3.25650 3.69047 3.48026
# Velocity P-wave (km/s) = 6.17326 6.75869 6.47260
#
# Compressibility (1/GPa) = 0.02072663
#
# Stress axis : x y z
#
# Youngs Moduli (GPa) = 117.70019 52.94258 86.69556
#
# Poissons Ratio (x) = 0.16019 0.22192
# Poissons Ratio (y) = 0.35612 0.30437
# Poissons Ratio (z) = 0.30129 0.18587
#
# Static dielectric constant tensor:
#      x y z
#    x 3.665250 0.000000 0.000000 
#    y 0.000000 3.465220 0.000000 
#    z 0.000000 0.000000 3.904870 
# 
# 
# High freq. dielectric constant tensor:
#      x y z
#    x 1.804220 0.000000 0.000000 
#    y 0.000000 1.771290 0.000000 
#    z 0.000000 0.000000 1.793260 
# 
# From -- ./inp_files/19340.got.cif
#   From: 2010.03.12/outbox.cif.g09.slc.cpg/sg59_10_cif.got.tgz:19340.got - 2010.04.16 16:29:54.
