data_PCOD8240352
_publ_section_title
;
Structure prediction by ZEFSAII (Michael W. Deem and Ramdas Pophale) SiO2 
 PCOD8240352
Probable space group: P M M N
;
_chemical_formula_sum "Si O2"
_cell_formula_units_Z 56
_cell_length_a 8.968249
_cell_length_b 13.561913
_cell_length_c 28.875897
_cell_angle_alpha 90.000000
_cell_angle_beta 90.000000
_cell_angle_gamma 90.000000
_cell_volume 3512.077541
_symmetry_space_group_name_H-M "P M M N"
_symmetry_group_IT_number 59
_space_group.IT_coordinate_system_code '2'
_symmetry_cell_setting 'orthorhombic'
loop_
_space_group_symop_operation_xyz
x,y,z
1/2-x,1/2-y,z
1/2+x,-y,-z
-x,1/2+y,-z
-x,-y,-z
1/2+x,1/2+y,-z
1/2-x,y,z
x,1/2-y,z
loop_
_atom_site_type_symbol
_atom_site_label
_atom_site_fract_x
_atom_site_fract_y
_atom_site_fract_z
Si Si1 0.574637 0.636291 0.157782
Si Si2 0.074476 0.136545 0.656983
Si Si3 0.581993 0.132872 0.749511
Si Si4 0.423174 0.963968 0.428528
Si Si5 0.922296 0.136606 0.475926
Si Si6 0.577149 0.451172 0.929555
Si Si7 0.579734 0.860558 0.985757
O O1 0.750000 0.624551 0.162565
O O2 0.529490 0.750000 0.148761
O O3 0.501507 0.594591 0.204723
O O4 0.516881 0.569716 0.116053
O O5 0.250000 0.125235 0.661629
O O6 0.027572 0.250000 0.648785
O O7 0.001798 0.093914 0.703888
O O8 0.017133 0.071995 0.614787
O O9 0.750000 0.091711 0.749524
O O10 0.578946 0.250000 0.749399
O O11 0.250000 0.964949 0.415326
O O12 0.457251 0.890820 0.471016
O O13 0.474859 0.074048 0.441469
O O14 0.750000 0.114343 0.464678
O O15 0.963329 0.250000 0.468150
O O16 0.750000 0.431704 0.919130
O O17 0.527084 0.379248 0.970799
O O18 0.544850 0.564320 0.944026
O O19 0.750000 0.874962 0.002799
O O20 0.552206 0.750000 0.967183
#
# Coordination Sequence:
#
# PCOD8240352 Si02
#       7
#     8   8   8   8   8   8   8
#     4  10  19  30  44  63  90 121 148 176 215 263
#     4  10  19  30  45  66  93 123 152 182 220 268
#     4   9  17  29  45  65  89 116 147 183 220 259
#     4  10  19  30  46  68  92 119 153 189 225 267
#     4   9  18  32  47  64  90 122 154 189 227 266
#     4  10  19  29  44  66  88 113 148 184 217 257
#     4   9  18  32  46  61  86 118 148 180 219 260
#
# _framework density 15.944979
#
# number of rings (size 3 to 8) (size 9 to 14) (size 15 to 20)
#    0.000    2.429    0.000    3.000    0.000    7.429 
#    0.000    0.000    0.000    0.000    0.000    1.000 
#    0.000    5.714    0.000    0.000    0.000    0.000 
#
# Total GULP energy -694516.394854 kJ/mol
# GULP energy per Si atom -12402.078480 kJ/mol
# Density = 1.590869 g / cm^3
# Si number density = 15.944979 Si / 1000 Ang^3
#
#
#
# Elastic Constant Matrix: (Units=GPa)
#
#
# Indices 1 2 3 4 5 6 
#
# 1 78.6822 30.5616 50.0126 0.0000 0.0000 0.0000
# 2 30.5616 74.7891 40.6422 0.0000 0.0000 0.0000
# 3 50.0126 40.6422 112.7071 0.0000 0.0000 0.0000
# 4 0.0000 0.0000 0.0000 18.7272 0.0000 0.0000
# 5 0.0000 0.0000 0.0000 0.0000 34.3822 0.0000
# 6 0.0000 0.0000 0.0000 0.0000 0.0000 21.8875
#
#
#
# Elastic Compliance Matrix: (Units=1/GPa)
#
#
# Indices 1 2 3 4 5 6 
#
# 1 0.018560 -0.003866 -0.006842 0.000000 0.000000 0.000000
# 2 -0.003866 0.017435 -0.004571 0.000000 0.000000 0.000000
# 3 -0.006842 -0.004571 0.013557 0.000000 0.000000 0.000000
# 4 0.000000 0.000000 0.000000 0.053398 0.000000 0.000000
# 5 0.000000 0.000000 0.000000 0.000000 0.029085 0.000000
# 6 0.000000 0.000000 0.000000 0.000000 0.000000 0.045688
#
#
# Mechanical properties :
#
#
# Convention : Reuss Voigt Hill
#
# Bulk Modulus (GPa) = 52.65063 56.51236 54.58149
# Shear Modulus (GPa) = 23.29779 24.66351 23.98065
#
# Velocity S-wave (km/s) = 3.82663 3.93719 3.88230
# Velocity P-wave (km/s) = 7.25369 7.49584 7.37576
#
# Compressibility (1/GPa) = 0.01899313
#
# Stress axis : x y z
#
# Youngs Moduli (GPa) = 53.87997 57.35557 73.76336
#
# Poissons Ratio (x) = 0.22176 0.50465
# Poissons Ratio (y) = 0.20832 0.33720
# Poissons Ratio (z) = 0.36862 0.26220
#
# Static dielectric constant tensor:
#      x y z
#    x 3.158570 0.000000 0.000000 
#    y 0.000000 2.856180 0.000000 
#    z 0.000000 0.000000 3.000430 
# 
# 
# High freq. dielectric constant tensor:
#      x y z
#    x 1.628740 0.000000 0.000000 
#    y 0.000000 1.580410 0.000000 
#    z 0.000000 0.000000 1.607450 
# 
# From -- ./inp_files/33188.got.cif
#   From: 2010.03.12/outbox.cif.g09.slc.cpg/sg59_17_cif.got.tgz:33188.got - 2010.04.16 16:29:54.
