data_PCOD8240612
_publ_section_title
;
Structure prediction by ZEFSAII (Michael W. Deem and Ramdas Pophale) SiO2 
 PCOD8240612
Probable space group: P M M N
;
_chemical_formula_sum "Si O2"
_cell_formula_units_Z 64
_cell_length_a 29.274079
_cell_length_b 9.184481
_cell_length_c 14.936040
_cell_angle_alpha 90.000000
_cell_angle_beta 90.000000
_cell_angle_gamma 90.000000
_cell_volume 4015.811588
_symmetry_space_group_name_H-M "P M M N"
_symmetry_group_IT_number 59
_space_group.IT_coordinate_system_code '2'
_symmetry_cell_setting 'orthorhombic'
loop_
_space_group_symop_operation_xyz
x,y,z
1/2-x,1/2-y,z
1/2+x,-y,-z
-x,1/2+y,-z
-x,-y,-z
1/2+x,1/2+y,-z
1/2-x,y,z
x,1/2-y,z
loop_
_atom_site_type_symbol
_atom_site_label
_atom_site_fract_x
_atom_site_fract_y
_atom_site_fract_z
Si Si1 0.604449 0.419342 0.955986
Si Si2 0.442751 0.922608 0.862777
Si Si3 0.697823 0.915904 0.212648
Si Si4 0.699153 0.416388 0.030950
Si Si5 0.120275 0.922442 0.699436
Si Si6 0.437637 0.417137 0.566596
Si Si7 0.043779 0.081006 0.179187
Si Si8 0.025763 0.084402 0.378843
O O1 0.593645 0.250000 0.945602
O O2 0.584811 0.499694 0.869869
O O3 0.580088 0.481022 0.045862
O O4 0.659179 0.448854 0.959207
O O5 0.442203 0.750000 0.860936
O O6 0.413598 0.977895 0.778022
O O7 0.494631 0.980483 0.854027
O O8 0.750000 0.925971 0.243362
O O9 0.680346 0.750000 0.212697
O O10 0.691265 0.977940 0.113568
O O11 0.670048 0.012088 0.283082
O O12 0.750000 0.440725 0.988866
O O13 0.693972 0.250000 0.065559
O O14 0.123376 0.750000 0.693266
O O15 0.103423 0.986253 0.604927
O O16 0.430957 0.250000 0.594734
O O17 0.437789 0.434817 0.458854
O O18 0.484950 0.472037 0.608426
O O19 0.047588 0.250000 0.155707
O O20 0.050332 0.052016 0.284858
O O21 0.005810 0.250000 0.378452
#
# Coordination Sequence:
#
# PCOD8240612 Si02
#       8
#     8   8   8   8   8   8   8   8
#     4  10  19  31  45  67  94 123 161 201 235 277
#     4   9  17  30  45  63  92 127 160 191 224 269
#     4  10  20  32  47  71 100 124 154 200 242 278
#     4   9  17  31  50  68  90 124 160 194 239 289
#     4  11  19  32  51  69  95 131 164 193 233 290
#     4  10  19  30  48  73  95 119 156 200 242 283
#     4  10  19  32  47  64  92 131 165 194 234 279
#     4   9  18  33  49  66  94 127 158 195 238 284
#
# _framework density 15.937003000000001
#
# number of rings (size 3 to 8) (size 9 to 14) (size 15 to 20)
#    0.000    2.250    2.500    1.500    0.000    2.250 
#    0.000    0.000    0.000    0.000    0.000    0.875 
#    0.000    5.000    0.000    0.000    0.000    0.000 
#
# Total GULP energy -793541.913127 kJ/mol
# GULP energy per Si atom -12399.092393 kJ/mol
# Density = 1.590073 g / cm^3
# Si number density = 15.937003 Si / 1000 Ang^3
#
#
#
# Elastic Constant Matrix: (Units=GPa)
#
#
# Indices 1 2 3 4 5 6 
#
# 1 102.3946 47.5021 53.2049 0.0000 0.0000 0.0000
# 2 47.5021 78.7478 42.4550 0.0000 0.0000 0.0000
# 3 53.2049 42.4550 95.7758 0.0000 0.0000 0.0000
# 4 0.0000 0.0000 0.0000 24.7674 0.0000 0.0000
# 5 0.0000 0.0000 0.0000 0.0000 23.7747 0.0000
# 6 0.0000 0.0000 0.0000 0.0000 0.0000 25.0671
#
#
#
# Elastic Compliance Matrix: (Units=1/GPa)
#
#
# Indices 1 2 3 4 5 6 
#
# 1 0.015800 -0.006306 -0.005982 0.000000 0.000000 0.000000
# 2 -0.006306 0.019203 -0.005009 0.000000 0.000000 0.000000
# 3 -0.005982 -0.005009 0.015985 0.000000 0.000000 0.000000
# 4 0.000000 0.000000 0.000000 0.040376 0.000000 0.000000
# 5 0.000000 0.000000 0.000000 0.000000 0.042062 0.000000
# 6 0.000000 0.000000 0.000000 0.000000 0.000000 0.039893
#
#
# Mechanical properties :
#
#
# Convention : Reuss Voigt Hill
#
# Bulk Modulus (GPa) = 60.99923 62.58248 61.79086
# Shear Modulus (GPa) = 23.43284 23.63890 23.53587
#
# Velocity S-wave (km/s) = 3.83866 3.85550 3.84709
# Velocity P-wave (km/s) = 7.61613 7.69245 7.65439
#
# Compressibility (1/GPa) = 0.01639365
#
# Stress axis : x y z
#
# Youngs Moduli (GPa) = 63.29280 52.07480 62.56034
#
# Poissons Ratio (x) = 0.32837 0.37422
# Poissons Ratio (y) = 0.39910 0.31339
# Poissons Ratio (z) = 0.37860 0.26086
#
# Static dielectric constant tensor:
#      x y z
#    x 3.084850 0.000000 0.000000 
#    y 0.000000 3.002300 0.000000 
#    z 0.000000 0.000000 2.973500 
# 
# 
# High freq. dielectric constant tensor:
#      x y z
#    x 1.599470 0.000000 0.000000 
#    y 0.000000 1.611580 0.000000 
#    z 0.000000 0.000000 1.591450 
# 
# From -- ./inp_files/25010.got.cif
#   From: 2010.03.12/outbox.cif.g09.slc.cpg/sg59_13_cif.got.tgz:25010.got - 2010.04.16 16:29:54.
