data_PCOD8240674
_publ_section_title
;
Structure prediction by ZEFSAII (Michael W. Deem and Ramdas Pophale) SiO2 
 PCOD8240674
Probable space group: P M M N
;
_chemical_formula_sum "Si O2"
_cell_formula_units_Z 64
_cell_length_a 15.614213
_cell_length_b 8.597385
_cell_length_c 23.980137
_cell_angle_alpha 90.000000
_cell_angle_beta 90.000000
_cell_angle_gamma 90.000000
_cell_volume 3219.127178
_symmetry_space_group_name_H-M "P M M N"
_symmetry_group_IT_number 59
_space_group.IT_coordinate_system_code '2'
_symmetry_cell_setting 'orthorhombic'
loop_
_space_group_symop_operation_xyz
x,y,z
1/2-x,1/2-y,z
1/2+x,-y,-z
-x,1/2+y,-z
-x,-y,-z
1/2+x,1/2+y,-z
1/2-x,y,z
x,1/2-y,z
loop_
_atom_site_type_symbol
_atom_site_label
_atom_site_fract_x
_atom_site_fract_y
_atom_site_fract_z
Si Si1 0.847902 0.068489 0.438069
Si Si2 0.842777 0.567592 0.172560
Si Si3 0.652755 0.569490 0.557238
Si Si4 0.997047 0.067122 0.628985
Si Si5 0.402415 0.573429 0.936975
Si Si6 0.157495 0.566695 0.175442
Si Si7 0.998568 0.564539 0.244018
Si Si8 0.416342 0.570291 0.059320
O O1 0.750000 0.021911 0.422482
O O2 0.864082 0.250000 0.428573
O O3 0.866497 0.029847 0.502244
O O4 0.913412 0.972719 0.400329
O O5 0.750000 0.501878 0.191516
O O6 0.844949 0.750000 0.181044
O O7 0.854771 0.534666 0.107114
O O8 0.916729 0.493106 0.211247
O O9 0.750000 0.537532 0.578549
O O10 0.640203 0.750000 0.542537
O O11 0.584761 0.519949 0.603594
O O12 0.980563 0.250000 0.624784
O O13 0.004196 0.008854 0.692414
O O14 0.384828 0.750000 0.919138
O O15 0.503241 0.542569 0.935979
O O16 0.368321 0.542154 0.000123
O O17 0.250000 0.498156 0.193677
O O18 0.157019 0.750000 0.184281
O O19 0.145687 0.527362 0.110198
O O20 0.083119 0.494420 0.214131
O O21 0.997921 0.750000 0.240024
O O22 0.447415 0.750000 0.063504
#
# Coordination Sequence:
#
# PCOD8240674 Si02
#       8
#     8   8   8   8   8   8   8   8
#     4  10  21  38  60  86 117 151 186 227 275 328
#     4  10  20  36  57  76 100 140 184 225 271 323
#     4  10  21  38  60  86 118 154 188 224 269 325
#     4  11  22  35  57  86 114 147 188 236 282 326
#     4  10  19  30  50  79 107 136 170 217 275 328
#     4   9  16  29  53  79 100 129 173 224 270 313
#     4   9  19  35  53  77 106 138 183 231 268 313
#     4   9  17  31  52  76 105 138 173 214 265 329
#
# _framework density 19.881166
#
# number of rings (size 3 to 8) (size 9 to 14) (size 15 to 20)
#    0.000    2.250    1.250    1.875    0.000    3.750 
#    0.000    5.000    0.000    0.375    0.000    0.000 
#    0.000    0.000    0.000    0.000    0.000    0.000 
#
# Total GULP energy -793412.185501 kJ/mol
# GULP energy per Si atom -12397.065398 kJ/mol
# Density = 1.983592 g / cm^3
# Si number density = 19.881166 Si / 1000 Ang^3
#
#
#
# Elastic Constant Matrix: (Units=GPa)
#
#
# Indices 1 2 3 4 5 6 
#
# 1 155.2554 13.1940 79.8348 0.0000 0.0000 0.0000
# 2 13.1940 21.6778 9.1149 0.0000 0.0000 0.0000
# 3 79.8348 9.1149 129.7897 0.0000 0.0000 0.0000
# 4 0.0000 0.0000 0.0000 24.3829 0.0000 0.0000
# 5 0.0000 0.0000 0.0000 0.0000 14.1164 0.0000
# 6 0.0000 0.0000 0.0000 0.0000 0.0000 18.7240
#
#
#
# Elastic Compliance Matrix: (Units=1/GPa)
#
#
# Indices 1 2 3 4 5 6 
#
# 1 0.009670 -0.003488 -0.005703 0.000000 0.000000 0.000000
# 2 -0.003488 0.048792 -0.001281 0.000000 0.000000 0.000000
# 3 -0.005703 -0.001281 0.011303 0.000000 0.000000 0.000000
# 4 0.000000 0.000000 0.000000 0.041012 0.000000 0.000000
# 5 0.000000 0.000000 0.000000 0.000000 0.070839 0.000000
# 6 0.000000 0.000000 0.000000 0.000000 0.000000 0.053408
#
#
# Mechanical properties :
#
#
# Convention : Reuss Voigt Hill
#
# Bulk Modulus (GPa) = 20.48325 56.77891 38.63108
# Shear Modulus (GPa) = 18.36605 25.08328 21.72467
#
# Velocity S-wave (km/s) = 3.04269 3.55584 3.30923
# Velocity P-wave (km/s) = 4.76122 6.74387 5.83734
#
# Compressibility (1/GPa) = 0.04882037
#
# Stress axis : x y z
#
# Youngs Moduli (GPa) = 103.41194 20.49532 88.47316
#
# Poissons Ratio (x) = 0.07148 0.50458
# Poissons Ratio (y) = 0.36065 0.11336
# Poissons Ratio (z) = 0.58978 0.02626
#
# Static dielectric constant tensor:
#      x y z
#    x 3.877180 0.000000 0.000000 
#    y 0.000000 3.317950 0.000000 
#    z 0.000000 0.000000 3.701490 
# 
# 
# High freq. dielectric constant tensor:
#      x y z
#    x 1.781620 0.000000 0.000000 
#    y 0.000000 1.746450 0.000000 
#    z 0.000000 0.000000 1.772770 
# 
# From -- ./inp_files/32107.got.cif
#   From: 2010.03.12/outbox.cif.g09.slc.cpg/sg59_17_cif.got.tgz:32107.got - 2010.04.16 16:29:54.
