data_PCOD8240456
_publ_section_title
;
Structure prediction by ZEFSAII (Michael W. Deem and Ramdas Pophale) SiO2 
 PCOD8240456
Probable space group: P M M N
;
_chemical_formula_sum "Si O2"
_cell_formula_units_Z 64
_cell_length_a 25.451610
_cell_length_b 9.263643
_cell_length_c 16.860741
_cell_angle_alpha 90.000000
_cell_angle_beta 90.000000
_cell_angle_gamma 90.000000
_cell_volume 3975.334951
_symmetry_space_group_name_H-M "P M M N"
_symmetry_group_IT_number 59
_space_group.IT_coordinate_system_code '2'
_symmetry_cell_setting 'orthorhombic'
loop_
_space_group_symop_operation_xyz
x,y,z
1/2-x,1/2-y,z
1/2+x,-y,-z
-x,1/2+y,-z
-x,-y,-z
1/2+x,1/2+y,-z
1/2-x,y,z
x,1/2-y,z
loop_
_atom_site_type_symbol
_atom_site_label
_atom_site_fract_x
_atom_site_fract_y
_atom_site_fract_z
Si Si1 0.999488 0.581254 0.582480
Si Si2 0.554172 0.417939 0.009098
Si Si3 0.440667 0.586186 0.165895
Si Si4 0.402090 0.917279 0.691032
Si Si5 0.402886 0.080419 0.310503
Si Si6 0.062997 0.079747 0.841345
Si Si7 0.309527 0.916425 0.576854
Si Si8 0.809420 0.918970 0.579778
O O1 0.994621 0.750000 0.564538
O O2 0.950295 0.525431 0.634054
O O3 0.000000 0.500000 0.500000
O O4 0.052292 0.543131 0.629398
O O5 0.544752 0.250000 0.030398
O O6 0.585468 0.498013 0.080042
O O7 0.500000 0.500000 0.000000
O O8 0.582674 0.431301 0.923412
O O9 0.435546 0.750000 0.194865
O O10 0.406153 0.488984 0.223861
O O11 0.501770 0.539813 0.169429
O O12 0.406437 0.750000 0.716970
O O13 0.346383 0.953159 0.650990
O O14 0.404966 0.019648 0.767025
O O15 0.406768 0.250000 0.298391
O O16 0.347613 0.033117 0.349131
O O17 0.072091 0.250000 0.850804
O O18 0.250000 0.956698 0.601153
O O19 0.314898 0.750000 0.552998
O O20 0.328162 0.005560 0.500684
O O21 0.750000 0.964502 0.602555
O O22 0.814123 0.750000 0.564031
#
# Coordination Sequence:
#
# PCOD8240456 Si02
#       8
#     8   8   8   8   8   8   8   8
#     4  10  20  30  41  61  87 119 152 181 221 270
#     4   9  17  29  45  66  93 124 156 187 224 270
#     4   9  18  30  44  66  93 121 151 183 221 266
#     4  10  19  31  46  65  92 123 152 188 231 272
#     4  10  19  30  45  65  90 120 153 186 224 271
#     4  10  19  30  45  68  94 123 156 187 225 274
#     4   9  18  32  49  68  89 117 156 196 234 274
#     4   9  18  32  48  66  89 118 154 195 235 270
#
# _framework density 16.099271999999999
#
# number of rings (size 3 to 8) (size 9 to 14) (size 15 to 20)
#    0.000    2.500    1.250    2.250    0.000    4.500 
#    0.000    0.000    0.000    0.000    0.000    0.875 
#    0.000    1.000    0.000    0.000    0.000    0.000 
#
# Total GULP energy -793523.555589 kJ/mol
# GULP energy per Si atom -12398.805556 kJ/mol
# Density = 1.606263 g / cm^3
# Si number density = 16.099272 Si / 1000 Ang^3
#
#
#
# Elastic Constant Matrix: (Units=GPa)
#
#
# Indices 1 2 3 4 5 6 
#
# 1 67.2651 31.7130 48.0407 0.0000 0.0000 0.0000
# 2 31.7130 67.6933 62.8789 0.0000 0.0000 0.0000
# 3 48.0407 62.8789 133.6983 0.0000 0.0000 0.0000
# 4 0.0000 0.0000 0.0000 36.6089 0.0000 0.0000
# 5 0.0000 0.0000 0.0000 0.0000 18.9132 0.0000
# 6 0.0000 0.0000 0.0000 0.0000 0.0000 14.0345
#
#
#
# Elastic Compliance Matrix: (Units=1/GPa)
#
#
# Indices 1 2 3 4 5 6 
#
# 1 0.020911 -0.005002 -0.005161 0.000000 0.000000 0.000000
# 2 -0.005002 0.027429 -0.011102 0.000000 0.000000 0.000000
# 3 -0.005161 -0.011102 0.014556 0.000000 0.000000 0.000000
# 4 0.000000 0.000000 0.000000 0.027316 0.000000 0.000000
# 5 0.000000 0.000000 0.000000 0.000000 0.052873 0.000000
# 6 0.000000 0.000000 0.000000 0.000000 0.000000 0.071253
#
#
# Mechanical properties :
#
#
# Convention : Reuss Voigt Hill
#
# Bulk Modulus (GPa) = 49.10729 61.54690 55.32709
# Shear Modulus (GPa) = 18.96403 22.31294 20.63849
#
# Velocity S-wave (km/s) = 3.43584 3.72689 3.58432
# Velocity P-wave (km/s) = 6.80507 7.53871 7.18127
#
# Compressibility (1/GPa) = 0.02036358
#
# Stress axis : x y z
#
# Youngs Moduli (GPa) = 47.82153 36.45796 68.70207
#
# Poissons Ratio (x) = 0.18237 0.35459
# Poissons Ratio (y) = 0.23922 0.76276
# Poissons Ratio (z) = 0.24682 0.40477
#
# Static dielectric constant tensor:
#      x y z
#    x 2.934200 0.000000 0.000000 
#    y 0.000000 3.078190 0.000000 
#    z 0.000000 0.000000 3.304170 
# 
# 
# High freq. dielectric constant tensor:
#      x y z
#    x 1.583610 0.000000 0.000000 
#    y 0.000000 1.624010 0.000000 
#    z 0.000000 0.000000 1.622510 
# 
# From -- ./inp_files/25106.got.cif
#   From: 2010.03.12/outbox.cif.g09.slc.cpg/sg59_13_cif.got.tgz:25106.got - 2010.04.16 16:29:54.
