data_PCOD8240573
_publ_section_title
;
Structure prediction by ZEFSAII (Michael W. Deem and Ramdas Pophale) SiO2 
 PCOD8240573
Probable space group: P M M N
;
_chemical_formula_sum "Si O2"
_cell_formula_units_Z 64
_cell_length_a 30.005579
_cell_length_b 8.801584
_cell_length_c 14.482158
_cell_angle_alpha 90.000000
_cell_angle_beta 90.000000
_cell_angle_gamma 90.000000
_cell_volume 3824.689037
_symmetry_space_group_name_H-M "P M M N"
_symmetry_group_IT_number 59
_space_group.IT_coordinate_system_code '2'
_symmetry_cell_setting 'orthorhombic'
loop_
_space_group_symop_operation_xyz
x,y,z
1/2-x,1/2-y,z
1/2+x,-y,-z
-x,1/2+y,-z
-x,-y,-z
1/2+x,1/2+y,-z
1/2-x,y,z
x,1/2-y,z
loop_
_atom_site_type_symbol
_atom_site_label
_atom_site_fract_x
_atom_site_fract_y
_atom_site_fract_z
Si Si1 0.576162 0.920092 0.742197
Si Si2 0.199559 0.427683 0.356966
Si Si3 0.956843 0.928520 0.452100
Si Si4 0.109269 0.924097 0.082769
Si Si5 0.299568 0.925213 0.162897
Si Si6 0.972356 0.078295 0.265892
Si Si7 0.038460 0.573207 0.938652
Si Si8 0.382781 0.926749 0.425918
O O1 0.595138 0.750000 0.725901
O O2 0.524732 0.923138 0.717517
O O3 0.583152 0.967273 0.847544
O O4 0.601008 0.040437 0.677868
O O5 0.250000 0.472637 0.381596
O O6 0.190970 0.250000 0.367345
O O7 0.188656 0.473684 0.251537
O O8 0.168446 0.517246 0.429692
O O9 0.962337 0.750000 0.460167
O O10 0.950896 0.975686 0.345506
O O11 0.911900 0.979339 0.502174
O O12 0.000000 0.000000 0.500000
O O13 0.100258 0.750000 0.111488
O O14 0.162695 0.957904 0.084683
O O15 0.087553 0.955889 0.982548
O O16 0.250000 0.965696 0.124050
O O17 0.301091 0.750000 0.194283
O O18 0.953681 0.250000 0.274282
O O19 0.960605 0.006908 0.165483
O O20 0.026530 0.750000 0.932101
O O21 0.000000 0.500000 0.000000
O O22 0.386434 0.750000 0.449054
#
# Coordination Sequence:
#
# PCOD8240573 Si02
#       8
#     8   8   8   8   8   8   8   8
#     4  11  20  30  48  71 101 135 170 208 247 295
#     4  10  20  33  50  74 104 135 168 207 252 301
#     4  12  24  37  54  75 100 132 171 213 256 308
#     4  10  19  30  47  71  98 133 171 205 245 296
#     4   9  17  29  45  68  99 132 166 203 245 293
#     4  10  21  36  50  69 100 136 172 213 253 295
#     4  10  20  33  49  70  98 130 169 207 248 295
#     4  12  23  35  52  74 102 137 173 208 251 303
#
# _framework density 16.733384999999998
#
# number of rings (size 3 to 8) (size 9 to 14) (size 15 to 20)
#    0.000    1.500    3.750    3.000    0.000    1.750 
#    0.000    0.000    0.000    0.000    0.000    0.875 
#    0.000    3.000    0.000    0.000    0.000    0.000 
#
# Total GULP energy -793525.052567 kJ/mol
# GULP energy per Si atom -12398.828946 kJ/mol
# Density = 1.669530 g / cm^3
# Si number density = 16.733385 Si / 1000 Ang^3
#
#
#
# Elastic Constant Matrix: (Units=GPa)
#
#
# Indices 1 2 3 4 5 6 
#
# 1 105.3704 34.0552 47.5722 0.0000 0.0000 0.0000
# 2 34.0552 82.0316 37.6967 0.0000 0.0000 0.0000
# 3 47.5722 37.6967 100.0833 0.0000 0.0000 0.0000
# 4 0.0000 0.0000 0.0000 22.2434 0.0000 0.0000
# 5 0.0000 0.0000 0.0000 0.0000 26.0710 0.0000
# 6 0.0000 0.0000 0.0000 0.0000 0.0000 21.1702
#
#
#
# Elastic Compliance Matrix: (Units=1/GPa)
#
#
# Indices 1 2 3 4 5 6 
#
# 1 0.012671 -0.003014 -0.004888 0.000000 0.000000 0.000000
# 2 -0.003014 0.015459 -0.004390 0.000000 0.000000 0.000000
# 3 -0.004888 -0.004390 0.013968 0.000000 0.000000 0.000000
# 4 0.000000 0.000000 0.000000 0.044957 0.000000 0.000000
# 5 0.000000 0.000000 0.000000 0.000000 0.038357 0.000000
# 6 0.000000 0.000000 0.000000 0.000000 0.000000 0.047236
#
#
# Mechanical properties :
#
#
# Convention : Reuss Voigt Hill
#
# Bulk Modulus (GPa) = 57.09407 58.45924 57.77666
# Shear Modulus (GPa) = 24.62191 25.10764 24.86478
#
# Velocity S-wave (km/s) = 3.84008 3.87777 3.85897
# Velocity P-wave (km/s) = 7.33863 7.42031 7.37958
#
# Compressibility (1/GPa) = 0.01751495
#
# Stress axis : x y z
#
# Youngs Moduli (GPa) = 78.91923 64.68644 71.59042
#
# Poissons Ratio (x) = 0.19499 0.34990
# Poissons Ratio (y) = 0.23789 0.31428
# Poissons Ratio (z) = 0.38572 0.28397
#
# Static dielectric constant tensor:
#      x y z
#    x 3.334530 0.000000 0.000000 
#    y 0.000000 3.246760 0.000000 
#    z 0.000000 0.000000 3.068410 
# 
# 
# High freq. dielectric constant tensor:
#      x y z
#    x 1.641960 0.000000 0.000000 
#    y 0.000000 1.651410 0.000000 
#    z 0.000000 0.000000 1.614120 
# 
# From -- ./inp_files/25070.got.cif
#   From: 2010.03.12/outbox.cif.g09.slc.cpg/sg59_13_cif.got.tgz:25070.got - 2010.04.16 16:29:54.
