data_PCOD8240441
_publ_section_title
;
Structure prediction by ZEFSAII (Michael W. Deem and Ramdas Pophale) SiO2 
 PCOD8240441
Probable space group: P M M N
;
_chemical_formula_sum "Si O2"
_cell_formula_units_Z 64
_cell_length_a 13.469895
_cell_length_b 18.504477
_cell_length_c 16.343181
_cell_angle_alpha 90.000000
_cell_angle_beta 90.000000
_cell_angle_gamma 90.000000
_cell_volume 4073.592814
_symmetry_space_group_name_H-M "P M M N"
_symmetry_group_IT_number 59
_space_group.IT_coordinate_system_code '2'
_symmetry_cell_setting 'orthorhombic'
loop_
_space_group_symop_operation_xyz
x,y,z
1/2-x,1/2-y,z
1/2+x,-y,-z
-x,1/2+y,-z
-x,-y,-z
1/2+x,1/2+y,-z
1/2-x,y,z
x,1/2-y,z
loop_
_atom_site_type_symbol
_atom_site_label
_atom_site_fract_x
_atom_site_fract_y
_atom_site_fract_z
Si Si1 0.136449 0.972564 0.946779
Si Si2 0.989694 0.166640 0.306600
Si Si3 0.363755 0.830672 0.853404
Si Si4 0.864166 0.334331 0.464053
Si Si5 0.866421 0.542722 0.720528
Si Si6 0.133890 0.901416 0.371929
Si Si7 0.866361 0.332587 0.793040
Si Si8 0.552628 0.035206 0.877841
O O1 0.250000 0.993824 0.926952
O O2 0.114835 0.888455 0.924803
O O3 0.114933 0.985200 0.041826
O O4 0.064874 0.023758 0.892913
O O5 0.021854 0.250000 0.311794
O O6 0.927849 0.149976 0.225513
O O7 0.924057 0.143357 0.383776
O O8 0.088794 0.119069 0.306239
O O9 0.250000 0.834224 0.824838
O O10 0.389487 0.750000 0.886497
O O11 0.750000 0.355600 0.448261
O O12 0.874300 0.250000 0.483786
O O13 0.912248 0.377919 0.540951
O O14 0.750000 0.552618 0.731129
O O15 0.892006 0.484132 0.650116
O O16 0.910860 0.517131 0.806393
O O17 0.250000 0.888877 0.380725
O O18 0.096140 0.849253 0.298915
O O19 0.750000 0.352716 0.801453
O O20 0.887092 0.250000 0.815460
O O21 0.928447 0.381166 0.856117
#
# Coordination Sequence:
#
# PCOD8240441 Si02
#       8
#     8   8   8   8   8   8   8   8
#     4  10  19  31  49  70  92 121 154 188 230 277
#     4  10  19  30  44  65  90 121 158 189 222 267
#     4   9  17  30  47  68  94 119 146 188 237 277
#     4   9  16  27  45  68  93 118 144 181 232 284
#     4  10  19  32  47  64  91 123 155 192 228 269
#     4   8  15  27  44  67  93 118 145 183 234 280
#     4   9  16  27  46  71  96 119 148 189 234 278
#     4  10  19  32  48  70  93 120 152 188 230 277
#
# _framework density 15.710947000000001
#
# number of rings (size 3 to 8) (size 9 to 14) (size 15 to 20)
#    0.000    2.625    1.250    2.625    0.000    4.250 
#    0.000    1.250    0.000    0.375    0.000    0.000 
#    0.000    4.000    0.000    0.000    0.000    0.000 
#
# Total GULP energy -793446.875376 kJ/mol
# GULP energy per Si atom -12397.607428 kJ/mol
# Density = 1.567519 g / cm^3
# Si number density = 15.710947 Si / 1000 Ang^3
#
#
#
# Elastic Constant Matrix: (Units=GPa)
#
#
# Indices 1 2 3 4 5 6 
#
# 1 78.9696 47.9102 40.2509 0.0000 0.0000 0.0000
# 2 47.9102 78.3415 34.1077 0.0000 0.0000 0.0000
# 3 40.2509 34.1077 80.0915 0.0000 0.0000 0.0000
# 4 0.0000 0.0000 0.0000 16.9912 0.0000 0.0000
# 5 0.0000 0.0000 0.0000 0.0000 18.7706 0.0000
# 6 0.0000 0.0000 0.0000 0.0000 0.0000 26.1164
#
#
#
# Elastic Compliance Matrix: (Units=1/GPa)
#
#
# Indices 1 2 3 4 5 6 
#
# 1 0.022776 -0.010981 -0.006770 0.000000 0.000000 0.000000
# 2 -0.010981 0.020965 -0.003409 0.000000 0.000000 0.000000
# 3 -0.006770 -0.003409 0.017340 0.000000 0.000000 0.000000
# 4 0.000000 0.000000 0.000000 0.058854 0.000000 0.000000
# 5 0.000000 0.000000 0.000000 0.000000 0.053275 0.000000
# 6 0.000000 0.000000 0.000000 0.000000 0.000000 0.038290
#
#
# Mechanical properties :
#
#
# Convention : Reuss Voigt Hill
#
# Bulk Modulus (GPa) = 53.30582 53.54892 53.42737
# Shear Modulus (GPa) = 19.22535 20.05122 19.63828
#
# Velocity S-wave (km/s) = 3.50192 3.57635 3.53933
# Velocity P-wave (km/s) = 7.09606 7.15622 7.12620
#
# Compressibility (1/GPa) = 0.01875968
#
# Stress axis : x y z
#
# Youngs Moduli (GPa) = 43.90584 47.69945 57.67083
#
# Poissons Ratio (x) = 0.52381 0.39042
# Poissons Ratio (y) = 0.48215 0.19661
# Poissons Ratio (z) = 0.29723 0.16261
#
# Static dielectric constant tensor:
#      x y z
#    x 2.822620 0.000000 0.000000 
#    y 0.000000 3.001610 0.000000 
#    z 0.000000 0.000000 3.091690 
# 
# 
# High freq. dielectric constant tensor:
#      x y z
#    x 1.576290 0.000000 0.000000 
#    y 0.000000 1.598280 0.000000 
#    z 0.000000 0.000000 1.609310 
# 
# From -- ./inp_files/23458.got.cif
#   From: 2010.03.12/outbox.cif.g09.slc.cpg/sg59_12_cif.got.tgz:23458.got - 2010.04.16 16:29:54.
