data_PCOD8240167
_publ_section_title
;
Structure prediction by ZEFSAII (Michael W. Deem and Ramdas Pophale) SiO2 
 PCOD8240167
Probable space group: P M M N
;
_chemical_formula_sum "Si O2"
_cell_formula_units_Z 48
_cell_length_a 9.124405
_cell_length_b 9.739545
_cell_length_c 28.863707
_cell_angle_alpha 90.000000
_cell_angle_beta 90.000000
_cell_angle_gamma 90.000000
_cell_volume 2565.047014
_symmetry_space_group_name_H-M "P M M N"
_symmetry_group_IT_number 59
_space_group.IT_coordinate_system_code '2'
_symmetry_cell_setting 'orthorhombic'
loop_
_space_group_symop_operation_xyz
x,y,z
1/2-x,1/2-y,z
1/2+x,-y,-z
-x,1/2+y,-z
-x,-y,-z
1/2+x,1/2+y,-z
1/2-x,y,z
x,1/2-y,z
loop_
_atom_site_type_symbol
_atom_site_label
_atom_site_fract_x
_atom_site_fract_y
_atom_site_fract_z
Si Si1 0.080309 0.592810 0.132109
Si Si2 0.578094 0.250000 0.436052
Si Si3 0.076274 0.250000 0.533899
Si Si4 0.579282 0.591190 0.037767
Si Si5 0.077424 0.469161 0.605908
Si Si6 0.422794 0.095169 0.707505
Si Si7 0.922346 0.909144 0.781374
O O1 0.250000 0.571337 0.119197
O O2 0.051086 0.750000 0.147951
O O3 0.030146 0.489442 0.172322
O O4 0.984438 0.553825 0.087828
O O5 0.750000 0.250000 0.446986
O O6 0.496454 0.250000 0.484314
O O7 0.529637 0.376511 0.404406
O O8 0.250000 0.250000 0.526764
O O9 0.018368 0.379982 0.563060
O O10 0.750000 0.555856 0.037783
O O11 0.549886 0.750000 0.025866
O O12 0.500000 0.500000 0.000000
O O13 0.250000 0.448446 0.608337
O O14 0.013922 0.422302 0.655423
O O15 0.250000 0.067952 0.709221
O O16 0.459820 0.250000 0.724500
O O17 0.498828 0.980780 0.738574
O O18 0.750000 0.922033 0.773447
O O19 0.971009 0.750000 0.785172
#
# Coordination Sequence:
#
# PCOD8240167 Si02
#       7
#     8   4   4   8   8   8   8
#     4   9  18  35  57  78 107 150 193 228 271 328
#     4  10  20  32  50  76 104 132 168 212 259 312
#     4  10  18  34  54  72 100 134 170 210 257 314
#     4  10  21  36  56  84 117 152 191 235 280 325
#     4   9  18  33  53  75 100 134 172 212 260 315
#     4  10  20  36  58  81 104 138 185 227 266 321
#     4  10  22  38  56  82 115 146 177 222 280 334
#
# _framework density 18.713107000000001
#
# number of rings (size 3 to 8) (size 9 to 14) (size 15 to 20)
#    0.000    2.333    0.833    1.500    1.167    3.667 
#    0.000    5.000    0.000    0.000    0.000    0.000 
#    0.000    0.000    0.000    0.000    0.000    0.000 
#
# Total GULP energy -595193.309945 kJ/mol
# GULP energy per Si atom -12399.860624 kJ/mol
# Density = 1.867052 g / cm^3
# Si number density = 18.713107 Si / 1000 Ang^3
#
#
#
# Elastic Constant Matrix: (Units=GPa)
#
#
# Indices 1 2 3 4 5 6 
#
# 1 49.7060 40.6851 49.8877 0.0000 0.0000 0.0000
# 2 40.6851 138.6995 72.7784 0.0000 0.0000 0.0000
# 3 49.8877 72.7784 131.2624 0.0000 0.0000 0.0000
# 4 0.0000 0.0000 0.0000 40.0076 0.0000 0.0000
# 5 0.0000 0.0000 0.0000 0.0000 35.7629 0.0000
# 6 0.0000 0.0000 0.0000 0.0000 0.0000 22.2652
#
#
#
# Elastic Compliance Matrix: (Units=1/GPa)
#
#
# Indices 1 2 3 4 5 6 
#
# 1 0.034458 -0.004564 -0.010566 0.000000 0.000000 0.000000
# 2 -0.004564 0.010772 -0.004238 0.000000 0.000000 0.000000
# 3 -0.010566 -0.004238 0.013984 0.000000 0.000000 0.000000
# 4 0.000000 0.000000 0.000000 0.024995 0.000000 0.000000
# 5 0.000000 0.000000 0.000000 0.000000 0.027962 0.000000
# 6 0.000000 0.000000 0.000000 0.000000 0.000000 0.044913
#
#
# Mechanical properties :
#
#
# Convention : Reuss Voigt Hill
#
# Bulk Modulus (GPa) = 48.83068 71.81892 60.32480
# Shear Modulus (GPa) = 24.67343 30.02825 27.35084
#
# Velocity S-wave (km/s) = 3.63507 4.01017 3.82722
# Velocity P-wave (km/s) = 6.61584 7.73978 7.19978
#
# Compressibility (1/GPa) = 0.02047893
#
# Stress axis : x y z
#
# Youngs Moduli (GPa) = 29.02059 92.82986 71.51033
#
# Poissons Ratio (x) = 0.42363 0.75558
# Poissons Ratio (y) = 0.13244 0.30308
# Poissons Ratio (z) = 0.30663 0.39344
#
# Static dielectric constant tensor:
#      x y z
#    x 3.209570 0.000000 0.000000 
#    y 0.000000 3.742770 0.000000 
#    z 0.000000 0.000000 3.485370 
# 
# 
# High freq. dielectric constant tensor:
#      x y z
#    x 1.702400 0.000000 0.000000 
#    y 0.000000 1.738820 0.000000 
#    z 0.000000 0.000000 1.734670 
# 
# From -- ./inp_files/32985.got.cif
#   From: 2010.03.12/outbox.cif.g09.slc.cpg/sg59_17_cif.got.tgz:32985.got - 2010.04.16 16:29:54.
