data_PCOD8240195
_publ_section_title
;
Structure prediction by ZEFSAII (Michael W. Deem and Ramdas Pophale) SiO2 
 PCOD8240195
Probable space group: P M M N
;
_chemical_formula_sum "Si O2"
_cell_formula_units_Z 64
_cell_length_a 8.904302
_cell_length_b 18.764634
_cell_length_c 19.543304
_cell_angle_alpha 90.000000
_cell_angle_beta 90.000000
_cell_angle_gamma 90.000000
_cell_volume 3265.411868
_symmetry_space_group_name_H-M "P M M N"
_symmetry_group_IT_number 59
_space_group.IT_coordinate_system_code '2'
_symmetry_cell_setting 'orthorhombic'
loop_
_space_group_symop_operation_xyz
x,y,z
1/2-x,1/2-y,z
1/2+x,-y,-z
-x,1/2+y,-z
-x,-y,-z
1/2+x,1/2+y,-z
1/2-x,y,z
x,1/2-y,z
loop_
_atom_site_type_symbol
_atom_site_label
_atom_site_fract_x
_atom_site_fract_y
_atom_site_fract_z
Si Si1 0.076456 0.667225 0.116914
Si Si2 0.071556 0.829467 0.718773
Si Si3 0.573182 0.831156 0.975774
Si Si4 0.076243 0.908725 0.852836
Si Si5 0.075977 0.441969 0.788908
Si Si6 0.071037 0.915275 0.586653
Si Si7 0.073486 0.670528 0.455422
Si Si8 0.073319 0.548536 0.356000
O O1 0.250000 0.647728 0.109921
O O2 0.050334 0.750000 0.131815
O O3 0.007701 0.626333 0.181262
O O4 0.995945 0.643464 0.047337
O O5 0.250000 0.828359 0.719399
O O6 0.004995 0.750000 0.716042
O O7 0.011491 0.867131 0.787170
O O8 0.015471 0.871848 0.652850
O O9 0.750000 0.836977 0.982433
O O10 0.522692 0.750000 0.958656
O O11 0.517440 0.885009 0.918256
O O12 0.250000 0.889694 0.865287
O O13 0.053356 0.992598 0.841060
O O14 0.250000 0.424240 0.778960
O O15 0.009312 0.462082 0.715616
O O16 0.250000 0.926618 0.585099
O O17 0.010720 0.872020 0.521053
O O18 0.989284 0.991530 0.589324
O O19 0.250000 0.677964 0.465587
O O20 0.001844 0.750000 0.450479
O O21 0.036731 0.626855 0.386375
O O22 0.250000 0.537618 0.345958
#
# Coordination Sequence:
#
# PCOD8240195 Si02
#       8
#     8   8   8   8   8   8   8   8
#     4  10  22  41  64  88 114 149 192 237 288 344
#     4   9  16  28  51  81 109 142 187 234 278 328
#     4  10  21  37  58  86 119 154 191 234 285 341
#     4  10  20  35  55  81 114 151 191 238 285 338
#     4  11  23  40  61  86 115 150 196 243 288 340
#     4  10  18  34  58  83 111 147 190 237 285 338
#     4   9  19  35  57  85 113 145 192 243 287 339
#     4  11  22  36  56  83 117 155 190 234 293 351
#
# _framework density 19.599364000000001
#
# number of rings (size 3 to 8) (size 9 to 14) (size 15 to 20)
#    0.000    2.000    1.250    2.625    0.000    5.500 
#    0.000    1.875    0.000    4.125    0.000    0.000 
#    0.000    0.000    0.000    0.000    0.000    0.000 
#
# Total GULP energy -793777.282542 kJ/mol
# GULP energy per Si atom -12402.770040 kJ/mol
# Density = 1.955476 g / cm^3
# Si number density = 19.599364 Si / 1000 Ang^3
#
#
#
# Elastic Constant Matrix: (Units=GPa)
#
#
# Indices 1 2 3 4 5 6 
#
# 1 65.8854 38.1182 29.1473 0.0000 0.0000 0.0000
# 2 38.1182 104.0134 36.6001 0.0000 0.0000 0.0000
# 3 29.1473 36.6001 73.7678 0.0000 0.0000 0.0000
# 4 0.0000 0.0000 0.0000 35.8968 0.0000 0.0000
# 5 0.0000 0.0000 0.0000 0.0000 23.4834 0.0000
# 6 0.0000 0.0000 0.0000 0.0000 0.0000 27.4033
#
#
#
# Elastic Compliance Matrix: (Units=1/GPa)
#
#
# Indices 1 2 3 4 5 6 
#
# 1 0.020899 -0.005758 -0.005400 0.000000 0.000000 0.000000
# 2 -0.005758 0.013234 -0.004291 0.000000 0.000000 0.000000
# 3 -0.005400 -0.004291 0.017819 0.000000 0.000000 0.000000
# 4 0.000000 0.000000 0.000000 0.027858 0.000000 0.000000
# 5 0.000000 0.000000 0.000000 0.000000 0.042583 0.000000
# 6 0.000000 0.000000 0.000000 0.000000 0.000000 0.036492
#
#
# Mechanical properties :
#
#
# Convention : Reuss Voigt Hill
#
# Bulk Modulus (GPa) = 47.50125 50.15531 48.82828
# Shear Modulus (GPa) = 25.40628 26.67677 26.04152
#
# Velocity S-wave (km/s) = 3.60430 3.69332 3.64908
# Velocity P-wave (km/s) = 6.45058 6.62067 6.53618
#
# Compressibility (1/GPa) = 0.02105208
#
# Stress axis : x y z
#
# Youngs Moduli (GPa) = 47.85014 75.56085 56.12035
#
# Poissons Ratio (x) = 0.43512 0.30307
# Poissons Ratio (y) = 0.27554 0.24081
# Poissons Ratio (z) = 0.25841 0.32423
#
# Static dielectric constant tensor:
#      x y z
#    x 3.303410 0.000000 0.000000 
#    y 0.000000 3.738060 0.000000 
#    z 0.000000 0.000000 3.559250 
# 
# 
# High freq. dielectric constant tensor:
#      x y z
#    x 1.739330 0.000000 0.000000 
#    y 0.000000 1.771760 0.000000 
#    z 0.000000 0.000000 1.769680 
# 
# From -- ./inp_files/29375.got.cif
#   From: 2010.03.12/outbox.cif.g09.slc.cpg/sg59_15_cif.got.tgz:29375.got - 2010.04.16 16:29:54.
