data_PCOD8240847
_publ_section_title
;
Structure prediction by ZEFSAII (Michael W. Deem and Ramdas Pophale) SiO2 
 PCOD8240847
Probable space group: P M M N
;
_chemical_formula_sum "Si O2"
_cell_formula_units_Z 64
_cell_length_a 17.318151
_cell_length_b 8.925513
_cell_length_c 23.184289
_cell_angle_alpha 90.000000
_cell_angle_beta 90.000000
_cell_angle_gamma 90.000000
_cell_volume 3583.673957
_symmetry_space_group_name_H-M "P M M N"
_symmetry_group_IT_number 59
_space_group.IT_coordinate_system_code '2'
_symmetry_cell_setting 'orthorhombic'
loop_
_space_group_symop_operation_xyz
x,y,z
1/2-x,1/2-y,z
1/2+x,-y,-z
-x,1/2+y,-z
-x,-y,-z
1/2+x,1/2+y,-z
1/2-x,y,z
x,1/2-y,z
loop_
_atom_site_type_symbol
_atom_site_label
_atom_site_fract_x
_atom_site_fract_y
_atom_site_fract_z
Si Si1 0.900915 0.575023 0.570504
Si Si2 0.983056 0.427399 0.742091
Si Si3 0.834889 0.421562 0.674928
Si Si4 0.484803 0.071764 0.134960
Si Si5 0.340081 0.423679 0.550231
Si Si6 0.335308 0.074607 0.065547
Si Si7 0.434872 0.425606 0.962219
Si Si8 0.944930 0.425890 0.364417
O O1 0.886503 0.750000 0.570433
O O2 0.839252 0.508343 0.614848
O O3 0.884737 0.513617 0.506308
O O4 0.986519 0.531249 0.591275
O O5 0.991793 0.250000 0.750674
O O6 0.045085 0.485572 0.695540
O O7 0.897731 0.476946 0.721068
O O8 0.996468 0.512474 0.801199
O O9 0.750000 0.446687 0.702038
O O10 0.851267 0.250000 0.659965
O O11 0.488288 0.250000 0.133343
O O12 0.403031 0.011602 0.107828
O O13 0.558855 0.006472 0.099791
O O14 0.250000 0.449835 0.540792
O O15 0.359583 0.250000 0.561417
O O16 0.366472 0.519054 0.605641
O O17 0.250000 0.003316 0.078307
O O18 0.330903 0.250000 0.076959
O O19 0.355490 0.045236 0.997692
O O20 0.450293 0.250000 0.954420
O O21 0.500000 0.500000 0.000000
O O22 0.941963 0.250000 0.351221
#
# Coordination Sequence:
#
# PCOD8240847 Si02
#       8
#     8   8   8   8   8   8   8   8
#     4   9  18  32  50  72  97 127 162 198 240 294
#     4  10  20  34  51  69  94 129 167 204 243 289
#     4   9  18  31  46  67  97 130 161 197 243 293
#     4  10  19  31  49  72  98 128 165 205 239 280
#     4  10  20  33  50  73 100 128 158 196 247 304
#     4   8  15  28  47  73 103 131 158 191 232 277
#     4   9  16  28  48  71  97 129 162 196 233 275
#     4  10  20  34  52  73  97 126 164 207 247 290
#
# _framework density 17.858768000000001
#
# number of rings (size 3 to 8) (size 9 to 14) (size 15 to 20)
#    0.000    2.625    0.000    3.000    0.000    3.000 
#    0.000    0.000    0.000   13.875    0.000    1.750 
#    0.000    0.000    0.000    0.000    0.000    0.000 
#
# Total GULP energy -793257.640444 kJ/mol
# GULP energy per Si atom -12394.650632 kJ/mol
# Density = 1.781812 g / cm^3
# Si number density = 17.858768 Si / 1000 Ang^3
#
#
#
# Elastic Constant Matrix: (Units=GPa)
#
#
# Indices 1 2 3 4 5 6 
#
# 1 36.9254 17.1199 29.2051 0.0000 0.0000 0.0000
# 2 17.1199 57.4727 36.5195 0.0000 0.0000 0.0000
# 3 29.2051 36.5195 124.8562 0.0000 0.0000 0.0000
# 4 0.0000 0.0000 0.0000 32.1916 0.0000 0.0000
# 5 0.0000 0.0000 0.0000 0.0000 18.4755 0.0000
# 6 0.0000 0.0000 0.0000 0.0000 0.0000 21.0466
#
#
#
# Elastic Compliance Matrix: (Units=1/GPa)
#
#
# Indices 1 2 3 4 5 6 
#
# 1 0.035061 -0.006427 -0.006321 0.000000 0.000000 0.000000
# 2 -0.006427 0.022550 -0.005092 0.000000 0.000000 0.000000
# 3 -0.006321 -0.005092 0.010977 0.000000 0.000000 0.000000
# 4 0.000000 0.000000 0.000000 0.031064 0.000000 0.000000
# 5 0.000000 0.000000 0.000000 0.000000 0.054126 0.000000
# 6 0.000000 0.000000 0.000000 0.000000 0.000000 0.047514
#
#
# Mechanical properties :
#
#
# Convention : Reuss Voigt Hill
#
# Bulk Modulus (GPa) = 30.38898 42.77149 36.58023
# Shear Modulus (GPa) = 20.16601 23.43674 21.80138
#
# Velocity S-wave (km/s) = 3.36399 3.62655 3.49774
# Velocity P-wave (km/s) = 5.66938 6.44497 6.06958
#
# Compressibility (1/GPa) = 0.03290667
#
# Stress axis : x y z
#
# Youngs Moduli (GPa) = 28.52163 44.34613 91.09753
#
# Poissons Ratio (x) = 0.28503 0.57584
# Poissons Ratio (y) = 0.18332 0.46389
# Poissons Ratio (z) = 0.18029 0.22582
#
# Static dielectric constant tensor:
#      x y z
#    x 3.454740 0.000000 0.000000 
#    y 0.000000 3.308680 0.000000 
#    z 0.000000 0.000000 3.415520 
# 
# 
# High freq. dielectric constant tensor:
#      x y z
#    x 1.670900 0.000000 0.000000 
#    y 0.000000 1.685910 0.000000 
#    z 0.000000 0.000000 1.685510 
# 
# From -- ./inp_files/32324.got.cif
#   From: 2010.03.12/outbox.cif.g09.slc.cpg/sg59_17_cif.got.tgz:32324.got - 2010.04.16 16:29:54.
