data_PCOD8240227
_publ_section_title
;
Structure prediction by ZEFSAII (Michael W. Deem and Ramdas Pophale) SiO2 
 PCOD8240227
Probable space group: P M M N
;
_chemical_formula_sum "Si O2"
_cell_formula_units_Z 64
_cell_length_a 28.906769
_cell_length_b 8.850095
_cell_length_c 12.737020
_cell_angle_alpha 90.000000
_cell_angle_beta 90.000000
_cell_angle_gamma 90.000000
_cell_volume 3258.481917
_symmetry_space_group_name_H-M "P M M N"
_symmetry_group_IT_number 59
_space_group.IT_coordinate_system_code '2'
_symmetry_cell_setting 'orthorhombic'
loop_
_space_group_symop_operation_xyz
x,y,z
1/2-x,1/2-y,z
1/2+x,-y,-z
-x,1/2+y,-z
-x,-y,-z
1/2+x,1/2+y,-z
1/2-x,y,z
x,1/2-y,z
loop_
_atom_site_type_symbol
_atom_site_label
_atom_site_fract_x
_atom_site_fract_y
_atom_site_fract_z
Si Si1 0.303105 0.927780 0.066875
Si Si2 0.058474 0.426575 0.250546
Si Si3 0.548480 0.928060 0.979632
Si Si4 0.159680 0.427429 0.278048
Si Si5 0.120540 0.428977 0.654790
Si Si6 0.801282 0.570490 0.504284
Si Si7 0.478336 0.569332 0.603477
Si Si8 0.364449 0.072412 0.893340
O O1 0.250000 0.977961 0.067919
O O2 0.309283 0.750000 0.066666
O O3 0.326829 0.990563 0.171333
O O4 0.324684 0.991303 0.959512
O O5 0.050254 0.250000 0.245976
O O6 0.106429 0.464093 0.309778
O O7 0.013068 0.493759 0.306500
O O8 0.064676 0.489586 0.133268
O O9 0.543147 0.750000 0.982490
O O10 0.585622 0.982601 0.065095
O O11 0.500000 0.000000 0.000000
O O12 0.166735 0.250000 0.258042
O O13 0.189308 0.486629 0.376949
O O14 0.112800 0.250000 0.643956
O O15 0.160354 0.491046 0.576652
O O16 0.072831 0.510029 0.626461
O O17 0.137942 0.472362 0.771177
O O18 0.750000 0.514003 0.470926
O O19 0.803618 0.750000 0.503110
O O20 0.500000 0.500000 0.500000
O O21 0.477394 0.750000 0.595261
O O22 0.357978 0.250000 0.910433
#
# Coordination Sequence:
#
# PCOD8240227 Si02
#       8
#     8   8   8   8   8   8   8   8
#     4  11  24  39  56  83 119 154 191 242 300 350
#     4   9  18  33  54  78 109 145 183 233 287 337
#     4  10  19  33  52  78 109 141 183 227 276 334
#     4  10  18  35  61  84 109 144 190 239 287 344
#     4  10  21  38  60  87 120 152 191 244 292 344
#     4   9  18  33  57  87 114 145 187 237 294 349
#     4  11  22  37  58  84 116 157 199 240 291 348
#     4  10  21  38  60  84 113 152 198 240 281 345
#
# _framework density 19.641048000000001
#
# number of rings (size 3 to 8) (size 9 to 14) (size 15 to 20)
#    0.000    2.000    1.250    2.625    0.000    5.000 
#    0.000    5.000    0.000    1.125    0.000    0.000 
#    0.000    0.000    0.000    0.000    0.000    0.000 
#
# Total GULP energy -793408.304684 kJ/mol
# GULP energy per Si atom -12397.004761 kJ/mol
# Density = 1.959634 g / cm^3
# Si number density = 19.641048 Si / 1000 Ang^3
#
#
#
# Elastic Constant Matrix: (Units=GPa)
#
#
# Indices 1 2 3 4 5 6 
#
# 1 148.3814 32.4418 66.6169 0.0000 0.0000 0.0000
# 2 32.4418 36.9580 31.3977 0.0000 0.0000 0.0000
# 3 66.6169 31.3977 135.2586 0.0000 0.0000 0.0000
# 4 0.0000 0.0000 0.0000 17.9817 0.0000 0.0000
# 5 0.0000 0.0000 0.0000 0.0000 39.5426 0.0000
# 6 0.0000 0.0000 0.0000 0.0000 0.0000 31.1624
#
#
#
# Elastic Compliance Matrix: (Units=1/GPa)
#
#
# Indices 1 2 3 4 5 6 
#
# 1 0.009447 -0.005406 -0.003398 0.000000 0.000000 0.000000
# 2 -0.005406 0.036798 -0.005880 0.000000 0.000000 0.000000
# 3 -0.003398 -0.005880 0.010432 0.000000 0.000000 0.000000
# 4 0.000000 0.000000 0.000000 0.055612 0.000000 0.000000
# 5 0.000000 0.000000 0.000000 0.000000 0.025289 0.000000
# 6 0.000000 0.000000 0.000000 0.000000 0.000000 0.032090
#
#
# Mechanical properties :
#
#
# Convention : Reuss Voigt Hill
#
# Bulk Modulus (GPa) = 36.61663 64.61230 50.61446
# Shear Modulus (GPa) = 24.02262 30.41343 27.21803
#
# Velocity S-wave (km/s) = 3.50105 3.93932 3.72664
# Velocity P-wave (km/s) = 5.91832 7.32523 6.65904
#
# Compressibility (1/GPa) = 0.02731000
#
# Stress axis : x y z
#
# Youngs Moduli (GPa) = 105.85626 27.17546 95.86302
#
# Poissons Ratio (x) = 0.14690 0.32573
# Poissons Ratio (y) = 0.57223 0.56363
# Poissons Ratio (z) = 0.35968 0.15978
#
# Static dielectric constant tensor:
#      x y z
#    x 3.817120 0.000000 0.000000 
#    y 0.000000 3.299800 0.000000 
#    z 0.000000 0.000000 4.230610 
# 
# 
# High freq. dielectric constant tensor:
#      x y z
#    x 1.781770 0.000000 0.000000 
#    y 0.000000 1.730180 0.000000 
#    z 0.000000 0.000000 1.777450 
# 
# From -- ./inp_files/19365.got.cif
#   From: 2010.03.12/outbox.cif.g09.slc.cpg/sg59_10_cif.got.tgz:19365.got - 2010.04.16 16:29:54.
