data_PCOD8240185
_publ_section_title
;
Structure prediction by ZEFSAII (Michael W. Deem and Ramdas Pophale) SiO2 
 PCOD8240185
Probable space group: P M M N
;
_chemical_formula_sum "Si O2"
_cell_formula_units_Z 64
_cell_length_a 8.855384
_cell_length_b 25.179623
_cell_length_c 14.657135
_cell_angle_alpha 90.000000
_cell_angle_beta 90.000000
_cell_angle_gamma 90.000000
_cell_volume 3268.178057
_symmetry_space_group_name_H-M "P M M N"
_symmetry_group_IT_number 59
_space_group.IT_coordinate_system_code '2'
_symmetry_cell_setting 'orthorhombic'
loop_
_space_group_symop_operation_xyz
x,y,z
1/2-x,1/2-y,z
1/2+x,-y,-z
-x,1/2+y,-z
-x,-y,-z
1/2+x,1/2+y,-z
1/2-x,y,z
x,1/2-y,z
loop_
_atom_site_type_symbol
_atom_site_label
_atom_site_fract_x
_atom_site_fract_y
_atom_site_fract_z
Si Si1 0.429231 0.341773 0.509332
Si Si2 0.571378 0.809518 0.291114
Si Si3 0.071053 0.942710 0.980642
Si Si4 0.424619 0.691338 0.669541
Si Si5 0.073421 0.948527 0.458696
Si Si6 0.919921 0.518532 0.288202
Si Si7 0.421257 0.105356 0.854170
Si Si8 0.928136 0.407281 0.215450
O O1 0.250000 0.342513 0.508586
O O2 0.491900 0.320991 0.607100
O O3 0.487484 0.306002 0.426398
O O4 0.496281 0.399658 0.490559
O O5 0.750000 0.816489 0.295726
O O6 0.523948 0.750000 0.262202
O O7 0.508922 0.850666 0.215332
O O8 0.250000 0.949779 0.979184
O O9 0.007785 0.917982 0.885869
O O10 0.024003 0.899147 0.056351
O O11 0.000000 0.000000 0.000000
O O12 0.250000 0.678237 0.649332
O O13 0.442302 0.750000 0.714376
O O14 0.493131 0.646794 0.738709
O O15 0.250000 0.946585 0.476371
O O16 0.034692 0.948779 0.351499
O O17 0.000000 0.000000 0.500000
O O18 0.750000 0.521554 0.329531
O O19 0.922370 0.546864 0.190514
O O20 0.972303 0.457539 0.278673
O O21 0.250000 0.121017 0.881353
O O22 0.750000 0.402504 0.207214
#
# Coordination Sequence:
#
# PCOD8240185 Si02
#       8
#     8   8   8   8   8   8   8   8
#     4  11  21  37  59  84 113 150 197 241 288 340
#     4   9  18  34  57  82 112 152 193 229 277 343
#     4  11  21  36  58  85 113 146 189 235 290 345
#     4  10  21  38  59  83 111 149 195 240 286 340
#     4  12  24  36  52  80 117 155 194 236 290 343
#     4  10  18  34  56  79 111 150 186 226 283 346
#     4  10  19  35  57  83 114 149 187 230 283 341
#     4   9  19  36  57  79 110 148 184 227 285 349
#
# _framework density 19.582775999999999
#
# number of rings (size 3 to 8) (size 9 to 14) (size 15 to 20)
#    0.000    1.750    2.500    3.000    0.000    2.250 
#    0.000    1.875    0.000    2.625    0.000    0.000 
#    0.000    0.000    0.000    0.000    0.000    0.000 
#
# Total GULP energy -793463.291452 kJ/mol
# GULP energy per Si atom -12397.863929 kJ/mol
# Density = 1.953820 g / cm^3
# Si number density = 19.582776 Si / 1000 Ang^3
#
#
#
# Elastic Constant Matrix: (Units=GPa)
#
#
# Indices 1 2 3 4 5 6 
#
# 1 55.5724 21.2856 26.8974 0.0000 0.0000 0.0000
# 2 21.2856 132.9557 45.7392 0.0000 0.0000 0.0000
# 3 26.8974 45.7392 104.1364 0.0000 0.0000 0.0000
# 4 0.0000 0.0000 0.0000 23.9248 0.0000 0.0000
# 5 0.0000 0.0000 0.0000 0.0000 29.8892 0.0000
# 6 0.0000 0.0000 0.0000 0.0000 0.0000 19.7489
#
#
#
# Elastic Compliance Matrix: (Units=1/GPa)
#
#
# Indices 1 2 3 4 5 6 
#
# 1 0.020907 -0.001755 -0.004630 0.000000 0.000000 0.000000
# 2 -0.001755 0.009007 -0.003503 0.000000 0.000000 0.000000
# 3 -0.004630 -0.003503 0.012337 0.000000 0.000000 0.000000
# 4 0.000000 0.000000 0.000000 0.041798 0.000000 0.000000
# 5 0.000000 0.000000 0.000000 0.000000 0.033457 0.000000
# 6 0.000000 0.000000 0.000000 0.000000 0.000000 0.050636
#
#
# Mechanical properties :
#
#
# Convention : Reuss Voigt Hill
#
# Bulk Modulus (GPa) = 44.48877 53.38988 48.93932
# Shear Modulus (GPa) = 25.58741 27.96208 26.77475
#
# Velocity S-wave (km/s) = 3.61865 3.78284 3.70166
# Velocity P-wave (km/s) = 6.34249 6.81196 6.58141
#
# Compressibility (1/GPa) = 0.02247758
#
# Stress axis : x y z
#
# Youngs Moduli (GPa) = 47.83025 111.02103 81.05593
#
# Poissons Ratio (x) = 0.19479 0.37525
# Poissons Ratio (y) = 0.08392 0.28394
# Poissons Ratio (z) = 0.22143 0.38891
#
# Static dielectric constant tensor:
#      x y z
#    x 3.479800 0.000000 0.000000 
#    y 0.000000 3.717840 0.000000 
#    z 0.000000 0.000000 3.845200 
# 
# 
# High freq. dielectric constant tensor:
#      x y z
#    x 1.730300 0.000000 0.000000 
#    y 0.000000 1.767290 0.000000 
#    z 0.000000 0.000000 1.760640 
# 
# From -- ./inp_files/21588.got.cif
#   From: 2010.03.12/outbox.cif.g09.slc.cpg/sg59_11_cif.got.tgz:21588.got - 2010.04.16 16:29:54.
