data_PCOD8240617
_publ_section_title
;
Structure prediction by ZEFSAII (Michael W. Deem and Ramdas Pophale) SiO2 
 PCOD8240617
Probable space group: P M M N
;
_chemical_formula_sum "Si O2"
_cell_formula_units_Z 40
_cell_length_a 9.603229
_cell_length_b 14.353882
_cell_length_c 16.513247
_cell_angle_alpha 90.000000
_cell_angle_beta 90.000000
_cell_angle_gamma 90.000000
_cell_volume 2276.245676
_symmetry_space_group_name_H-M "P M M N"
_symmetry_group_IT_number 59
_space_group.IT_coordinate_system_code '2'
_symmetry_cell_setting 'orthorhombic'
loop_
_space_group_symop_operation_xyz
x,y,z
1/2-x,1/2-y,z
1/2+x,-y,-z
-x,1/2+y,-z
-x,-y,-z
1/2+x,1/2+y,-z
1/2-x,y,z
x,1/2-y,z
loop_
_atom_site_type_symbol
_atom_site_label
_atom_site_fract_x
_atom_site_fract_y
_atom_site_fract_z
Si Si1 0.093603 0.359691 0.894368
Si Si2 0.912242 0.642448 0.482647
Si Si3 0.415510 0.147321 0.074182
Si Si4 0.912786 0.494528 0.801624
Si Si5 0.910519 0.005543 0.616434
O O1 0.250000 0.398147 0.881393
O O2 0.092025 0.250000 0.883087
O O3 0.992372 0.401264 0.826740
O O4 0.038551 0.386164 0.984489
O O5 0.750000 0.635794 0.460427
O O6 0.958549 0.750000 0.492740
O O7 0.945900 0.587556 0.565717
O O8 0.998043 0.593988 0.410660
O O9 0.250000 0.152670 0.076452
O O10 0.477115 0.250000 0.092547
O O11 0.472339 0.077858 0.142648
O O12 0.750000 0.478295 0.816270
O O13 0.945366 0.519005 0.708892
O O14 0.750000 0.034284 0.605142
#
# Coordination Sequence:
#
# PCOD8240617 Si02
#       5
#     8   8   8   8   8
#     4   9  18  32  48  66  92 128 164 193 225 269
#     4   9  18  34  54  71  90 121 157 189 225 275
#     4   8  15  29  48  69  93 123 159 194 229 272
#     4  10  19  30  48  73  97 121 151 192 238 275
#     4   9  19  33  48  72 100 120 147 190 236 279
#
# _framework density 17.572796
#
# number of rings (size 3 to 8) (size 9 to 14) (size 15 to 20)
#    0.000    3.000    0.000    1.800    0.000    3.200 
#    0.000    8.000    0.000    1.800    0.000    2.800 
#    0.000    0.000    0.000    0.000    0.000    0.000 
#
# Total GULP energy -495925.516634 kJ/mol
# GULP energy per Si atom -12398.137916 kJ/mol
# Density = 1.753280 g / cm^3
# Si number density = 17.572796 Si / 1000 Ang^3
#
#
#
# Elastic Constant Matrix: (Units=GPa)
#
#
# Indices 1 2 3 4 5 6 
#
# 1 43.9400 38.0126 37.7332 0.0000 0.0000 0.0000
# 2 38.0126 93.1496 39.0141 0.0000 0.0000 0.0000
# 3 37.7332 39.0141 91.0373 0.0000 0.0000 0.0000
# 4 0.0000 0.0000 0.0000 18.1346 0.0000 0.0000
# 5 0.0000 0.0000 0.0000 0.0000 24.1801 0.0000
# 6 0.0000 0.0000 0.0000 0.0000 0.0000 25.8930
#
#
#
# Elastic Compliance Matrix: (Units=1/GPa)
#
#
# Indices 1 2 3 4 5 6 
#
# 1 0.045334 -0.012955 -0.013238 0.000000 0.000000 0.000000
# 2 -0.012955 0.016786 -0.001824 0.000000 0.000000 0.000000
# 3 -0.013238 -0.001824 0.017253 0.000000 0.000000 0.000000
# 4 0.000000 0.000000 0.000000 0.055143 0.000000 0.000000
# 5 0.000000 0.000000 0.000000 0.000000 0.041356 0.000000
# 6 0.000000 0.000000 0.000000 0.000000 0.000000 0.038620
#
#
# Mechanical properties :
#
#
# Convention : Reuss Voigt Hill
#
# Bulk Modulus (GPa) = 42.84761 50.84963 46.84862
# Shear Modulus (GPa) = 17.96571 21.19935 19.58253
#
# Velocity S-wave (km/s) = 3.20090 3.47706 3.34183
# Velocity P-wave (km/s) = 6.17227 6.71709 6.45043
#
# Compressibility (1/GPa) = 0.02333852
#
# Stress axis : x y z
#
# Youngs Moduli (GPa) = 22.05840 59.57263 57.96066
#
# Poissons Ratio (x) = 0.77179 0.76729
# Poissons Ratio (y) = 0.28578 0.10572
# Poissons Ratio (z) = 0.29201 0.10866
#
# Static dielectric constant tensor:
#      x y z
#    x 3.073590 0.000000 0.000000 
#    y 0.000000 3.342020 0.000000 
#    z 0.000000 0.000000 3.337030 
# 
# 
# High freq. dielectric constant tensor:
#      x y z
#    x 1.656330 0.000000 0.000000 
#    y 0.000000 1.678820 0.000000 
#    z 0.000000 0.000000 1.680050 
# 
# From -- ./inp_files/19861.got.cif
#   From: 2010.03.12/outbox.cif.g09.slc.cpg/sg59_10_cif.got.tgz:19861.got - 2010.04.16 16:29:54.
