data_PCOD8240626
_publ_section_title
;
Structure prediction by ZEFSAII (Michael W. Deem and Ramdas Pophale) SiO2 
 PCOD8240626
Probable space group: P M M N
;
_chemical_formula_sum "Si O2"
_cell_formula_units_Z 56
_cell_length_a 19.753726
_cell_length_b 9.298402
_cell_length_c 17.449859
_cell_angle_alpha 90.000000
_cell_angle_beta 90.000000
_cell_angle_gamma 90.000000
_cell_volume 3205.156691
_symmetry_space_group_name_H-M "P M M N"
_symmetry_group_IT_number 59
_space_group.IT_coordinate_system_code '2'
_symmetry_cell_setting 'orthorhombic'
loop_
_space_group_symop_operation_xyz
x,y,z
1/2-x,1/2-y,z
1/2+x,-y,-z
-x,1/2+y,-z
-x,-y,-z
1/2+x,1/2+y,-z
1/2-x,y,z
x,1/2-y,z
loop_
_atom_site_type_symbol
_atom_site_label
_atom_site_fract_x
_atom_site_fract_y
_atom_site_fract_z
Si Si1 0.827305 0.915829 0.333169
Si Si2 0.326995 0.580572 0.108226
Si Si3 0.172068 0.082369 0.954365
Si Si4 0.538715 0.083933 0.605920
Si Si5 0.061592 0.580409 0.224690
Si Si6 0.091913 0.916493 0.554852
Si Si7 0.587205 0.921066 0.189541
O O1 0.750000 0.937874 0.309195
O O2 0.843582 0.750000 0.350360
O O3 0.872987 0.977359 0.264169
O O4 0.842477 0.005841 0.410227
O O5 0.250000 0.541692 0.131340
O O6 0.335745 0.750000 0.096108
O O7 0.376165 0.519202 0.174776
O O8 0.348233 0.504003 0.029958
O O9 0.250000 0.054554 0.931220
O O10 0.159124 0.250000 0.970007
O O11 0.124315 0.021904 0.886705
O O12 0.514286 0.250000 0.609404
O O13 0.572898 0.037791 0.686288
O O14 0.592303 0.061283 0.537203
O O15 0.474032 0.985783 0.592696
O O16 0.060591 0.750000 0.215952
O O17 0.989750 0.520136 0.193237
O O18 0.093087 0.750000 0.576675
O O19 0.590070 0.750000 0.189822
#
# Coordination Sequence:
#
# PCOD8240626 Si02
#       7
#     8   8   8   8   8   8   8
#     4  10  19  32  51  72  97 133 171 203 238 287
#     4   9  18  32  49  69  93 123 158 195 241 293
#     4   9  17  30  48  69  93 122 157 196 238 285
#     4   9  17  32  52  71  93 126 165 200 238 289
#     4   9  16  29  51  73  93 121 161 204 237 274
#     4  10  19  30  48  74 101 128 159 199 248 291
#     4   9  16  28  49  73  93 120 164 205 233 276
#
# _framework density 17.471844000000001
#
# number of rings (size 3 to 8) (size 9 to 14) (size 15 to 20)
#    0.000    2.714    1.429    0.857    0.000    3.143 
#    0.000    2.143    0.000    4.286    0.000    2.000 
#    0.000    0.000    0.000    0.000    0.000    0.000 
#
# Total GULP energy -694266.156789 kJ/mol
# GULP energy per Si atom -12397.609943 kJ/mol
# Density = 1.743208 g / cm^3
# Si number density = 17.471844 Si / 1000 Ang^3
#
#
#
# Elastic Constant Matrix: (Units=GPa)
#
#
# Indices 1 2 3 4 5 6 
#
# 1 105.1552 27.8639 82.0366 0.0000 0.0000 0.0000
# 2 27.8639 42.7758 39.8617 0.0000 0.0000 0.0000
# 3 82.0366 39.8617 157.1143 0.0000 0.0000 0.0000
# 4 0.0000 0.0000 0.0000 25.7806 0.0000 0.0000
# 5 0.0000 0.0000 0.0000 0.0000 32.7883 0.0000
# 6 0.0000 0.0000 0.0000 0.0000 0.0000 18.9516
#
#
#
# Elastic Compliance Matrix: (Units=1/GPa)
#
#
# Indices 1 2 3 4 5 6 
#
# 1 0.016448 -0.003550 -0.007687 0.000000 0.000000 0.000000
# 2 -0.003550 0.031383 -0.006108 0.000000 0.000000 0.000000
# 3 -0.007687 -0.006108 0.011929 0.000000 0.000000 0.000000
# 4 0.000000 0.000000 0.000000 0.038789 0.000000 0.000000
# 5 0.000000 0.000000 0.000000 0.000000 0.030499 0.000000
# 6 0.000000 0.000000 0.000000 0.000000 0.000000 0.052766
#
#
# Mechanical properties :
#
#
# Convention : Reuss Voigt Hill
#
# Bulk Modulus (GPa) = 39.89342 67.17441 53.53392
# Shear Modulus (GPa) = 22.23604 25.85631 24.04618
#
# Velocity S-wave (km/s) = 3.57133 3.85110 3.71385
# Velocity P-wave (km/s) = 6.31573 7.63579 7.00692
#
# Compressibility (1/GPa) = 0.02506679
#
# Stress axis : x y z
#
# Youngs Moduli (GPa) = 60.79831 31.86482 83.83282
#
# Poissons Ratio (x) = 0.11313 0.64446
# Poissons Ratio (y) = 0.21585 0.51208
# Poissons Ratio (z) = 0.46738 0.19464
#
# Static dielectric constant tensor:
#      x y z
#    x 3.315150 0.000000 0.000000 
#    y 0.000000 3.004220 0.000000 
#    z 0.000000 0.000000 3.487480 
# 
# 
# High freq. dielectric constant tensor:
#      x y z
#    x 1.665120 0.000000 0.000000 
#    y 0.000000 1.642730 0.000000 
#    z 0.000000 0.000000 1.683170 
# 
# From -- ./inp_files/28046.got.cif
#   From: 2010.03.12/outbox.cif.g09.slc.cpg/sg59_15_cif.got.tgz:28046.got - 2010.04.16 16:29:54.
