data_PCOD8240259
_publ_section_title
;
Structure prediction by ZEFSAII (Michael W. Deem and Ramdas Pophale) SiO2 
 PCOD8240259
Probable space group: P M M N
;
_chemical_formula_sum "Si O2"
_cell_formula_units_Z 64
_cell_length_a 25.063034
_cell_length_b 8.977857
_cell_length_c 18.528637
_cell_angle_alpha 90.000000
_cell_angle_beta 90.000000
_cell_angle_gamma 90.000000
_cell_volume 4169.171880
_symmetry_space_group_name_H-M "P M M N"
_symmetry_group_IT_number 59
_space_group.IT_coordinate_system_code '2'
_symmetry_cell_setting 'orthorhombic'
loop_
_space_group_symop_operation_xyz
x,y,z
1/2-x,1/2-y,z
1/2+x,-y,-z
-x,1/2+y,-z
-x,-y,-z
1/2+x,1/2+y,-z
1/2-x,y,z
x,1/2-y,z
loop_
_atom_site_type_symbol
_atom_site_label
_atom_site_fract_x
_atom_site_fract_y
_atom_site_fract_z
Si Si1 0.545544 0.585633 0.091993
Si Si2 0.925049 0.414873 0.961138
Si Si3 0.008057 0.924316 0.612875
Si Si4 0.811386 0.418526 0.734524
Si Si5 0.397014 0.075029 0.177661
Si Si6 0.579774 0.075674 0.520708
Si Si7 0.499548 0.073008 0.760692
Si Si8 0.692028 0.426173 0.571013
O O1 0.571335 0.750000 0.089696
O O2 0.486538 0.593090 0.059848
O O3 0.541487 0.528747 0.174834
O O4 0.581415 0.477162 0.042787
O O5 0.899598 0.250000 0.958763
O O6 0.894778 0.521406 0.905218
O O7 0.001115 0.750000 0.627163
O O8 0.056557 0.958823 0.558243
O O9 0.952762 0.986419 0.581253
O O10 0.023379 0.006552 0.686760
O O11 0.750000 0.422069 0.757089
O O12 0.833915 0.250000 0.742967
O O13 0.841176 0.532997 0.786507
O O14 0.818957 0.476494 0.652866
O O15 0.407095 0.250000 0.179383
O O16 0.442670 0.994665 0.223761
O O17 0.574726 0.250000 0.539701
O O18 0.641760 0.021626 0.522172
O O19 0.505502 0.250000 0.755456
O O20 0.750000 0.491162 0.544329
O O21 0.696522 0.250000 0.569299
#
# Coordination Sequence:
#
# PCOD8240259 Si02
#       8
#     8   8   8   8   8   8   8   8
#     4   8  15  26  39  56  77 102 133 167 200 234
#     4   9  16  26  40  57  79 107 135 162 197 239
#     4  10  19  28  40  61  86 112 142 174 211 254
#     4   9  17  29  44  61  82 109 141 175 210 249
#     4  11  20  28  41  60  83 110 141 176 208 244
#     4   9  17  29  44  61  84 112 140 173 211 254
#     4  10  19  30  43  58  80 111 143 173 208 250
#     4   8  14  26  45  64  79 102 138 175 209 246
#
# _framework density 15.350771
#
# number of rings (size 3 to 8) (size 9 to 14) (size 15 to 20)
#    0.000    2.750    0.000    4.500    0.000    5.250 
#    0.000    0.000    0.000    1.125    0.000    0.000 
#    0.000    1.000    0.000    9.250    0.000    2.875 
#
# Total GULP energy -793295.885730 kJ/mol
# GULP energy per Si atom -12395.248215 kJ/mol
# Density = 1.531583 g / cm^3
# Si number density = 15.350771 Si / 1000 Ang^3
#
#
#
# Elastic Constant Matrix: (Units=GPa)
#
#
# Indices 1 2 3 4 5 6 
#
# 1 76.3293 26.1399 43.8629 0.0000 0.0000 0.0000
# 2 26.1399 76.9358 46.9680 0.0000 0.0000 0.0000
# 3 43.8629 46.9680 113.3913 0.0000 0.0000 0.0000
# 4 0.0000 0.0000 0.0000 26.3013 0.0000 0.0000
# 5 0.0000 0.0000 0.0000 0.0000 12.3724 0.0000
# 6 0.0000 0.0000 0.0000 0.0000 0.0000 15.8738
#
#
#
# Elastic Compliance Matrix: (Units=1/GPa)
#
#
# Indices 1 2 3 4 5 6 
#
# 1 0.017165 -0.002380 -0.005654 0.000000 0.000000 0.000000
# 2 -0.002380 0.017727 -0.006422 0.000000 0.000000 0.000000
# 3 -0.005654 -0.006422 0.013666 0.000000 0.000000 0.000000
# 4 0.000000 0.000000 0.000000 0.038021 0.000000 0.000000
# 5 0.000000 0.000000 0.000000 0.000000 0.080825 0.000000
# 6 0.000000 0.000000 0.000000 0.000000 0.000000 0.062997
#
#
# Mechanical properties :
#
#
# Convention : Reuss Voigt Hill
#
# Bulk Modulus (GPa) = 50.90136 55.62202 53.26169
# Shear Modulus (GPa) = 18.80668 20.88856 19.84762
#
# Velocity S-wave (km/s) = 3.50398 3.69284 3.59965
# Velocity P-wave (km/s) = 7.04282 7.38210 7.21446
#
# Compressibility (1/GPa) = 0.01964584
#
# Stress axis : x y z
#
# Youngs Moduli (GPa) = 58.25646 56.41070 73.17316
#
# Poissons Ratio (x) = 0.13428 0.41373
# Poissons Ratio (y) = 0.13868 0.46991
# Poissons Ratio (z) = 0.32939 0.36227
#
# Static dielectric constant tensor:
#      x y z
#    x 2.847760 0.000000 0.000000 
#    y 0.000000 2.962330 0.000000 
#    z 0.000000 0.000000 3.060050 
# 
# 
# High freq. dielectric constant tensor:
#      x y z
#    x 1.545750 0.000000 0.000000 
#    y 0.000000 1.587970 0.000000 
#    z 0.000000 0.000000 1.583330 
# 
# From -- ./inp_files/28507.got.cif
#   From: 2010.03.12/outbox.cif.g09.slc.cpg/sg59_15_cif.got.tgz:28507.got - 2010.04.16 16:29:54.
