data_PCOD8240901
_publ_section_title
;
Structure prediction by ZEFSAII (Michael W. Deem and Ramdas Pophale) SiO2 
 PCOD8240901
Probable space group: P M M N
;
_chemical_formula_sum "Si O2"
_cell_formula_units_Z 64
_cell_length_a 14.682649
_cell_length_b 8.928013
_cell_length_c 26.137994
_cell_angle_alpha 90.000000
_cell_angle_beta 90.000000
_cell_angle_gamma 90.000000
_cell_volume 3426.348113
_symmetry_space_group_name_H-M "P M M N"
_symmetry_group_IT_number 59
_space_group.IT_coordinate_system_code '2'
_symmetry_cell_setting 'orthorhombic'
loop_
_space_group_symop_operation_xyz
x,y,z
1/2-x,1/2-y,z
1/2+x,-y,-z
-x,1/2+y,-z
-x,-y,-z
1/2+x,1/2+y,-z
1/2-x,y,z
x,1/2-y,z
loop_
_atom_site_type_symbol
_atom_site_label
_atom_site_fract_x
_atom_site_fract_y
_atom_site_fract_z
Si Si1 0.148930 0.427918 0.744135
Si Si2 0.148522 0.072046 0.630321
Si Si3 0.006755 0.927723 0.444977
Si Si4 0.000614 0.426067 0.076156
Si Si5 0.354674 0.921678 0.271585
Si Si6 0.357189 0.421879 0.373647
Si Si7 0.145015 0.073471 0.991277
Si Si8 0.508698 0.074390 0.816291
O O1 0.250000 0.482377 0.759202
O O2 0.143464 0.250000 0.742912
O O3 0.123207 0.487210 0.687300
O O4 0.080145 0.488648 0.786864
O O5 0.250000 0.016528 0.615315
O O6 0.145740 0.250000 0.630453
O O7 0.077020 0.009639 0.589189
O O8 0.005109 0.750000 0.450163
O O9 0.099810 0.979799 0.418624
O O10 0.000000 0.000000 0.500000
O O11 0.986194 0.250000 0.076007
O O12 0.088080 0.472143 0.041838
O O13 0.022816 0.482694 0.132408
O O14 0.906245 0.499072 0.056772
O O15 0.250000 0.955451 0.260361
O O16 0.372526 0.750000 0.287347
O O17 0.405687 0.961750 0.219510
O O18 0.391702 0.021249 0.318366
O O19 0.250000 0.445554 0.378143
O O20 0.385841 0.250000 0.380325
O O21 0.250000 0.016140 0.995564
O O22 0.143972 0.250000 0.982520
O O23 0.500605 0.250000 0.829075
#
# Coordination Sequence:
#
# PCOD8240901 Si02
#       8
#     8   8   8   8   8   8   8   8
#     4   8  14  26  46  71  95 123 163 203 238 286
#     4   8  15  30  52  75  98 127 166 211 255 301
#     4  11  22  35  53  78 106 136 172 216 268 324
#     4  10  21  35  52  79 109 135 171 219 265 307
#     4   9  18  33  53  77 104 136 176 218 259 307
#     4  10  21  37  56  77 103 138 180 224 270 320
#     4   9  19  38  60  76  96 134 180 220 261 313
#     4  10  19  31  49  75 108 141 170 205 253 311
#
# _framework density 18.67878
#
# number of rings (size 3 to 8) (size 9 to 14) (size 15 to 20)
#    0.000    2.625    0.000    2.625    0.000    5.500 
#    0.000    2.500    0.000    1.125    0.000    3.500 
#    0.000    0.000    0.000    0.000    0.000    0.000 
#
# Total GULP energy -793516.955240 kJ/mol
# GULP energy per Si atom -12398.702426 kJ/mol
# Density = 1.863627 g / cm^3
# Si number density = 18.678780 Si / 1000 Ang^3
#
#
#
# Elastic Constant Matrix: (Units=GPa)
#
#
# Indices 1 2 3 4 5 6 
#
# 1 103.9696 34.0864 56.8502 0.0000 0.0000 0.0000
# 2 34.0864 44.3859 37.3456 0.0000 0.0000 0.0000
# 3 56.8502 37.3456 131.6402 0.0000 0.0000 0.0000
# 4 0.0000 0.0000 0.0000 34.8912 0.0000 0.0000
# 5 0.0000 0.0000 0.0000 0.0000 18.9893 0.0000
# 6 0.0000 0.0000 0.0000 0.0000 0.0000 20.4360
#
#
#
# Elastic Compliance Matrix: (Units=1/GPa)
#
#
# Indices 1 2 3 4 5 6 
#
# 1 0.014311 -0.007606 -0.004023 0.000000 0.000000 0.000000
# 2 -0.007606 0.033636 -0.006258 0.000000 0.000000 0.000000
# 3 -0.004023 -0.006258 0.011109 0.000000 0.000000 0.000000
# 4 0.000000 0.000000 0.000000 0.028661 0.000000 0.000000
# 5 0.000000 0.000000 0.000000 0.000000 0.052661 0.000000
# 6 0.000000 0.000000 0.000000 0.000000 0.000000 0.048933
#
#
# Mechanical properties :
#
#
# Convention : Reuss Voigt Hill
#
# Bulk Modulus (GPa) = 42.94860 59.61779 51.28319
# Shear Modulus (GPa) = 21.47352 24.97752 23.22552
#
# Velocity S-wave (km/s) = 3.39428 3.66076 3.53004
# Velocity P-wave (km/s) = 6.19716 7.06080 6.64303
#
# Compressibility (1/GPa) = 0.02328365
#
# Stress axis : x y z
#
# Youngs Moduli (GPa) = 69.87419 29.73030 90.01708
#
# Poissons Ratio (x) = 0.22612 0.36212
# Poissons Ratio (y) = 0.53145 0.56329
# Poissons Ratio (z) = 0.28109 0.18604
#
# Static dielectric constant tensor:
#      x y z
#    x 3.925130 0.000000 0.000000 
#    y 0.000000 3.176940 0.000000 
#    z 0.000000 0.000000 3.477870 
# 
# 
# High freq. dielectric constant tensor:
#      x y z
#    x 1.734860 0.000000 0.000000 
#    y 0.000000 1.697060 0.000000 
#    z 0.000000 0.000000 1.725790 
# 
# From -- ./inp_files/32145.got.cif
#   From: 2010.03.12/outbox.cif.g09.slc.cpg/sg59_17_cif.got.tgz:32145.got - 2010.04.16 16:29:54.
