data_PCOD8240985
_publ_section_title
;
Structure prediction by ZEFSAII (Michael W. Deem and Ramdas Pophale) SiO2 
 PCOD8240985
Probable space group: P M M N
;
_chemical_formula_sum "Si O2"
_cell_formula_units_Z 48
_cell_length_a 9.372943
_cell_length_b 7.668788
_cell_length_c 34.721548
_cell_angle_alpha 90.000000
_cell_angle_beta 90.000000
_cell_angle_gamma 90.000000
_cell_volume 2495.754065
_symmetry_space_group_name_H-M "P M M N"
_symmetry_group_IT_number 59
_space_group.IT_coordinate_system_code '2'
_symmetry_cell_setting 'orthorhombic'
loop_
_space_group_symop_operation_xyz
x,y,z
1/2-x,1/2-y,z
1/2+x,-y,-z
-x,1/2+y,-z
-x,-y,-z
1/2+x,1/2+y,-z
1/2-x,y,z
x,1/2-y,z
loop_
_atom_site_type_symbol
_atom_site_label
_atom_site_fract_x
_atom_site_fract_y
_atom_site_fract_z
Si Si1 0.916625 0.449213 0.038042
Si Si2 0.582347 0.449997 0.236448
Si Si3 0.418868 0.250000 0.905612
Si Si4 0.409043 0.044906 0.537150
Si Si5 0.580863 0.750000 0.180034
Si Si6 0.908789 0.047524 0.606845
Si Si7 0.409278 0.044544 0.309805
O O1 0.750000 0.477807 0.029629
O O2 0.948919 0.250000 0.050156
O O3 0.969955 0.575720 0.072229
O O4 0.000000 0.500000 0.000000
O O5 0.750000 0.466344 0.243284
O O6 0.539195 0.250000 0.226677
O O7 0.530093 0.574300 0.201770
O O8 0.508320 0.521695 0.275175
O O9 0.250000 0.250000 0.902306
O O10 0.486641 0.250000 0.862820
O O11 0.250000 0.963206 0.533769
O O12 0.395745 0.250000 0.541851
O O13 0.488020 0.963011 0.574634
O O14 0.500000 0.000000 0.500000
O O15 0.750000 0.750000 0.177339
O O16 0.750000 0.961944 0.604428
O O17 0.895591 0.250000 0.598093
O O18 0.974277 0.016812 0.649343
O O19 0.250000 0.966052 0.304643
O O20 0.404200 0.250000 0.309034
#
# Coordination Sequence:
#
# PCOD8240985 Si02
#       7
#     8   8   4   8   4   8   8
#     4  10  19  31  51  77 104 138 177 219 270 322
#     4   9  18  32  50  73 100 130 167 212 258 304
#     4   9  18  32  49  75 107 135 175 223 263 315
#     4  10  21  36  53  74 100 132 168 205 249 300
#     4   9  18  32  51  75 103 137 175 215 261 311
#     4   9  18  32  49  70  97 127 161 202 246 294
#     4   9  18  32  50  73 100 130 163 202 250 301
#
# _framework density 19.232662999999999
#
# number of rings (size 3 to 8) (size 9 to 14) (size 15 to 20)
#    0.000    2.667    0.833    0.500    1.167    3.000 
#    0.000    5.000    0.000    2.000    0.000    2.333 
#    0.000    0.000    0.000    0.000    0.000    0.000 
#
# Total GULP energy -595031.851045 kJ/mol
# GULP energy per Si atom -12396.496897 kJ/mol
# Density = 1.918889 g / cm^3
# Si number density = 19.232663 Si / 1000 Ang^3
#
#
#
# Elastic Constant Matrix: (Units=GPa)
#
#
# Indices 1 2 3 4 5 6 
#
# 1 70.6781 28.4165 65.5110 0.0000 0.0000 0.0000
# 2 28.4165 86.4490 62.8557 0.0000 0.0000 0.0000
# 3 65.5110 62.8557 201.2406 0.0000 0.0000 0.0000
# 4 0.0000 0.0000 0.0000 31.4134 0.0000 0.0000
# 5 0.0000 0.0000 0.0000 0.0000 25.8493 0.0000
# 6 0.0000 0.0000 0.0000 0.0000 0.0000 15.9635
#
#
#
# Elastic Compliance Matrix: (Units=1/GPa)
#
#
# Indices 1 2 3 4 5 6 
#
# 1 0.020659 -0.002460 -0.005957 0.000000 0.000000 0.000000
# 2 -0.002460 0.015259 -0.003965 0.000000 0.000000 0.000000
# 3 -0.005957 -0.003965 0.008147 0.000000 0.000000 0.000000
# 4 0.000000 0.000000 0.000000 0.031834 0.000000 0.000000
# 5 0.000000 0.000000 0.000000 0.000000 0.038686 0.000000
# 6 0.000000 0.000000 0.000000 0.000000 0.000000 0.062643
#
#
# Mechanical properties :
#
#
# Convention : Reuss Voigt Hill
#
# Bulk Modulus (GPa) = 51.81018 74.65937 63.23478
# Shear Modulus (GPa) = 23.98943 28.08420 26.03681
#
# Velocity S-wave (km/s) = 3.53558 3.82545 3.68337
# Velocity P-wave (km/s) = 6.60789 7.64300 7.14422
#
# Compressibility (1/GPa) = 0.01930122
#
# Stress axis : x y z
#
# Youngs Moduli (GPa) = 48.40493 65.53443 122.74511
#
# Poissons Ratio (x) = 0.16118 0.73120
# Poissons Ratio (y) = 0.11905 0.48673
# Poissons Ratio (z) = 0.28835 0.25987
#
# Static dielectric constant tensor:
#      x y z
#    x 3.462280 0.000000 0.000000 
#    y 0.000000 3.593960 0.000000 
#    z 0.000000 0.000000 3.770130 
# 
# 
# High freq. dielectric constant tensor:
#      x y z
#    x 1.722640 0.000000 0.000000 
#    y 0.000000 1.748310 0.000000 
#    z 0.000000 0.000000 1.748390 
# 
# From -- ./inp_files/33029.got.cif
#   From: 2010.03.12/outbox.cif.g09.slc.cpg/sg59_17_cif.got.tgz:33029.got - 2010.04.16 16:29:54.
