data_PCOD8240324
_publ_section_title
;
Structure prediction by ZEFSAII (Michael W. Deem and Ramdas Pophale) SiO2 
 PCOD8240324
Probable space group: P M M N
;
_chemical_formula_sum "Si O2"
_cell_formula_units_Z 64
_cell_length_a 13.801043
_cell_length_b 9.267069
_cell_length_c 31.234463
_cell_angle_alpha 90.000000
_cell_angle_beta 90.000000
_cell_angle_gamma 90.000000
_cell_volume 3994.738447
_symmetry_space_group_name_H-M "P M M N"
_symmetry_group_IT_number 59
_space_group.IT_coordinate_system_code '2'
_symmetry_cell_setting 'orthorhombic'
loop_
_space_group_symop_operation_xyz
x,y,z
1/2-x,1/2-y,z
1/2+x,-y,-z
-x,1/2+y,-z
-x,-y,-z
1/2+x,1/2+y,-z
1/2-x,y,z
x,1/2-y,z
loop_
_atom_site_type_symbol
_atom_site_label
_atom_site_fract_x
_atom_site_fract_y
_atom_site_fract_z
Si Si1 0.135566 0.086155 0.977369
Si Si2 0.637931 0.082838 0.523220
Si Si3 0.968990 0.081445 0.435643
Si Si4 0.363861 0.082121 0.639911
Si Si5 0.859759 0.079715 0.183486
Si Si6 0.642445 0.416311 0.940890
Si Si7 0.460394 0.416708 0.890903
Si Si8 0.364753 0.590437 0.721588
O O1 0.250000 0.073493 0.975605
O O2 0.099465 0.250000 0.982969
O O3 0.095587 0.024018 0.932697
O O4 0.096682 0.996920 0.018049
O O5 0.750000 0.036817 0.527277
O O6 0.623046 0.250000 0.535319
O O7 0.603524 0.053429 0.474936
O O8 0.574713 0.985933 0.555337
O O9 0.981951 0.250000 0.426060
O O10 0.922993 0.004539 0.395153
O O11 0.250000 0.053854 0.633014
O O12 0.389433 0.250000 0.636735
O O13 0.399022 0.024391 0.686167
O O14 0.750000 0.023140 0.176178
O O15 0.863234 0.250000 0.176969
O O16 0.897766 0.039105 0.231154
O O17 0.932081 0.006171 0.150516
O O18 0.750000 0.474184 0.929469
O O19 0.645447 0.250000 0.953962
O O20 0.574943 0.440037 0.899430
O O21 0.434408 0.250000 0.882597
O O22 0.250000 0.602030 0.722334
O O23 0.407209 0.750000 0.710920
#
# Coordination Sequence:
#
# PCOD8240324 Si02
#       8
#     8   8   8   8   8   8   8   8
#     4   9  17  28  41  59  83 109 138 173 212 252
#     4   9  18  32  47  64  91 126 161 197 235 272
#     4  10  19  30  46  68  93 123 159 195 232 274
#     4  10  19  29  44  68  95 122 153 187 222 264
#     4   9  18  31  46  66  91 116 141 170 208 259
#     4   9  18  31  44  59  81 110 145 181 212 244
#     4  10  19  29  43  63  86 113 142 173 212 254
#     4   8  15  29  46  63  87 117 144 173 214 262
#
# _framework density 16.021073999999999
#
# number of rings (size 3 to 8) (size 9 to 14) (size 15 to 20)
#    0.000    2.750    0.000    2.625    0.000    4.250 
#    0.000    2.500    0.000    0.000    0.000    0.875 
#    0.000    3.000    0.000    0.000    0.000    0.000 
#
# Total GULP energy -793465.277715 kJ/mol
# GULP energy per Si atom -12397.894964 kJ/mol
# Density = 1.598461 g / cm^3
# Si number density = 16.021074 Si / 1000 Ang^3
#
#
#
# Elastic Constant Matrix: (Units=GPa)
#
#
# Indices 1 2 3 4 5 6 
#
# 1 71.6222 42.2752 52.0763 0.0000 0.0000 0.0000
# 2 42.2752 77.3222 64.8356 0.0000 0.0000 0.0000
# 3 52.0763 64.8356 122.5105 0.0000 0.0000 0.0000
# 4 0.0000 0.0000 0.0000 31.0960 0.0000 0.0000
# 5 0.0000 0.0000 0.0000 0.0000 22.7244 0.0000
# 6 0.0000 0.0000 0.0000 0.0000 0.0000 21.4784
#
#
#
# Elastic Compliance Matrix: (Units=1/GPa)
#
#
# Indices 1 2 3 4 5 6 
#
# 1 0.022497 -0.007697 -0.005489 0.000000 0.000000 0.000000
# 2 -0.007697 0.025884 -0.010427 0.000000 0.000000 0.000000
# 3 -0.005489 -0.010427 0.016014 0.000000 0.000000 0.000000
# 4 0.000000 0.000000 0.000000 0.032158 0.000000 0.000000
# 5 0.000000 0.000000 0.000000 0.000000 0.044006 0.000000
# 6 0.000000 0.000000 0.000000 0.000000 0.000000 0.046558
#
#
# Mechanical properties :
#
#
# Convention : Reuss Voigt Hill
#
# Bulk Modulus (GPa) = 58.24553 65.53657 61.89105
# Shear Modulus (GPa) = 20.82760 22.54427 21.68593
#
# Velocity S-wave (km/s) = 3.60948 3.75529 3.68311
# Velocity P-wave (km/s) = 7.33523 7.73293 7.53670
#
# Compressibility (1/GPa) = 0.01716870
#
# Stress axis : x y z
#
# Youngs Moduli (GPa) = 44.45114 38.63385 62.44515
#
# Poissons Ratio (x) = 0.29736 0.34279
# Poissons Ratio (y) = 0.34214 0.65110
# Poissons Ratio (z) = 0.24401 0.40282
#
# Static dielectric constant tensor:
#      x y z
#    x 2.981090 0.000000 0.000000 
#    y 0.000000 3.125430 0.000000 
#    z 0.000000 0.000000 3.051850 
# 
# 
# High freq. dielectric constant tensor:
#      x y z
#    x 1.595120 0.000000 0.000000 
#    y 0.000000 1.618180 0.000000 
#    z 0.000000 0.000000 1.605270 
# 
# From -- ./inp_files/33331.got.cif
#   From: 2010.03.12/outbox.cif.g09.slc.cpg/sg59_17_cif.got.tgz:33331.got - 2010.04.16 16:29:54.
