data_PCOD8240984
_publ_section_title
;
Structure prediction by ZEFSAII (Michael W. Deem and Ramdas Pophale) SiO2 
 PCOD8240984
Probable space group: P M M N
;
_chemical_formula_sum "Si O2"
_cell_formula_units_Z 40
_cell_length_a 8.867552
_cell_length_b 18.631587
_cell_length_c 13.314331
_cell_angle_alpha 90.000000
_cell_angle_beta 90.000000
_cell_angle_gamma 90.000000
_cell_volume 2199.748054
_symmetry_space_group_name_H-M "P M M N"
_symmetry_group_IT_number 59
_space_group.IT_coordinate_system_code '2'
_symmetry_cell_setting 'orthorhombic'
loop_
_space_group_symop_operation_xyz
x,y,z
1/2-x,1/2-y,z
1/2+x,-y,-z
-x,1/2+y,-z
-x,-y,-z
1/2+x,1/2+y,-z
1/2-x,y,z
x,1/2-y,z
loop_
_atom_site_type_symbol
_atom_site_label
_atom_site_fract_x
_atom_site_fract_y
_atom_site_fract_z
Si Si1 0.073738 0.601193 0.556059
Si Si2 0.071141 0.750000 0.872565
Si Si3 0.425273 0.473785 0.852185
Si Si4 0.571480 0.250000 0.354886
Si Si5 0.575001 0.033625 0.651550
Si Si6 0.925663 0.607250 0.946206
O O1 0.250000 0.590364 0.581194
O O2 0.014260 0.679925 0.585732
O O3 0.042655 0.589724 0.437957
O O4 0.979791 0.545292 0.621328
O O5 0.250000 0.750000 0.874227
O O6 0.008285 0.750000 0.758560
O O7 0.012547 0.680909 0.930999
O O8 0.250000 0.492562 0.845247
O O9 0.483707 0.438961 0.748674
O O10 0.513753 0.547910 0.869094
O O11 0.458876 0.417385 0.940151
O O12 0.750000 0.250000 0.352234
O O13 0.750000 0.030124 0.678515
O O14 0.750000 0.618822 0.925944
#
# Coordination Sequence:
#
# PCOD8240984 Si02
#       6
#     8   4   8   4   8   8
#     4   9  18  33  52  74 102 134 170 210 253 305
#     4  11  21  33  54  81 108 138 169 207 262 319
#     4  10  20  35  55  76 102 137 174 216 264 310
#     4   9  18  33  52  73  98 130 165 203 250 301
#     4  10  19  31  51  77 103 133 170 212 256 305
#     4  10  21  36  54  77 105 136 174 217 259 310
#
# _framework density 18.183900999999999
#
# number of rings (size 3 to 8) (size 9 to 14) (size 15 to 20)
#    0.000    2.200    0.000    3.300    0.000    4.800 
#    0.000    2.500    0.000    1.200    0.000    0.000 
#    0.000    0.000    0.000    0.000    0.000    0.000 
#
# Total GULP energy -496135.563457 kJ/mol
# GULP energy per Si atom -12403.389086 kJ/mol
# Density = 1.814251 g / cm^3
# Si number density = 18.183901 Si / 1000 Ang^3
#
#
#
# Elastic Constant Matrix: (Units=GPa)
#
#
# Indices 1 2 3 4 5 6 
#
# 1 72.4959 42.3185 48.3794 0.0000 0.0000 0.0000
# 2 42.3185 126.9088 54.7298 0.0000 0.0000 0.0000
# 3 48.3794 54.7298 123.9122 0.0000 0.0000 0.0000
# 4 0.0000 0.0000 0.0000 19.3269 0.0000 0.0000
# 5 0.0000 0.0000 0.0000 0.0000 33.5684 0.0000
# 6 0.0000 0.0000 0.0000 0.0000 0.0000 28.7796
#
#
#
# Elastic Compliance Matrix: (Units=1/GPa)
#
#
# Indices 1 2 3 4 5 6 
#
# 1 0.020270 -0.004133 -0.006088 0.000000 0.000000 0.000000
# 2 -0.004133 0.010577 -0.003058 0.000000 0.000000 0.000000
# 3 -0.006088 -0.003058 0.011798 0.000000 0.000000 0.000000
# 4 0.000000 0.000000 0.000000 0.051741 0.000000 0.000000
# 5 0.000000 0.000000 0.000000 0.000000 0.029790 0.000000
# 6 0.000000 0.000000 0.000000 0.000000 0.000000 0.034747
#
#
# Mechanical properties :
#
#
# Convention : Reuss Voigt Hill
#
# Bulk Modulus (GPa) = 62.16850 68.24136 65.20493
# Shear Modulus (GPa) = 26.19957 28.19426 27.19692
#
# Velocity S-wave (km/s) = 3.79992 3.94192 3.87157
# Velocity P-wave (km/s) = 7.31543 7.63729 7.47809
#
# Compressibility (1/GPa) = 0.01608532
#
# Stress axis : x y z
#
# Youngs Moduli (GPa) = 49.33468 94.54801 84.76146
#
# Poissons Ratio (x) = 0.39081 0.51605
# Poissons Ratio (y) = 0.20392 0.25917
# Poissons Ratio (z) = 0.30036 0.28910
#
# Static dielectric constant tensor:
#      x y z
#    x 3.349660 0.000000 0.000000 
#    y 0.000000 3.296730 0.000000 
#    z 0.000000 0.000000 3.515340 
# 
# 
# High freq. dielectric constant tensor:
#      x y z
#    x 1.707070 0.000000 0.000000 
#    y 0.000000 1.689690 0.000000 
#    z 0.000000 0.000000 1.714450 
# 
# From -- ./inp_files/14110.got.cif
#   From: 2010.03.12/outbox.cif.g09.slc.cpg/sg59_8_cif.got.tgz:14110.got - 2010.04.16 16:29:54.
