data_PCOD8240652
_publ_section_title
;
Structure prediction by ZEFSAII (Michael W. Deem and Ramdas Pophale) SiO2 
 PCOD8240652
Probable space group: P M M N
;
_chemical_formula_sum "Si O2"
_cell_formula_units_Z 64
_cell_length_a 16.704052
_cell_length_b 13.510249
_cell_length_c 15.449541
_cell_angle_alpha 90.000000
_cell_angle_beta 90.000000
_cell_angle_gamma 90.000000
_cell_volume 3486.589098
_symmetry_space_group_name_H-M "P M M N"
_symmetry_group_IT_number 59
_space_group.IT_coordinate_system_code '2'
_symmetry_cell_setting 'orthorhombic'
loop_
_space_group_symop_operation_xyz
x,y,z
1/2-x,1/2-y,z
1/2+x,-y,-z
-x,1/2+y,-z
-x,-y,-z
1/2+x,1/2+y,-z
1/2-x,y,z
x,1/2-y,z
loop_
_atom_site_type_symbol
_atom_site_label
_atom_site_fract_x
_atom_site_fract_y
_atom_site_fract_z
Si Si1 0.416240 0.638460 0.590142
Si Si2 0.658723 0.549083 0.823758
Si Si3 0.160610 0.044893 0.647129
Si Si4 0.493787 0.139905 0.236091
Si Si5 0.500051 0.366371 0.583077
Si Si6 0.575518 0.362665 0.761299
Si Si7 0.078691 0.049322 0.824487
Si Si8 0.156998 0.137038 0.990450
O O1 0.384375 0.750000 0.576840
O O2 0.341629 0.571113 0.620053
O O3 0.483556 0.631133 0.663773
O O4 0.457949 0.594750 0.504105
O O5 0.750000 0.574438 0.799860
O O6 0.600819 0.616793 0.765767
O O7 0.642263 0.433005 0.804576
O O8 0.639618 0.575976 0.922784
O O9 0.250000 0.085784 0.626576
O O10 0.091046 0.095983 0.591076
O O11 0.144684 0.060691 0.749075
O O12 0.511682 0.250000 0.200293
O O13 0.542344 0.061916 0.176911
O O14 0.493377 0.250000 0.580258
O O15 0.556105 0.399239 0.663436
O O16 0.607075 0.250000 0.764668
O O17 0.492014 0.371058 0.812462
O O18 0.117092 0.071786 0.916116
O O19 0.250000 0.142695 0.970163
O O20 0.123121 0.250000 0.996282
#
# Coordination Sequence:
#
# PCOD8240652 Si02
#       8
#     8   8   8   8   8   8   8   8
#     4   9  18  34  53  71  98 137 173 202 237 289
#     4  10  21  35  50  71  99 129 164 207 250 295
#     4  10  19  30  49  76 103 128 157 203 256 297
#     4   9  18  33  53  74  97 131 170 205 246 292
#     4   9  18  34  53  72  99 135 171 203 240 292
#     4   9  18  33  53  74  97 130 167 203 247 294
#     4   9  18  33  51  74 100 126 163 204 245 300
#     4  10  20  34  53  75 101 133 164 199 247 298
#
# _framework density 18.356048999999999
#
# number of rings (size 3 to 8) (size 9 to 14) (size 15 to 20)
#    0.000    2.625    0.000    2.250    0.000    4.000 
#    0.000    4.375    0.000    6.375    0.000    0.000 
#    0.000    0.000    0.000    0.000    0.000    0.000 
#
# Total GULP energy -793271.241050 kJ/mol
# GULP energy per Si atom -12394.863141 kJ/mol
# Density = 1.831427 g / cm^3
# Si number density = 18.356049 Si / 1000 Ang^3
#
#
#
# Elastic Constant Matrix: (Units=GPa)
#
#
# Indices 1 2 3 4 5 6 
#
# 1 70.6807 20.9838 37.8725 0.0000 0.0000 0.0000
# 2 20.9838 84.5406 33.0956 0.0000 0.0000 0.0000
# 3 37.8725 33.0956 85.3979 0.0000 0.0000 0.0000
# 4 0.0000 0.0000 0.0000 28.0309 0.0000 0.0000
# 5 0.0000 0.0000 0.0000 0.0000 19.4845 0.0000
# 6 0.0000 0.0000 0.0000 0.0000 0.0000 17.9465
#
#
#
# Elastic Compliance Matrix: (Units=1/GPa)
#
#
# Indices 1 2 3 4 5 6 
#
# 1 0.018751 -0.001649 -0.007677 0.000000 0.000000 0.000000
# 2 -0.001649 0.014089 -0.004729 0.000000 0.000000 0.000000
# 3 -0.007677 -0.004729 0.016947 0.000000 0.000000 0.000000
# 4 0.000000 0.000000 0.000000 0.035675 0.000000 0.000000
# 5 0.000000 0.000000 0.000000 0.000000 0.051323 0.000000
# 6 0.000000 0.000000 0.000000 0.000000 0.000000 0.055721
#
#
# Mechanical properties :
#
#
# Convention : Reuss Voigt Hill
#
# Bulk Modulus (GPa) = 46.12951 47.16923 46.64937
# Shear Modulus (GPa) = 21.94506 23.00352 22.47429
#
# Velocity S-wave (km/s) = 3.46138 3.54388 3.50287
# Velocity P-wave (km/s) = 6.41560 6.51905 6.46753
#
# Compressibility (1/GPa) = 0.02167810
#
# Stress axis : x y z
#
# Youngs Moduli (GPa) = 53.33030 70.97639 59.00718
#
# Poissons Ratio (x) = 0.11704 0.45298
# Poissons Ratio (y) = 0.08794 0.27904
# Poissons Ratio (z) = 0.40940 0.33564
#
# Static dielectric constant tensor:
#      x y z
#    x 3.170200 0.000000 0.000000 
#    y 0.000000 3.614680 0.000000 
#    z 0.000000 0.000000 3.454890 
# 
# 
# High freq. dielectric constant tensor:
#      x y z
#    x 1.691470 0.000000 0.000000 
#    y 0.000000 1.721970 0.000000 
#    z 0.000000 0.000000 1.705960 
# 
# From -- ./inp_files/24010.got.cif
#   From: 2010.03.12/outbox.cif.g09.slc.cpg/sg59_13_cif.got.tgz:24010.got - 2010.04.16 16:29:54.
