data_PCOD8240917
_publ_section_title
;
Structure prediction by ZEFSAII (Michael W. Deem and Ramdas Pophale) SiO2 
 PCOD8240917
Probable space group: P M M N
;
_chemical_formula_sum "Si O2"
_cell_formula_units_Z 56
_cell_length_a 9.045092
_cell_length_b 21.469671
_cell_length_c 16.689355
_cell_angle_alpha 90.000000
_cell_angle_beta 90.000000
_cell_angle_gamma 90.000000
_cell_volume 3240.991788
_symmetry_space_group_name_H-M "P M M N"
_symmetry_group_IT_number 59
_space_group.IT_coordinate_system_code '2'
_symmetry_cell_setting 'orthorhombic'
loop_
_space_group_symop_operation_xyz
x,y,z
1/2-x,1/2-y,z
1/2+x,-y,-z
-x,1/2+y,-z
-x,-y,-z
1/2+x,1/2+y,-z
1/2-x,y,z
x,1/2-y,z
loop_
_atom_site_type_symbol
_atom_site_label
_atom_site_fract_x
_atom_site_fract_y
_atom_site_fract_z
Si Si1 0.580552 0.517673 0.883319
Si Si2 0.920580 0.593139 0.032993
Si Si3 0.081476 0.494950 0.296051
Si Si4 0.075809 0.679812 0.140282
Si Si5 0.077876 0.120052 0.710770
Si Si6 0.423602 0.318726 0.546144
Si Si7 0.421541 0.440935 0.460656
O O1 0.750000 0.495055 0.895097
O O2 0.472382 0.462940 0.909895
O O3 0.548114 0.535434 0.790965
O O4 0.550620 0.577744 0.939415
O O5 0.750000 0.605418 0.050900
O O6 0.011675 0.654774 0.056055
O O7 0.250000 0.520015 0.299050
O O8 0.057145 0.442799 0.364397
O O9 0.971102 0.551283 0.315612
O O10 0.250000 0.674331 0.138242
O O11 0.021390 0.750000 0.152141
O O12 0.015189 0.638300 0.212028
O O13 0.250000 0.120255 0.732511
O O14 0.041938 0.167481 0.639062
O O15 0.250000 0.316126 0.531147
O O16 0.491448 0.250000 0.525228
O O17 0.489804 0.374922 0.491584
O O18 0.500000 0.500000 0.500000
O O19 0.250000 0.444765 0.485665
#
# Coordination Sequence:
#
# PCOD8240917 Si02
#       7
#     8   8   8   8   8   8   8
#     4   9  18  32  49  71 100 129 159 202 255 300
#     4  10  19  31  50  73  96 127 168 207 244 292
#     4  10  19  31  50  74 104 135 162 204 258 307
#     4  11  23  36  49  69 102 139 170 203 249 304
#     4  11  20  31  50  75 102 132 169 208 250 303
#     4   9  18  32  49  71 101 135 170 211 253 297
#     4  10  19  32  51  74 101 134 173 212 254 305
#
# _framework density 17.278661
#
# number of rings (size 3 to 8) (size 9 to 14) (size 15 to 20)
#    0.000    2.000    2.857    1.714    0.000    2.286 
#    0.000    0.000    0.000    2.143    0.000    4.000 
#    0.000    0.000    0.000    0.000    0.000    0.000 
#
# Total GULP energy -694245.999372 kJ/mol
# GULP energy per Si atom -12397.249989 kJ/mol
# Density = 1.723933 g / cm^3
# Si number density = 17.278661 Si / 1000 Ang^3
#
#
#
# Elastic Constant Matrix: (Units=GPa)
#
#
# Indices 1 2 3 4 5 6 
#
# 1 49.8582 29.5644 26.7708 0.0000 0.0000 0.0000
# 2 29.5644 107.5976 51.4619 0.0000 0.0000 0.0000
# 3 26.7708 51.4619 104.6128 0.0000 0.0000 0.0000
# 4 0.0000 0.0000 0.0000 23.8609 0.0000 0.0000
# 5 0.0000 0.0000 0.0000 0.0000 19.9980 0.0000
# 6 0.0000 0.0000 0.0000 0.0000 0.0000 21.9140
#
#
#
# Elastic Compliance Matrix: (Units=1/GPa)
#
#
# Indices 1 2 3 4 5 6 
#
# 1 0.025163 -0.005014 -0.003973 0.000000 0.000000 0.000000
# 2 -0.005014 0.013152 -0.005187 0.000000 0.000000 0.000000
# 3 -0.003973 -0.005187 0.013127 0.000000 0.000000 0.000000
# 4 0.000000 0.000000 0.000000 0.041910 0.000000 0.000000
# 5 0.000000 0.000000 0.000000 0.000000 0.050005 0.000000
# 6 0.000000 0.000000 0.000000 0.000000 0.000000 0.045633
#
#
# Mechanical properties :
#
#
# Convention : Reuss Voigt Hill
#
# Bulk Modulus (GPa) = 43.29855 53.07365 48.18610
# Shear Modulus (GPa) = 22.21864 23.43934 22.82899
#
# Velocity S-wave (km/s) = 3.58984 3.68713 3.63881
# Velocity P-wave (km/s) = 6.50353 6.99354 6.75298
#
# Compressibility (1/GPa) = 0.02309546
#
# Stress axis : x y z
#
# Youngs Moduli (GPa) = 39.74061 76.03202 76.17691
#
# Poissons Ratio (x) = 0.38121 0.30264
# Poissons Ratio (y) = 0.19925 0.39513
# Poissons Ratio (z) = 0.15789 0.39437
#
# Static dielectric constant tensor:
#      x y z
#    x 3.175490 0.000000 0.000000 
#    y 0.000000 3.365000 0.000000 
#    z 0.000000 0.000000 3.432640 
# 
# 
# High freq. dielectric constant tensor:
#      x y z
#    x 1.659840 0.000000 0.000000 
#    y 0.000000 1.645870 0.000000 
#    z 0.000000 0.000000 1.669380 
# 
# From -- ./inp_files/26002.got.cif
#   From: 2010.03.12/outbox.cif.g09.slc.cpg/sg59_14_cif.got.tgz:26002.got - 2010.04.16 16:29:54.
