data_PCOD8240683
_publ_section_title
;
Structure prediction by ZEFSAII (Michael W. Deem and Ramdas Pophale) SiO2 
 PCOD8240683
Probable space group: P M M N
;
_chemical_formula_sum "Si O2"
_cell_formula_units_Z 48
_cell_length_a 9.110262
_cell_length_b 20.822096
_cell_length_c 14.029821
_cell_angle_alpha 90.000000
_cell_angle_beta 90.000000
_cell_angle_gamma 90.000000
_cell_volume 2661.383386
_symmetry_space_group_name_H-M "P M M N"
_symmetry_group_IT_number 59
_space_group.IT_coordinate_system_code '2'
_symmetry_cell_setting 'orthorhombic'
loop_
_space_group_symop_operation_xyz
x,y,z
1/2-x,1/2-y,z
1/2+x,-y,-z
-x,1/2+y,-z
-x,-y,-z
1/2+x,1/2+y,-z
1/2-x,y,z
x,1/2-y,z
loop_
_atom_site_type_symbol
_atom_site_label
_atom_site_fract_x
_atom_site_fract_y
_atom_site_fract_z
Si Si1 0.579816 0.935955 0.896367
Si Si2 0.421918 0.624380 0.281139
Si Si3 0.077297 0.750000 0.397657
Si Si4 0.423320 0.999728 0.399792
Si Si5 0.925912 0.750000 0.601326
Si Si6 0.578694 0.931113 0.110963
Si Si7 0.422154 0.125197 0.292479
O O1 0.750000 0.956235 0.885508
O O2 0.539370 0.880040 0.820330
O O3 0.486709 0.998613 0.871148
O O4 0.546446 0.909588 0.001972
O O5 0.250000 0.624113 0.259931
O O6 0.469864 0.688131 0.336820
O O7 0.471605 0.563687 0.343484
O O8 0.504380 0.621307 0.179711
O O9 0.250000 0.750000 0.420571
O O10 0.989152 0.750000 0.495604
O O11 0.250000 0.001506 0.414491
O O12 0.500000 0.000000 0.500000
O O13 0.483123 0.061535 0.343386
O O14 0.750000 0.750000 0.595318
O O15 0.989648 0.811324 0.659194
O O16 0.750000 0.933737 0.132871
O O17 0.250000 0.128870 0.307483
#
# Coordination Sequence:
#
# PCOD8240683 Si02
#       7
#     8   8   4   8   4   8   8
#     4   9  17  33  53  75 108 141 170 209 260 317
#     4  10  20  36  54  72 102 141 174 210 262 318
#     4  10  22  38  55  74 100 142 181 208 259 320
#     4  10  19  31  49  71  97 129 165 211 258 299
#     4  10  20  34  55  78 102 136 173 212 255 306
#     4  10  19  30  52  83 106 132 173 219 263 303
#     4   9  17  32  52  74 101 135 169 201 253 312
#
# _framework density 18.035734000000001
#
# number of rings (size 3 to 8) (size 9 to 14) (size 15 to 20)
#    0.000    2.333    1.667    1.500    0.000    2.000 
#    0.000    1.667    0.000    2.000    0.000    0.000 
#    0.000    0.000    0.000    0.000    0.000    0.000 
#
# Total GULP energy -595149.135520 kJ/mol
# GULP energy per Si atom -12398.940323 kJ/mol
# Density = 1.799468 g / cm^3
# Si number density = 18.035734 Si / 1000 Ang^3
#
#
#
# Elastic Constant Matrix: (Units=GPa)
#
#
# Indices 1 2 3 4 5 6 
#
# 1 39.9124 32.7482 48.2475 0.0000 0.0000 0.0000
# 2 32.7482 149.4616 88.5594 0.0000 0.0000 0.0000
# 3 48.2475 88.5594 170.4533 0.0000 0.0000 0.0000
# 4 0.0000 0.0000 0.0000 33.6442 0.0000 0.0000
# 5 0.0000 0.0000 0.0000 0.0000 31.6372 0.0000
# 6 0.0000 0.0000 0.0000 0.0000 0.0000 13.4447
#
#
#
# Elastic Compliance Matrix: (Units=1/GPa)
#
#
# Indices 1 2 3 4 5 6 
#
# 1 0.038933 -0.002891 -0.009518 0.000000 0.000000 0.000000
# 2 -0.002891 0.009881 -0.004316 0.000000 0.000000 0.000000
# 3 -0.009518 -0.004316 0.010803 0.000000 0.000000 0.000000
# 4 0.000000 0.000000 0.000000 0.029723 0.000000 0.000000
# 5 0.000000 0.000000 0.000000 0.000000 0.031608 0.000000
# 6 0.000000 0.000000 0.000000 0.000000 0.000000 0.074379
#
#
# Mechanical properties :
#
#
# Convention : Reuss Voigt Hill
#
# Bulk Modulus (GPa) = 38.21469 77.65970 57.93720
# Shear Modulus (GPa) = 21.05278 28.43004 24.74141
#
# Velocity S-wave (km/s) = 3.42026 3.97459 3.70780
# Velocity P-wave (km/s) = 6.06893 8.01346 7.10800
#
# Compressibility (1/GPa) = 0.02616795
#
# Stress axis : x y z
#
# Youngs Moduli (GPa) = 25.68540 101.20329 92.56683
#
# Poissons Ratio (x) = 0.29255 0.88107
# Poissons Ratio (y) = 0.07425 0.39947
# Poissons Ratio (z) = 0.24448 0.43675
#
# Static dielectric constant tensor:
#      x y z
#    x 3.143670 0.000000 0.000000 
#    y 0.000000 3.579490 0.000000 
#    z 0.000000 0.000000 3.536600 
# 
# 
# High freq. dielectric constant tensor:
#      x y z
#    x 1.677120 0.000000 0.000000 
#    y 0.000000 1.684860 0.000000 
#    z 0.000000 0.000000 1.715830 
# 
# From -- ./inp_files/20546.got.cif
#   From: 2010.03.12/outbox.cif.g09.slc.cpg/sg59_11_cif.got.tgz:20546.got - 2010.04.16 16:29:54.
