data_PCOD8240945
_publ_section_title
;
Structure prediction by ZEFSAII (Michael W. Deem and Ramdas Pophale) SiO2 
 PCOD8240945
Probable space group: P M M N
;
_chemical_formula_sum "Si O2"
_cell_formula_units_Z 48
_cell_length_a 8.817719
_cell_length_b 20.322711
_cell_length_c 14.927500
_cell_angle_alpha 90.000000
_cell_angle_beta 90.000000
_cell_angle_gamma 90.000000
_cell_volume 2675.007327
_symmetry_space_group_name_H-M "P M M N"
_symmetry_group_IT_number 59
_space_group.IT_coordinate_system_code '2'
_symmetry_cell_setting 'orthorhombic'
loop_
_space_group_symop_operation_xyz
x,y,z
1/2-x,1/2-y,z
1/2+x,-y,-z
-x,1/2+y,-z
-x,-y,-z
1/2+x,1/2+y,-z
1/2-x,y,z
x,1/2-y,z
loop_
_atom_site_type_symbol
_atom_site_label
_atom_site_fract_x
_atom_site_fract_y
_atom_site_fract_z
Si Si1 0.419579 0.492554 0.228671
Si Si2 0.069590 0.046591 0.425676
Si Si3 0.072718 0.447936 0.932339
Si Si4 0.921367 0.844784 0.811540
Si Si5 0.923068 0.322735 0.007833
Si Si6 0.426205 0.823135 0.623971
O O1 0.250000 0.522402 0.230364
O O2 0.480553 0.483490 0.329827
O O3 0.527167 0.539839 0.171124
O O4 0.419100 0.423052 0.178612
O O5 0.250000 0.050231 0.433680
O O6 0.004324 0.120662 0.437256
O O7 0.000000 0.000000 0.500000
O O8 0.250000 0.455030 0.943310
O O9 0.024954 0.373559 0.953218
O O10 0.000000 0.500000 0.000000
O O11 0.750000 0.817358 0.815977
O O12 0.995537 0.821470 0.719995
O O13 0.020758 0.815631 0.890744
O O14 0.750000 0.347803 0.007529
O O15 0.935874 0.250000 0.963700
O O16 0.250000 0.840849 0.634823
O O17 0.446387 0.750000 0.580569
#
# Coordination Sequence:
#
# PCOD8240945 Si02
#       6
#     8   8   8   8   8   8
#     4   9  19  35  54  79 108 141 180 222 268 321
#     4  10  21  37  59  84 112 143 180 226 277 332
#     4  12  23  35  55  79 107 144 185 228 269 320
#     4  10  19  31  50  76 108 144 179 219 268 324
#     4  11  23  36  51  73 105 145 186 229 276 326
#     4  10  20  33  51  77 111 147 181 220 269 327
#
# _framework density 17.943874999999998
#
# number of rings (size 3 to 8) (size 9 to 14) (size 15 to 20)
#    0.000    1.667    1.667    5.000    0.000    8.000 
#    0.000    0.000    0.000    1.000    0.000    7.000 
#    0.000    0.000    0.000    0.000    0.000    0.000 
#
# Total GULP energy -595162.650967 kJ/mol
# GULP energy per Si atom -12399.221895 kJ/mol
# Density = 1.790303 g / cm^3
# Si number density = 17.943875 Si / 1000 Ang^3
#
#
#
# Elastic Constant Matrix: (Units=GPa)
#
#
# Indices 1 2 3 4 5 6 
#
# 1 122.8169 48.6178 38.4618 0.0000 0.0000 0.0000
# 2 48.6178 113.9622 51.5557 0.0000 0.0000 0.0000
# 3 38.4618 51.5557 70.7657 0.0000 0.0000 0.0000
# 4 0.0000 0.0000 0.0000 9.4579 0.0000 0.0000
# 5 0.0000 0.0000 0.0000 0.0000 28.4717 0.0000
# 6 0.0000 0.0000 0.0000 0.0000 0.0000 28.3654
#
#
#
# Elastic Compliance Matrix: (Units=1/GPa)
#
#
# Indices 1 2 3 4 5 6 
#
# 1 0.010378 -0.002798 -0.003602 0.000000 0.000000 0.000000
# 2 -0.002798 0.013843 -0.008565 0.000000 0.000000 0.000000
# 3 -0.003602 -0.008565 0.022329 0.000000 0.000000 0.000000
# 4 0.000000 0.000000 0.000000 0.105732 0.000000 0.000000
# 5 0.000000 0.000000 0.000000 0.000000 0.035123 0.000000
# 6 0.000000 0.000000 0.000000 0.000000 0.000000 0.035254
#
#
# Mechanical properties :
#
#
# Convention : Reuss Voigt Hill
#
# Bulk Modulus (GPa) = 60.16698 64.97948 62.57323
# Shear Modulus (GPa) = 19.37034 24.51964 21.94499
#
# Velocity S-wave (km/s) = 3.28913 3.70058 3.50091
# Velocity P-wave (km/s) = 6.93022 7.38582 7.16164
#
# Compressibility (1/GPa) = 0.01662041
#
# Stress axis : x y z
#
# Youngs Moduli (GPa) = 96.36001 72.23907 44.78568
#
# Poissons Ratio (x) = 0.20210 0.16133
# Poissons Ratio (y) = 0.26959 0.38357
# Poissons Ratio (z) = 0.34710 0.61870
#
# Static dielectric constant tensor:
#      x y z
#    x 3.535790 0.000000 0.000000 
#    y 0.000000 3.448880 0.000000 
#    z 0.000000 0.000000 3.111120 
# 
# 
# High freq. dielectric constant tensor:
#      x y z
#    x 1.710960 0.000000 0.000000 
#    y 0.000000 1.696030 0.000000 
#    z 0.000000 0.000000 1.659810 
# 
# From -- ./inp_files/20753.got.cif
#   From: 2010.03.12/outbox.cif.g09.slc.cpg/sg59_11_cif.got.tgz:20753.got - 2010.04.16 16:29:54.
