data_PCOD8240709
_publ_section_title
;
Structure prediction by ZEFSAII (Michael W. Deem and Ramdas Pophale) SiO2 
 PCOD8240709
Probable space group: P M M N
;
_chemical_formula_sum "Si O2"
_cell_formula_units_Z 64
_cell_length_a 9.015156
_cell_length_b 24.105260
_cell_length_c 16.795948
_cell_angle_alpha 90.000000
_cell_angle_beta 90.000000
_cell_angle_gamma 90.000000
_cell_volume 3649.972462
_symmetry_space_group_name_H-M "P M M N"
_symmetry_group_IT_number 59
_space_group.IT_coordinate_system_code '2'
_symmetry_cell_setting 'orthorhombic'
loop_
_space_group_symop_operation_xyz
x,y,z
1/2-x,1/2-y,z
1/2+x,-y,-z
-x,1/2+y,-z
-x,-y,-z
1/2+x,1/2+y,-z
1/2-x,y,z
x,1/2-y,z
loop_
_atom_site_type_symbol
_atom_site_label
_atom_site_fract_x
_atom_site_fract_y
_atom_site_fract_z
Si Si1 0.089234 0.815283 0.090713
Si Si2 0.077042 0.903992 0.536627
Si Si3 0.574877 0.620081 0.779231
Si Si4 0.074884 0.525802 0.688689
Si Si5 0.423989 0.311972 0.375312
Si Si6 0.927271 0.313663 0.081885
Si Si7 0.573073 0.311844 0.738232
Si Si8 0.075149 0.582178 0.357549
O O1 0.250000 0.844914 0.091232
O O2 0.113953 0.750000 0.089390
O O3 0.006240 0.829862 0.174316
O O4 0.011202 0.830875 0.006662
O O5 0.250000 0.891748 0.539511
O O6 0.030020 0.949258 0.602371
O O7 0.028072 0.924460 0.449605
O O8 0.997010 0.845972 0.553278
O O9 0.750000 0.612137 0.788324
O O10 0.500893 0.560952 0.759130
O O11 0.532005 0.662693 0.709608
O O12 0.507456 0.644014 0.859697
O O13 0.250000 0.525628 0.701965
O O14 0.011691 0.463760 0.693159
O O15 0.250000 0.313280 0.388377
O O16 0.487714 0.250000 0.378172
O O17 0.750000 0.320471 0.086741
O O18 0.971479 0.250000 0.102162
O O19 0.750000 0.310099 0.746021
O O20 0.515785 0.250000 0.713521
O O21 0.523774 0.357099 0.673138
O O22 0.250000 0.573313 0.345755
#
# Coordination Sequence:
#
# PCOD8240709 Si02
#       8
#     8   8   8   8   8   8   8   8
#     4   7  11  22  41  66  95 124 151 179 216 266
#     4   9  19  32  46  67  92 120 156 196 234 272
#     4  10  19  31  47  67  93 123 157 197 235 271
#     4  10  20  34  49  65  90 124 159 193 234 281
#     4   9  18  31  45  63  91 126 157 185 225 276
#     4   9  16  26  44  71  99 125 154 186 221 268
#     4   8  14  26  46  72  99 123 147 180 225 275
#     4  10  19  31  50  74  94 115 151 196 235 271
#
# _framework density 17.534379000000001
#
# number of rings (size 3 to 8) (size 9 to 14) (size 15 to 20)
#    0.000    3.000    0.000    3.000    0.000    3.000 
#    0.000    1.250    0.000    1.875    0.000    1.750 
#    0.000    0.000    0.000    0.000    0.000    0.000 
#
# Total GULP energy -793105.240330 kJ/mol
# GULP energy per Si atom -12392.269380 kJ/mol
# Density = 1.749447 g / cm^3
# Si number density = 17.534379 Si / 1000 Ang^3
#
#
#
# Elastic Constant Matrix: (Units=GPa)
#
#
# Indices 1 2 3 4 5 6 
#
# 1 32.2810 25.3053 21.2391 0.0000 0.0000 0.0000
# 2 25.3053 100.3446 34.2815 0.0000 0.0000 0.0000
# 3 21.2391 34.2815 82.6182 0.0000 0.0000 0.0000
# 4 0.0000 0.0000 0.0000 20.7012 0.0000 0.0000
# 5 0.0000 0.0000 0.0000 0.0000 10.2028 0.0000
# 6 0.0000 0.0000 0.0000 0.0000 0.0000 25.9727
#
#
#
# Elastic Compliance Matrix: (Units=1/GPa)
#
#
# Indices 1 2 3 4 5 6 
#
# 1 0.042261 -0.008093 -0.007506 0.000000 0.000000 0.000000
# 2 -0.008093 0.013162 -0.003381 0.000000 0.000000 0.000000
# 3 -0.007506 -0.003381 0.015436 0.000000 0.000000 0.000000
# 4 0.000000 0.000000 0.000000 0.048306 0.000000 0.000000
# 5 0.000000 0.000000 0.000000 0.000000 0.098013 0.000000
# 6 0.000000 0.000000 0.000000 0.000000 0.000000 0.038502
#
#
# Mechanical properties :
#
#
# Convention : Reuss Voigt Hill
#
# Bulk Modulus (GPa) = 30.39615 41.87728 36.13671
# Shear Modulus (GPa) = 16.41467 20.33654 18.37560
#
# Velocity S-wave (km/s) = 3.06296 3.40929 3.24076
# Velocity P-wave (km/s) = 5.46642 6.27953 5.88703
#
# Compressibility (1/GPa) = 0.03289891
#
# Stress axis : x y z
#
# Youngs Moduli (GPa) = 23.66258 75.97864 64.78249
#
# Poissons Ratio (x) = 0.61491 0.48626
# Poissons Ratio (y) = 0.19150 0.21901
# Poissons Ratio (z) = 0.17761 0.25686
#
# Static dielectric constant tensor:
#      x y z
#    x 2.933820 0.000000 0.000000 
#    y 0.000000 3.200730 0.000000 
#    z 0.000000 0.000000 3.517800 
# 
# 
# High freq. dielectric constant tensor:
#      x y z
#    x 1.647890 0.000000 0.000000 
#    y 0.000000 1.661600 0.000000 
#    z 0.000000 0.000000 1.677350 
# 
# From -- ./inp_files/26335.got.cif
#   From: 2010.03.12/outbox.cif.g09.slc.cpg/sg59_14_cif.got.tgz:26335.got - 2010.04.16 16:29:54.
