data_PCOD8240064
_publ_section_title
;
Structure prediction by ZEFSAII (Michael W. Deem and Ramdas Pophale) SiO2 
 PCOD8240064
Probable space group: P M M N
;
_chemical_formula_sum "Si O2"
_cell_formula_units_Z 48
_cell_length_a 13.984709
_cell_length_b 14.442168
_cell_length_c 12.742473
_cell_angle_alpha 90.000000
_cell_angle_beta 90.000000
_cell_angle_gamma 90.000000
_cell_volume 2573.591115
_symmetry_space_group_name_H-M "P M M N"
_symmetry_group_IT_number 59
_space_group.IT_coordinate_system_code '2'
_symmetry_cell_setting 'orthorhombic'
loop_
_space_group_symop_operation_xyz
x,y,z
1/2-x,1/2-y,z
1/2+x,-y,-z
-x,1/2+y,-z
-x,-y,-z
1/2+x,1/2+y,-z
1/2-x,y,z
x,1/2-y,z
loop_
_atom_site_type_symbol
_atom_site_label
_atom_site_fract_x
_atom_site_fract_y
_atom_site_fract_z
Si Si1 0.143992 0.645687 0.588701
Si Si2 0.859429 0.642166 0.861734
Si Si3 0.503669 0.090803 0.569387
Si Si4 0.518937 0.465540 0.247743
Si Si5 0.642743 0.750000 0.425471
Si Si6 0.144319 0.250000 0.820633
Si Si7 0.861317 0.565043 0.086770
O O1 0.250000 0.604396 0.578471
O O2 0.145782 0.750000 0.630438
O O3 0.097692 0.643885 0.471823
O O4 0.089778 0.586021 0.674557
O O5 0.750000 0.635943 0.822643
O O6 0.885528 0.750000 0.885325
O O7 0.927390 0.599896 0.772164
O O8 0.874104 0.575803 0.962444
O O9 0.412765 0.156351 0.542791
O O10 0.500000 0.000000 0.500000
O O11 0.511227 0.061325 0.692269
O O12 0.574201 0.483837 0.137486
O O13 0.750000 0.750000 0.475404
O O14 0.650948 0.750000 0.302139
O O15 0.250000 0.250000 0.873340
O O16 0.094114 0.157566 0.861309
O O17 0.750000 0.548052 0.116607
#
# Coordination Sequence:
#
# PCOD8240064 Si02
#       7
#     8   8   8   8   4   4   8
#     4  10  21  38  57  74 104 146 187 227 279 343
#     4  10  21  37  55  77 112 154 189 228 280 343
#     4  10  22  36  55  82 116 145 185 237 291 341
#     4  11  21  34  56  85 111 141 184 238 284 338
#     4  11  20  36  61  88 115 148 189 242 290 340
#     4   9  16  28  52  82 107 136 174 218 271 320
#     4  10  18  32  55  84 113 141 179 225 276 330
#
# _framework density 18.650981999999999
#
# number of rings (size 3 to 8) (size 9 to 14) (size 15 to 20)
#    0.000    1.833    3.333    1.500    0.000    3.333 
#    0.000    2.500    0.000    0.000    0.000    0.000 
#    0.000    0.000    0.000    0.000    0.000    0.000 
#
# Total GULP energy -594796.350783 kJ/mol
# GULP energy per Si atom -12391.590641 kJ/mol
# Density = 1.860853 g / cm^3
# Si number density = 18.650982 Si / 1000 Ang^3
#
#
#
# Elastic Constant Matrix: (Units=GPa)
#
#
# Indices 1 2 3 4 5 6 
#
# 1 134.4876 51.1263 53.8622 0.0000 0.0000 0.0000
# 2 51.1263 81.5916 26.3918 0.0000 0.0000 0.0000
# 3 53.8622 26.3918 63.2944 0.0000 0.0000 0.0000
# 4 0.0000 0.0000 0.0000 25.6887 0.0000 0.0000
# 5 0.0000 0.0000 0.0000 0.0000 31.4999 0.0000
# 6 0.0000 0.0000 0.0000 0.0000 0.0000 29.3276
#
#
#
# Elastic Compliance Matrix: (Units=1/GPa)
#
#
# Indices 1 2 3 4 5 6 
#
# 1 0.012985 -0.005274 -0.008851 0.000000 0.000000 0.000000
# 2 -0.005274 0.016309 -0.002312 0.000000 0.000000 0.000000
# 3 -0.008851 -0.002312 0.024296 0.000000 0.000000 0.000000
# 4 0.000000 0.000000 0.000000 0.038928 0.000000 0.000000
# 5 0.000000 0.000000 0.000000 0.000000 0.031746 0.000000
# 6 0.000000 0.000000 0.000000 0.000000 0.000000 0.034098
#
#
# Mechanical properties :
#
#
# Convention : Reuss Voigt Hill
#
# Bulk Modulus (GPa) = 48.27441 60.23714 54.25577
# Shear Modulus (GPa) = 25.23454 27.16946 26.20200
#
# Velocity S-wave (km/s) = 3.68229 3.82086 3.75221
# Velocity P-wave (km/s) = 6.63462 7.19947 6.92281
#
# Compressibility (1/GPa) = 0.02071491
#
# Stress axis : x y z
#
# Youngs Moduli (GPa) = 77.00920 61.31680 41.15952
#
# Poissons Ratio (x) = 0.32337 0.36432
# Poissons Ratio (y) = 0.40613 0.09518
# Poissons Ratio (z) = 0.68164 0.14179
#
# Static dielectric constant tensor:
#      x y z
#    x 3.659250 0.000000 0.000000 
#    y 0.000000 3.301840 0.000000 
#    z 0.000000 0.000000 3.473100 
# 
# 
# High freq. dielectric constant tensor:
#      x y z
#    x 1.713890 0.000000 0.000000 
#    y 0.000000 1.725280 0.000000 
#    z 0.000000 0.000000 1.714350 
# 
# From -- ./inp_files/16878.got.cif
#   From: 2010.03.12/outbox.cif.g09.slc.cpg/sg59_9_cif.got.tgz:16878.got - 2010.04.16 16:29:54.
