data_PCOD8240054
_publ_section_title
;
Structure prediction by ZEFSAII (Michael W. Deem and Ramdas Pophale) SiO2 
 PCOD8240054
Probable space group: P M M N
;
_chemical_formula_sum "Si O2"
_cell_formula_units_Z 64
_cell_length_a 8.650210
_cell_length_b 18.051701
_cell_length_c 21.730303
_cell_angle_alpha 90.000000
_cell_angle_beta 90.000000
_cell_angle_gamma 90.000000
_cell_volume 3393.208642
_symmetry_space_group_name_H-M "P M M N"
_symmetry_group_IT_number 59
_space_group.IT_coordinate_system_code '2'
_symmetry_cell_setting 'orthorhombic'
loop_
_space_group_symop_operation_xyz
x,y,z
1/2-x,1/2-y,z
1/2+x,-y,-z
-x,1/2+y,-z
-x,-y,-z
1/2+x,1/2+y,-z
1/2-x,y,z
x,1/2-y,z
loop_
_atom_site_type_symbol
_atom_site_label
_atom_site_fract_x
_atom_site_fract_y
_atom_site_fract_z
Si Si1 0.928144 0.925313 0.117037
Si Si2 0.430088 0.834953 0.011235
Si Si3 0.566471 0.667160 0.774804
Si Si4 0.568222 0.916530 0.896035
Si Si5 0.931149 0.669319 0.372331
Si Si6 0.432057 0.477803 0.564764
Si Si7 0.927011 0.582994 0.255602
Si Si8 0.070206 0.450243 0.320955
O O1 0.750000 0.947580 0.106686
O O2 0.955091 0.892914 0.185511
O O3 0.975652 0.860791 0.070788
O O4 0.034220 0.996622 0.106582
O O5 0.250000 0.845867 0.024507
O O6 0.472794 0.750000 0.998055
O O7 0.477320 0.882830 0.952908
O O8 0.750000 0.669447 0.778533
O O9 0.496448 0.750000 0.774093
O O10 0.504550 0.623158 0.834420
O O11 0.516018 0.625886 0.711916
O O12 0.750000 0.903812 0.905294
O O13 0.750000 0.673854 0.384274
O O14 0.005836 0.750000 0.388055
O O15 0.998998 0.603071 0.414909
O O16 0.965362 0.651672 0.300589
O O17 0.500000 0.500000 0.500000
O O18 0.250000 0.475045 0.559425
O O19 0.477264 0.538777 0.615756
O O20 0.750000 0.556979 0.266727
O O21 0.038507 0.515118 0.272069
O O22 0.250000 0.448414 0.337415
#
# Coordination Sequence:
#
# PCOD8240054 Si02
#       8
#     8   8   8   8   8   8   8   8
#     4  11  22  36  57  83 111 144 184 228 277 337
#     4  11  25  42  56  75 107 144 184 234 290 343
#     4   9  18  32  53  82 110 139 179 226 274 325
#     4  11  21  37  60  82 107 142 186 234 280 333
#     4   8  15  30  53  80 107 136 175 221 264 307
#     4  10  20  35  56  81 109 145 185 224 267 319
#     4   9  18  32  53  80 109 140 175 219 265 320
#     4  10  18  32  55  80 109 142 176 219 266 320
#
# _framework density 18.861205000000002
#
# number of rings (size 3 to 8) (size 9 to 14) (size 15 to 20)
#    0.000    2.125    1.250    3.375    0.000    2.500 
#    0.000    1.875    0.000   16.875    0.000    0.000 
#    0.000    0.000    0.000    0.000    0.000    0.000 
#
# Total GULP energy -793533.464868 kJ/mol
# GULP energy per Si atom -12398.960389 kJ/mol
# Density = 1.881828 g / cm^3
# Si number density = 18.861205 Si / 1000 Ang^3
#
#
#
# Elastic Constant Matrix: (Units=GPa)
#
#
# Indices 1 2 3 4 5 6 
#
# 1 37.2329 18.2334 26.8980 0.0000 0.0000 0.0000
# 2 18.2334 94.0450 50.9660 0.0000 0.0000 0.0000
# 3 26.8980 50.9660 145.9937 0.0000 0.0000 0.0000
# 4 0.0000 0.0000 0.0000 22.8847 0.0000 0.0000
# 5 0.0000 0.0000 0.0000 0.0000 28.4163 0.0000
# 6 0.0000 0.0000 0.0000 0.0000 0.0000 21.4137
#
#
#
# Elastic Compliance Matrix: (Units=1/GPa)
#
#
# Indices 1 2 3 4 5 6 
#
# 1 0.031998 -0.003711 -0.004600 0.000000 0.000000 0.000000
# 2 -0.003711 0.013545 -0.004045 0.000000 0.000000 0.000000
# 3 -0.004600 -0.004045 0.009109 0.000000 0.000000 0.000000
# 4 0.000000 0.000000 0.000000 0.043697 0.000000 0.000000
# 5 0.000000 0.000000 0.000000 0.000000 0.035191 0.000000
# 6 0.000000 0.000000 0.000000 0.000000 0.000000 0.046699
#
#
# Mechanical properties :
#
#
# Convention : Reuss Voigt Hill
#
# Bulk Modulus (GPa) = 33.39908 52.16293 42.78100
# Shear Modulus (GPa) = 23.26326 26.62121 24.94223
#
# Velocity S-wave (km/s) = 3.51578 3.76097 3.64044
# Velocity P-wave (km/s) = 5.85040 6.82467 6.35623
#
# Compressibility (1/GPa) = 0.02994095
#
# Stress axis : x y z
#
# Youngs Moduli (GPa) = 31.25156 73.82999 109.78056
#
# Poissons Ratio (x) = 0.27398 0.50498
# Poissons Ratio (y) = 0.11597 0.44403
# Poissons Ratio (z) = 0.14375 0.29862
#
# Static dielectric constant tensor:
#      x y z
#    x 3.291110 0.000000 0.000000 
#    y 0.000000 3.789100 0.000000 
#    z 0.000000 0.000000 3.577160 
# 
# 
# High freq. dielectric constant tensor:
#      x y z
#    x 1.716520 0.000000 0.000000 
#    y 0.000000 1.728010 0.000000 
#    z 0.000000 0.000000 1.735780 
# 
# From -- ./inp_files/29436.got.cif
#   From: 2010.03.12/outbox.cif.g09.slc.cpg/sg59_15_cif.got.tgz:29436.got - 2010.04.16 16:29:54.
