data_PCOD8240519
_publ_section_title
;
Structure prediction by ZEFSAII (Michael W. Deem and Ramdas Pophale) SiO2 
 PCOD8240519
Probable space group: P M M N
;
_chemical_formula_sum "Si O2"
_cell_formula_units_Z 64
_cell_length_a 9.191184
_cell_length_b 18.106016
_cell_length_c 22.758116
_cell_angle_alpha 90.000000
_cell_angle_beta 90.000000
_cell_angle_gamma 90.000000
_cell_volume 3787.308364
_symmetry_space_group_name_H-M "P M M N"
_symmetry_group_IT_number 59
_space_group.IT_coordinate_system_code '2'
_symmetry_cell_setting 'orthorhombic'
loop_
_space_group_symop_operation_xyz
x,y,z
1/2-x,1/2-y,z
1/2+x,-y,-z
-x,1/2+y,-z
-x,-y,-z
1/2+x,1/2+y,-z
1/2-x,y,z
x,1/2-y,z
loop_
_atom_site_type_symbol
_atom_site_label
_atom_site_fract_x
_atom_site_fract_y
_atom_site_fract_z
Si Si1 0.584013 0.107628 0.465428
Si Si2 0.085037 0.530726 0.424805
Si Si3 0.078569 0.021675 0.813733
Si Si4 0.086776 0.609110 0.017626
Si Si5 0.916347 0.979235 0.698460
Si Si6 0.913868 0.953553 0.917867
Si Si7 0.916348 0.831767 0.121762
Si Si8 0.918462 0.669078 0.634982
O O1 0.750000 0.122674 0.448752
O O2 0.561375 0.106557 0.537111
O O3 0.491543 0.167736 0.429773
O O4 0.537440 0.026670 0.444105
O O5 0.250000 0.501338 0.438288
O O6 0.070647 0.539478 0.354351
O O7 0.250000 0.007772 0.816599
O O8 0.037334 0.106088 0.831046
O O9 0.022231 0.007404 0.748691
O O10 0.001020 0.964257 0.857400
O O11 0.250000 0.636685 0.004230
O O12 0.089984 0.528680 0.045964
O O13 0.011744 0.664887 0.062911
O O14 0.996484 0.607923 0.956816
O O15 0.750000 0.974812 0.721432
O O16 0.971246 0.897681 0.677062
O O17 0.750000 0.926469 0.903941
O O18 0.750000 0.845695 0.102764
O O19 0.937050 0.750000 0.149723
O O20 0.750000 0.657381 0.623205
O O21 0.950985 0.750000 0.663272
#
# Coordination Sequence:
#
# PCOD8240519 Si02
#       8
#     8   8   8   8   8   8   8   8
#     4   9  15  24  42  67  90 112 142 182 226 269
#     4   8  15  27  42  62  89 118 145 178 223 273
#     4  10  19  30  46  69  94 121 158 202 239 271
#     4   9  16  26  43  68  93 114 141 181 225 266
#     4   9  17  30  47  66  90 122 159 195 231 277
#     4   9  16  27  44  65  90 119 147 178 221 272
#     4   9  18  32  48  66  91 123 155 188 232 286
#     4   9  18  32  48  66  91 123 155 189 235 290
#
# _framework density 16.898544999999999
#
# number of rings (size 3 to 8) (size 9 to 14) (size 15 to 20)
#    0.000    3.000    0.000    2.250    0.000    6.500 
#    0.000    0.000    0.000    1.500    0.000    5.250 
#    0.000    0.000    0.000    0.000    0.000    0.000 
#
# Total GULP energy -792918.294464 kJ/mol
# GULP energy per Si atom -12389.348351 kJ/mol
# Density = 1.686008 g / cm^3
# Si number density = 16.898545 Si / 1000 Ang^3
#
#
#
# Elastic Constant Matrix: (Units=GPa)
#
#
# Indices 1 2 3 4 5 6 
#
# 1 86.5521 28.2803 53.0730 0.0000 0.0000 0.0000
# 2 28.2803 62.7766 40.1163 0.0000 0.0000 0.0000
# 3 53.0730 40.1163 111.9679 0.0000 0.0000 0.0000
# 4 0.0000 0.0000 0.0000 16.6027 0.0000 0.0000
# 5 0.0000 0.0000 0.0000 0.0000 32.0778 0.0000
# 6 0.0000 0.0000 0.0000 0.0000 0.0000 17.0953
#
#
#
# Elastic Compliance Matrix: (Units=1/GPa)
#
#
# Indices 1 2 3 4 5 6 
#
# 1 0.016772 -0.003210 -0.006800 0.000000 0.000000 0.000000
# 2 -0.003210 0.021274 -0.006100 0.000000 0.000000 0.000000
# 3 -0.006800 -0.006100 0.014340 0.000000 0.000000 0.000000
# 4 0.000000 0.000000 0.000000 0.060231 0.000000 0.000000
# 5 0.000000 0.000000 0.000000 0.000000 0.031174 0.000000
# 6 0.000000 0.000000 0.000000 0.000000 0.000000 0.058496
#
#
# Mechanical properties :
#
#
# Convention : Reuss Voigt Hill
#
# Bulk Modulus (GPa) = 49.59093 56.02620 52.80857
# Shear Modulus (GPa) = 20.72703 22.47694 21.60199
#
# Velocity S-wave (km/s) = 3.50602 3.65103 3.57926
# Velocity P-wave (km/s) = 6.76754 7.14141 6.95699
#
# Compressibility (1/GPa) = 0.02016498
#
# Stress axis : x y z
#
# Youngs Moduli (GPa) = 59.62188 47.00537 69.73509
#
# Poissons Ratio (x) = 0.15091 0.47419
# Poissons Ratio (y) = 0.19141 0.42541
# Poissons Ratio (z) = 0.40542 0.28675
#
# Static dielectric constant tensor:
#      x y z
#    x 3.296160 0.000000 0.000000 
#    y 0.000000 2.991450 0.000000 
#    z 0.000000 0.000000 3.161370 
# 
# 
# High freq. dielectric constant tensor:
#      x y z
#    x 1.662840 0.000000 0.000000 
#    y 0.000000 1.608710 0.000000 
#    z 0.000000 0.000000 1.637790 
# 
# From -- ./inp_files/29804.got.cif
#   From: 2010.03.12/outbox.cif.g09.slc.cpg/sg59_15_cif.got.tgz:29804.got - 2010.04.16 16:29:54.
