data_PCOD8240651
_publ_section_title
;
Structure prediction by ZEFSAII (Michael W. Deem and Ramdas Pophale) SiO2 
 PCOD8240651
Probable space group: P M M N
;
_chemical_formula_sum "Si O2"
_cell_formula_units_Z 48
_cell_length_a 23.316166
_cell_length_b 9.151080
_cell_length_c 12.760104
_cell_angle_alpha 90.000000
_cell_angle_beta 90.000000
_cell_angle_gamma 90.000000
_cell_volume 2722.599151
_symmetry_space_group_name_H-M "P M M N"
_symmetry_group_IT_number 59
_space_group.IT_coordinate_system_code '2'
_symmetry_cell_setting 'orthorhombic'
loop_
_space_group_symop_operation_xyz
x,y,z
1/2-x,1/2-y,z
1/2+x,-y,-z
-x,1/2+y,-z
-x,-y,-z
1/2+x,1/2+y,-z
1/2-x,y,z
x,1/2-y,z
loop_
_atom_site_type_symbol
_atom_site_label
_atom_site_fract_x
_atom_site_fract_y
_atom_site_fract_z
Si Si1 0.006343 0.578793 0.109763
Si Si2 0.684018 0.582022 0.993442
Si Si3 0.113773 0.422456 0.808902
Si Si4 0.629018 0.077442 0.805705
Si Si5 0.813791 0.576173 0.382004
Si Si6 0.683168 0.580405 0.616928
O O1 0.005944 0.750000 0.086110
O O2 0.064159 0.529555 0.167498
O O3 0.953125 0.534617 0.184809
O O4 0.000000 0.500000 0.000000
O O5 0.750000 0.567166 0.025907
O O6 0.667744 0.750000 0.969649
O O7 0.646428 0.516572 0.088558
O O8 0.672493 0.489094 0.889898
O O9 0.122895 0.250000 0.806745
O O10 0.141441 0.489406 0.702865
O O11 0.636430 0.250000 0.805259
O O12 0.643824 0.016153 0.691847
O O13 0.750000 0.517187 0.355422
O O14 0.812709 0.750000 0.378351
O O15 0.831785 0.528119 0.498949
O O16 0.750000 0.553149 0.641224
O O17 0.668065 0.750000 0.633558
#
# Coordination Sequence:
#
# PCOD8240651 Si02
#       6
#     8   8   8   8   8   8
#     4  10  20  34  51  71  97 134 171 201 241 294
#     4  10  19  30  49  76 100 124 160 205 250 297
#     4   9  16  29  50  74  99 125 158 205 253 291
#     4  11  22  33  47  70 101 135 168 200 240 293
#     4   8  14  27  50  78 101 121 155 206 256 295
#     4   9  18  33  53  75  98 127 164 204 246 294
#
# _framework density 17.630212
#
# number of rings (size 3 to 8) (size 9 to 14) (size 15 to 20)
#    0.000    2.500    1.667    2.500    0.000    5.333 
#    0.000    0.833    0.000    2.000    0.000    2.333 
#    0.000    0.000    0.000    0.000    0.000    0.000 
#
# Total GULP energy -595148.568227 kJ/mol
# GULP energy per Si atom -12398.928505 kJ/mol
# Density = 1.759008 g / cm^3
# Si number density = 17.630212 Si / 1000 Ang^3
#
#
#
# Elastic Constant Matrix: (Units=GPa)
#
#
# Indices 1 2 3 4 5 6 
#
# 1 101.7154 30.5990 59.8268 0.0000 0.0000 0.0000
# 2 30.5990 38.0743 33.1191 0.0000 0.0000 0.0000
# 3 59.8268 33.1191 133.7010 0.0000 0.0000 0.0000
# 4 0.0000 0.0000 0.0000 15.2061 0.0000 0.0000
# 5 0.0000 0.0000 0.0000 0.0000 30.7725 0.0000
# 6 0.0000 0.0000 0.0000 0.0000 0.0000 20.2916
#
#
#
# Elastic Compliance Matrix: (Units=1/GPa)
#
#
# Indices 1 2 3 4 5 6 
#
# 1 0.015013 -0.007931 -0.004753 0.000000 0.000000 0.000000
# 2 -0.007931 0.037667 -0.005782 0.000000 0.000000 0.000000
# 3 -0.004753 -0.005782 0.011039 0.000000 0.000000 0.000000
# 4 0.000000 0.000000 0.000000 0.065763 0.000000 0.000000
# 5 0.000000 0.000000 0.000000 0.000000 0.032497 0.000000
# 6 0.000000 0.000000 0.000000 0.000000 0.000000 0.049282
#
#
# Mechanical properties :
#
#
# Convention : Reuss Voigt Hill
#
# Bulk Modulus (GPa) = 37.33127 57.84228 47.58677
# Shear Modulus (GPa) = 19.44612 23.25044 21.34828
#
# Velocity S-wave (km/s) = 3.32475 3.63545 3.48356
# Velocity P-wave (km/s) = 5.99660 7.10646 6.57499
#
# Compressibility (1/GPa) = 0.02678720
#
# Stress axis : x y z
#
# Youngs Moduli (GPa) = 66.60933 26.54810 90.59180
#
# Poissons Ratio (x) = 0.21055 0.43061
# Poissons Ratio (y) = 0.52826 0.52379
# Poissons Ratio (z) = 0.31661 0.15350
#
# Static dielectric constant tensor:
#      x y z
#    x 3.507270 0.000000 0.000000 
#    y 0.000000 2.918020 0.000000 
#    z 0.000000 0.000000 3.467350 
# 
# 
# High freq. dielectric constant tensor:
#      x y z
#    x 1.684650 0.000000 0.000000 
#    y 0.000000 1.642850 0.000000 
#    z 0.000000 0.000000 1.685980 
# 
# From -- ./inp_files/14340.got.cif
#   From: 2010.03.12/outbox.cif.g09.slc.cpg/sg59_8_cif.got.tgz:14340.got - 2010.04.16 16:29:54.
