data_PCOD8240656
_publ_section_title
;
Structure prediction by ZEFSAII (Michael W. Deem and Ramdas Pophale) SiO2 
 PCOD8240656
Probable space group: P M M N
;
_chemical_formula_sum "Si O2"
_cell_formula_units_Z 64
_cell_length_a 9.326922
_cell_length_b 27.477504
_cell_length_c 12.137369
_cell_angle_alpha 90.000000
_cell_angle_beta 90.000000
_cell_angle_gamma 90.000000
_cell_volume 3110.571440
_symmetry_space_group_name_H-M "P M M N"
_symmetry_group_IT_number 59
_space_group.IT_coordinate_system_code '2'
_symmetry_cell_setting 'orthorhombic'
loop_
_space_group_symop_operation_xyz
x,y,z
1/2-x,1/2-y,z
1/2+x,-y,-z
-x,1/2+y,-z
-x,-y,-z
1/2+x,1/2+y,-z
1/2-x,y,z
x,1/2-y,z
loop_
_atom_site_type_symbol
_atom_site_label
_atom_site_fract_x
_atom_site_fract_y
_atom_site_fract_z
Si Si1 0.911537 0.851272 0.709931
Si Si2 0.416579 0.407320 0.001161
Si Si3 0.418871 0.560199 0.800421
Si Si4 0.907135 0.304982 0.464305
Si Si5 0.585844 0.896922 0.242104
Si Si6 0.080984 0.015624 0.611731
Si Si7 0.585598 0.303599 0.721569
Si Si8 0.412301 0.197271 0.068742
O O1 0.750000 0.872192 0.698231
O O2 0.917223 0.807968 0.798692
O O3 0.024716 0.891299 0.745146
O O4 0.962937 0.833297 0.591454
O O5 0.250000 0.407266 0.039467
O O6 0.432219 0.425290 0.874901
O O7 0.502994 0.444631 0.080251
O O8 0.479639 0.351605 0.013712
O O9 0.250000 0.562323 0.821470
O O10 0.460019 0.517820 0.715290
O O11 0.750000 0.327872 0.437233
O O12 0.907836 0.250000 0.421924
O O13 0.936812 0.307379 0.592421
O O14 0.750000 0.883393 0.261459
O O15 0.503310 0.846680 0.224718
O O16 0.533817 0.930461 0.345038
O O17 0.250000 0.013228 0.586658
O O18 0.000000 0.000000 0.500000
O O19 0.750000 0.310711 0.754902
O O20 0.532884 0.250000 0.762140
O O21 0.250000 0.200539 0.026753
O O22 0.487366 0.250000 0.039205
#
# Coordination Sequence:
#
# PCOD8240656 Si02
#       8
#     8   8   8   8   8   8   8   8
#     4  10  19  30  49  77 110 149 191 240 292 341
#     4   9  19  36  58  85 116 150 192 245 301 351
#     4  10  21  38  58  82 115 153 194 240 292 352
#     4   9  18  32  49  72 107 150 193 238 289 346
#     4  10  22  40  61  88 120 152 195 251 299 346
#     4  10  24  43  62  88 120 154 195 246 301 356
#     4   9  20  38  57  81 117 159 199 237 285 350
#     4   8  14  26  45  72 106 142 180 222 274 336
#
# _framework density 20.574997
#
# number of rings (size 3 to 8) (size 9 to 14) (size 15 to 20)
#    0.000    2.625    0.000    2.625    1.750    4.500 
#    0.000    2.500    0.000    3.375    0.000    0.000 
#    0.000    0.000    0.000    0.000    0.000    0.000 
#
# Total GULP energy -792903.563681 kJ/mol
# GULP energy per Si atom -12389.118183 kJ/mol
# Density = 2.052817 g / cm^3
# Si number density = 20.574997 Si / 1000 Ang^3
#
#
#
# Elastic Constant Matrix: (Units=GPa)
#
#
# Indices 1 2 3 4 5 6 
#
# 1 66.4784 33.1536 54.5460 0.0000 0.0000 0.0000
# 2 33.1536 75.5505 45.4546 0.0000 0.0000 0.0000
# 3 54.5460 45.4546 91.2697 0.0000 0.0000 0.0000
# 4 0.0000 0.0000 0.0000 17.1636 0.0000 0.0000
# 5 0.0000 0.0000 0.0000 0.0000 33.3917 0.0000
# 6 0.0000 0.0000 0.0000 0.0000 0.0000 26.9097
#
#
#
# Elastic Compliance Matrix: (Units=1/GPa)
#
#
# Indices 1 2 3 4 5 6 
#
# 1 0.030119 -0.003409 -0.016302 0.000000 0.000000 0.000000
# 2 -0.003409 0.019285 -0.007567 0.000000 0.000000 0.000000
# 3 -0.016302 -0.007567 0.024468 0.000000 0.000000 0.000000
# 4 0.000000 0.000000 0.000000 0.058263 0.000000 0.000000
# 5 0.000000 0.000000 0.000000 0.000000 0.029948 0.000000
# 6 0.000000 0.000000 0.000000 0.000000 0.000000 0.037161
#
#
# Mechanical properties :
#
#
# Convention : Reuss Voigt Hill
#
# Bulk Modulus (GPa) = 51.77302 55.51188 53.64245
# Shear Modulus (GPa) = 19.21320 22.16929 20.69125
#
# Velocity S-wave (km/s) = 3.05915 3.28607 3.17464
# Velocity P-wave (km/s) = 6.13967 6.43712 6.29015
#
# Compressibility (1/GPa) = 0.01931508
#
# Stress axis : x y z
#
# Youngs Moduli (GPa) = 33.20203 51.85451 40.86968
#
# Poissons Ratio (x) = 0.17675 0.66627
# Poissons Ratio (y) = 0.11317 0.30927
# Poissons Ratio (z) = 0.54127 0.39239
#
# Static dielectric constant tensor:
#      x y z
#    x 3.598050 0.000000 0.000000 
#    y 0.000000 3.842600 0.000000 
#    z 0.000000 0.000000 3.720900 
# 
# 
# High freq. dielectric constant tensor:
#      x y z
#    x 1.782230 0.000000 0.000000 
#    y 0.000000 1.798800 0.000000 
#    z 0.000000 0.000000 1.807020 
# 
# From -- ./inp_files/14970.got.cif
#   From: 2010.03.12/outbox.cif.g09.slc.cpg/sg59_8_cif.got.tgz:14970.got - 2010.04.16 16:29:54.
