data_PCOD8240226
_publ_section_title
;
Structure prediction by ZEFSAII (Michael W. Deem and Ramdas Pophale) SiO2 
 PCOD8240226
Probable space group: P M M N
;
_chemical_formula_sum "Si O2"
_cell_formula_units_Z 64
_cell_length_a 14.570463
_cell_length_b 17.967425
_cell_length_c 11.962711
_cell_angle_alpha 90.000000
_cell_angle_beta 90.000000
_cell_angle_gamma 90.000000
_cell_volume 3131.762389
_symmetry_space_group_name_H-M "P M M N"
_symmetry_group_IT_number 59
_space_group.IT_coordinate_system_code '2'
_symmetry_cell_setting 'orthorhombic'
loop_
_space_group_symop_operation_xyz
x,y,z
1/2-x,1/2-y,z
1/2+x,-y,-z
-x,1/2+y,-z
-x,-y,-z
1/2+x,1/2+y,-z
1/2-x,y,z
x,1/2-y,z
loop_
_atom_site_type_symbol
_atom_site_label
_atom_site_fract_x
_atom_site_fract_y
_atom_site_fract_z
Si Si1 0.153935 0.085647 0.472732
Si Si2 0.646029 0.121615 0.362386
Si Si3 0.017251 0.424387 0.929661
Si Si4 0.609992 0.071693 0.599203
Si Si5 0.583387 0.538088 0.313361
Si Si6 0.354349 0.837540 0.176650
Si Si7 0.644272 0.838258 0.909223
Si Si8 0.959858 0.668085 0.694921
O O1 0.250000 0.126672 0.441769
O O2 0.144153 0.092248 0.608145
O O3 0.067128 0.123380 0.415290
O O4 0.169490 0.000600 0.431376
O O5 0.750000 0.150527 0.341097
O O6 0.620320 0.126763 0.493504
O O7 0.570757 0.170903 0.295405
O O8 0.634392 0.040206 0.310872
O O9 0.066407 0.437276 0.811898
O O10 0.922091 0.378911 0.911426
O O11 0.093045 0.373399 0.986626
O O12 0.000000 0.500000 0.000000
O O13 0.510980 0.035226 0.617911
O O14 0.642063 0.119596 0.705393
O O15 0.250000 0.843443 0.130765
O O16 0.382045 0.750000 0.190317
O O17 0.750000 0.864930 0.904089
O O18 0.637300 0.750000 0.919428
O O19 0.589291 0.869712 0.801514
O O20 0.919203 0.750000 0.684920
#
# Coordination Sequence:
#
# PCOD8240226 Si02
#       8
#     8   8   8   8   8   8   8   8
#     4  11  20  35  61  88 120 160 200 253 317 376
#     4  11  20  35  58  88 127 165 200 244 303 372
#     4  11  24  40  64  93 123 162 213 262 312 366
#     4  10  18  35  60  89 123 164 203 241 299 367
#     4  10  19  37  59  87 125 159 198 257 315 360
#     4  10  22  40  62  93 131 165 202 253 313 373
#     4  10  23  44  66  85 113 160 213 265 315 363
#     4  11  23  40  59  86 123 160 205 260 312 375
#
# _framework density 20.435777000000002
#
# number of rings (size 3 to 8) (size 9 to 14) (size 15 to 20)
#    0.000    1.500    2.500    4.500    1.750    3.000 
#    0.000    2.500    0.000    0.750    0.000    0.000 
#    0.000    0.000    0.000    0.000    0.000    0.000 
#
# Total GULP energy -792893.936823 kJ/mol
# GULP energy per Si atom -12388.967763 kJ/mol
# Density = 2.038926 g / cm^3
# Si number density = 20.435777 Si / 1000 Ang^3
#
#
#
# Elastic Constant Matrix: (Units=GPa)
#
#
# Indices 1 2 3 4 5 6 
#
# 1 160.0385 34.9446 60.9999 0.0000 0.0000 0.0000
# 2 34.9446 65.2270 46.9802 0.0000 0.0000 0.0000
# 3 60.9999 46.9802 124.6130 0.0000 0.0000 0.0000
# 4 0.0000 0.0000 0.0000 20.5821 0.0000 0.0000
# 5 0.0000 0.0000 0.0000 0.0000 22.3216 0.0000
# 6 0.0000 0.0000 0.0000 0.0000 0.0000 26.0234
#
#
#
# Elastic Compliance Matrix: (Units=1/GPa)
#
#
# Indices 1 2 3 4 5 6 
#
# 1 0.007863 -0.001977 -0.003104 0.000000 0.000000 0.000000
# 2 -0.001977 0.021543 -0.007154 0.000000 0.000000 0.000000
# 3 -0.003104 -0.007154 0.012241 0.000000 0.000000 0.000000
# 4 0.000000 0.000000 0.000000 0.048586 0.000000 0.000000
# 5 0.000000 0.000000 0.000000 0.000000 0.044800 0.000000
# 6 0.000000 0.000000 0.000000 0.000000 0.000000 0.038427
#
#
# Mechanical properties :
#
#
# Convention : Reuss Voigt Hill
#
# Bulk Modulus (GPa) = 58.21513 70.63641 64.42577
# Shear Modulus (GPa) = 24.55121 27.58235 26.06678
#
# Velocity S-wave (km/s) = 3.46986 3.67782 3.57535
# Velocity P-wave (km/s) = 6.67847 7.25778 6.97414
#
# Compressibility (1/GPa) = 0.01717767
#
# Stress axis : x y z
#
# Youngs Moduli (GPa) = 127.17426 46.41867 81.69035
#
# Poissons Ratio (x) = 0.09177 0.25355
# Poissons Ratio (y) = 0.25144 0.58442
# Poissons Ratio (z) = 0.39472 0.33208
#
# Static dielectric constant tensor:
#      x y z
#    x 3.949420 0.000000 0.000000 
#    y 0.000000 3.494740 0.000000 
#    z 0.000000 0.000000 3.701970 
# 
# 
# High freq. dielectric constant tensor:
#      x y z
#    x 1.817230 0.000000 0.000000 
#    y 0.000000 1.779910 0.000000 
#    z 0.000000 0.000000 1.790020 
# 
# From -- ./inp_files/17264.got.cif
#   From: 2010.03.12/outbox.cif.g09.slc.cpg/sg59_9_cif.got.tgz:17264.got - 2010.04.16 16:29:54.
