data_PCOD8240222
_publ_section_title
;
Structure prediction by ZEFSAII (Michael W. Deem and Ramdas Pophale) SiO2 
 PCOD8240222
Probable space group: P M M N
;
_chemical_formula_sum "Si O2"
_cell_formula_units_Z 48
_cell_length_a 12.112217
_cell_length_b 16.211872
_cell_length_c 13.588252
_cell_angle_alpha 90.000000
_cell_angle_beta 90.000000
_cell_angle_gamma 90.000000
_cell_volume 2668.212421
_symmetry_space_group_name_H-M "P M M N"
_symmetry_group_IT_number 59
_space_group.IT_coordinate_system_code '2'
_symmetry_cell_setting 'orthorhombic'
loop_
_space_group_symop_operation_xyz
x,y,z
1/2-x,1/2-y,z
1/2+x,-y,-z
-x,1/2+y,-z
-x,-y,-z
1/2+x,1/2+y,-z
1/2-x,y,z
x,1/2-y,z
loop_
_atom_site_type_symbol
_atom_site_label
_atom_site_fract_x
_atom_site_fract_y
_atom_site_fract_z
Si Si1 0.879520 0.750000 0.741168
Si Si2 0.531373 0.429392 0.782664
Si Si3 0.380153 0.406807 0.141970
Si Si4 0.250000 0.659335 0.217353
Si Si5 0.750000 0.158516 0.548988
Si Si6 0.617207 0.750000 0.514521
Si Si7 0.378801 0.157370 0.929232
Si Si8 0.018932 0.588621 0.449636
O O1 0.750000 0.750000 0.754522
O O2 0.925156 0.670245 0.796182
O O3 0.914726 0.750000 0.628413
O O4 0.541127 0.522671 0.817192
O O5 0.641768 0.385630 0.821425
O O6 0.428334 0.386666 0.834231
O O7 0.514765 0.424119 0.666613
O O8 0.250000 0.424361 0.161063
O O9 0.405672 0.393690 0.027383
O O10 0.250000 0.750000 0.171460
O O11 0.250000 0.662448 0.334256
O O12 0.750000 0.250000 0.503838
O O13 0.859463 0.112589 0.512133
O O14 0.750000 0.750000 0.496580
O O15 0.566129 0.835760 0.472004
O O16 0.250000 0.161083 0.910513
O O17 0.425971 0.250000 0.940042
O O18 0.000000 0.500000 0.500000
#
# Coordination Sequence:
#
# PCOD8240222 Si02
#       8
#     4   8   8   4   4   4   8   8
#     4   9  18  34  60  82 113 146 188 245 291 326
#     4  11  21  35  58  84 114 149 188 238 288 335
#     4  10  18  35  58  87 110 144 190 241 289 336
#     4   9  18  32  54  81 107 138 185 234 284 327
#     4   9  18  38  60  77 109 154 201 240 284 352
#     4  11  24  39  58  90 123 155 201 251 299 352
#     4  10  21  36  56  83 116 151 186 226 287 357
#     4  11  24  39  59  88 120 158 200 247 297 348
#
# _framework density 17.989573
#
# number of rings (size 3 to 8) (size 9 to 14) (size 15 to 20)
#    0.000    1.833    2.500    2.000    3.500    0.667 
#    0.000    0.000    0.000    0.000    0.000    0.000 
#    0.000    0.000    0.000    0.000    0.000    0.000 
#
# Total GULP energy -595005.240636 kJ/mol
# GULP energy per Si atom -12395.942513 kJ/mol
# Density = 1.794863 g / cm^3
# Si number density = 17.989573 Si / 1000 Ang^3
#
#
#
# Elastic Constant Matrix: (Units=GPa)
#
#
# Indices 1 2 3 4 5 6 
#
# 1 74.1715 53.3793 47.0073 0.0000 0.0000 0.0000
# 2 53.3793 154.1191 56.1308 0.0000 0.0000 0.0000
# 3 47.0073 56.1308 98.4493 0.0000 0.0000 0.0000
# 4 0.0000 0.0000 0.0000 44.9609 0.0000 0.0000
# 5 0.0000 0.0000 0.0000 0.0000 26.7968 0.0000
# 6 0.0000 0.0000 0.0000 0.0000 0.0000 32.7066
#
#
#
# Elastic Compliance Matrix: (Units=1/GPa)
#
#
# Indices 1 2 3 4 5 6 
#
# 1 0.021767 -0.004737 -0.007692 0.000000 0.000000 0.000000
# 2 -0.004737 0.009220 -0.002995 0.000000 0.000000 0.000000
# 3 -0.007692 -0.002995 0.015538 0.000000 0.000000 0.000000
# 4 0.000000 0.000000 0.000000 0.022242 0.000000 0.000000
# 5 0.000000 0.000000 0.000000 0.000000 0.037318 0.000000
# 6 0.000000 0.000000 0.000000 0.000000 0.000000 0.030575
#
#
# Mechanical properties :
#
#
# Convention : Reuss Voigt Hill
#
# Bulk Modulus (GPa) = 63.79206 71.08608 67.43907
# Shear Modulus (GPa) = 28.94651 32.24103 30.59377
#
# Velocity S-wave (km/s) = 4.01568 4.23804 4.12835
# Velocity P-wave (km/s) = 7.55238 7.97176 7.76490
#
# Compressibility (1/GPa) = 0.01567593
#
# Stress axis : x y z
#
# Youngs Moduli (GPa) = 45.94197 108.45980 64.35943
#
# Poissons Ratio (x) = 0.51382 0.49505
# Poissons Ratio (y) = 0.21765 0.19274
# Poissons Ratio (z) = 0.35339 0.32481
#
# Static dielectric constant tensor:
#      x y z
#    x 3.260430 0.000000 0.000000 
#    y 0.000000 3.578180 0.000000 
#    z 0.000000 0.000000 3.268750 
# 
# 
# High freq. dielectric constant tensor:
#      x y z
#    x 1.681530 0.000000 0.000000 
#    y 0.000000 1.717690 0.000000 
#    z 0.000000 0.000000 1.688640 
# 
# From -- ./inp_files/22472.got.cif
#   From: 2010.03.12/outbox.cif.g09.slc.cpg/sg59_12_cif.got.tgz:22472.got - 2010.04.16 16:29:54.
