data_PCOD8240483
_publ_section_title
;
Structure prediction by ZEFSAII (Michael W. Deem and Ramdas Pophale) SiO2 
 PCOD8240483
Probable space group: P M M N
;
_chemical_formula_sum "Si O2"
_cell_formula_units_Z 64
_cell_length_a 24.251482
_cell_length_b 9.161383
_cell_length_c 18.785631
_cell_angle_alpha 90.000000
_cell_angle_beta 90.000000
_cell_angle_gamma 90.000000
_cell_volume 4173.737298
_symmetry_space_group_name_H-M "P M M N"
_symmetry_group_IT_number 59
_space_group.IT_coordinate_system_code '2'
_symmetry_cell_setting 'orthorhombic'
loop_
_space_group_symop_operation_xyz
x,y,z
1/2-x,1/2-y,z
1/2+x,-y,-z
-x,1/2+y,-z
-x,-y,-z
1/2+x,1/2+y,-z
1/2-x,y,z
x,1/2-y,z
loop_
_atom_site_type_symbol
_atom_site_label
_atom_site_fract_x
_atom_site_fract_y
_atom_site_fract_z
Si Si1 0.963553 0.583307 0.896297
Si Si2 0.997340 0.420499 0.607444
Si Si3 0.813287 0.578019 0.432620
Si Si4 0.434600 0.083681 0.955603
Si Si5 0.509524 0.084224 0.766549
Si Si6 0.414261 0.579476 0.516153
Si Si7 0.615565 0.587153 0.184121
Si Si8 0.813614 0.084580 0.288792
O O1 0.967984 0.750000 0.873301
O O2 0.020578 0.533792 0.931694
O O3 0.950645 0.497292 0.823222
O O4 0.918576 0.559651 0.960578
O O5 0.014134 0.250000 0.607686
O O6 0.982820 0.477187 0.686563
O O7 0.049587 0.510674 0.579439
O O8 0.943849 0.449239 0.559053
O O9 0.750000 0.538916 0.452572
O O10 0.823365 0.750000 0.434395
O O11 0.854490 0.498624 0.487723
O O12 0.828490 0.519191 0.354553
O O13 0.458058 0.250000 0.946179
O O14 0.382610 0.065477 0.902001
O O15 0.528811 0.250000 0.768143
O O16 0.446528 0.063585 0.789127
O O17 0.406425 0.750000 0.531448
O O18 0.635951 0.750000 0.204583
O O19 0.654169 0.467310 0.219268
O O20 0.750000 0.073892 0.269139
O O21 0.830637 0.250000 0.308058
#
# Coordination Sequence:
#
# PCOD8240483 Si02
#       8
#     8   8   8   8   8   8   8   8
#     4   9  15  23  37  56  77 101 131 164 193 224
#     4   9  18  31  45  62  87 118 145 170 207 256
#     4  10  20  33  48  63  81 110 144 175 212 258
#     4   8  15  26  37  52  76 104 131 160 194 228
#     4   9  17  28  40  56  81 110 137 164 196 237
#     4  10  19  30  46  66  86 110 142 179 214 248
#     4   9  16  26  41  58  78 108 140 166 196 238
#     4  10  20  31  42  59  82 104 131 172 212 241
#
# _framework density 15.333978999999999
#
# number of rings (size 3 to 8) (size 9 to 14) (size 15 to 20)
#    0.000    2.750    0.000    3.000    0.000    6.000 
#    0.000    0.000    0.000    0.000    0.000    0.000 
#    0.000    1.000    0.000    2.250    0.000    4.250 
#
# Total GULP energy -793151.894551 kJ/mol
# GULP energy per Si atom -12392.998352 kJ/mol
# Density = 1.529908 g / cm^3
# Si number density = 15.333979 Si / 1000 Ang^3
#
#
#
# Elastic Constant Matrix: (Units=GPa)
#
#
# Indices 1 2 3 4 5 6 
#
# 1 54.5276 33.7819 31.8896 0.0000 0.0000 0.0000
# 2 33.7819 73.4276 40.0216 0.0000 0.0000 0.0000
# 3 31.8896 40.0216 116.0859 0.0000 0.0000 0.0000
# 4 0.0000 0.0000 0.0000 25.9533 0.0000 0.0000
# 5 0.0000 0.0000 0.0000 0.0000 18.5275 0.0000
# 6 0.0000 0.0000 0.0000 0.0000 0.0000 21.4562
#
#
#
# Elastic Compliance Matrix: (Units=1/GPa)
#
#
# Indices 1 2 3 4 5 6 
#
# 1 0.026984 -0.010312 -0.003858 0.000000 0.000000 0.000000
# 2 -0.010312 0.020711 -0.004307 0.000000 0.000000 0.000000
# 3 -0.003858 -0.004307 0.011159 0.000000 0.000000 0.000000
# 4 0.000000 0.000000 0.000000 0.038531 0.000000 0.000000
# 5 0.000000 0.000000 0.000000 0.000000 0.053974 0.000000
# 6 0.000000 0.000000 0.000000 0.000000 0.000000 0.046606
#
#
# Mechanical properties :
#
#
# Convention : Reuss Voigt Hill
#
# Bulk Modulus (GPa) = 45.66231 50.60304 48.13268
# Shear Modulus (GPa) = 20.64248 22.41062 21.52655
#
# Velocity S-wave (km/s) = 3.67303 3.82711 3.75086
# Velocity P-wave (km/s) = 6.91602 7.25267 7.08634
#
# Compressibility (1/GPa) = 0.02189990
#
# Stress axis : x y z
#
# Youngs Moduli (GPa) = 37.05894 48.28379 89.61338
#
# Poissons Ratio (x) = 0.49790 0.34569
# Poissons Ratio (y) = 0.38215 0.38601
# Poissons Ratio (z) = 0.14296 0.20798
#
# Static dielectric constant tensor:
#      x y z
#    x 2.658220 0.000000 0.000000 
#    y 0.000000 3.044860 0.000000 
#    z 0.000000 0.000000 3.244990 
# 
# 
# High freq. dielectric constant tensor:
#      x y z
#    x 1.535320 0.000000 0.000000 
#    y 0.000000 1.600020 0.000000 
#    z 0.000000 0.000000 1.589810 
# 
# From -- ./inp_files/28488.got.cif
#   From: 2010.03.12/outbox.cif.g09.slc.cpg/sg59_15_cif.got.tgz:28488.got - 2010.04.16 16:29:54.
