data_PCOD8240492
_publ_section_title
;
Structure prediction by ZEFSAII (Michael W. Deem and Ramdas Pophale) SiO2 
 PCOD8240492
Probable space group: P M M N
;
_chemical_formula_sum "Si O2"
_cell_formula_units_Z 56
_cell_length_a 14.806683
_cell_length_b 9.494936
_cell_length_c 20.850769
_cell_angle_alpha 90.000000
_cell_angle_beta 90.000000
_cell_angle_gamma 90.000000
_cell_volume 2931.378493
_symmetry_space_group_name_H-M "P M M N"
_symmetry_group_IT_number 59
_space_group.IT_coordinate_system_code '2'
_symmetry_cell_setting 'orthorhombic'
loop_
_space_group_symop_operation_xyz
x,y,z
1/2-x,1/2-y,z
1/2+x,-y,-z
-x,1/2+y,-z
-x,-y,-z
1/2+x,1/2+y,-z
1/2-x,y,z
x,1/2-y,z
loop_
_atom_site_type_symbol
_atom_site_label
_atom_site_fract_x
_atom_site_fract_y
_atom_site_fract_z
Si Si1 0.600568 0.906947 0.590117
Si Si2 0.850758 0.090502 0.478457
Si Si3 0.355200 0.585586 0.009028
Si Si4 0.028813 0.085316 0.911018
Si Si5 0.472187 0.414543 0.765129
Si Si6 0.907621 0.094328 0.344743
Si Si7 0.653127 0.091359 0.699740
O O1 0.639844 0.750000 0.579571
O O2 0.505608 0.901675 0.624479
O O3 0.590485 0.984532 0.521555
O O4 0.664400 0.995326 0.637039
O O5 0.750000 0.088093 0.506363
O O6 0.891538 0.250000 0.481398
O O7 0.845902 0.040759 0.403783
O O8 0.250000 0.542077 0.024483
O O9 0.358389 0.750000 0.991557
O O10 0.394387 0.499100 0.949146
O O11 0.424732 0.552621 0.067703
O O12 0.048725 0.250000 0.920164
O O13 0.042052 0.036772 0.837850
O O14 0.454359 0.250000 0.757245
O O15 0.402858 0.492965 0.717160
O O16 0.574996 0.457828 0.748021
O O17 0.878019 0.250000 0.321483
O O18 0.750000 0.084745 0.736248
O O19 0.632043 0.250000 0.676086
#
# Coordination Sequence:
#
# PCOD8240492 Si02
#       7
#     8   8   8   8   8   8   8
#     4  10  19  30  46  67  90 117 150 191 240 290
#     4  10  20  33  48  65  86 114 151 195 240 283
#     4   9  18  33  54  80 108 138 172 207 243 289
#     4   9  18  33  53  78 108 138 168 207 252 293
#     4   9  18  32  50  71  95 126 161 195 234 281
#     4   9  19  34  49  66  90 121 155 191 233 282
#     4   9  17  29  45  66  93 124 157 193 236 289
#
# _framework density 19.103639999999999
#
# number of rings (size 3 to 8) (size 9 to 14) (size 15 to 20)
#    0.000    2.714    0.000    1.286    0.000    4.857 
#    0.000    3.571    0.000    2.571    0.000    8.000 
#    0.000    0.000    0.000    0.000    0.000    0.000 
#
# Total GULP energy -693873.486788 kJ/mol
# GULP energy per Si atom -12390.597978 kJ/mol
# Density = 1.906016 g / cm^3
# Si number density = 19.103640 Si / 1000 Ang^3
#
#
#
# Elastic Constant Matrix: (Units=GPa)
#
#
# Indices 1 2 3 4 5 6 
#
# 1 45.9849 8.5061 5.1265 0.0000 0.0000 0.0000
# 2 8.5061 71.5884 52.5615 0.0000 0.0000 0.0000
# 3 5.1265 52.5615 123.2031 0.0000 0.0000 0.0000
# 4 0.0000 0.0000 0.0000 31.1242 0.0000 0.0000
# 5 0.0000 0.0000 0.0000 0.0000 23.0094 0.0000
# 6 0.0000 0.0000 0.0000 0.0000 0.0000 18.3820
#
#
#
# Elastic Compliance Matrix: (Units=1/GPa)
#
#
# Indices 1 2 3 4 5 6 
#
# 1 0.022242 -0.002859 0.000294 0.000000 0.000000 0.000000
# 2 -0.002859 0.020707 -0.008715 0.000000 0.000000 0.000000
# 3 0.000294 -0.008715 0.011823 0.000000 0.000000 0.000000
# 4 0.000000 0.000000 0.000000 0.032129 0.000000 0.000000
# 5 0.000000 0.000000 0.000000 0.000000 0.043461 0.000000
# 6 0.000000 0.000000 0.000000 0.000000 0.000000 0.054401
#
#
# Mechanical properties :
#
#
# Convention : Reuss Voigt Hill
#
# Bulk Modulus (GPa) = 31.04404 41.46273 36.25339
# Shear Modulus (GPa) = 22.92941 26.14193 24.53567
#
# Velocity S-wave (km/s) = 3.46824 3.70324 3.58766
# Velocity P-wave (km/s) = 5.68541 6.32744 6.01500
#
# Compressibility (1/GPa) = 0.03221230
#
# Stress axis : x y z
#
# Youngs Moduli (GPa) = 44.95944 48.29199 84.58367
#
# Poissons Ratio (x) = 0.13806 -0.02488
# Poissons Ratio (y) = 0.12853 0.73717
# Poissons Ratio (z) = -0.01322 0.42088
#
# Static dielectric constant tensor:
#      x y z
#    x 3.501480 0.000000 0.000000 
#    y 0.000000 3.626030 0.000000 
#    z 0.000000 0.000000 3.486400 
# 
# 
# High freq. dielectric constant tensor:
#      x y z
#    x 1.735460 0.000000 0.000000 
#    y 0.000000 1.736020 0.000000 
#    z 0.000000 0.000000 1.728200 
# 
# From -- ./inp_files/30584.got.cif
#   From: 2010.03.12/outbox.cif.g09.slc.cpg/sg59_16_cif.got.tgz:30584.got - 2010.04.16 16:29:54.
