data_PCOD8240772
_publ_section_title
;
Structure prediction by ZEFSAII (Michael W. Deem and Ramdas Pophale) SiO2 
 PCOD8240772
Probable space group: P M M N
;
_chemical_formula_sum "Si O2"
_cell_formula_units_Z 56
_cell_length_a 9.159600
_cell_length_b 18.229127
_cell_length_c 18.771733
_cell_angle_alpha 90.000000
_cell_angle_beta 90.000000
_cell_angle_gamma 90.000000
_cell_volume 3134.344636
_symmetry_space_group_name_H-M "P M M N"
_symmetry_group_IT_number 59
_space_group.IT_coordinate_system_code '2'
_symmetry_cell_setting 'orthorhombic'
loop_
_space_group_symop_operation_xyz
x,y,z
1/2-x,1/2-y,z
1/2+x,-y,-z
-x,1/2+y,-z
-x,-y,-z
1/2+x,1/2+y,-z
1/2-x,y,z
x,1/2-y,z
loop_
_atom_site_type_symbol
_atom_site_label
_atom_site_fract_x
_atom_site_fract_y
_atom_site_fract_z
Si Si1 0.916181 0.837527 0.407709
Si Si2 0.419804 0.591674 0.279647
Si Si3 0.919254 0.334019 0.867297
Si Si4 0.579772 0.964540 0.066220
Si Si5 0.580565 0.836323 0.715880
Si Si6 0.922256 0.829919 0.561344
Si Si7 0.419665 0.539879 0.785762
O O1 0.750000 0.860292 0.388874
O O2 0.930291 0.750000 0.408251
O O3 0.962920 0.869606 0.486409
O O4 0.026438 0.871125 0.351563
O O5 0.250000 0.574158 0.286780
O O6 0.452866 0.646960 0.214766
O O7 0.502229 0.515461 0.268302
O O8 0.750000 0.348121 0.884935
O O9 0.963504 0.250000 0.880647
O O10 0.015552 0.383744 0.919555
O O11 0.750000 0.956464 0.049551
O O12 0.549432 0.016986 0.133222
O O13 0.500000 0.000000 0.000000
O O14 0.750000 0.851824 0.731281
O O15 0.546794 0.750000 0.722147
O O16 0.534385 0.867561 0.636710
O O17 0.485021 0.879099 0.774192
O O18 0.750000 0.818700 0.562131
O O19 0.997320 0.750000 0.561041
O O20 0.250000 0.539690 0.767971
#
# Coordination Sequence:
#
# PCOD8240772 Si02
#       7
#     8   8   8   8   8   8   8
#     4   9  16  27  45  69  98 132 168 207 251 296
#     4  10  19  31  48  71 101 135 170 207 247 292
#     4   9  18  33  53  77 105 136 168 204 247 293
#     4  10  21  37  57  79 104 135 167 201 244 294
#     4   9  17  32  55  78  98 125 165 210 252 296
#     4   7  12  25  45  68  94 126 164 205 250 296
#     4  10  21  36  53  75 101 128 161 200 246 299
#
# _framework density 17.866574
#
# number of rings (size 3 to 8) (size 9 to 14) (size 15 to 20)
#    0.000    2.857    0.000    3.429    0.000    3.714 
#    0.000    2.143    0.000    3.429    0.000    0.000 
#    0.000    0.000    0.000    0.000    0.000    0.000 
#
# Total GULP energy -694036.949262 kJ/mol
# GULP energy per Si atom -12393.516951 kJ/mol
# Density = 1.782591 g / cm^3
# Si number density = 17.866574 Si / 1000 Ang^3
#
#
#
# Elastic Constant Matrix: (Units=GPa)
#
#
# Indices 1 2 3 4 5 6 
#
# 1 91.7183 59.3491 58.6123 0.0000 0.0000 0.0000
# 2 59.3491 94.8581 60.7968 0.0000 0.0000 0.0000
# 3 58.6123 60.7968 96.1470 0.0000 0.0000 0.0000
# 4 0.0000 0.0000 0.0000 22.1799 0.0000 0.0000
# 5 0.0000 0.0000 0.0000 0.0000 29.8433 0.0000
# 6 0.0000 0.0000 0.0000 0.0000 0.0000 30.6796
#
#
#
# Elastic Compliance Matrix: (Units=1/GPa)
#
#
# Indices 1 2 3 4 5 6 
#
# 1 0.021194 -0.008373 -0.007626 0.000000 0.000000 0.000000
# 2 -0.008373 0.021034 -0.008196 0.000000 0.000000 0.000000
# 3 -0.007626 -0.008196 0.020232 0.000000 0.000000 0.000000
# 4 0.000000 0.000000 0.000000 0.045086 0.000000 0.000000
# 5 0.000000 0.000000 0.000000 0.000000 0.033508 0.000000
# 6 0.000000 0.000000 0.000000 0.000000 0.000000 0.032595
#
#
# Mechanical properties :
#
#
# Convention : Reuss Voigt Hill
#
# Bulk Modulus (GPa) = 71.07036 71.13776 71.10406
# Shear Modulus (GPa) = 22.05283 23.47158 22.76220
#
# Velocity S-wave (km/s) = 3.51708 3.62845 3.57320
# Velocity P-wave (km/s) = 7.50719 7.58002 7.54369
#
# Compressibility (1/GPa) = 0.01407056
#
# Stress axis : x y z
#
# Youngs Moduli (GPa) = 47.18320 47.54281 49.42638
#
# Poissons Ratio (x) = 0.39807 0.37691
# Poissons Ratio (y) = 0.39505 0.40510
# Poissons Ratio (z) = 0.35981 0.38967
#
# Static dielectric constant tensor:
#      x y z
#    x 3.185610 0.000000 0.000000 
#    y 0.000000 3.157870 0.000000 
#    z 0.000000 0.000000 3.415340 
# 
# 
# High freq. dielectric constant tensor:
#      x y z
#    x 1.681280 0.000000 0.000000 
#    y 0.000000 1.673080 0.000000 
#    z 0.000000 0.000000 1.691540 
# 
# From -- ./inp_files/29304.got.cif
#   From: 2010.03.12/outbox.cif.g09.slc.cpg/sg59_15_cif.got.tgz:29304.got - 2010.04.16 16:29:54.
