data_PCOD8240414
_publ_section_title
;
Structure prediction by ZEFSAII (Michael W. Deem and Ramdas Pophale) SiO2 
 PCOD8240414
Probable space group: P M M N
;
_chemical_formula_sum "Si O2"
_cell_formula_units_Z 64
_cell_length_a 8.903690
_cell_length_b 29.416785
_cell_length_c 14.800212
_cell_angle_alpha 90.000000
_cell_angle_beta 90.000000
_cell_angle_gamma 90.000000
_cell_volume 3876.440956
_symmetry_space_group_name_H-M "P M M N"
_symmetry_group_IT_number 59
_space_group.IT_coordinate_system_code '2'
_symmetry_cell_setting 'orthorhombic'
loop_
_space_group_symop_operation_xyz
x,y,z
1/2-x,1/2-y,z
1/2+x,-y,-z
-x,1/2+y,-z
-x,-y,-z
1/2+x,1/2+y,-z
1/2-x,y,z
x,1/2-y,z
loop_
_atom_site_type_symbol
_atom_site_label
_atom_site_fract_x
_atom_site_fract_y
_atom_site_fract_z
Si Si1 0.421846 0.935207 0.059510
Si Si2 0.072212 0.610575 0.534541
Si Si3 0.076540 0.436481 0.632163
Si Si4 0.576740 0.475572 0.125656
Si Si5 0.578350 0.624037 0.194763
Si Si6 0.426744 0.301145 0.511628
Si Si7 0.927186 0.036738 0.326324
Si Si8 0.579149 0.301633 0.700353
O O1 0.250000 0.926284 0.086225
O O2 0.522835 0.894624 0.098337
O O3 0.469942 0.982750 0.102876
O O4 0.442386 0.936849 0.950831
O O5 0.250000 0.613896 0.538446
O O6 0.006623 0.577372 0.612423
O O7 0.023303 0.591611 0.437540
O O8 0.005672 0.661135 0.551391
O O9 0.250000 0.434380 0.601242
O O10 0.056521 0.415320 0.731169
O O11 0.014158 0.488044 0.637312
O O12 0.750000 0.492836 0.129448
O O13 0.526462 0.454966 0.222114
O O14 0.750000 0.639412 0.186441
O O15 0.478721 0.667736 0.217899
O O16 0.250000 0.307490 0.504964
O O17 0.475157 0.250000 0.481839
O O18 0.474684 0.310519 0.614245
O O19 0.750000 0.036333 0.335766
O O20 0.750000 0.314228 0.674201
O O21 0.567282 0.250000 0.733681
#
# Coordination Sequence:
#
# PCOD8240414 Si02
#       8
#     8   8   8   8   8   8   8   8
#     4  10  19  29  48  73  95 122 160 204 242 280
#     4  11  21  31  48  71  95 125 162 205 240 275
#     4  10  19  32  47  64  94 135 169 192 225 281
#     4   9  17  33  50  66  94 128 161 199 242 287
#     4  11  20  31  50  70  97 134 163 193 234 291
#     4  10  20  34  50  67  92 126 159 192 238 293
#     4   9  18  33  49  66  93 131 168 199 239 281
#     4  10  20  33  50  72  97 122 155 202 243 280
#
# _framework density 16.509989999999998
#
# number of rings (size 3 to 8) (size 9 to 14) (size 15 to 20)
#    0.000    2.000    2.500    2.250    0.000    2.500 
#    0.000    1.875    0.000    0.000    0.000    0.875 
#    0.000    3.000    0.000    0.000    0.000    0.000 
#
# Total GULP energy -793615.134638 kJ/mol
# GULP energy per Si atom -12400.236479 kJ/mol
# Density = 1.647241 g / cm^3
# Si number density = 16.509990 Si / 1000 Ang^3
#
#
#
# Elastic Constant Matrix: (Units=GPa)
#
#
# Indices 1 2 3 4 5 6 
#
# 1 58.3283 34.8146 21.8176 0.0000 0.0000 0.0000
# 2 34.8146 109.4289 36.9548 0.0000 0.0000 0.0000
# 3 21.8176 36.9548 62.5577 0.0000 0.0000 0.0000
# 4 0.0000 0.0000 0.0000 21.5254 0.0000 0.0000
# 5 0.0000 0.0000 0.0000 0.0000 18.5433 0.0000
# 6 0.0000 0.0000 0.0000 0.0000 0.0000 26.5957
#
#
#
# Elastic Compliance Matrix: (Units=1/GPa)
#
#
# Indices 1 2 3 4 5 6 
#
# 1 0.022109 -0.005534 -0.004442 0.000000 0.000000 0.000000
# 2 -0.005534 0.012801 -0.005632 0.000000 0.000000 0.000000
# 3 -0.004442 -0.005632 0.020861 0.000000 0.000000 0.000000
# 4 0.000000 0.000000 0.000000 0.046457 0.000000 0.000000
# 5 0.000000 0.000000 0.000000 0.000000 0.053928 0.000000
# 6 0.000000 0.000000 0.000000 0.000000 0.000000 0.037600
#
#
# Mechanical properties :
#
#
# Convention : Reuss Voigt Hill
#
# Bulk Modulus (GPa) = 40.72310 46.38767 43.55538
# Shear Modulus (GPa) = 21.44490 22.44807 21.94649
#
# Velocity S-wave (km/s) = 3.60794 3.69137 3.64989
# Velocity P-wave (km/s) = 6.48657 6.80632 6.64837
#
# Compressibility (1/GPa) = 0.02455609
#
# Stress axis : x y z
#
# Youngs Moduli (GPa) = 45.23101 78.11970 47.93581
#
# Poissons Ratio (x) = 0.43231 0.21291
# Poissons Ratio (y) = 0.25030 0.26997
# Poissons Ratio (z) = 0.20090 0.43996
#
# Static dielectric constant tensor:
#      x y z
#    x 3.098760 0.000000 0.000000 
#    y 0.000000 3.245610 0.000000 
#    z 0.000000 0.000000 3.101460 
# 
# 
# High freq. dielectric constant tensor:
#      x y z
#    x 1.637820 0.000000 0.000000 
#    y 0.000000 1.626750 0.000000 
#    z 0.000000 0.000000 1.610660 
# 
# From -- ./inp_files/21846.got.cif
#   From: 2010.03.12/outbox.cif.g09.slc.cpg/sg59_11_cif.got.tgz:21846.got - 2010.04.16 16:29:54.
