data_PCOD8240323
_publ_section_title
;
Structure prediction by ZEFSAII (Michael W. Deem and Ramdas Pophale) SiO2 
 PCOD8240323
Probable space group: P M M N
;
_chemical_formula_sum "Si O2"
_cell_formula_units_Z 64
_cell_length_a 13.770520
_cell_length_b 9.292046
_cell_length_c 31.301668
_cell_angle_alpha 90.000000
_cell_angle_beta 90.000000
_cell_angle_gamma 90.000000
_cell_volume 4005.245787
_symmetry_space_group_name_H-M "P M M N"
_symmetry_group_IT_number 59
_space_group.IT_coordinate_system_code '2'
_symmetry_cell_setting 'orthorhombic'
loop_
_space_group_symop_operation_xyz
x,y,z
1/2-x,1/2-y,z
1/2+x,-y,-z
-x,1/2+y,-z
-x,-y,-z
1/2+x,1/2+y,-z
1/2-x,y,z
x,1/2-y,z
loop_
_atom_site_type_symbol
_atom_site_label
_atom_site_fract_x
_atom_site_fract_y
_atom_site_fract_z
Si Si1 0.859812 0.085605 0.486745
Si Si2 0.857797 0.584272 0.058800
Si Si3 0.049629 0.417654 0.437226
Si Si4 0.635263 0.413240 0.977580
Si Si5 0.636283 0.418122 0.640725
Si Si6 0.139921 0.080230 0.183068
Si Si7 0.635074 0.591096 0.722261
Si Si8 0.460058 0.583872 0.108901
O O1 0.750000 0.056981 0.470184
O O2 0.870761 0.250000 0.503232
O O3 0.935966 0.057218 0.448481
O O4 0.881741 0.979664 0.525739
O O5 0.750000 0.526774 0.070208
O O6 0.854913 0.750000 0.045521
O O7 0.903869 0.503105 0.017988
O O8 0.925151 0.561193 0.100283
O O9 0.074064 0.250000 0.431551
O O10 0.071588 0.500388 0.393828
O O11 0.750000 0.424853 0.976219
O O12 0.598511 0.250000 0.983167
O O13 0.596110 0.475009 0.932819
O O14 0.750000 0.449899 0.632522
O O15 0.613611 0.250000 0.638540
O O16 0.601833 0.476266 0.686855
O O17 0.250000 0.024032 0.175964
O O18 0.136119 0.250000 0.176355
O O19 0.101485 0.040157 0.230634
O O20 0.067884 0.006054 0.150152
O O21 0.750000 0.603261 0.723465
O O22 0.592372 0.750000 0.711372
O O23 0.433770 0.750000 0.117372
#
# Coordination Sequence:
#
# PCOD8240323 Si02
#       8
#     8   8   8   8   8   8   8   8
#     4   9  18  32  46  61  87 121 154 189 226 261
#     4   9  18  31  44  59  81 110 145 181 212 243
#     4  10  19  29  44  66  89 117 153 188 223 262
#     4   9  17  28  41  59  83 109 138 173 211 249
#     4  10  19  29  43  65  92 120 148 178 213 254
#     4   9  18  31  46  66  91 115 138 167 206 254
#     4   8  15  29  46  63  86 114 141 171 209 253
#     4  10  19  29  43  63  86 113 142 172 209 251
#
# _framework density 15.979044
#
# number of rings (size 3 to 8) (size 9 to 14) (size 15 to 20)
#    0.000    2.750    0.000    2.625    0.000    5.250 
#    0.000    2.500    0.000    0.000    0.000    0.875 
#    0.000    1.000    0.000    0.000    0.000    0.000 
#
# Total GULP energy -793430.556290 kJ/mol
# GULP energy per Si atom -12397.352442 kJ/mol
# Density = 1.594267 g / cm^3
# Si number density = 15.979044 Si / 1000 Ang^3
#
#
#
# Elastic Constant Matrix: (Units=GPa)
#
#
# Indices 1 2 3 4 5 6 
#
# 1 67.2906 35.7860 49.1900 0.0000 0.0000 0.0000
# 2 35.7860 78.0785 65.4645 0.0000 0.0000 0.0000
# 3 49.1900 65.4645 127.4164 0.0000 0.0000 0.0000
# 4 0.0000 0.0000 0.0000 31.4962 0.0000 0.0000
# 5 0.0000 0.0000 0.0000 0.0000 21.3449 0.0000
# 6 0.0000 0.0000 0.0000 0.0000 0.0000 18.7857
#
#
#
# Elastic Compliance Matrix: (Units=1/GPa)
#
#
# Indices 1 2 3 4 5 6 
#
# 1 0.021828 -0.005163 -0.005774 0.000000 0.000000 0.000000
# 2 -0.005163 0.023722 -0.010195 0.000000 0.000000 0.000000
# 3 -0.005774 -0.010195 0.015315 0.000000 0.000000 0.000000
# 4 0.000000 0.000000 0.000000 0.031750 0.000000 0.000000
# 5 0.000000 0.000000 0.000000 0.000000 0.046850 0.000000
# 6 0.000000 0.000000 0.000000 0.000000 0.000000 0.053232
#
#
# Mechanical properties :
#
#
# Convention : Reuss Voigt Hill
#
# Bulk Modulus (GPa) = 53.76037 63.74074 58.75055
# Shear Modulus (GPa) = 20.73318 22.48168 21.60743
#
# Velocity S-wave (km/s) = 3.60602 3.75500 3.68126
# Velocity P-wave (km/s) = 7.14529 7.66661 7.41053
#
# Compressibility (1/GPa) = 0.01860106
#
# Stress axis : x y z
#
# Youngs Moduli (GPa) = 45.81362 42.15562 65.29492
#
# Poissons Ratio (x) = 0.21766 0.37701
# Poissons Ratio (y) = 0.23655 0.66565
# Poissons Ratio (z) = 0.26452 0.42976
#
# Static dielectric constant tensor:
#      x y z
#    x 2.990780 0.000000 0.000000 
#    y 0.000000 3.192120 0.000000 
#    z 0.000000 0.000000 3.043250 
# 
# 
# High freq. dielectric constant tensor:
#      x y z
#    x 1.592750 0.000000 0.000000 
#    y 0.000000 1.617610 0.000000 
#    z 0.000000 0.000000 1.601930 
# 
# From -- ./inp_files/33323.got.cif
#   From: 2010.03.12/outbox.cif.g09.slc.cpg/sg59_17_cif.got.tgz:33323.got - 2010.04.16 16:29:54.
