data_PCOD8240515
_publ_section_title
;
Structure prediction by ZEFSAII (Michael W. Deem and Ramdas Pophale) SiO2 
 PCOD8240515
Probable space group: P M M N
;
_chemical_formula_sum "Si O2"
_cell_formula_units_Z 40
_cell_length_a 19.579726
_cell_length_b 8.993548
_cell_length_c 12.902997
_cell_angle_alpha 90.000000
_cell_angle_beta 90.000000
_cell_angle_gamma 90.000000
_cell_volume 2272.104298
_symmetry_space_group_name_H-M "P M M N"
_symmetry_group_IT_number 59
_space_group.IT_coordinate_system_code '2'
_symmetry_cell_setting 'orthorhombic'
loop_
_space_group_symop_operation_xyz
x,y,z
1/2-x,1/2-y,z
1/2+x,-y,-z
-x,1/2+y,-z
-x,-y,-z
1/2+x,1/2+y,-z
1/2-x,y,z
x,1/2-y,z
loop_
_atom_site_type_symbol
_atom_site_label
_atom_site_fract_x
_atom_site_fract_y
_atom_site_fract_z
Si Si1 0.330002 0.920282 0.122255
Si Si2 0.427535 0.576575 0.492598
Si Si3 0.927948 0.423139 0.280115
Si Si4 0.582440 0.925582 0.708047
Si Si5 0.174334 0.926514 0.888567
O O1 0.250000 0.941107 0.142712
O O2 0.351502 0.750000 0.143394
O O3 0.371097 0.029755 0.196047
O O4 0.348555 0.967630 0.004964
O O5 0.500000 0.500000 0.500000
O O6 0.435761 0.750000 0.468726
O O7 0.393548 0.551089 0.606118
O O8 0.386898 0.499856 0.397541
O O9 0.933424 0.250000 0.255698
O O10 0.879365 0.497816 0.193068
O O11 0.005203 0.486854 0.273705
O O12 0.583714 0.750000 0.692931
O O13 0.250000 0.991561 0.865837
O O14 0.177575 0.750000 0.877212
#
# Coordination Sequence:
#
# PCOD8240515 Si02
#       5
#     8   8   8   8   8
#     4   9  18  32  49  68  90 118 153 192 233 279
#     4   9  16  28  46  68  96 126 155 191 233 276
#     4   8  15  27  44  68  94 119 152 192 230 271
#     4  10  19  30  46  68  95 126 157 191 232 278
#     4   8  14  27  47  68  91 119 149 185 232 280
#
# _framework density 17.604825999999999
#
# number of rings (size 3 to 8) (size 9 to 14) (size 15 to 20)
#    0.000    3.200    0.000    3.600    0.000    1.200 
#    0.000    1.000    0.000    9.600    0.000    0.000 
#    0.000    0.000    0.000    0.000    0.000    0.000 
#
# Total GULP energy -495628.672217 kJ/mol
# GULP energy per Si atom -12390.716805 kJ/mol
# Density = 1.756476 g / cm^3
# Si number density = 17.604826 Si / 1000 Ang^3
#
#
#
# Elastic Constant Matrix: (Units=GPa)
#
#
# Indices 1 2 3 4 5 6 
#
# 1 59.1420 24.5867 63.8828 0.0000 0.0000 0.0000
# 2 24.5867 58.5363 46.0275 0.0000 0.0000 0.0000
# 3 63.8828 46.0275 153.1843 0.0000 0.0000 0.0000
# 4 0.0000 0.0000 0.0000 22.7037 0.0000 0.0000
# 5 0.0000 0.0000 0.0000 0.0000 11.5753 0.0000
# 6 0.0000 0.0000 0.0000 0.0000 0.0000 17.9496
#
#
#
# Elastic Compliance Matrix: (Units=1/GPa)
#
#
# Indices 1 2 3 4 5 6 
#
# 1 0.031397 -0.003787 -0.011956 0.000000 0.000000 0.000000
# 2 -0.003787 0.022825 -0.005279 0.000000 0.000000 0.000000
# 3 -0.011956 -0.005279 0.013100 0.000000 0.000000 0.000000
# 4 0.000000 0.000000 0.000000 0.044046 0.000000 0.000000
# 5 0.000000 0.000000 0.000000 0.000000 0.086391 0.000000
# 6 0.000000 0.000000 0.000000 0.000000 0.000000 0.055712
#
#
# Mechanical properties :
#
#
# Convention : Reuss Voigt Hill
#
# Bulk Modulus (GPa) = 39.55845 59.98409 49.77127
# Shear Modulus (GPa) = 16.45067 19.53675 17.99371
#
# Velocity S-wave (km/s) = 3.06018 3.33489 3.20048
# Velocity P-wave (km/s) = 5.91653 6.99822 6.47998
#
# Compressibility (1/GPa) = 0.02527905
#
# Stress axis : x y z
#
# Youngs Moduli (GPa) = 31.85056 43.81188 76.33473
#
# Poissons Ratio (x) = 0.16590 0.91263
# Poissons Ratio (y) = 0.12060 0.40298
# Poissons Ratio (z) = 0.38079 0.23129
#
# Static dielectric constant tensor:
#      x y z
#    x 3.249800 0.000000 0.000000 
#    y 0.000000 3.008900 0.000000 
#    z 0.000000 0.000000 3.760490 
# 
# 
# High freq. dielectric constant tensor:
#      x y z
#    x 1.650630 0.000000 0.000000 
#    y 0.000000 1.648370 0.000000 
#    z 0.000000 0.000000 1.699450 
# 
# From -- ./inp_files/14044.got.cif
#   From: 2010.03.12/outbox.cif.g09.slc.cpg/sg59_8_cif.got.tgz:14044.got - 2010.04.16 16:29:54.
