data_PCOD8240450
_publ_section_title
;
Structure prediction by ZEFSAII (Michael W. Deem and Ramdas Pophale) SiO2 
 PCOD8240450
Probable space group: P M M N
;
_chemical_formula_sum "Si O2"
_cell_formula_units_Z 48
_cell_length_a 27.064629
_cell_length_b 8.995254
_cell_length_c 13.028610
_cell_angle_alpha 90.000000
_cell_angle_beta 90.000000
_cell_angle_gamma 90.000000
_cell_volume 3171.856956
_symmetry_space_group_name_H-M "P M M N"
_symmetry_group_IT_number 59
_space_group.IT_coordinate_system_code '2'
_symmetry_cell_setting 'orthorhombic'
loop_
_space_group_symop_operation_xyz
x,y,z
1/2-x,1/2-y,z
1/2+x,-y,-z
-x,1/2+y,-z
-x,-y,-z
1/2+x,1/2+y,-z
1/2-x,y,z
x,1/2-y,z
loop_
_atom_site_type_symbol
_atom_site_label
_atom_site_fract_x
_atom_site_fract_y
_atom_site_fract_z
Si Si1 0.308711 0.082543 0.478498
Si Si2 0.692574 0.424244 0.726369
Si Si3 0.449931 0.417989 0.974038
Si Si4 0.864353 0.426277 0.116039
Si Si5 0.693113 0.076301 0.318514
Si Si6 0.645848 0.918007 0.917614
O O1 0.250000 0.077822 0.480914
O O2 0.328914 0.250000 0.471204
O O3 0.327628 0.991773 0.379980
O O4 0.328858 0.008019 0.582579
O O5 0.750000 0.462851 0.743307
O O6 0.683162 0.250000 0.723802
O O7 0.661294 0.494868 0.817078
O O8 0.461221 0.250000 0.937244
O O9 0.420296 0.506909 0.884098
O O10 0.500000 0.500000 0.000000
O O11 0.414240 0.416246 0.074725
O O12 0.865749 0.250000 0.103244
O O13 0.837935 0.475690 0.220345
O O14 0.833849 0.497124 0.019786
O O15 0.750000 0.034034 0.298249
O O16 0.687229 0.250000 0.339665
O O17 0.666969 0.750000 0.914600
#
# Coordination Sequence:
#
# PCOD8240450 Si02
#       6
#     8   8   8   8   8   8
#     4   9  17  28  43  62  85 117 155 191 224 256
#     4  10  19  30  45  64  89 122 156 188 221 261
#     4   9  18  31  48  67  89 115 145 184 225 270
#     4   9  17  29  45  66  93 120 150 184 222 267
#     4   9  17  29  44  63  90 123 156 187 217 256
#     4   9  19  31  44  66  92 117 149 184 223 269
#
# _framework density 15.133092
#
# number of rings (size 3 to 8) (size 9 to 14) (size 15 to 20)
#    1.000    1.833    0.000    2.000    0.000    5.000 
#    0.000    1.667    0.000    0.000    0.000    1.167 
#    0.000    0.000    0.000    0.000    0.000    0.000 
#
# Total GULP energy -594833.120193 kJ/mol
# GULP energy per Si atom -12392.356671 kJ/mol
# Density = 1.509865 g / cm^3
# Si number density = 15.133092 Si / 1000 Ang^3
#
#
#
# Elastic Constant Matrix: (Units=GPa)
#
#
# Indices 1 2 3 4 5 6 
#
# 1 47.1749 34.0323 40.0064 0.0000 0.0000 0.0000
# 2 34.0323 103.3481 64.6374 0.0000 0.0000 0.0000
# 3 40.0064 64.6374 134.8856 0.0000 0.0000 0.0000
# 4 0.0000 0.0000 0.0000 28.1629 0.0000 0.0000
# 5 0.0000 0.0000 0.0000 0.0000 0.1919 0.0000
# 6 0.0000 0.0000 0.0000 0.0000 0.0000 21.0110
#
#
#
# Elastic Compliance Matrix: (Units=1/GPa)
#
#
# Indices 1 2 3 4 5 6 
#
# 1 0.031000 -0.006366 -0.006144 0.000000 0.000000 0.000000
# 2 -0.006366 0.015124 -0.005360 0.000000 0.000000 0.000000
# 3 -0.006144 -0.005360 0.011804 0.000000 0.000000 0.000000
# 4 0.000000 0.000000 0.000000 0.035508 0.000000 0.000000
# 5 0.000000 0.000000 0.000000 0.000000 5.211451 0.000000
# 6 0.000000 0.000000 0.000000 0.000000 0.000000 0.047594
#
#
# Mechanical properties :
#
#
# Convention : Reuss Voigt Hill
#
# Bulk Modulus (GPa) = 45.06460 62.52898 53.79679
# Shear Modulus (GPa) = 0.92668 19.65532 10.29100
#
# Velocity S-wave (km/s) = 0.78338 3.60784 2.61057
# Velocity P-wave (km/s) = 5.53730 7.66579 6.68678
#
# Compressibility (1/GPa) = 0.02219037
#
# Stress axis : x y z
#
# Youngs Moduli (GPa) = 32.25757 66.11892 84.71467
#
# Poissons Ratio (x) = 0.42089 0.52050
# Poissons Ratio (y) = 0.20534 0.45403
# Poissons Ratio (z) = 0.19820 0.35437
#
# Static dielectric constant tensor:
#      x y z
#    x 2.553280 0.000000 0.000000 
#    y 0.000000 3.067480 0.000000 
#    z 0.000000 0.000000 2.901530 
# 
# 
# High freq. dielectric constant tensor:
#      x y z
#    x 1.534560 0.000000 0.000000 
#    y 0.000000 1.600230 0.000000 
#    z 0.000000 0.000000 1.574120 
# 
# From -- ./inp_files/12957.got.cif
#   From: 2010.03.12/outbox.cif.g09.slc.cpg/sg59_7_cif.got.tgz:12957.got - 2010.04.16 16:29:54.
