data_PCOD8240233
_publ_section_title
;
Structure prediction by ZEFSAII (Michael W. Deem and Ramdas Pophale) SiO2 
 PCOD8240233
Probable space group: P M M N
;
_chemical_formula_sum "Si O2"
_cell_formula_units_Z 56
_cell_length_a 21.796603
_cell_length_b 9.063726
_cell_length_c 14.926622
_cell_angle_alpha 90.000000
_cell_angle_beta 90.000000
_cell_angle_gamma 90.000000
_cell_volume 2948.880117
_symmetry_space_group_name_H-M "P M M N"
_symmetry_group_IT_number 59
_space_group.IT_coordinate_system_code '2'
_symmetry_cell_setting 'orthorhombic'
loop_
_space_group_symop_operation_xyz
x,y,z
1/2-x,1/2-y,z
1/2+x,-y,-z
-x,1/2+y,-z
-x,-y,-z
1/2+x,1/2+y,-z
1/2-x,y,z
x,1/2-y,z
loop_
_atom_site_type_symbol
_atom_site_label
_atom_site_fract_x
_atom_site_fract_y
_atom_site_fract_z
Si Si1 0.579667 0.074930 0.838479
Si Si2 0.862298 0.421353 0.354353
Si Si3 0.543642 0.077969 0.202682
Si Si4 0.679033 0.920988 0.517711
Si Si5 0.821063 0.919822 0.723057
Si Si6 0.250000 0.578822 0.920515
Si Si7 0.750000 0.923452 0.263000
Si Si8 0.116263 0.577519 0.969494
O O1 0.575937 0.250000 0.836035
O O2 0.519964 0.007760 0.792557
O O3 0.639778 0.025932 0.785377
O O4 0.584311 0.014626 0.940894
O O5 0.844894 0.250000 0.354426
O O6 0.924396 0.449002 0.298615
O O7 0.866691 0.481148 0.456250
O O8 0.809923 0.513100 0.307592
O O9 0.530478 0.250000 0.187680
O O10 0.585386 0.012359 0.121065
O O11 0.750000 0.956668 0.494204
O O12 0.665482 0.750000 0.499655
O O13 0.665207 0.961349 0.620207
O O14 0.750000 0.946968 0.745272
O O15 0.838763 0.750000 0.740986
O O16 0.250000 0.750000 0.887409
O O17 0.250000 0.467059 0.839482
O O18 0.188897 0.542739 0.976916
O O19 0.750000 0.750000 0.274934
O O20 0.106075 0.750000 0.965328
#
# Coordination Sequence:
#
# PCOD8240233 Si02
#       8
#     8   8   8   8   8   4   4   8
#     4  11  23  37  58  86 112 146 193 239 282 329
#     4  11  21  34  57  85 113 151 192 227 276 339
#     4  10  21  39  58  78 111 155 193 227 276 339
#     4   9  18  34  57  85 115 146 181 230 289 337
#     4   9  20  40  62  83 113 151 186 228 286 340
#     4  10  18  36  58  79 112 149 186 229 282 338
#     4  12  22  32  50  81 120 151 182 231 282 328
#     4   9  19  35  58  83 112 149 187 232 285 335
#
# _framework density 18.990261
#
# number of rings (size 3 to 8) (size 9 to 14) (size 15 to 20)
#    0.000    2.000    2.143    2.786    1.000    2.000 
#    0.000    4.286    0.000    0.000    0.000    0.000 
#    0.000    0.000    0.000    0.000    0.000    0.000 
#
# Total GULP energy -694343.821455 kJ/mol
# GULP energy per Si atom -12398.996812 kJ/mol
# Density = 1.894704 g / cm^3
# Si number density = 18.990261 Si / 1000 Ang^3
#
#
#
# Elastic Constant Matrix: (Units=GPa)
#
#
# Indices 1 2 3 4 5 6 
#
# 1 89.5972 36.1870 35.3761 0.0000 0.0000 0.0000
# 2 36.1870 71.3592 36.2600 0.0000 0.0000 0.0000
# 3 35.3761 36.2600 93.0146 0.0000 0.0000 0.0000
# 4 0.0000 0.0000 0.0000 30.3623 0.0000 0.0000
# 5 0.0000 0.0000 0.0000 0.0000 -32.5238 0.0000
# 6 0.0000 0.0000 0.0000 0.0000 0.0000 28.3652
#
#
#
# Elastic Compliance Matrix: (Units=1/GPa)
#
#
# Indices 1 2 3 4 5 6 
#
# 1 0.014842 -0.005809 -0.003380 0.000000 0.000000 0.000000
# 2 -0.005809 0.019749 -0.005489 0.000000 0.000000 0.000000
# 3 -0.003380 -0.005489 0.014177 0.000000 0.000000 0.000000
# 4 0.000000 0.000000 0.000000 0.032936 0.000000 0.000000
# 5 0.000000 0.000000 0.000000 0.000000 -0.030747 0.000000
# 6 0.000000 0.000000 0.000000 0.000000 0.000000 0.035254
#
#
# Mechanical properties :
#
#
# Convention : Reuss Voigt Hill
#
# Bulk Modulus (GPa) = 51.51976 52.17970 51.84973
# Shear Modulus (GPa) = 40.97102 14.98391 27.97747
#
# Velocity S-wave (km/s) = 4.64990 2.81202 3.84246
# Velocity P-wave (km/s) = 7.48447 6.17090 6.85920
#
# Compressibility (1/GPa) = 0.01941003
#
# Stress axis : x y z
#
# Youngs Moduli (GPa) = 67.37716 50.63639 70.53894
#
# Poissons Ratio (x) = 0.29414 0.23844
# Poissons Ratio (y) = 0.39138 0.38722
# Poissons Ratio (z) = 0.22776 0.27796
#
# Static dielectric constant tensor:
#      x y z
#    x 3.436580 0.000000 0.000000 
#    y 0.000000 3.406950 0.000000 
#    z 0.000000 0.000000 3.801260 
# 
# 
# High freq. dielectric constant tensor:
#      x y z
#    x 1.728650 0.000000 0.000000 
#    y 0.000000 1.723100 0.000000 
#    z 0.000000 0.000000 1.744780 
# 
# From -- ./inp_files/21101.got.cif
#   From: 2010.03.12/outbox.cif.g09.slc.cpg/sg59_11_cif.got.tgz:21101.got - 2010.04.16 16:29:54.
