data_PCOD8240109
_publ_section_title
;
Structure prediction by ZEFSAII (Michael W. Deem and Ramdas Pophale) SiO2 
 PCOD8240109
Probable space group: P M M N
;
_chemical_formula_sum "Si O2"
_cell_formula_units_Z 56
_cell_length_a 8.688848
_cell_length_b 21.138130
_cell_length_c 16.003815
_cell_angle_alpha 90.000000
_cell_angle_beta 90.000000
_cell_angle_gamma 90.000000
_cell_volume 2939.356663
_symmetry_space_group_name_H-M "P M M N"
_symmetry_group_IT_number 59
_space_group.IT_coordinate_system_code '2'
_symmetry_cell_setting 'orthorhombic'
loop_
_space_group_symop_operation_xyz
x,y,z
1/2-x,1/2-y,z
1/2+x,-y,-z
-x,1/2+y,-z
-x,-y,-z
1/2+x,1/2+y,-z
1/2-x,y,z
x,1/2-y,z
loop_
_atom_site_type_symbol
_atom_site_label
_atom_site_fract_x
_atom_site_fract_y
_atom_site_fract_z
Si Si1 0.071768 0.381073 0.181755
Si Si2 0.423300 0.750000 0.605577
Si Si3 0.927584 0.955830 0.655459
Si Si4 0.567261 0.867494 0.518343
Si Si5 0.067424 0.322951 0.659684
Si Si6 0.569047 0.496375 0.091185
Si Si7 0.924318 0.250000 0.197031
Si Si8 0.066794 0.929240 0.238982
O O1 0.250000 0.387955 0.156326
O O2 0.046970 0.398917 0.278752
O O3 0.970161 0.427582 0.126256
O O4 0.014174 0.310784 0.162838
O O5 0.250000 0.750000 0.570357
O O6 0.512945 0.810162 0.573857
O O7 0.424465 0.750000 0.704213
O O8 0.750000 0.970516 0.643231
O O9 0.994584 0.931743 0.565309
O O10 0.001294 0.020691 0.691712
O O11 0.750000 0.866846 0.518404
O O12 0.506736 0.858953 0.423860
O O13 0.250000 0.326056 0.667056
O O14 0.011759 0.250000 0.658862
O O15 0.991662 0.359142 0.737814
O O16 0.750000 0.506781 0.088267
O O17 0.496150 0.551715 0.148345
O O18 0.500000 0.500000 0.000000
O O19 0.750000 0.250000 0.162552
O O20 0.250000 0.931347 0.235318
#
# Coordination Sequence:
#
# PCOD8240109 Si02
#       8
#     8   4   8   8   8   8   4   8
#     4  10  19  33  55  83 115 153 192 228 277 335
#     4  11  21  29  43  75 112 145 194 243 279 319
#     4   8  16  30  51  77 107 143 189 233 276 334
#     4  10  18  33  53  73 103 153 202 238 282 334
#     4  10  21  36  55  79 108 149 202 246 286 337
#     4  11  22  40  66  92 117 143 179 225 278 341
#     4  11  21  31  47  79 120 157 192 235 283 335
#     4  10  21  38  58  85 115 146 186 232 288 344
#
# _framework density 19.051788999999999
#
# number of rings (size 3 to 8) (size 9 to 14) (size 15 to 20)
#    0.000    2.000    2.143    3.429    0.000    2.000 
#    0.000    0.714    1.571    0.000    0.000    0.000 
#    0.000    0.000    0.000    0.000    0.000    0.000 
#
# Total GULP energy -694124.343322 kJ/mol
# GULP energy per Si atom -12395.077559 kJ/mol
# Density = 1.900843 g / cm^3
# Si number density = 19.051789 Si / 1000 Ang^3
#
#
#
# Elastic Constant Matrix: (Units=GPa)
#
#
# Indices 1 2 3 4 5 6 
#
# 1 58.7453 38.7016 36.7325 0.0000 0.0000 0.0000
# 2 38.7016 87.1882 56.4609 0.0000 0.0000 0.0000
# 3 36.7325 56.4609 110.3406 0.0000 0.0000 0.0000
# 4 0.0000 0.0000 0.0000 5.4153 0.0000 0.0000
# 5 0.0000 0.0000 0.0000 0.0000 24.7692 0.0000
# 6 0.0000 0.0000 0.0000 0.0000 0.0000 27.1095
#
#
#
# Elastic Compliance Matrix: (Units=1/GPa)
#
#
# Indices 1 2 3 4 5 6 
#
# 1 0.025176 -0.008596 -0.003982 0.000000 0.000000 0.000000
# 2 -0.008596 0.020089 -0.007418 0.000000 0.000000 0.000000
# 3 -0.003982 -0.007418 0.014184 0.000000 0.000000 0.000000
# 4 0.000000 0.000000 0.000000 0.184661 0.000000 0.000000
# 5 0.000000 0.000000 0.000000 0.000000 0.040373 0.000000
# 6 0.000000 0.000000 0.000000 0.000000 0.000000 0.036887
#
#
# Mechanical properties :
#
#
# Convention : Reuss Voigt Hill
#
# Bulk Modulus (GPa) = 51.39751 57.78488 54.59120
# Shear Modulus (GPa) = 13.59258 19.75076 16.67167
#
# Velocity S-wave (km/s) = 2.67395 3.22326 2.96137
# Velocity P-wave (km/s) = 6.04729 6.65198 6.35683
#
# Compressibility (1/GPa) = 0.01945619
#
# Stress axis : x y z
#
# Youngs Moduli (GPa) = 39.72023 49.77933 70.50133
#
# Poissons Ratio (x) = 0.42792 0.28077
# Poissons Ratio (y) = 0.34145 0.52295
# Poissons Ratio (z) = 0.15818 0.36924
#
# Static dielectric constant tensor:
#      x y z
#    x 3.388240 0.000000 0.000000 
#    y 0.000000 3.535520 0.000000 
#    z 0.000000 0.000000 3.438290 
# 
# 
# High freq. dielectric constant tensor:
#      x y z
#    x 1.732460 0.000000 0.000000 
#    y 0.000000 1.741570 0.000000 
#    z 0.000000 0.000000 1.720840 
# 
# From -- ./inp_files/21145.got.cif
#   From: 2010.03.12/outbox.cif.g09.slc.cpg/sg59_11_cif.got.tgz:21145.got - 2010.04.16 16:29:54.
