data_PCOD8240700
_publ_section_title
;
Structure prediction by ZEFSAII (Michael W. Deem and Ramdas Pophale) SiO2 
 PCOD8240700
Probable space group: P M M N
;
_chemical_formula_sum "Si O2"
_cell_formula_units_Z 56
_cell_length_a 19.655058
_cell_length_b 9.137773
_cell_length_c 18.794795
_cell_angle_alpha 90.000000
_cell_angle_beta 90.000000
_cell_angle_gamma 90.000000
_cell_volume 3375.610180
_symmetry_space_group_name_H-M "P M M N"
_symmetry_group_IT_number 59
_space_group.IT_coordinate_system_code '2'
_symmetry_cell_setting 'orthorhombic'
loop_
_space_group_symop_operation_xyz
x,y,z
1/2-x,1/2-y,z
1/2+x,-y,-z
-x,1/2+y,-z
-x,-y,-z
1/2+x,1/2+y,-z
1/2-x,y,z
x,1/2-y,z
loop_
_atom_site_type_symbol
_atom_site_label
_atom_site_fract_x
_atom_site_fract_y
_atom_site_fract_z
Si Si1 0.958602 0.587183 0.834139
Si Si2 0.508315 0.086999 0.705725
Si Si3 0.823667 0.416723 0.381029
Si Si4 0.145257 0.087099 0.754674
Si Si5 0.969001 0.422873 0.432046
Si Si6 0.113725 0.584013 0.885902
Si Si7 0.929358 0.922248 0.985967
O O1 0.943742 0.750000 0.805737
O O2 0.943596 0.478986 0.768020
O O3 0.035727 0.578027 0.861545
O O4 0.910221 0.551875 0.902453
O O5 0.534098 0.250000 0.685390
O O6 0.434012 0.093768 0.738216
O O7 0.508810 0.983695 0.636648
O O8 0.750000 0.432047 0.421405
O O9 0.836401 0.250000 0.356852
O O10 0.816601 0.512862 0.310722
O O11 0.888204 0.464204 0.429226
O O12 0.174550 0.250000 0.765312
O O13 0.159482 0.994418 0.825932
O O14 0.980791 0.250000 0.436998
O O15 0.000000 0.500000 0.500000
O O16 0.138867 0.750000 0.895819
O O17 0.124734 0.497142 0.960544
O O18 0.935704 0.750000 0.002812
O O19 0.000000 0.000000 0.000000
#
# Coordination Sequence:
#
# PCOD8240700 Si02
#       7
#     8   8   8   8   8   8   8
#     4   8  14  22  31  45  67  96 129 165 205 245
#     4   9  16  25  38  55  75 101 135 171 207 251
#     4   9  18  32  48  65  86 114 146 179 217 261
#     4   9  16  25  38  56  77 102 134 172 210 248
#     4  10  19  31  47  65  87 113 143 179 219 268
#     4   9  15  22  32  46  67  97 132 168 204 242
#     4   9  15  21  29  43  65  94 129 167 205 245
#
# _framework density 16.589594999999999
#
# number of rings (size 3 to 8) (size 9 to 14) (size 15 to 20)
#    0.000    3.000    0.000    3.000    0.000    8.286 
#    0.000    0.000    0.000    0.000    0.000    0.000 
#    0.000    0.000    0.000    1.286    0.000   22.286 
#
# Total GULP energy -693816.540603 kJ/mol
# GULP energy per Si atom -12389.581082 kJ/mol
# Density = 1.655184 g / cm^3
# Si number density = 16.589595 Si / 1000 Ang^3
#
#
#
# Elastic Constant Matrix: (Units=GPa)
#
#
# Indices 1 2 3 4 5 6 
#
# 1 35.8459 25.7555 35.2550 0.0000 0.0000 0.0000
# 2 25.7555 127.6550 69.8409 0.0000 0.0000 0.0000
# 3 35.2550 69.8409 120.6905 0.0000 0.0000 0.0000
# 4 0.0000 0.0000 0.0000 35.8539 0.0000 0.0000
# 5 0.0000 0.0000 0.0000 0.0000 9.5521 0.0000
# 6 0.0000 0.0000 0.0000 0.0000 0.0000 6.9959
#
#
#
# Elastic Compliance Matrix: (Units=1/GPa)
#
#
# Indices 1 2 3 4 5 6 
#
# 1 0.039653 -0.002434 -0.010175 0.000000 0.000000 0.000000
# 2 -0.002434 0.011612 -0.006009 0.000000 0.000000 0.000000
# 3 -0.010175 -0.006009 0.014735 0.000000 0.000000 0.000000
# 4 0.000000 0.000000 0.000000 0.027891 0.000000 0.000000
# 5 0.000000 0.000000 0.000000 0.000000 0.104689 0.000000
# 6 0.000000 0.000000 0.000000 0.000000 0.000000 0.142940
#
#
# Mechanical properties :
#
#
# Convention : Reuss Voigt Hill
#
# Bulk Modulus (GPa) = 34.76377 60.65490 47.70934
# Shear Modulus (GPa) = 12.87523 20.70305 16.78914
#
# Velocity S-wave (km/s) = 2.78888 3.53647 3.18469
# Velocity P-wave (km/s) = 5.60100 7.30184 6.50723
#
# Compressibility (1/GPa) = 0.02876558
#
# Stress axis : x y z
#
# Youngs Moduli (GPa) = 25.21889 86.11748 67.86606
#
# Poissons Ratio (x) = 0.20958 0.69052
# Poissons Ratio (y) = 0.06137 0.40779
# Poissons Ratio (z) = 0.25659 0.51746
#
# Static dielectric constant tensor:
#      x y z
#    x 2.648980 0.000000 0.000000 
#    y 0.000000 3.398860 0.000000 
#    z 0.000000 0.000000 3.395940 
# 
# 
# High freq. dielectric constant tensor:
#      x y z
#    x 1.563880 0.000000 0.000000 
#    y 0.000000 1.657740 0.000000 
#    z 0.000000 0.000000 1.632680 
# 
# From -- ./inp_files/26399.got.cif
#   From: 2010.03.12/outbox.cif.g09.slc.cpg/sg59_14_cif.got.tgz:26399.got - 2010.04.16 16:29:54.
