data_PCOD8240819
_publ_section_title
;
Structure prediction by ZEFSAII (Michael W. Deem and Ramdas Pophale) SiO2 
 PCOD8240819
Probable space group: P M M N
;
_chemical_formula_sum "Si O2"
_cell_formula_units_Z 56
_cell_length_a 14.537078
_cell_length_b 9.610807
_cell_length_c 20.958700
_cell_angle_alpha 90.000000
_cell_angle_beta 90.000000
_cell_angle_gamma 90.000000
_cell_volume 2928.203922
_symmetry_space_group_name_H-M "P M M N"
_symmetry_group_IT_number 59
_space_group.IT_coordinate_system_code '2'
_symmetry_cell_setting 'orthorhombic'
loop_
_space_group_symop_operation_xyz
x,y,z
1/2-x,1/2-y,z
1/2+x,-y,-z
-x,1/2+y,-z
-x,-y,-z
1/2+x,1/2+y,-z
1/2-x,y,z
x,1/2-y,z
loop_
_atom_site_type_symbol
_atom_site_label
_atom_site_fract_x
_atom_site_fract_y
_atom_site_fract_z
Si Si1 0.852367 0.897833 0.401867
Si Si2 0.992596 0.412279 0.906604
Si Si3 0.976657 0.588737 0.785119
Si Si4 0.641475 0.410233 0.023411
Si Si5 0.147515 0.084983 0.333367
Si Si6 0.578031 0.909776 0.531868
Si Si7 0.646096 0.092388 0.295489
O O1 0.750000 0.888984 0.374961
O O2 0.903726 0.750000 0.390179
O O3 0.843818 0.925794 0.477609
O O4 0.898879 0.013904 0.356869
O O5 0.015226 0.250000 0.894315
O O6 0.954877 0.487505 0.843532
O O7 0.907973 0.428445 0.955383
O O8 0.087035 0.488475 0.928324
O O9 0.956042 0.750000 0.803127
O O10 0.914675 0.538401 0.725868
O O11 0.083526 0.568112 0.766510
O O12 0.750000 0.451456 0.018859
O O13 0.631880 0.250000 0.046815
O O14 0.250000 0.026451 0.321928
O O15 0.149601 0.250000 0.339407
O O16 0.110050 0.025091 0.400839
O O17 0.546793 0.750000 0.541026
O O18 0.500000 0.000000 0.500000
O O19 0.750000 0.049544 0.276516
O O20 0.641264 0.250000 0.318305
#
# Coordination Sequence:
#
# PCOD8240819 Si02
#       7
#     8   8   8   8   8   8   8
#     4   9  17  29  46  68  92 119 155 203 259 311
#     4  10  21  36  56  85 116 143 176 219 264 310
#     4  10  20  34  52  74 103 141 182 218 255 306
#     4   9  19  38  62  85 112 146 179 212 256 312
#     4   9  18  33  52  73  99 136 183 227 263 309
#     4  10  19  31  49  71  95 124 162 212 268 319
#     4   9  18  32  49  70  98 133 172 213 259 314
#
# _framework density 19.12435
#
# number of rings (size 3 to 8) (size 9 to 14) (size 15 to 20)
#    0.000    2.571    0.000    1.714    0.000    6.000 
#    0.000    2.143    0.000    2.143    0.000    0.000 
#    0.000    0.000    0.000    0.000    0.000    0.000 
#
# Total GULP energy -693785.524105 kJ/mol
# GULP energy per Si atom -12389.027216 kJ/mol
# Density = 1.908082 g / cm^3
# Si number density = 19.124350 Si / 1000 Ang^3
#
#
#
# Elastic Constant Matrix: (Units=GPa)
#
#
# Indices 1 2 3 4 5 6 
#
# 1 104.7266 33.2470 32.8880 0.0000 0.0000 0.0000
# 2 33.2470 73.5539 48.1244 0.0000 0.0000 0.0000
# 3 32.8880 48.1244 106.2855 0.0000 0.0000 0.0000
# 4 0.0000 0.0000 0.0000 35.8656 0.0000 0.0000
# 5 0.0000 0.0000 0.0000 0.0000 20.5956 0.0000
# 6 0.0000 0.0000 0.0000 0.0000 0.0000 20.7451
#
#
#
# Elastic Compliance Matrix: (Units=1/GPa)
#
#
# Indices 1 2 3 4 5 6 
#
# 1 0.011358 -0.004028 -0.001691 0.000000 0.000000 0.000000
# 2 -0.004028 0.020747 -0.008148 0.000000 0.000000 0.000000
# 3 -0.001691 -0.008148 0.013621 0.000000 0.000000 0.000000
# 4 0.000000 0.000000 0.000000 0.027882 0.000000 0.000000
# 5 0.000000 0.000000 0.000000 0.000000 0.048554 0.000000
# 6 0.000000 0.000000 0.000000 0.000000 0.000000 0.048204
#
#
# Mechanical properties :
#
#
# Convention : Reuss Voigt Hill
#
# Bulk Modulus (GPa) = 55.57509 57.00942 56.29226
# Shear Modulus (GPa) = 24.49825 26.79504 25.64664
#
# Velocity S-wave (km/s) = 3.58299 3.74718 3.66600
# Velocity P-wave (km/s) = 6.80000 6.97111 6.88609
#
# Compressibility (1/GPa) = 0.01799367
#
# Stress axis : x y z
#
# Youngs Moduli (GPa) = 88.04097 48.20033 73.41651
#
# Poissons Ratio (x) = 0.19414 0.12414
# Poissons Ratio (y) = 0.35461 0.59816
# Poissons Ratio (z) = 0.14887 0.39271
#
# Static dielectric constant tensor:
#      x y z
#    x 3.462290 0.000000 0.000000 
#    y 0.000000 3.509010 0.000000 
#    z 0.000000 0.000000 3.779620 
# 
# 
# High freq. dielectric constant tensor:
#      x y z
#    x 1.739680 0.000000 0.000000 
#    y 0.000000 1.725820 0.000000 
#    z 0.000000 0.000000 1.742370 
# 
# From -- ./inp_files/30413.got.cif
#   From: 2010.03.12/outbox.cif.g09.slc.cpg/sg59_16_cif.got.tgz:30413.got - 2010.04.16 16:29:54.
