data_PCOD8240815
_publ_section_title
;
Structure prediction by ZEFSAII (Michael W. Deem and Ramdas Pophale) SiO2 
 PCOD8240815
Probable space group: P M M N
;
_chemical_formula_sum "Si O2"
_cell_formula_units_Z 64
_cell_length_a 9.163853
_cell_length_b 17.876122
_cell_length_c 20.789260
_cell_angle_alpha 90.000000
_cell_angle_beta 90.000000
_cell_angle_gamma 90.000000
_cell_volume 3405.575044
_symmetry_space_group_name_H-M "P M M N"
_symmetry_group_IT_number 59
_space_group.IT_coordinate_system_code '2'
_symmetry_cell_setting 'orthorhombic'
loop_
_space_group_symop_operation_xyz
x,y,z
1/2-x,1/2-y,z
1/2+x,-y,-z
-x,1/2+y,-z
-x,-y,-z
1/2+x,1/2+y,-z
1/2-x,y,z
x,1/2-y,z
loop_
_atom_site_type_symbol
_atom_site_label
_atom_site_fract_x
_atom_site_fract_y
_atom_site_fract_z
Si Si1 0.921256 0.897762 0.122382
Si Si2 0.916405 0.596473 0.373961
Si Si3 0.578307 0.421229 0.504160
Si Si4 0.411763 0.581893 0.636010
Si Si5 0.084175 0.600143 0.249462
Si Si6 0.916572 0.164070 0.996921
Si Si7 0.087075 0.077935 0.243952
Si Si8 0.919820 0.071037 0.118954
O O1 0.750000 0.884196 0.131101
O O2 0.002035 0.869153 0.186501
O O3 0.980054 0.849372 0.063567
O O4 0.957784 0.984255 0.108713
O O5 0.750000 0.625608 0.375469
O O6 0.922370 0.507225 0.370902
O O7 0.001619 0.625075 0.438124
O O8 0.998665 0.630582 0.311970
O O9 0.500000 0.500000 0.500000
O O10 0.750000 0.432087 0.519008
O O11 0.555429 0.381584 0.434303
O O12 0.250000 0.603999 0.658737
O O13 0.520273 0.612662 0.690580
O O14 0.250000 0.630241 0.250318
O O15 0.081318 0.510972 0.248782
O O16 0.750000 0.141659 0.979461
O O17 0.926555 0.250000 0.017763
O O18 0.975128 0.114773 0.056213
O O19 0.250000 0.108614 0.237678
O O20 0.999785 0.104769 0.181271
O O21 0.750000 0.083975 0.130723
#
# Coordination Sequence:
#
# PCOD8240815 Si02
#       8
#     8   8   8   8   8   8   8   8
#     4  10  19  31  49  71  93 118 150 188 229 271
#     4   9  15  22  32  48  72 103 140 181 222 264
#     4   9  15  21  29  43  66 101 142 180 219 264
#     4   8  14  22  31  45  70 104 140 178 219 263
#     4   9  16  26  40  58  81 109 143 183 223 264
#     4  10  21  36  52  70  93 121 151 183 223 272
#     4   9  16  24  38  59  80 105 141 184 224 263
#     4   9  18  32  49  68  91 119 150 186 227 271
#
# _framework density 18.792712999999999
#
# number of rings (size 3 to 8) (size 9 to 14) (size 15 to 20)
#    0.000    2.875    0.000    3.000    0.000    7.750 
#    0.000    0.000    0.000    0.000    0.000    0.000 
#    0.000    0.000    0.000    1.125    0.000   20.250 
#
# Total GULP energy -793351.021620 kJ/mol
# GULP energy per Si atom -12396.109713 kJ/mol
# Density = 1.874994 g / cm^3
# Si number density = 18.792713 Si / 1000 Ang^3
#
#
#
# Elastic Constant Matrix: (Units=GPa)
#
#
# Indices 1 2 3 4 5 6 
#
# 1 125.3239 10.2427 74.6705 0.0000 0.0000 0.0000
# 2 10.2427 15.4035 11.8786 0.0000 0.0000 0.0000
# 3 74.6705 11.8786 155.0534 0.0000 0.0000 0.0000
# 4 0.0000 0.0000 0.0000 0.6773 0.0000 0.0000
# 5 0.0000 0.0000 0.0000 0.0000 40.2226 0.0000
# 6 0.0000 0.0000 0.0000 0.0000 0.0000 8.7920
#
#
#
# Elastic Compliance Matrix: (Units=1/GPa)
#
#
# Indices 1 2 3 4 5 6 
#
# 1 0.011370 -0.003548 -0.005204 0.000000 0.000000 0.000000
# 2 -0.003548 0.070103 -0.003662 0.000000 0.000000 0.000000
# 3 -0.005204 -0.003662 0.009236 0.000000 0.000000 0.000000
# 4 0.000000 0.000000 0.000000 1.476518 0.000000 0.000000
# 5 0.000000 0.000000 0.000000 0.000000 0.024862 0.000000
# 6 0.000000 0.000000 0.000000 0.000000 0.000000 0.113740
#
#
# Mechanical properties :
#
#
# Convention : Reuss Voigt Hill
#
# Bulk Modulus (GPa) = 15.17859 54.37383 34.77621
# Shear Modulus (GPa) = 2.85288 23.20430 13.02859
#
# Velocity S-wave (km/s) = 1.23344 3.51771 2.63588
# Velocity P-wave (km/s) = 3.18165 6.74502 5.27343
#
# Compressibility (1/GPa) = 0.06588228
#
# Stress axis : x y z
#
# Youngs Moduli (GPa) = 87.95316 14.26465 108.27301
#
# Poissons Ratio (x) = 0.05060 0.56341
# Poissons Ratio (y) = 0.31202 0.39652
# Poissons Ratio (z) = 0.45768 0.05224
#
# Static dielectric constant tensor:
#      x y z
#    x 3.583840 0.000000 0.000000 
#    y 0.000000 2.681550 0.000000 
#    z 0.000000 0.000000 3.947540 
# 
# 
# High freq. dielectric constant tensor:
#      x y z
#    x 1.739980 0.000000 0.000000 
#    y 0.000000 1.643680 0.000000 
#    z 0.000000 0.000000 1.752070 
# 
# From -- ./inp_files/29747.got.cif
#   From: 2010.03.12/outbox.cif.g09.slc.cpg/sg59_15_cif.got.tgz:29747.got - 2010.04.16 16:29:54.
