data_PCOD8240083
_publ_section_title
;
Structure prediction by ZEFSAII (Michael W. Deem and Ramdas Pophale) SiO2 
 PCOD8240083
Probable space group: P M M N
;
_chemical_formula_sum "Si O2"
_cell_formula_units_Z 48
_cell_length_a 8.828720
_cell_length_b 15.255359
_cell_length_c 19.204127
_cell_angle_alpha 90.000000
_cell_angle_beta 90.000000
_cell_angle_gamma 90.000000
_cell_volume 2586.513474
_symmetry_space_group_name_H-M "P M M N"
_symmetry_group_IT_number 59
_space_group.IT_coordinate_system_code '2'
_symmetry_cell_setting 'orthorhombic'
loop_
_space_group_symop_operation_xyz
x,y,z
1/2-x,1/2-y,z
1/2+x,-y,-z
-x,1/2+y,-z
-x,-y,-z
1/2+x,1/2+y,-z
1/2-x,y,z
x,1/2-y,z
loop_
_atom_site_type_symbol
_atom_site_label
_atom_site_fract_x
_atom_site_fract_y
_atom_site_fract_z
Si Si1 0.429343 0.101348 0.828361
Si Si2 0.570380 0.096337 0.174400
Si Si3 0.570001 0.500040 0.424447
Si Si4 0.569660 0.250000 0.077115
Si Si5 0.569859 0.152133 0.324551
Si Si6 0.570449 0.250000 0.919596
Si Si7 0.929809 0.652346 0.324851
O O1 0.250000 0.115443 0.833613
O O2 0.509918 0.162714 0.883753
O O3 0.488968 0.125121 0.751318
O O4 0.478417 0.001993 0.845700
O O5 0.750000 0.102709 0.178620
O O6 0.507231 0.163450 0.116490
O O7 0.503574 0.122091 0.249957
O O8 0.500000 0.500000 0.500000
O O9 0.750000 0.501532 0.430129
O O10 0.511775 0.413491 0.384271
O O11 0.508727 0.585057 0.382723
O O12 0.750000 0.250000 0.078297
O O13 0.508818 0.250000 0.998582
O O14 0.750000 0.149233 0.321185
O O15 0.511935 0.250000 0.342187
O O16 0.750000 0.250000 0.916794
O O17 0.750000 0.648656 0.323737
O O18 0.988327 0.750000 0.343237
#
# Coordination Sequence:
#
# PCOD8240083 Si02
#       7
#     8   8   8   4   8   4   8
#     4  10  18  32  57  81  97 127 182 227 247 286
#     4   9  15  27  52  80 100 128 173 219 255 294
#     4  10  20  33  49  74 104 131 161 204 255 301
#     4   9  18  31  47  75 114 139 160 204 267 321
#     4   9  15  26  49  77 100 125 165 213 252 290
#     4  11  23  35  47  73 114 147 162 198 269 327
#     4   9  16  29  52  75  94 123 168 213 245 281
#
# _framework density 18.5578
#
# number of rings (size 3 to 8) (size 9 to 14) (size 15 to 20)
#    0.000    2.500    3.333    0.250    0.000    1.333 
#    0.000    0.833    0.000    1.000    0.000    0.000 
#    0.000    0.000    0.000    0.000    0.000    0.000 
#
# Total GULP energy -595086.342232 kJ/mol
# GULP energy per Si atom -12397.632130 kJ/mol
# Density = 1.851556 g / cm^3
# Si number density = 18.557800 Si / 1000 Ang^3
#
#
#
# Elastic Constant Matrix: (Units=GPa)
#
#
# Indices 1 2 3 4 5 6 
#
# 1 16.9799 22.9899 23.6331 0.0000 0.0000 0.0000
# 2 22.9899 207.9552 111.1122 0.0000 0.0000 0.0000
# 3 23.6331 111.1122 188.4434 0.0000 0.0000 0.0000
# 4 0.0000 0.0000 0.0000 37.0108 0.0000 0.0000
# 5 0.0000 0.0000 0.0000 0.0000 22.4729 0.0000
# 6 0.0000 0.0000 0.0000 0.0000 0.0000 10.8244
#
#
#
# Elastic Compliance Matrix: (Units=1/GPa)
#
#
# Indices 1 2 3 4 5 6 
#
# 1 0.074403 -0.004730 -0.006542 0.000000 0.000000 0.000000
# 2 -0.004730 0.007321 -0.003724 0.000000 0.000000 0.000000
# 3 -0.006542 -0.003724 0.008323 0.000000 0.000000 0.000000
# 4 0.000000 0.000000 0.000000 0.027019 0.000000 0.000000
# 5 0.000000 0.000000 0.000000 0.000000 0.044498 0.000000
# 6 0.000000 0.000000 0.000000 0.000000 0.000000 0.092384
#
#
# Mechanical properties :
#
#
# Convention : Reuss Voigt Hill
#
# Bulk Modulus (GPa) = 16.65127 80.98320 48.81724
# Shear Modulus (GPa) = 16.44966 31.10449 23.77708
#
# Velocity S-wave (km/s) = 2.98048 4.09845 3.58333
# Velocity P-wave (km/s) = 4.56470 8.13200 6.59416
#
# Compressibility (1/GPa) = 0.06005547
#
# Stress axis : x y z
#
# Youngs Moduli (GPa) = 13.44034 136.58998 120.15380
#
# Poissons Ratio (x) = 0.64605 0.78607
# Poissons Ratio (y) = 0.06357 0.44741
# Poissons Ratio (z) = 0.08793 0.50861
#
# Static dielectric constant tensor:
#      x y z
#    x 2.759890 0.000000 0.000000 
#    y 0.000000 3.830320 0.000000 
#    z 0.000000 0.000000 3.510830 
# 
# 
# High freq. dielectric constant tensor:
#      x y z
#    x 1.651620 0.000000 0.000000 
#    y 0.000000 1.742890 0.000000 
#    z 0.000000 0.000000 1.722610 
# 
# From -- ./inp_files/22451.got.cif
#   From: 2010.03.12/outbox.cif.g09.slc.cpg/sg59_12_cif.got.tgz:22451.got - 2010.04.16 16:29:54.
