data_PCOD8240987
_publ_section_title
;
Structure prediction by ZEFSAII (Michael W. Deem and Ramdas Pophale) SiO2 
 PCOD8240987
Probable space group: P M M N
;
_chemical_formula_sum "Si O2"
_cell_formula_units_Z 32
_cell_length_a 7.601748
_cell_length_b 9.182705
_cell_length_c 24.410168
_cell_angle_alpha 90.000000
_cell_angle_beta 90.000000
_cell_angle_gamma 90.000000
_cell_volume 1703.942242
_symmetry_space_group_name_H-M "P M M N"
_symmetry_group_IT_number 59
_space_group.IT_coordinate_system_code '2'
_symmetry_cell_setting 'orthorhombic'
loop_
_space_group_symop_operation_xyz
x,y,z
1/2-x,1/2-y,z
1/2+x,-y,-z
-x,1/2+y,-z
-x,-y,-z
1/2+x,1/2+y,-z
1/2-x,y,z
x,1/2-y,z
loop_
_atom_site_type_symbol
_atom_site_label
_atom_site_fract_x
_atom_site_fract_y
_atom_site_fract_z
Si Si1 0.547329 0.079295 0.160476
Si Si2 0.750000 0.922268 0.757532
Si Si3 0.050159 0.920150 0.555262
Si Si4 0.544171 0.588455 0.053883
Si Si5 0.250000 0.077214 0.364211
O O1 0.750000 0.040543 0.174214
O O2 0.525090 0.250000 0.148756
O O3 0.426722 0.027234 0.211067
O O4 0.473727 0.996912 0.106940
O O5 0.750000 0.750000 0.752676
O O6 0.750000 0.991953 0.696712
O O7 0.250000 0.955260 0.572482
O O8 0.021198 0.750000 0.544697
O O9 0.924170 0.976627 0.603897
O O10 0.000000 0.000000 0.500000
O O11 0.750000 0.603234 0.059684
O O12 0.458471 0.750000 0.051009
O O13 0.500000 0.500000 0.000000
O O14 0.250000 0.250000 0.359906
#
# Coordination Sequence:
#
# PCOD8240987 Si02
#       5
#     8   4   8   8   4
#     4   9  18  33  52  74 101 133 170 215 262 309
#     4   9  18  32  53  77 103 137 176 215 258 311
#     4  10  19  31  51  77 106 141 177 216 264 313
#     4  10  21  35  52  76 105 135 169 213 262 314
#     4   9  18  32  49  77 109 135 174 223 262 307
#
# _framework density 18.779979000000001
#
# number of rings (size 3 to 8) (size 9 to 14) (size 15 to 20)
#    0.000    2.500    1.250    0.750    1.750    2.500 
#    0.000    5.000    0.000    3.000    0.000    3.500 
#    0.000    0.000    0.000    0.000    0.000    0.000 
#
# Total GULP energy -396731.146234 kJ/mol
# GULP energy per Si atom -12397.848320 kJ/mol
# Density = 1.873723 g / cm^3
# Si number density = 18.779979 Si / 1000 Ang^3
#
#
#
# Elastic Constant Matrix: (Units=GPa)
#
#
# Indices 1 2 3 4 5 6 
#
# 1 124.7879 32.4011 84.2385 0.0000 0.0000 0.0000
# 2 32.4011 60.4657 50.8926 0.0000 0.0000 0.0000
# 3 84.2385 50.8926 200.2002 0.0000 0.0000 0.0000
# 4 0.0000 0.0000 0.0000 24.0661 0.0000 0.0000
# 5 0.0000 0.0000 0.0000 0.0000 34.9465 0.0000
# 6 0.0000 0.0000 0.0000 0.0000 0.0000 15.8721
#
#
#
# Elastic Compliance Matrix: (Units=1/GPa)
#
#
# Indices 1 2 3 4 5 6 
#
# 1 0.011520 -0.002663 -0.004170 0.000000 0.000000 0.000000
# 2 -0.002663 0.021656 -0.004384 0.000000 0.000000 0.000000
# 3 -0.004170 -0.004384 0.007864 0.000000 0.000000 0.000000
# 4 0.000000 0.000000 0.000000 0.041552 0.000000 0.000000
# 5 0.000000 0.000000 0.000000 0.000000 0.028615 0.000000
# 6 0.000000 0.000000 0.000000 0.000000 0.000000 0.063003
#
#
# Mechanical properties :
#
#
# Convention : Reuss Voigt Hill
#
# Bulk Modulus (GPa) = 53.75100 80.05756 66.90428
# Shear Modulus (GPa) = 24.64891 29.50506 27.07698
#
# Velocity S-wave (km/s) = 3.62679 3.96800 3.80122
# Velocity P-wave (km/s) = 6.79865 7.98217 7.41407
#
# Compressibility (1/GPa) = 0.01860431
#
# Stress axis : x y z
#
# Youngs Moduli (GPa) = 86.80295 46.17724 127.15568
#
# Poissons Ratio (x) = 0.12298 0.53030
# Poissons Ratio (y) = 0.23117 0.55751
# Poissons Ratio (z) = 0.36201 0.20246
#
# Static dielectric constant tensor:
#      x y z
#    x 3.776730 0.000000 0.000000 
#    y 0.000000 3.242270 0.000000 
#    z 0.000000 0.000000 3.722640 
# 
# 
# High freq. dielectric constant tensor:
#      x y z
#    x 1.739820 0.000000 0.000000 
#    y 0.000000 1.699770 0.000000 
#    z 0.000000 0.000000 1.727910 
# 
# From -- ./inp_files/31106.got.cif
#   From: 2010.03.12/outbox.cif.g09.slc.cpg/sg59_16_cif.got.tgz:31106.got - 2010.04.16 16:29:54.
