data_PCOD8240258
_publ_section_title
;
Structure prediction by ZEFSAII (Michael W. Deem and Ramdas Pophale) SiO2 
 PCOD8240258
Probable space group: P M M N
;
_chemical_formula_sum "Si O2"
_cell_formula_units_Z 64
_cell_length_a 31.077129
_cell_length_b 9.193925
_cell_length_c 12.171799
_cell_angle_alpha 90.000000
_cell_angle_beta 90.000000
_cell_angle_gamma 90.000000
_cell_volume 3477.736065
_symmetry_space_group_name_H-M "P M M N"
_symmetry_group_IT_number 59
_space_group.IT_coordinate_system_code '2'
_symmetry_cell_setting 'orthorhombic'
loop_
_space_group_symop_operation_xyz
x,y,z
1/2-x,1/2-y,z
1/2+x,-y,-z
-x,1/2+y,-z
-x,-y,-z
1/2+x,1/2+y,-z
1/2-x,y,z
x,1/2-y,z
loop_
_atom_site_type_symbol
_atom_site_label
_atom_site_fract_x
_atom_site_fract_y
_atom_site_fract_z
Si Si1 0.370001 0.579304 0.142117
Si Si2 0.519797 0.411983 0.290006
Si Si3 0.377946 0.413802 0.922603
Si Si4 0.524352 0.594968 0.082829
Si Si5 0.353357 0.078894 0.487247
Si Si6 0.615761 0.081321 0.307139
Si Si7 0.424419 0.083230 0.314657
Si Si8 0.299145 0.916162 0.320812
O O1 0.379008 0.750000 0.122739
O O2 0.411260 0.511785 0.207372
O O3 0.327526 0.550731 0.213931
O O4 0.358740 0.503334 0.025514
O O5 0.519154 0.250000 0.237159
O O6 0.519525 0.536579 0.202810
O O7 0.565838 0.431598 0.350672
O O8 0.474561 0.436141 0.354351
O O9 0.357494 0.250000 0.910846
O O10 0.427056 0.394631 0.955039
O O11 0.374390 0.503804 0.809166
O O12 0.501554 0.750000 0.081637
O O13 0.500000 0.500000 0.000000
O O14 0.349080 0.250000 0.508208
O O15 0.396154 0.037346 0.419086
O O16 0.354740 0.997416 0.603446
O O17 0.312096 0.021397 0.420953
O O18 0.628941 0.250000 0.295873
O O19 0.415052 0.250000 0.282206
O O20 0.250000 0.947977 0.288918
O O21 0.305931 0.750000 0.359467
#
# Coordination Sequence:
#
# PCOD8240258 Si02
#       8
#     8   8   8   8   8   8   8   8
#     4  10  19  31  51  79 105 130 164 205 251 305
#     4   9  18  31  45  63  91 130 175 218 256 295
#     4  10  20  33  48  68  98 135 170 206 252 301
#     4  10  19  28  40  60  88 125 168 212 254 294
#     4  10  20  34  53  77 105 135 168 209 256 306
#     4  10  20  34  51  71  98 136 182 223 255 294
#     4   9  18  32  48  69 100 136 172 213 262 308
#     4   9  19  37  60  84 108 132 159 196 245 301
#
# _framework density 18.402777
#
# number of rings (size 3 to 8) (size 9 to 14) (size 15 to 20)
#    0.000    2.375    0.000    2.625    0.000    7.250 
#    0.000    0.000    0.000    0.750    0.000    1.750 
#    0.000    0.000    0.000    0.000    0.000    0.000 
#
# Total GULP energy -792981.314412 kJ/mol
# GULP energy per Si atom -12390.333038 kJ/mol
# Density = 1.836089 g / cm^3
# Si number density = 18.402777 Si / 1000 Ang^3
#
#
#
# Elastic Constant Matrix: (Units=GPa)
#
#
# Indices 1 2 3 4 5 6 
#
# 1 56.3954 23.8858 28.5626 0.0000 0.0000 0.0000
# 2 23.8858 125.8534 57.0925 0.0000 0.0000 0.0000
# 3 28.5626 57.0925 102.2974 0.0000 0.0000 0.0000
# 4 0.0000 0.0000 0.0000 23.7367 0.0000 0.0000
# 5 0.0000 0.0000 0.0000 0.0000 14.9447 0.0000
# 6 0.0000 0.0000 0.0000 0.0000 0.0000 21.1625
#
#
#
# Elastic Compliance Matrix: (Units=1/GPa)
#
#
# Indices 1 2 3 4 5 6 
#
# 1 0.020943 -0.001770 -0.004860 0.000000 0.000000 0.000000
# 2 -0.001770 0.010789 -0.005527 0.000000 0.000000 0.000000
# 3 -0.004860 -0.005527 0.014217 0.000000 0.000000 0.000000
# 4 0.000000 0.000000 0.000000 0.042129 0.000000 0.000000
# 5 0.000000 0.000000 0.000000 0.000000 0.066913 0.000000
# 6 0.000000 0.000000 0.000000 0.000000 0.000000 0.047253
#
#
# Mechanical properties :
#
#
# Convention : Reuss Voigt Hill
#
# Bulk Modulus (GPa) = 46.22116 55.95868 51.08992
# Shear Modulus (GPa) = 21.38851 23.63578 22.51215
#
# Velocity S-wave (km/s) = 3.41287 3.58768 3.50137
# Velocity P-wave (km/s) = 6.37975 6.90186 6.64593
#
# Compressibility (1/GPa) = 0.02163511
#
# Stress axis : x y z
#
# Youngs Moduli (GPa) = 47.74877 92.68630 70.33848
#
# Poissons Ratio (x) = 0.16408 0.34181
# Poissons Ratio (y) = 0.08453 0.38877
# Poissons Ratio (z) = 0.23204 0.51229
#
# Static dielectric constant tensor:
#      x y z
#    x 3.243490 0.000000 0.000000 
#    y 0.000000 3.553800 0.000000 
#    z 0.000000 0.000000 3.123260 
# 
# 
# High freq. dielectric constant tensor:
#      x y z
#    x 1.682940 0.000000 0.000000 
#    y 0.000000 1.732290 0.000000 
#    z 0.000000 0.000000 1.698760 
# 
# From -- ./inp_files/19239.got.cif
#   From: 2010.03.12/outbox.cif.g09.slc.cpg/sg59_10_cif.got.tgz:19239.got - 2010.04.16 16:29:54.
