data_PCOD8240004
_publ_section_title
;
Structure prediction by ZEFSAII (Michael W. Deem and Ramdas Pophale) SiO2 
 PCOD8240004
Probable space group: P M M N
;
_chemical_formula_sum "Si O2"
_cell_formula_units_Z 64
_cell_length_a 18.889551
_cell_length_b 9.275746
_cell_length_c 19.964525
_cell_angle_alpha 90.000000
_cell_angle_beta 90.000000
_cell_angle_gamma 90.000000
_cell_volume 3498.077802
_symmetry_space_group_name_H-M "P M M N"
_symmetry_group_IT_number 59
_space_group.IT_coordinate_system_code '2'
_symmetry_cell_setting 'orthorhombic'
loop_
_space_group_symop_operation_xyz
x,y,z
1/2-x,1/2-y,z
1/2+x,-y,-z
-x,1/2+y,-z
-x,-y,-z
1/2+x,1/2+y,-z
1/2-x,y,z
x,1/2-y,z
loop_
_atom_site_type_symbol
_atom_site_label
_atom_site_fract_x
_atom_site_fract_y
_atom_site_fract_z
Si Si1 0.410806 0.079271 0.412794
Si Si2 0.915757 0.578539 0.843977
Si Si3 0.941148 0.081402 0.359600
Si Si4 0.065052 0.578823 0.791016
Si Si5 0.833388 0.912857 0.117286
Si Si6 0.170948 0.421702 0.031397
Si Si7 0.671222 0.578686 0.718824
Si Si8 0.668512 0.081084 0.469305
O O1 0.406233 0.250000 0.424454
O O2 0.491579 0.024018 0.402462
O O3 0.368248 0.028167 0.347679
O O4 0.375560 0.002864 0.475506
O O5 0.911561 0.750000 0.843490
O O6 0.868857 0.515727 0.783395
O O7 0.996215 0.527988 0.832818
O O8 0.884787 0.517308 0.914026
O O9 0.953774 0.250000 0.351014
O O10 0.938629 0.015707 0.284726
O O11 0.868051 0.046128 0.397868
O O12 0.072326 0.750000 0.789785
O O13 0.133086 0.514706 0.827116
O O14 0.750000 0.917988 0.127531
O O15 0.861519 0.750000 0.126526
O O16 0.852821 0.971489 0.042815
O O17 0.250000 0.479761 0.048172
O O18 0.173204 0.250000 0.032916
O O19 0.750000 0.514163 0.717799
O O20 0.672750 0.750000 0.722383
O O21 0.750000 0.028399 0.466601
O O22 0.664155 0.250000 0.485332
#
# Coordination Sequence:
#
# PCOD8240004 Si02
#       8
#     8   8   8   8   8   8   8   8
#     4  10  18  32  53  76 100 127 160 202 249 292
#     4   9  15  25  43  70 101 128 159 201 241 286
#     4   9  18  34  53  72 100 134 164 199 245 296
#     4  10  19  32  52  77 101 126 162 206 248 291
#     4   9  19  35  51  69  97 132 168 206 247 290
#     4   8  14  26  45  68  97 134 169 199 239 293
#     4   9  15  23  41  70 100 128 157 193 240 286
#     4  10  21  35  50  70  97 131 169 204 242 293
#
# _framework density 18.295762
#
# number of rings (size 3 to 8) (size 9 to 14) (size 15 to 20)
#    0.000    2.750    1.250    1.875    0.000    3.500 
#    0.000    2.500    0.000    0.000    0.000    0.000 
#    0.000    3.000    0.000    0.000    0.000    0.000 
#
# Total GULP energy -793347.917424 kJ/mol
# GULP energy per Si atom -12396.061210 kJ/mol
# Density = 1.825412 g / cm^3
# Si number density = 18.295762 Si / 1000 Ang^3
#
#
#
# Elastic Constant Matrix: (Units=GPa)
#
#
# Indices 1 2 3 4 5 6 
#
# 1 103.6817 25.6239 75.1308 0.0000 0.0000 0.0000
# 2 25.6239 19.3540 30.1735 0.0000 0.0000 0.0000
# 3 75.1308 30.1735 140.2154 0.0000 0.0000 0.0000
# 4 0.0000 0.0000 0.0000 17.6795 0.0000 0.0000
# 5 0.0000 0.0000 0.0000 0.0000 38.4126 0.0000
# 6 0.0000 0.0000 0.0000 0.0000 0.0000 19.1045
#
#
#
# Elastic Compliance Matrix: (Units=1/GPa)
#
#
# Indices 1 2 3 4 5 6 
#
# 1 0.017708 -0.013020 -0.006686 0.000000 0.000000 0.000000
# 2 -0.013020 0.087328 -0.011816 0.000000 0.000000 0.000000
# 3 -0.006686 -0.011816 0.013257 0.000000 0.000000 0.000000
# 4 0.000000 0.000000 0.000000 0.056563 0.000000 0.000000
# 5 0.000000 0.000000 0.000000 0.000000 0.026033 0.000000
# 6 0.000000 0.000000 0.000000 0.000000 0.000000 0.052344
#
#
# Mechanical properties :
#
#
# Convention : Reuss Voigt Hill
#
# Bulk Modulus (GPa) = 18.10003 58.34528 38.22266
# Shear Modulus (GPa) = 14.93899 23.86085 19.39992
#
# Velocity S-wave (km/s) = 2.86059 3.61525 3.25983
# Velocity P-wave (km/s) = 4.56346 7.02752 5.92500
#
# Compressibility (1/GPa) = 0.05524852
#
# Stress axis : x y z
#
# Youngs Moduli (GPa) = 56.47195 11.45102 75.42949
#
# Poissons Ratio (x) = 0.14909 0.50436
# Poissons Ratio (y) = 0.73527 0.89128
# Poissons Ratio (z) = 0.37760 0.13531
#
# Static dielectric constant tensor:
#      x y z
#    x 3.538900 0.000000 0.000000 
#    y 0.000000 2.790920 0.000000 
#    z 0.000000 0.000000 3.591000 
# 
# 
# High freq. dielectric constant tensor:
#      x y z
#    x 1.719210 0.000000 0.000000 
#    y 0.000000 1.644240 0.000000 
#    z 0.000000 0.000000 1.721780 
# 
# From -- ./inp_files/27990.got.cif
#   From: 2010.03.12/outbox.cif.g09.slc.cpg/sg59_14_cif.got.tgz:27990.got - 2010.04.16 16:29:54.
