data_PCOD8240388
_publ_section_title
;
Structure prediction by ZEFSAII (Michael W. Deem and Ramdas Pophale) SiO2 
 PCOD8240388
Probable space group: P M M N
;
_chemical_formula_sum "Si O2"
_cell_formula_units_Z 64
_cell_length_a 13.660040
_cell_length_b 9.203998
_cell_length_c 30.323339
_cell_angle_alpha 90.000000
_cell_angle_beta 90.000000
_cell_angle_gamma 90.000000
_cell_volume 3812.461861
_symmetry_space_group_name_H-M "P M M N"
_symmetry_group_IT_number 59
_space_group.IT_coordinate_system_code '2'
_symmetry_cell_setting 'orthorhombic'
loop_
_space_group_symop_operation_xyz
x,y,z
1/2-x,1/2-y,z
1/2+x,-y,-z
-x,1/2+y,-z
-x,-y,-z
1/2+x,1/2+y,-z
1/2-x,y,z
x,1/2-y,z
loop_
_atom_site_type_symbol
_atom_site_label
_atom_site_fract_x
_atom_site_fract_y
_atom_site_fract_z
Si Si1 0.524210 0.584125 0.544211
Si Si2 0.862406 0.080778 0.617190
Si Si3 0.859812 0.083306 0.987640
Si Si4 0.641007 0.089294 0.387027
Si Si5 0.953345 0.919639 0.065756
Si Si6 0.531794 0.580358 0.317953
Si Si7 0.361946 0.918321 0.856808
Si Si8 0.861212 0.079418 0.244213
O O1 0.500000 0.500000 0.500000
O O2 0.556352 0.750000 0.534313
O O3 0.608620 0.508317 0.573437
O O4 0.423220 0.576817 0.569873
O O5 0.750000 0.047171 0.629068
O O6 0.879647 0.250000 0.606561
O O7 0.927526 0.034933 0.659927
O O8 0.750000 0.054148 0.970185
O O9 0.873767 0.250000 0.002488
O O10 0.934943 0.044887 0.948366
O O11 0.878740 0.985434 0.030256
O O12 0.750000 0.062866 0.403755
O O13 0.628437 0.250000 0.365240
O O14 0.616350 0.966502 0.351626
O O15 0.932854 0.750000 0.068812
O O16 0.935417 0.988862 0.113418
O O17 0.536837 0.750000 0.308878
O O18 0.553961 0.500262 0.272020
O O19 0.250000 0.950614 0.870413
O O20 0.386202 0.750000 0.863748
O O21 0.379385 0.964115 0.806358
O O22 0.750000 0.033648 0.258115
O O23 0.873491 0.250000 0.250948
#
# Coordination Sequence:
#
# PCOD8240388 Si02
#       8
#     8   8   8   8   8   8   8   8
#     4  10  20  33  49  71  97 124 157 194 230 271
#     4   9  19  36  54  70  93 127 162 196 237 281
#     4   9  18  32  47  63  89 126 160 188 228 284
#     4   9  18  32  48  65  89 123 154 177 213 270
#     4  10  19  29  45  70  94 117 153 200 239 270
#     4  10  19  30  48  74  97 116 146 191 234 269
#     4   9  18  32  48  66  92 127 159 184 222 281
#     4   9  18  32  49  69  95 128 158 181 219 282
#
# _framework density 16.787053
#
# number of rings (size 3 to 8) (size 9 to 14) (size 15 to 20)
#    0.000    2.625    0.000    2.625    0.000    6.750 
#    0.000    2.500    0.000    0.750    0.000    5.250 
#    0.000    0.000    0.000    0.000    0.000    0.000 
#
# Total GULP energy -793459.181855 kJ/mol
# GULP energy per Si atom -12397.799716 kJ/mol
# Density = 1.674885 g / cm^3
# Si number density = 16.787053 Si / 1000 Ang^3
#
#
#
# Elastic Constant Matrix: (Units=GPa)
#
#
# Indices 1 2 3 4 5 6 
#
# 1 108.9125 45.5346 55.5563 0.0000 0.0000 0.0000
# 2 45.5346 77.5395 57.1216 0.0000 0.0000 0.0000
# 3 55.5563 57.1216 108.5582 0.0000 0.0000 0.0000
# 4 0.0000 0.0000 0.0000 34.7658 0.0000 0.0000
# 5 0.0000 0.0000 0.0000 0.0000 20.4462 0.0000
# 6 0.0000 0.0000 0.0000 0.0000 0.0000 24.3910
#
#
#
# Elastic Compliance Matrix: (Units=1/GPa)
#
#
# Indices 1 2 3 4 5 6 
#
# 1 0.013354 -0.004585 -0.004422 0.000000 0.000000 0.000000
# 2 -0.004585 0.022634 -0.009563 0.000000 0.000000 0.000000
# 3 -0.004422 -0.009563 0.016507 0.000000 0.000000 0.000000
# 4 0.000000 0.000000 0.000000 0.028764 0.000000 0.000000
# 5 0.000000 0.000000 0.000000 0.000000 0.048909 0.000000
# 6 0.000000 0.000000 0.000000 0.000000 0.000000 0.040999
#
#
# Mechanical properties :
#
#
# Convention : Reuss Voigt Hill
#
# Bulk Modulus (GPa) = 65.12490 67.93724 66.53107
# Shear Modulus (GPa) = 23.42751 25.04045 24.23398
#
# Velocity S-wave (km/s) = 3.73979 3.86638 3.80361
# Velocity P-wave (km/s) = 7.58465 7.77752 7.68169
#
# Compressibility (1/GPa) = 0.01535511
#
# Stress axis : x y z
#
# Youngs Moduli (GPa) = 74.88408 44.18109 60.58164
#
# Poissons Ratio (x) = 0.20256 0.26787
# Poissons Ratio (y) = 0.34332 0.57937
# Poissons Ratio (z) = 0.33112 0.42252
#
# Static dielectric constant tensor:
#      x y z
#    x 3.186380 0.000000 0.000000 
#    y 0.000000 3.236880 0.000000 
#    z 0.000000 0.000000 3.067480 
# 
# 
# High freq. dielectric constant tensor:
#      x y z
#    x 1.637150 0.000000 0.000000 
#    y 0.000000 1.652170 0.000000 
#    z 0.000000 0.000000 1.637360 
# 
# From -- ./inp_files/33342.got.cif
#   From: 2010.03.12/outbox.cif.g09.slc.cpg/sg59_17_cif.got.tgz:33342.got - 2010.04.16 16:29:54.
