data_PCOD8240833
_publ_section_title
;
Structure prediction by ZEFSAII (Michael W. Deem and Ramdas Pophale) SiO2 
 PCOD8240833
Probable space group: P M M N
;
_chemical_formula_sum "Si O2"
_cell_formula_units_Z 64
_cell_length_a 8.639948
_cell_length_b 29.453485
_cell_length_c 14.973807
_cell_angle_alpha 90.000000
_cell_angle_beta 90.000000
_cell_angle_gamma 90.000000
_cell_volume 3810.483177
_symmetry_space_group_name_H-M "P M M N"
_symmetry_group_IT_number 59
_space_group.IT_coordinate_system_code '2'
_symmetry_cell_setting 'orthorhombic'
loop_
_space_group_symop_operation_xyz
x,y,z
1/2-x,1/2-y,z
1/2+x,-y,-z
-x,1/2+y,-z
-x,-y,-z
1/2+x,1/2+y,-z
1/2-x,y,z
x,1/2-y,z
loop_
_atom_site_type_symbol
_atom_site_label
_atom_site_fract_x
_atom_site_fract_y
_atom_site_fract_z
Si Si1 0.571937 0.935801 0.042846
Si Si2 0.066728 0.603738 0.550794
Si Si3 0.066658 0.442093 0.623994
Si Si4 0.573756 0.466194 0.127931
Si Si5 0.568763 0.616053 0.209316
Si Si6 0.566357 0.200522 0.509246
Si Si7 0.069391 0.035383 0.317512
Si Si8 0.573446 0.301198 0.709857
O O1 0.750000 0.927161 0.018116
O O2 0.503405 0.899117 0.112807
O O3 0.550065 0.983464 0.092057
O O4 0.475420 0.932019 0.951356
O O5 0.250000 0.600321 0.563988
O O6 0.011987 0.656891 0.547743
O O7 0.021117 0.577514 0.461146
O O8 0.979602 0.582019 0.634612
O O9 0.250000 0.436798 0.610133
O O10 0.002949 0.414752 0.710046
O O11 0.026730 0.494805 0.637170
O O12 0.750000 0.456690 0.155980
O O13 0.466042 0.458921 0.213226
O O14 0.750000 0.608099 0.206735
O O15 0.526546 0.668286 0.223561
O O16 0.750000 0.201981 0.514604
O O17 0.507737 0.250000 0.471299
O O18 0.503965 0.194492 0.610168
O O19 0.250000 0.026114 0.331440
O O20 0.750000 0.318177 0.711958
O O21 0.559705 0.250000 0.744962
#
# Coordination Sequence:
#
# PCOD8240833 Si02
#       8
#     8   8   8   8   8   8   8   8
#     4   9  18  33  50  72  99 128 160 200 245 289
#     4  11  21  34  52  73  98 133 170 207 249 297
#     4  11  21  35  49  69 101 135 172 209 241 287
#     4  10  19  34  52  73  98 126 162 205 244 289
#     4  10  19  31  49  72 102 133 164 203 245 293
#     4   8  15  29  49  72  96 124 161 204 247 291
#     4  12  24  36  50  69  98 136 173 210 248 292
#     4   9  17  30  48  71  99 129 165 206 244 291
#
# _framework density 16.795770999999998
#
# number of rings (size 3 to 8) (size 9 to 14) (size 15 to 20)
#    0.000    2.000    2.500    3.375    0.000    1.750 
#    0.000    0.000    0.000    1.500    0.000    0.875 
#    0.000    5.000    0.000    0.000    0.000    0.000 
#
# Total GULP energy -793478.187970 kJ/mol
# GULP energy per Si atom -12398.096687 kJ/mol
# Density = 1.675754 g / cm^3
# Si number density = 16.795771 Si / 1000 Ang^3
#
#
#
# Elastic Constant Matrix: (Units=GPa)
#
#
# Indices 1 2 3 4 5 6 
#
# 1 37.9879 14.1201 20.5360 0.0000 0.0000 0.0000
# 2 14.1201 90.6176 31.7063 0.0000 0.0000 0.0000
# 3 20.5360 31.7063 66.4308 0.0000 0.0000 0.0000
# 4 0.0000 0.0000 0.0000 22.2167 0.0000 0.0000
# 5 0.0000 0.0000 0.0000 0.0000 24.8735 0.0000
# 6 0.0000 0.0000 0.0000 0.0000 0.0000 21.7794
#
#
#
# Elastic Compliance Matrix: (Units=1/GPa)
#
#
# Indices 1 2 3 4 5 6 
#
# 1 0.031855 -0.001822 -0.008978 0.000000 0.000000 0.000000
# 2 -0.001822 0.013352 -0.005809 0.000000 0.000000 0.000000
# 3 -0.008978 -0.005809 0.020601 0.000000 0.000000 0.000000
# 4 0.000000 0.000000 0.000000 0.045011 0.000000 0.000000
# 5 0.000000 0.000000 0.000000 0.000000 0.040203 0.000000
# 6 0.000000 0.000000 0.000000 0.000000 0.000000 0.045915
#
#
# Mechanical properties :
#
#
# Convention : Reuss Voigt Hill
#
# Bulk Modulus (GPa) = 30.68486 36.41789 33.55137
# Shear Modulus (GPa) = 20.74522 22.35217 21.54869
#
# Velocity S-wave (km/s) = 3.51828 3.65200 3.58576
# Velocity P-wave (km/s) = 5.90029 6.28591 6.09615
#
# Compressibility (1/GPa) = 0.03258936
#
# Stress axis : x y z
#
# Youngs Moduli (GPa) = 31.39244 74.89521 48.54082
#
# Poissons Ratio (x) = 0.13649 0.43578
# Poissons Ratio (y) = 0.05721 0.28199
# Poissons Ratio (z) = 0.28183 0.43509
#
# Static dielectric constant tensor:
#      x y z
#    x 3.047690 0.000000 0.000000 
#    y 0.000000 3.278220 0.000000 
#    z 0.000000 0.000000 3.153600 
# 
# 
# High freq. dielectric constant tensor:
#      x y z
#    x 1.641160 0.000000 0.000000 
#    y 0.000000 1.634470 0.000000 
#    z 0.000000 0.000000 1.630180 
# 
# From -- ./inp_files/21842.got.cif
#   From: 2010.03.12/outbox.cif.g09.slc.cpg/sg59_11_cif.got.tgz:21842.got - 2010.04.16 16:29:54.
