data_PCOD8240448
_publ_section_title
;
Structure prediction by ZEFSAII (Michael W. Deem and Ramdas Pophale) SiO2 
 PCOD8240448
Probable space group: P M M N
;
_chemical_formula_sum "Si O2"
_cell_formula_units_Z 64
_cell_length_a 13.830096
_cell_length_b 9.258276
_cell_length_c 31.231044
_cell_angle_alpha 90.000000
_cell_angle_beta 90.000000
_cell_angle_gamma 90.000000
_cell_volume 3998.911753
_symmetry_space_group_name_H-M "P M M N"
_symmetry_group_IT_number 59
_space_group.IT_coordinate_system_code '2'
_symmetry_cell_setting 'orthorhombic'
loop_
_space_group_symop_operation_xyz
x,y,z
1/2-x,1/2-y,z
1/2+x,-y,-z
-x,1/2+y,-z
-x,-y,-z
1/2+x,1/2+y,-z
1/2-x,y,z
x,1/2-y,z
loop_
_atom_site_type_symbol
_atom_site_label
_atom_site_fract_x
_atom_site_fract_y
_atom_site_fract_z
Si Si1 0.637944 0.418252 0.852267
Si Si2 0.639699 0.080444 0.022202
Si Si3 0.136035 0.413935 0.479108
Si Si4 0.137272 0.919367 0.314329
Si Si5 0.457868 0.082728 0.391264
Si Si6 0.357424 0.583713 0.561056
Si Si7 0.135190 0.086929 0.230616
Si Si8 0.972716 0.081205 0.937316
O O1 0.750000 0.452512 0.861677
O O2 0.624001 0.250000 0.841830
O O3 0.597356 0.508891 0.812202
O O4 0.576526 0.467261 0.893213
O O5 0.750000 0.026389 0.026305
O O6 0.632485 0.250000 0.030354
O O7 0.574329 0.001483 0.057722
O O8 0.601250 0.039049 0.975109
O O9 0.250000 0.430202 0.475886
O O10 0.102523 0.250000 0.486293
O O11 0.093293 0.471370 0.434600
O O12 0.097769 0.504217 0.519646
O O13 0.250000 0.952490 0.322442
O O14 0.118081 0.750000 0.309350
O O15 0.075796 0.980783 0.353322
O O16 0.098802 0.997942 0.271668
O O17 0.431800 0.250000 0.381090
O O18 0.573142 0.061201 0.397983
O O19 0.250000 0.525643 0.572893
O O20 0.353499 0.750000 0.548023
O O21 0.250000 0.087068 0.230059
O O22 0.094218 0.250000 0.232593
O O23 0.995298 0.250000 0.937789
#
# Coordination Sequence:
#
# PCOD8240448 Si02
#       8
#     8   8   8   8   8   8   8   8
#     4   9  16  27  44  65  90 119 149 181 217 258
#     4   9  17  29  43  60  87 122 156 190 228 267
#     4   9  17  28  42  61  85 113 144 177 213 252
#     4  10  20  32  46  66  91 116 142 173 210 256
#     4  10  19  30  45  64  87 116 146 176 213 255
#     4   9  18  31  45  62  85 113 146 182 215 247
#     4   9  17  29  45  65  90 118 144 172 210 257
#     4   9  17  28  43  64  88 117 154 191 226 264
#
# _framework density 16.004352999999998
#
# number of rings (size 3 to 8) (size 9 to 14) (size 15 to 20)
#    0.000    2.750    0.000    1.875    0.000    6.000 
#    0.000    1.250    0.000    2.250    0.000    0.875 
#    0.000    5.000    0.000    0.000    0.000    0.000 
#
# Total GULP energy -793560.626675 kJ/mol
# GULP energy per Si atom -12399.384792 kJ/mol
# Density = 1.596793 g / cm^3
# Si number density = 16.004353 Si / 1000 Ang^3
#
#
#
# Elastic Constant Matrix: (Units=GPa)
#
#
# Indices 1 2 3 4 5 6 
#
# 1 71.5778 36.8886 53.9336 0.0000 0.0000 0.0000
# 2 36.8886 71.7913 62.2797 0.0000 0.0000 0.0000
# 3 53.9336 62.2797 125.8600 0.0000 0.0000 0.0000
# 4 0.0000 0.0000 0.0000 31.9683 0.0000 0.0000
# 5 0.0000 0.0000 0.0000 0.0000 22.6426 0.0000
# 6 0.0000 0.0000 0.0000 0.0000 0.0000 21.0642
#
#
#
# Elastic Compliance Matrix: (Units=1/GPa)
#
#
# Indices 1 2 3 4 5 6 
#
# 1 0.021774 -0.005421 -0.006648 0.000000 0.000000 0.000000
# 2 -0.005421 0.025756 -0.010422 0.000000 0.000000 0.000000
# 3 -0.006648 -0.010422 0.015951 0.000000 0.000000 0.000000
# 4 0.000000 0.000000 0.000000 0.031281 0.000000 0.000000
# 5 0.000000 0.000000 0.000000 0.000000 0.044165 0.000000
# 6 0.000000 0.000000 0.000000 0.000000 0.000000 0.047474
#
#
# Mechanical properties :
#
#
# Convention : Reuss Voigt Hill
#
# Bulk Modulus (GPa) = 54.05617 63.93702 58.99659
# Shear Modulus (GPa) = 21.04835 22.87684 21.96260
#
# Velocity S-wave (km/s) = 3.63045 3.78486 3.70846
# Velocity P-wave (km/s) = 7.17097 7.69004 7.43504
#
# Compressibility (1/GPa) = 0.01849928
#
# Stress axis : x y z
#
# Youngs Moduli (GPa) = 45.92669 38.82635 62.69067
#
# Poissons Ratio (x) = 0.21047 0.41678
# Poissons Ratio (y) = 0.24895 0.65336
# Poissons Ratio (z) = 0.30533 0.40464
#
# Static dielectric constant tensor:
#      x y z
#    x 2.999460 0.000000 0.000000 
#    y 0.000000 3.085130 0.000000 
#    z 0.000000 0.000000 3.010330 
# 
# 
# High freq. dielectric constant tensor:
#      x y z
#    x 1.593670 0.000000 0.000000 
#    y 0.000000 1.616890 0.000000 
#    z 0.000000 0.000000 1.604230 
# 
# From -- ./inp_files/33216.got.cif
#   From: 2010.03.12/outbox.cif.g09.slc.cpg/sg59_17_cif.got.tgz:33216.got - 2010.04.16 16:29:54.
