data_PCOD8240824
_publ_section_title
;
Structure prediction by ZEFSAII (Michael W. Deem and Ramdas Pophale) SiO2 
 PCOD8240824
Probable space group: P M M N
;
_chemical_formula_sum "Si O2"
_cell_formula_units_Z 64
_cell_length_a 17.631745
_cell_length_b 8.981802
_cell_length_c 22.878664
_cell_angle_alpha 90.000000
_cell_angle_beta 90.000000
_cell_angle_gamma 90.000000
_cell_volume 3623.176021
_symmetry_space_group_name_H-M "P M M N"
_symmetry_group_IT_number 59
_space_group.IT_coordinate_system_code '2'
_symmetry_cell_setting 'orthorhombic'
loop_
_space_group_symop_operation_xyz
x,y,z
1/2-x,1/2-y,z
1/2+x,-y,-z
-x,1/2+y,-z
-x,-y,-z
1/2+x,1/2+y,-z
1/2-x,y,z
x,1/2-y,z
loop_
_atom_site_type_symbol
_atom_site_label
_atom_site_fract_x
_atom_site_fract_y
_atom_site_fract_z
Si Si1 0.526217 0.424754 0.638533
Si Si2 0.455844 0.574315 0.878938
Si Si3 0.664135 0.925957 0.569408
Si Si4 0.094571 0.922876 0.063553
Si Si5 0.434084 0.078735 0.532786
Si Si6 0.969123 0.923149 0.758258
Si Si7 0.161322 0.421572 0.951150
Si Si8 0.163602 0.918588 0.186304
O O1 0.542178 0.250000 0.642582
O O2 0.603209 0.497434 0.612410
O O3 0.448703 0.460102 0.601108
O O4 0.504779 0.487766 0.701580
O O5 0.450081 0.750000 0.887786
O O6 0.517103 0.511016 0.924647
O O7 0.476569 0.533061 0.812287
O O8 0.376821 0.494579 0.893843
O O9 0.750000 0.984013 0.581356
O O10 0.659786 0.750000 0.580734
O O11 0.644621 0.963880 0.500394
O O12 0.075591 0.750000 0.052843
O O13 0.151179 0.946157 0.117729
O O14 0.136077 0.988872 0.007919
O O15 0.448906 0.250000 0.523066
O O16 0.500000 0.000000 0.500000
O O17 0.972158 0.750000 0.744089
O O18 0.883536 0.967139 0.774609
O O19 0.250000 0.439351 0.942006
O O20 0.137270 0.250000 0.957575
O O21 0.250000 0.949919 0.201887
O O22 0.139733 0.750000 0.202535
#
# Coordination Sequence:
#
# PCOD8240824 Si02
#       8
#     8   8   8   8   8   8   8   8
#     4  10  19  31  49  71  96 128 164 201 237 279
#     4  10  21  37  55  74  98 130 168 209 251 295
#     4   9  17  30  49  73 102 131 157 192 237 282
#     4  10  19  33  54  77 102 131 163 200 245 300
#     4   8  15  28  46  69  94 123 158 191 227 270
#     4  10  21  35  51  71  94 126 168 207 244 287
#     4  11  23  36  52  76 103 129 160 202 252 304
#     4   9  18  32  49  70  97 129 163 199 241 289
#
# _framework density 17.664062000000001
#
# number of rings (size 3 to 8) (size 9 to 14) (size 15 to 20)
#    0.000    2.375    0.000    2.625    0.000    5.000 
#    0.000    0.000    0.000    0.750    0.000    1.750 
#    0.000    0.000    0.000    0.000    0.000    0.000 
#
# Total GULP energy -793165.813168 kJ/mol
# GULP energy per Si atom -12393.215831 kJ/mol
# Density = 1.762386 g / cm^3
# Si number density = 17.664062 Si / 1000 Ang^3
#
#
#
# Elastic Constant Matrix: (Units=GPa)
#
#
# Indices 1 2 3 4 5 6 
#
# 1 52.2631 28.1393 32.4948 0.0000 0.0000 0.0000
# 2 28.1393 61.3363 38.7068 0.0000 0.0000 0.0000
# 3 32.4948 38.7068 100.6139 0.0000 0.0000 0.0000
# 4 0.0000 0.0000 0.0000 27.9951 0.0000 0.0000
# 5 0.0000 0.0000 0.0000 0.0000 16.3921 0.0000
# 6 0.0000 0.0000 0.0000 0.0000 0.0000 25.0770
#
#
#
# Elastic Compliance Matrix: (Units=1/GPa)
#
#
# Indices 1 2 3 4 5 6 
#
# 1 0.027395 -0.009224 -0.005299 0.000000 0.000000 0.000000
# 2 -0.009224 0.024636 -0.006499 0.000000 0.000000 0.000000
# 3 -0.005299 -0.006499 0.014151 0.000000 0.000000 0.000000
# 4 0.000000 0.000000 0.000000 0.035721 0.000000 0.000000
# 5 0.000000 0.000000 0.000000 0.000000 0.061005 0.000000
# 6 0.000000 0.000000 0.000000 0.000000 0.000000 0.039877
#
#
# Mechanical properties :
#
#
# Convention : Reuss Voigt Hill
#
# Bulk Modulus (GPa) = 41.42804 45.87722 43.65263
# Shear Modulus (GPa) = 19.77267 21.55100 20.66183
#
# Velocity S-wave (km/s) = 3.34933 3.49671 3.42381
# Velocity P-wave (km/s) = 6.20174 6.50623 6.35581
#
# Compressibility (1/GPa) = 0.02413824
#
# Stress axis : x y z
#
# Youngs Moduli (GPa) = 36.50301 40.59045 70.66883
#
# Poissons Ratio (x) = 0.37440 0.37448
# Poissons Ratio (y) = 0.33670 0.45926
# Poissons Ratio (z) = 0.19343 0.26379
#
# Static dielectric constant tensor:
#      x y z
#    x 3.185650 0.000000 0.000000 
#    y 0.000000 3.169170 0.000000 
#    z 0.000000 0.000000 2.619270 
# 
# 
# High freq. dielectric constant tensor:
#      x y z
#    x 1.663580 0.000000 0.000000 
#    y 0.000000 1.694200 0.000000 
#    z 0.000000 0.000000 1.680440 
# 
# From -- ./inp_files/32308.got.cif
#   From: 2010.03.12/outbox.cif.g09.slc.cpg/sg59_17_cif.got.tgz:32308.got - 2010.04.16 16:29:54.
