data_PCOD8240949
_publ_section_title
;
Structure prediction by ZEFSAII (Michael W. Deem and Ramdas Pophale) SiO2 
 PCOD8240949
Probable space group: P M M N
;
_chemical_formula_sum "Si O2"
_cell_formula_units_Z 64
_cell_length_a 29.001017
_cell_length_b 9.426801
_cell_length_c 12.520083
_cell_angle_alpha 90.000000
_cell_angle_beta 90.000000
_cell_angle_gamma 90.000000
_cell_volume 3422.825628
_symmetry_space_group_name_H-M "P M M N"
_symmetry_group_IT_number 59
_space_group.IT_coordinate_system_code '2'
_symmetry_cell_setting 'orthorhombic'
loop_
_space_group_symop_operation_xyz
x,y,z
1/2-x,1/2-y,z
1/2+x,-y,-z
-x,1/2+y,-z
-x,-y,-z
1/2+x,1/2+y,-z
1/2-x,y,z
x,1/2-y,z
loop_
_atom_site_type_symbol
_atom_site_label
_atom_site_fract_x
_atom_site_fract_y
_atom_site_fract_z
Si Si1 0.438071 0.089239 0.022243
Si Si2 0.803150 0.405686 0.799099
Si Si3 0.696344 0.584883 0.602528
Si Si4 0.002751 0.584032 0.170320
Si Si5 0.528014 0.919121 0.408060
Si Si6 0.301075 0.418679 0.773530
Si Si7 0.366640 0.082038 0.592737
Si Si8 0.830375 0.912557 0.995561
O O1 0.451916 0.250000 0.049291
O O2 0.461490 0.041730 0.910632
O O3 0.384663 0.070884 0.003725
O O4 0.452222 0.995768 0.125080
O O5 0.750000 0.384997 0.774406
O O6 0.827103 0.250000 0.803356
O O7 0.823703 0.499666 0.703539
O O8 0.808232 0.486855 0.909031
O O9 0.750000 0.553082 0.575429
O O10 0.689612 0.750000 0.627599
O O11 0.663865 0.533007 0.507119
O O12 0.012876 0.750000 0.168204
O O13 0.991107 0.536502 0.291156
O O14 0.524136 0.750000 0.425752
O O15 0.580958 0.973124 0.414958
O O16 0.500000 0.000000 0.500000
O O17 0.250000 0.470833 0.738541
O O18 0.303374 0.250000 0.768075
O O19 0.340434 0.482393 0.696049
O O20 0.311031 0.469886 0.892892
O O21 0.367981 0.250000 0.601765
O O22 0.815404 0.750000 0.974161
#
# Coordination Sequence:
#
# PCOD8240949 Si02
#       8
#     8   8   8   8   8   8   8   8
#     4   9  18  32  52  76 100 129 165 206 249 294
#     4  10  21  35  49  67  97 136 170 201 241 289
#     4   9  17  31  53  78 101 127 164 208 251 301
#     4   9  18  34  53  73  99 131 167 206 250 298
#     4  10  21  36  53  73 101 135 169 209 256 303
#     4   9  16  27  49  81 109 130 158 201 251 303
#     4   9  17  31  52  77 103 130 162 205 257 306
#     4  10  19  31  50  77 105 131 163 203 247 296
#
# _framework density 18.698001000000001
#
# number of rings (size 3 to 8) (size 9 to 14) (size 15 to 20)
#    0.000    2.625    0.000    1.875    0.000    7.750 
#    0.000    4.375    0.000    3.000    0.000    1.750 
#    0.000    0.000    0.000    0.000    0.000    0.000 
#
# Total GULP energy -793368.489637 kJ/mol
# GULP energy per Si atom -12396.382651 kJ/mol
# Density = 1.865544 g / cm^3
# Si number density = 18.698001 Si / 1000 Ang^3
#
#
#
# Elastic Constant Matrix: (Units=GPa)
#
#
# Indices 1 2 3 4 5 6 
#
# 1 87.9187 24.8690 59.7251 0.0000 0.0000 0.0000
# 2 24.8690 52.6946 53.3667 0.0000 0.0000 0.0000
# 3 59.7251 53.3667 162.5110 0.0000 0.0000 0.0000
# 4 0.0000 0.0000 0.0000 -5.7266 0.0000 0.0000
# 5 0.0000 0.0000 0.0000 0.0000 26.8307 0.0000
# 6 0.0000 0.0000 0.0000 0.0000 0.0000 17.3129
#
#
#
# Elastic Compliance Matrix: (Units=1/GPa)
#
#
# Indices 1 2 3 4 5 6 
#
# 1 0.015341 -0.002293 -0.004885 0.000000 0.000000 0.000000
# 2 -0.002293 0.028776 -0.008607 0.000000 0.000000 0.000000
# 3 -0.004885 -0.008607 0.010775 0.000000 0.000000 0.000000
# 4 0.000000 0.000000 0.000000 -0.174624 0.000000 0.000000
# 5 0.000000 0.000000 0.000000 0.000000 0.037271 0.000000
# 6 0.000000 0.000000 0.000000 0.000000 0.000000 0.057760
#
#
# Mechanical properties :
#
#
# Convention : Reuss Voigt Hill
#
# Bulk Modulus (GPa) = 42.87682 64.33844 53.60763
# Shear Modulus (GPa) = 341.43233 18.69431 180.06332
#
# Velocity S-wave (km/s) = 13.52775 3.16540 9.82395
# Velocity P-wave (km/s) = 16.33956 6.91691 12.54641
#
# Compressibility (1/GPa) = 0.02332262
#
# Stress axis : x y z
#
# Youngs Moduli (GPa) = 65.18343 34.75080 92.80463
#
# Poissons Ratio (x) = 0.07967 0.45337
# Poissons Ratio (y) = 0.14945 0.79879
# Poissons Ratio (z) = 0.31844 0.29911
#
# Static dielectric constant tensor:
#      x y z
#    x 3.491590 0.000000 0.000000 
#    y 0.000000 3.281410 0.000000 
#    z 0.000000 0.000000 3.615940 
# 
# 
# High freq. dielectric constant tensor:
#      x y z
#    x 1.726870 0.000000 0.000000 
#    y 0.000000 1.689710 0.000000 
#    z 0.000000 0.000000 1.736410 
# 
# From -- ./inp_files/19254.got.cif
#   From: 2010.03.12/outbox.cif.g09.slc.cpg/sg59_10_cif.got.tgz:19254.got - 2010.04.16 16:29:54.
