data_PCOD8240116
_publ_section_title
;
Structure prediction by ZEFSAII (Michael W. Deem and Ramdas Pophale) SiO2 
 PCOD8240116
Probable space group: P M M N
;
_chemical_formula_sum "Si O2"
_cell_formula_units_Z 56
_cell_length_a 21.134231
_cell_length_b 9.106445
_cell_length_c 16.658928
_cell_angle_alpha 90.000000
_cell_angle_beta 90.000000
_cell_angle_gamma 90.000000
_cell_volume 3206.139171
_symmetry_space_group_name_H-M "P M M N"
_symmetry_group_IT_number 59
_space_group.IT_coordinate_system_code '2'
_symmetry_cell_setting 'orthorhombic'
loop_
_space_group_symop_operation_xyz
x,y,z
1/2-x,1/2-y,z
1/2+x,-y,-z
-x,1/2+y,-z
-x,-y,-z
1/2+x,1/2+y,-z
1/2-x,y,z
x,1/2-y,z
loop_
_atom_site_type_symbol
_atom_site_label
_atom_site_fract_x
_atom_site_fract_y
_atom_site_fract_z
Si Si1 0.404302 0.579656 0.478442
Si Si2 0.019925 0.082939 0.798376
Si Si3 0.968149 0.579671 0.384531
Si Si4 0.323113 0.419838 0.359629
Si Si5 0.556769 0.075032 0.048445
Si Si6 0.626578 0.417159 0.790485
Si Si7 0.680298 0.424047 0.956936
O O1 0.390240 0.750000 0.488260
O O2 0.416996 0.514019 0.566477
O O3 0.462202 0.547013 0.418417
O O4 0.343060 0.502366 0.440917
O O5 0.043309 0.250000 0.811186
O O6 0.945867 0.073300 0.817303
O O7 0.034610 0.030606 0.707938
O O8 0.056026 0.974926 0.858945
O O9 0.951590 0.750000 0.394786
O O10 0.250000 0.450139 0.343815
O O11 0.338932 0.250000 0.370767
O O12 0.361998 0.478518 0.284253
O O13 0.549458 0.250000 0.041492
O O14 0.624326 0.017994 0.014297
O O15 0.500000 0.000000 0.000000
O O16 0.643699 0.250000 0.765609
O O17 0.668028 0.473531 0.865287
O O18 0.750000 0.483835 0.983323
O O19 0.679580 0.250000 0.960166
#
# Coordination Sequence:
#
# PCOD8240116 Si02
#       7
#     8   8   8   8   8   8   8
#     4  10  19  33  53  76 100 132 176 212 248 306
#     4  10  19  34  54  79 109 137 172 214 262 318
#     4   9  18  33  52  75 104 133 162 211 266 307
#     4  11  23  35  48  73 110 145 175 211 259 313
#     4  11  21  34  53  78 107 139 179 224 271 319
#     4  10  18  33  54  76 103 138 179 215 256 317
#     4   9  18  33  53  75 102 139 180 220 261 310
#
# _framework density 17.46649
#
# number of rings (size 3 to 8) (size 9 to 14) (size 15 to 20)
#    0.000    2.000    2.857    1.714    0.000    3.429 
#    0.000    0.000    0.000    3.429    0.000    4.000 
#    0.000    0.000    0.000    0.000    0.000    0.000 
#
# Total GULP energy -694438.105341 kJ/mol
# GULP energy per Si atom -12400.680453 kJ/mol
# Density = 1.742674 g / cm^3
# Si number density = 17.466490 Si / 1000 Ang^3
#
#
#
# Elastic Constant Matrix: (Units=GPa)
#
#
# Indices 1 2 3 4 5 6 
#
# 1 80.0045 33.8197 49.0201 0.0000 0.0000 0.0000
# 2 33.8197 65.4133 42.6505 0.0000 0.0000 0.0000
# 3 49.0201 42.6505 113.4042 0.0000 0.0000 0.0000
# 4 0.0000 0.0000 0.0000 34.6401 0.0000 0.0000
# 5 0.0000 0.0000 0.0000 0.0000 26.9703 0.0000
# 6 0.0000 0.0000 0.0000 0.0000 0.0000 20.7671
#
#
#
# Elastic Compliance Matrix: (Units=1/GPa)
#
#
# Indices 1 2 3 4 5 6 
#
# 1 0.018511 -0.005768 -0.005832 0.000000 0.000000 0.000000
# 2 -0.005768 0.022051 -0.005800 0.000000 0.000000 0.000000
# 3 -0.005832 -0.005800 0.013521 0.000000 0.000000 0.000000
# 4 0.000000 0.000000 0.000000 0.028868 0.000000 0.000000
# 5 0.000000 0.000000 0.000000 0.000000 0.037078 0.000000
# 6 0.000000 0.000000 0.000000 0.000000 0.000000 0.048153
#
#
# Mechanical properties :
#
#
# Convention : Reuss Voigt Hill
#
# Bulk Modulus (GPa) = 51.86112 56.64475 54.25293
# Shear Modulus (GPa) = 23.87663 25.36429 24.62046
#
# Velocity S-wave (km/s) = 3.70130 3.81487 3.75851
# Velocity P-wave (km/s) = 6.92982 7.20453 7.06851
#
# Compressibility (1/GPa) = 0.01928227
#
# Stress axis : x y z
#
# Youngs Moduli (GPa) = 54.02185 45.34904 73.96161
#
# Poissons Ratio (x) = 0.26156 0.43137
# Poissons Ratio (y) = 0.31158 0.42899
# Poissons Ratio (z) = 0.31508 0.26303
#
# Static dielectric constant tensor:
#      x y z
#    x 3.262000 0.000000 0.000000 
#    y 0.000000 3.156310 0.000000 
#    z 0.000000 0.000000 3.306600 
# 
# 
# High freq. dielectric constant tensor:
#      x y z
#    x 1.656150 0.000000 0.000000 
#    y 0.000000 1.665580 0.000000 
#    z 0.000000 0.000000 1.675770 
# 
# From -- ./inp_files/24254.got.cif
#   From: 2010.03.12/outbox.cif.g09.slc.cpg/sg59_13_cif.got.tgz:24254.got - 2010.04.16 16:29:54.
