data_PCOD8240202
_publ_section_title
;
Structure prediction by ZEFSAII (Michael W. Deem and Ramdas Pophale) SiO2 
 PCOD8240202
Probable space group: P M M N
;
_chemical_formula_sum "Si O2"
_cell_formula_units_Z 48
_cell_length_a 20.671296
_cell_length_b 8.458944
_cell_length_c 14.035505
_cell_angle_alpha 90.000000
_cell_angle_beta 90.000000
_cell_angle_gamma 90.000000
_cell_volume 2454.211003
_symmetry_space_group_name_H-M "P M M N"
_symmetry_group_IT_number 59
_space_group.IT_coordinate_system_code '2'
_symmetry_cell_setting 'orthorhombic'
loop_
_space_group_symop_operation_xyz
x,y,z
1/2-x,1/2-y,z
1/2+x,-y,-z
-x,1/2+y,-z
-x,-y,-z
1/2+x,1/2+y,-z
1/2-x,y,z
x,1/2-y,z
loop_
_atom_site_type_symbol
_atom_site_label
_atom_site_fract_x
_atom_site_fract_y
_atom_site_fract_z
Si Si1 0.503822 0.561615 0.393027
Si Si2 0.125467 0.937546 0.290662
Si Si3 0.750000 0.569285 0.401601
Si Si4 0.869380 0.433353 0.294388
Si Si5 0.824704 0.433627 0.909179
Si Si6 0.750000 0.434052 0.604623
Si Si7 0.324682 0.433412 0.891739
O O1 0.500000 0.500000 0.500000
O O2 0.509962 0.750000 0.392227
O O3 0.440813 0.499996 0.336271
O O4 0.563461 0.483593 0.339739
O O5 0.127699 0.750000 0.298335
O O6 0.131762 0.989436 0.180262
O O7 0.185509 0.011047 0.349976
O O8 0.750000 0.750000 0.435437
O O9 0.812957 0.537783 0.339299
O O10 0.750000 0.456599 0.492208
O O11 0.856654 0.250000 0.314948
O O12 0.868941 0.467370 0.181223
O O13 0.750000 0.468963 0.883858
O O14 0.834784 0.250000 0.931636
O O15 0.848154 0.530993 0.001069
O O16 0.750000 0.250000 0.629024
O O17 0.250000 0.486457 0.880706
O O18 0.333760 0.250000 0.869424
#
# Coordination Sequence:
#
# PCOD8240202 Si02
#       7
#     8   8   4   8   8   4   8
#     4  11  23  40  60  85 121 162 203 246 298 354
#     4   9  18  34  59  87 116 154 197 241 288 345
#     4  12  24  38  57  86 117 146 187 248 306 354
#     4  12  24  40  61  85 113 154 202 244 293 353
#     4   9  16  31  57  87 117 150 192 236 285 347
#     4  10  18  34  59  88 117 150 195 242 288 350
#     4  10  20  35  57  87 121 151 185 238 301 353
#
# _framework density 19.558221
#
# number of rings (size 3 to 8) (size 9 to 14) (size 15 to 20)
#    0.000    1.667    1.667    4.250    0.000    2.000 
#    0.000    4.167    0.000    0.000    0.000    0.000 
#    0.000    0.000    0.000    0.000    0.000    0.000 
#
# Total GULP energy -595321.789695 kJ/mol
# GULP energy per Si atom -12402.537285 kJ/mol
# Density = 1.951371 g / cm^3
# Si number density = 19.558221 Si / 1000 Ang^3
#
#
#
# Elastic Constant Matrix: (Units=GPa)
#
#
# Indices 1 2 3 4 5 6 
#
# 1 130.1057 24.8535 71.0819 0.0000 0.0000 0.0000
# 2 24.8535 57.2650 21.2712 0.0000 0.0000 0.0000
# 3 71.0819 21.2712 152.6700 0.0000 0.0000 0.0000
# 4 0.0000 0.0000 0.0000 28.3854 0.0000 0.0000
# 5 0.0000 0.0000 0.0000 0.0000 66.4302 0.0000
# 6 0.0000 0.0000 0.0000 0.0000 0.0000 20.3804
#
#
#
# Elastic Compliance Matrix: (Units=1/GPa)
#
#
# Indices 1 2 3 4 5 6 
#
# 1 0.010765 -0.002964 -0.004599 0.000000 0.000000 0.000000
# 2 -0.002964 0.019232 -0.001300 0.000000 0.000000 0.000000
# 3 -0.004599 -0.001300 0.008872 0.000000 0.000000 0.000000
# 4 0.000000 0.000000 0.000000 0.035229 0.000000 0.000000
# 5 0.000000 0.000000 0.000000 0.000000 0.015053 0.000000
# 6 0.000000 0.000000 0.000000 0.000000 0.000000 0.049067
#
#
# Mechanical properties :
#
#
# Convention : Reuss Voigt Hill
#
# Bulk Modulus (GPa) = 47.29442 63.82821 55.56131
# Shear Modulus (GPa) = 30.67646 37.89482 34.28564
#
# Velocity S-wave (km/s) = 3.96469 4.40652 4.19143
# Velocity P-wave (km/s) = 6.72251 7.65479 7.20375
#
# Compressibility (1/GPa) = 0.02114414
#
# Stress axis : x y z
#
# Youngs Moduli (GPa) = 92.89468 51.99746 112.70833
#
# Poissons Ratio (x) = 0.15411 0.51836
# Poissons Ratio (y) = 0.27531 0.14648
# Poissons Ratio (z) = 0.42723 0.06758
#
# Static dielectric constant tensor:
#      x y z
#    x 3.637490 0.000000 0.000000 
#    y 0.000000 3.375220 0.000000 
#    z 0.000000 0.000000 3.696570 
# 
# 
# High freq. dielectric constant tensor:
#      x y z
#    x 1.746180 0.000000 0.000000 
#    y 0.000000 1.747630 0.000000 
#    z 0.000000 0.000000 1.779280 
# 
# From -- ./inp_files/23772.got.cif
#   From: 2010.03.12/outbox.cif.g09.slc.cpg/sg59_12_cif.got.tgz:23772.got - 2010.04.16 16:29:54.
