data_PCOD8240244
_publ_section_title
;
Structure prediction by ZEFSAII (Michael W. Deem and Ramdas Pophale) SiO2 
 PCOD8240244
Probable space group: P M M N
;
_chemical_formula_sum "Si O2"
_cell_formula_units_Z 64
_cell_length_a 18.318791
_cell_length_b 9.346556
_cell_length_c 21.711368
_cell_angle_alpha 90.000000
_cell_angle_beta 90.000000
_cell_angle_gamma 90.000000
_cell_volume 3717.368451
_symmetry_space_group_name_H-M "P M M N"
_symmetry_group_IT_number 59
_space_group.IT_coordinate_system_code '2'
_symmetry_cell_setting 'orthorhombic'
loop_
_space_group_symop_operation_xyz
x,y,z
1/2-x,1/2-y,z
1/2+x,-y,-z
-x,1/2+y,-z
-x,-y,-z
1/2+x,1/2+y,-z
1/2-x,y,z
x,1/2-y,z
loop_
_atom_site_type_symbol
_atom_site_label
_atom_site_fract_x
_atom_site_fract_y
_atom_site_fract_z
Si Si1 0.527633 0.417658 0.558909
Si Si2 0.335545 0.082740 0.137527
Si Si3 0.666717 0.420470 0.245051
Si Si4 0.663474 0.408478 0.112395
Si Si5 0.330481 0.920037 0.375853
Si Si6 0.549109 0.912792 0.314739
Si Si7 0.101476 0.915401 0.250080
Si Si8 0.836664 0.412601 0.979901
O O1 0.500000 0.500000 0.500000
O O2 0.528271 0.250000 0.544358
O O3 0.609437 0.474078 0.575121
O O4 0.475424 0.452496 0.616331
O O5 0.250000 0.050642 0.147030
O O6 0.351968 0.250000 0.135236
O O7 0.381029 0.013469 0.192302
O O8 0.366131 0.014062 0.074225
O O9 0.750000 0.466151 0.258830
O O10 0.659477 0.250000 0.245578
O O11 0.640315 0.481969 0.177389
O O12 0.616227 0.485897 0.297705
O O13 0.750000 0.397745 0.114336
O O14 0.629960 0.250000 0.111132
O O15 0.638650 0.479318 0.047021
O O16 0.250000 0.976601 0.394622
O O17 0.334138 0.750000 0.374818
O O18 0.349478 0.971784 0.306971
O O19 0.576324 0.750000 0.312182
O O20 0.483004 0.935311 0.267254
O O21 0.119145 0.750000 0.234590
O O22 0.750000 0.410181 0.977371
O O23 0.865924 0.250000 0.971218
#
# Coordination Sequence:
#
# PCOD8240244 Si02
#       8
#     8   8   8   8   8   8   8   8
#     4   9  18  33  52  73  98 127 156 186 224 272
#     4  10  19  27  37  61  96 124 148 188 238 279
#     4   9  17  30  50  75  98 120 152 194 237 281
#     4   7  11  22  41  64  87 111 146 193 235 271
#     4   8  14  27  49  73  92 114 152 198 231 257
#     4   9  19  34  50  71  97 123 153 189 230 277
#     4   9  17  30  48  66  86 119 160 193 225 275
#     4   8  13  23  40  59  81 115 155 189 226 275
#
# _framework density 17.216479
#
# number of rings (size 3 to 8) (size 9 to 14) (size 15 to 20)
#    0.000    3.375    0.000    3.750    0.000    2.500 
#    0.000    3.125    0.000    6.375    0.000    0.000 
#    0.000    0.000    0.000    0.000    0.000    0.000 
#
# Total GULP energy -792879.740704 kJ/mol
# GULP energy per Si atom -12388.745948 kJ/mol
# Density = 1.717729 g / cm^3
# Si number density = 17.216479 Si / 1000 Ang^3
#
#
#
# Elastic Constant Matrix: (Units=GPa)
#
#
# Indices 1 2 3 4 5 6 
#
# 1 79.8024 35.8656 63.9521 0.0000 0.0000 0.0000
# 2 35.8656 57.6786 53.6505 0.0000 0.0000 0.0000
# 3 63.9521 53.6505 136.8948 0.0000 0.0000 0.0000
# 4 0.0000 0.0000 0.0000 25.0099 0.0000 0.0000
# 5 0.0000 0.0000 0.0000 0.0000 21.1478 0.0000
# 6 0.0000 0.0000 0.0000 0.0000 0.0000 21.6300
#
#
#
# Elastic Compliance Matrix: (Units=1/GPa)
#
#
# Indices 1 2 3 4 5 6 
#
# 1 0.021394 -0.006305 -0.007523 0.000000 0.000000 0.000000
# 2 -0.006305 0.029142 -0.008475 0.000000 0.000000 0.000000
# 3 -0.007523 -0.008475 0.014141 0.000000 0.000000 0.000000
# 4 0.000000 0.000000 0.000000 0.039984 0.000000 0.000000
# 5 0.000000 0.000000 0.000000 0.000000 0.047286 0.000000
# 6 0.000000 0.000000 0.000000 0.000000 0.000000 0.046232
#
#
# Mechanical properties :
#
#
# Convention : Reuss Voigt Hill
#
# Bulk Modulus (GPa) = 49.82861 64.59023 57.20942
# Shear Modulus (GPa) = 20.04202 21.61805 20.83004
#
# Velocity S-wave (km/s) = 3.41562 3.54737 3.48212
# Velocity P-wave (km/s) = 6.67537 7.37404 7.03338
#
# Compressibility (1/GPa) = 0.02006879
#
# Stress axis : x y z
#
# Youngs Moduli (GPa) = 46.74279 34.31526 70.71607
#
# Poissons Ratio (x) = 0.21636 0.53202
# Poissons Ratio (y) = 0.29472 0.59934
# Poissons Ratio (z) = 0.35166 0.29083
#
# Static dielectric constant tensor:
#      x y z
#    x 3.030040 0.000000 0.000000 
#    y 0.000000 2.917650 0.000000 
#    z 0.000000 0.000000 3.392070 
# 
# 
# High freq. dielectric constant tensor:
#      x y z
#    x 1.637090 0.000000 0.000000 
#    y 0.000000 1.633080 0.000000 
#    z 0.000000 0.000000 1.671680 
# 
# From -- ./inp_files/31027.got.cif
#   From: 2010.03.12/outbox.cif.g09.slc.cpg/sg59_16_cif.got.tgz:31027.got - 2010.04.16 16:29:54.
