data_PCOD8240630
_publ_section_title
;
Structure prediction by ZEFSAII (Michael W. Deem and Ramdas Pophale) SiO2 
 PCOD8240630
Probable space group: P M M N
;
_chemical_formula_sum "Si O2"
_cell_formula_units_Z 40
_cell_length_a 17.756440
_cell_length_b 9.219961
_cell_length_c 13.708768
_cell_angle_alpha 90.000000
_cell_angle_beta 90.000000
_cell_angle_gamma 90.000000
_cell_volume 2244.312916
_symmetry_space_group_name_H-M "P M M N"
_symmetry_group_IT_number 59
_space_group.IT_coordinate_system_code '2'
_symmetry_cell_setting 'orthorhombic'
loop_
_space_group_symop_operation_xyz
x,y,z
1/2-x,1/2-y,z
1/2+x,-y,-z
-x,1/2+y,-z
-x,-y,-z
1/2+x,1/2+y,-z
1/2-x,y,z
x,1/2-y,z
loop_
_atom_site_type_symbol
_atom_site_label
_atom_site_fract_x
_atom_site_fract_y
_atom_site_fract_z
Si Si1 0.833304 0.415474 0.706859
Si Si2 0.163705 0.918171 0.932229
Si Si3 0.454993 0.584605 0.775197
Si Si4 0.892979 0.917859 0.883259
Si Si5 0.017760 0.920178 0.400721
O O1 0.750000 0.436382 0.660671
O O2 0.846457 0.250000 0.740241
O O3 0.838297 0.513627 0.802588
O O4 0.895810 0.458513 0.626957
O O5 0.250000 0.968181 0.922850
O O6 0.157288 0.750000 0.961299
O O7 0.124127 0.946808 0.828098
O O8 0.120753 0.009766 0.013106
O O9 0.459556 0.750000 0.736992
O O10 0.520723 0.554939 0.853498
O O11 0.462105 0.478094 0.683296
O O12 0.872886 0.750000 0.891715
O O13 0.004448 0.750000 0.413789
O O14 0.000000 0.000000 0.500000
#
# Coordination Sequence:
#
# PCOD8240630 Si02
#       5
#     8   8   8   8   8
#     4   9  18  33  52  74  99 127 161 200 241 288
#     4  10  20  33  49  70  99 136 172 202 235 281
#     4   9  19  35  52  71  97 129 166 205 243 287
#     4  10  19  30  48  74 102 131 162 200 246 290
#     4  10  20  35  56  77  97 125 161 201 246 294
#
# _framework density 17.822827
#
# number of rings (size 3 to 8) (size 9 to 14) (size 15 to 20)
#    0.000    2.400    0.000    2.400    0.000    5.600 
#    0.000    1.000    0.000    6.000    0.000    0.000 
#    0.000    0.000    0.000    0.000    0.000    0.000 
#
# Total GULP energy -496069.940257 kJ/mol
# GULP energy per Si atom -12401.748506 kJ/mol
# Density = 1.778226 g / cm^3
# Si number density = 17.822827 Si / 1000 Ang^3
#
#
#
# Elastic Constant Matrix: (Units=GPa)
#
#
# Indices 1 2 3 4 5 6 
#
# 1 69.9107 34.6285 47.0289 0.0000 0.0000 0.0000
# 2 34.6285 90.3563 65.8701 0.0000 0.0000 0.0000
# 3 47.0289 65.8701 116.1624 0.0000 0.0000 0.0000
# 4 0.0000 0.0000 0.0000 37.3561 0.0000 0.0000
# 5 0.0000 0.0000 0.0000 0.0000 17.4231 0.0000
# 6 0.0000 0.0000 0.0000 0.0000 0.0000 22.5838
#
#
#
# Elastic Compliance Matrix: (Units=1/GPa)
#
#
# Indices 1 2 3 4 5 6 
#
# 1 0.020131 -0.003023 -0.006436 0.000000 0.000000 0.000000
# 2 -0.003023 0.019320 -0.009732 0.000000 0.000000 0.000000
# 3 -0.006436 -0.009732 0.016732 0.000000 0.000000 0.000000
# 4 0.000000 0.000000 0.000000 0.026769 0.000000 0.000000
# 5 0.000000 0.000000 0.000000 0.000000 0.057395 0.000000
# 6 0.000000 0.000000 0.000000 0.000000 0.000000 0.044280
#
#
# Mechanical properties :
#
#
# Convention : Reuss Voigt Hill
#
# Bulk Modulus (GPa) = 56.17239 63.49826 59.83533
# Shear Modulus (GPa) = 21.83950 24.06606 22.95278
#
# Velocity S-wave (km/s) = 3.50432 3.67862 3.59253
# Velocity P-wave (km/s) = 6.92526 7.33129 7.13117
#
# Compressibility (1/GPa) = 0.01780234
#
# Stress axis : x y z
#
# Youngs Moduli (GPa) = 49.67521 51.75884 59.76418
#
# Poissons Ratio (x) = 0.15649 0.38462
# Poissons Ratio (y) = 0.15019 0.58160
# Poissons Ratio (z) = 0.31969 0.50370
#
# Static dielectric constant tensor:
#      x y z
#    x 3.433420 0.000000 0.000000 
#    y 0.000000 3.417740 0.000000 
#    z 0.000000 0.000000 3.087700 
# 
# 
# High freq. dielectric constant tensor:
#      x y z
#    x 1.690440 0.000000 0.000000 
#    y 0.000000 1.695700 0.000000 
#    z 0.000000 0.000000 1.671780 
# 
# From -- ./inp_files/13848.got.cif
#   From: 2010.03.12/outbox.cif.g09.slc.cpg/sg59_7_cif.got.tgz:13848.got - 2010.04.16 16:29:54.
