data_PCOD8240820
_publ_section_title
;
Structure prediction by ZEFSAII (Michael W. Deem and Ramdas Pophale) SiO2 
 PCOD8240820
Probable space group: P M M N
;
_chemical_formula_sum "Si O2"
_cell_formula_units_Z 56
_cell_length_a 9.112851
_cell_length_b 18.349408
_cell_length_c 18.696726
_cell_angle_alpha 90.000000
_cell_angle_beta 90.000000
_cell_angle_gamma 90.000000
_cell_volume 3126.380910
_symmetry_space_group_name_H-M "P M M N"
_symmetry_group_IT_number 59
_space_group.IT_coordinate_system_code '2'
_symmetry_cell_setting 'orthorhombic'
loop_
_space_group_symop_operation_xyz
x,y,z
1/2-x,1/2-y,z
1/2+x,-y,-z
-x,1/2+y,-z
-x,-y,-z
1/2+x,1/2+y,-z
1/2-x,y,z
x,1/2-y,z
loop_
_atom_site_type_symbol
_atom_site_label
_atom_site_fract_x
_atom_site_fract_y
_atom_site_fract_z
Si Si1 0.922422 0.089581 0.400405
Si Si2 0.915896 0.328446 0.135305
Si Si3 0.581380 0.932496 0.342512
Si Si4 0.086180 0.132396 0.267277
Si Si5 0.423592 0.520016 0.926834
Si Si6 0.079958 0.166135 0.527188
Si Si7 0.415175 0.529768 0.208896
O O1 0.750000 0.102060 0.400587
O O2 0.993093 0.140635 0.339501
O O3 0.985778 0.114835 0.475915
O O4 0.964692 0.005296 0.386208
O O5 0.750000 0.344164 0.160704
O O6 0.927381 0.250000 0.094498
O O7 0.965462 0.394912 0.085031
O O8 0.014084 0.319657 0.205617
O O9 0.750000 0.939940 0.318892
O O10 0.554307 0.862543 0.392313
O O11 0.488349 0.919842 0.269960
O O12 0.250000 0.161019 0.282226
O O13 0.086637 0.050121 0.241000
O O14 0.250000 0.506714 0.931512
O O15 0.489382 0.469630 0.863725
O O16 0.500000 0.500000 0.000000
O O17 0.250000 0.158320 0.505769
O O18 0.028026 0.250000 0.523303
O O19 0.250000 0.557223 0.192168
#
# Coordination Sequence:
#
# PCOD8240820 Si02
#       7
#     8   8   8   8   8   8   8
#     4  10  19  31  49  71  95 125 162 203 244 289
#     4   9  18  32  49  70  98 132 165 195 233 283
#     4   9  18  33  52  72  94 123 161 203 246 291
#     4   9  17  29  46  69  96 124 155 192 234 283
#     4  10  19  32  52  77 105 133 161 197 239 282
#     4  10  21  35  49  67  94 127 162 204 254 300
#     4   9  17  30  50  75  98 121 154 194 235 282
#
# _framework density 17.912085999999999
#
# number of rings (size 3 to 8) (size 9 to 14) (size 15 to 20)
#    0.000    2.571    0.000    2.143    0.000    6.286 
#    0.000    0.000    0.000    0.857    0.000    0.000 
#    0.000    0.000    0.000    0.000    0.000    0.000 
#
# Total GULP energy -694247.526748 kJ/mol
# GULP energy per Si atom -12397.277263 kJ/mol
# Density = 1.787132 g / cm^3
# Si number density = 17.912086 Si / 1000 Ang^3
#
#
#
# Elastic Constant Matrix: (Units=GPa)
#
#
# Indices 1 2 3 4 5 6 
#
# 1 101.9569 26.8559 59.7815 0.0000 0.0000 0.0000
# 2 26.8559 52.5978 31.0643 0.0000 0.0000 0.0000
# 3 59.7815 31.0643 115.0020 0.0000 0.0000 0.0000
# 4 0.0000 0.0000 0.0000 15.2605 0.0000 0.0000
# 5 0.0000 0.0000 0.0000 0.0000 37.6728 0.0000
# 6 0.0000 0.0000 0.0000 0.0000 0.0000 15.5515
#
#
#
# Elastic Compliance Matrix: (Units=1/GPa)
#
#
# Indices 1 2 3 4 5 6 
#
# 1 0.014644 -0.003547 -0.006654 0.000000 0.000000 0.000000
# 2 -0.003547 0.023480 -0.004499 0.000000 0.000000 0.000000
# 3 -0.006654 -0.004499 0.013370 0.000000 0.000000 0.000000
# 4 0.000000 0.000000 0.000000 0.065529 0.000000 0.000000
# 5 0.000000 0.000000 0.000000 0.000000 0.026544 0.000000
# 6 0.000000 0.000000 0.000000 0.000000 0.000000 0.064302
#
#
# Mechanical properties :
#
#
# Convention : Reuss Voigt Hill
#
# Bulk Modulus (GPa) = 45.26097 56.10667 50.68382
# Shear Modulus (GPa) = 20.43871 23.82064 22.12968
#
# Velocity S-wave (km/s) = 3.38162 3.65069 3.51873
# Velocity P-wave (km/s) = 6.36949 7.01152 6.69820
#
# Compressibility (1/GPa) = 0.02209409
#
# Stress axis : x y z
#
# Youngs Moduli (GPa) = 68.28709 42.58919 74.79573
#
# Poissons Ratio (x) = 0.15107 0.49771
# Poissons Ratio (y) = 0.24222 0.33647
# Poissons Ratio (z) = 0.45440 0.19159
#
# Static dielectric constant tensor:
#      x y z
#    x 3.479780 0.000000 0.000000 
#    y 0.000000 3.141090 0.000000 
#    z 0.000000 0.000000 3.219040 
# 
# 
# High freq. dielectric constant tensor:
#      x y z
#    x 1.702590 0.000000 0.000000 
#    y 0.000000 1.665650 0.000000 
#    z 0.000000 0.000000 1.681240 
# 
# From -- ./inp_files/21081.got.cif
#   From: 2010.03.12/outbox.cif.g09.slc.cpg/sg59_11_cif.got.tgz:21081.got - 2010.04.16 16:29:54.
