data_PCOD8240785
_publ_section_title
;
Structure prediction by ZEFSAII (Michael W. Deem and Ramdas Pophale) SiO2 
 PCOD8240785
Probable space group: P M M N
;
_chemical_formula_sum "Si O2"
_cell_formula_units_Z 56
_cell_length_a 9.085404
_cell_length_b 18.497225
_cell_length_c 18.140229
_cell_angle_alpha 90.000000
_cell_angle_beta 90.000000
_cell_angle_gamma 90.000000
_cell_volume 3048.551867
_symmetry_space_group_name_H-M "P M M N"
_symmetry_group_IT_number 59
_space_group.IT_coordinate_system_code '2'
_symmetry_cell_setting 'orthorhombic'
loop_
_space_group_symop_operation_xyz
x,y,z
1/2-x,1/2-y,z
1/2+x,-y,-z
-x,1/2+y,-z
-x,-y,-z
1/2+x,1/2+y,-z
1/2-x,y,z
x,1/2-y,z
loop_
_atom_site_type_symbol
_atom_site_label
_atom_site_fract_x
_atom_site_fract_y
_atom_site_fract_z
Si Si1 0.078635 0.166265 0.860716
Si Si2 0.417320 0.164098 0.150098
Si Si3 0.083932 0.663981 0.993876
Si Si4 0.077636 0.910588 0.716533
Si Si5 0.078830 0.078473 0.718392
Si Si6 0.083856 0.412655 0.430381
Si Si7 0.415677 0.584758 0.427047
O O1 0.250000 0.153826 0.876926
O O2 0.043775 0.250000 0.845706
O O3 0.025050 0.121518 0.790080
O O4 0.990035 0.136019 0.930889
O O5 0.250000 0.135645 0.153624
O O6 0.422124 0.250000 0.151679
O O7 0.508732 0.135401 0.218484
O O8 0.491668 0.134079 0.075373
O O9 0.250000 0.634013 0.988921
O O10 0.082057 0.750000 0.993124
O O11 0.250000 0.894724 0.711879
O O12 0.004664 0.884238 0.640407
O O13 0.044138 0.994507 0.731355
O O14 0.250000 0.091406 0.702417
O O15 0.991188 0.110091 0.648668
O O16 0.250000 0.382537 0.427481
O O17 0.083467 0.498746 0.431637
O O18 0.005233 0.382593 0.503899
O O19 0.250000 0.615035 0.429555
#
# Coordination Sequence:
#
# PCOD8240785 Si02
#       7
#     8   8   8   8   8   8   8
#     4   9  17  31  51  72  95 125 160 195 232 277
#     4  10  20  34  52  72  94 122 157 194 233 281
#     4   9  17  30  49  72  95 120 155 197 236 275
#     4  10  19  31  48  71  99 126 155 194 238 282
#     4   9  18  31  47  70  99 128 157 193 238 284
#     4   9  16  27  44  66  93 124 158 195 235 280
#     4   9  16  26  43  67  93 123 159 197 236 278
#
# _framework density 18.369378000000001
#
# number of rings (size 3 to 8) (size 9 to 14) (size 15 to 20)
#    0.000    2.714    0.000    2.143    0.000    7.143 
#    0.000    0.714    0.000    0.857    0.000    2.000 
#    0.000    0.000    0.000    0.000    0.000    0.000 
#
# Total GULP energy -694447.393137 kJ/mol
# GULP energy per Si atom -12400.846306 kJ/mol
# Density = 1.832757 g / cm^3
# Si number density = 18.369378 Si / 1000 Ang^3
#
#
#
# Elastic Constant Matrix: (Units=GPa)
#
#
# Indices 1 2 3 4 5 6 
#
# 1 137.1944 19.8461 88.6060 0.0000 0.0000 0.0000
# 2 19.8461 13.6912 23.1464 0.0000 0.0000 0.0000
# 3 88.6060 23.1464 176.5674 0.0000 0.0000 0.0000
# 4 0.0000 0.0000 0.0000-1159.3470 0.0000 0.0000
# 5 0.0000 0.0000 0.0000 0.0000 41.5011 0.0000
# 6 0.0000 0.0000 0.0000 0.0000 0.0000 16.6048
#
#
#
# Elastic Compliance Matrix: (Units=1/GPa)
#
#
# Indices 1 2 3 4 5 6 
#
# 1 0.011578 -0.008942 -0.004638 0.000000 0.000000 0.000000
# 2 -0.008942 0.100742 -0.008719 0.000000 0.000000 0.000000
# 3 -0.004638 -0.008719 0.009134 0.000000 0.000000 0.000000
# 4 0.000000 0.000000 0.000000 -0.000863 0.000000 0.000000
# 5 0.000000 0.000000 0.000000 0.000000 0.024096 0.000000
# 6 0.000000 0.000000 0.000000 0.000000 0.000000 0.060223
#
#
# Mechanical properties :
#
#
# Convention : Reuss Voigt Hill
#
# Bulk Modulus (GPa) = 13.01130 65.62778 39.31954
# Shear Modulus (GPa) = 18.17344 -207.19125 -94.50891
#
# Velocity S-wave (km/s) = 3.14878 -10.63186 -7.18059
# Velocity P-wave (km/s) = 4.50758 10.71966 6.87724
#
# Compressibility (1/GPa) = 0.07685630
#
# Stress axis : x y z
#
# Youngs Moduli (GPa) = 86.37295 9.92633 109.48190
#
# Poissons Ratio (x) = 0.08876 0.50775
# Poissons Ratio (y) = 0.77233 0.95459
# Poissons Ratio (z) = 0.40058 0.08655
#
# Static dielectric constant tensor:
#      x y z
#    x 3.593970 0.000000 0.000000 
#    y 0.000000 2.873370 0.000000 
#    z 0.000000 0.000000 3.596730 
# 
# 
# High freq. dielectric constant tensor:
#      x y z
#    x 1.725490 0.000000 0.000000 
#    y 0.000000 1.652760 0.000000 
#    z 0.000000 0.000000 1.730150 
# 
# From -- ./inp_files/26122.got.cif
#   From: 2010.03.12/outbox.cif.g09.slc.cpg/sg59_14_cif.got.tgz:26122.got - 2010.04.16 16:29:54.
