data_PCOD8240119
_publ_section_title
;
Structure prediction by ZEFSAII (Michael W. Deem and Ramdas Pophale) SiO2 
 PCOD8240119
Probable space group: P M M N
;
_chemical_formula_sum "Si O2"
_cell_formula_units_Z 64
_cell_length_a 9.007877
_cell_length_b 15.367229
_cell_length_c 23.956716
_cell_angle_alpha 90.000000
_cell_angle_beta 90.000000
_cell_angle_gamma 90.000000
_cell_volume 3316.234972
_symmetry_space_group_name_H-M "P M M N"
_symmetry_group_IT_number 59
_space_group.IT_coordinate_system_code '2'
_symmetry_cell_setting 'orthorhombic'
loop_
_space_group_symop_operation_xyz
x,y,z
1/2-x,1/2-y,z
1/2+x,-y,-z
-x,1/2+y,-z
-x,-y,-z
1/2+x,1/2+y,-z
1/2-x,y,z
x,1/2-y,z
loop_
_atom_site_type_symbol
_atom_site_label
_atom_site_fract_x
_atom_site_fract_y
_atom_site_fract_z
Si Si1 0.572750 0.494451 0.698962
Si Si2 0.922733 0.921250 0.882556
Si Si3 0.075817 0.353657 0.492413
Si Si4 0.423346 0.156791 0.232235
Si Si5 0.575499 0.002746 0.419490
Si Si6 0.573326 0.846558 0.998318
Si Si7 0.575212 0.906033 0.117313
Si Si8 0.082914 0.845476 0.219192
O O1 0.750000 0.495331 0.691032
O O2 0.508675 0.579707 0.730645
O O3 0.494078 0.486162 0.640269
O O4 0.518857 0.412558 0.735683
O O5 0.750000 0.946795 0.887050
O O6 0.949435 0.850601 0.834402
O O7 0.987415 0.891737 0.942368
O O8 0.019238 0.001507 0.861653
O O9 0.250000 0.354781 0.479084
O O10 0.025156 0.250000 0.497984
O O11 0.039961 0.413011 0.546862
O O12 0.993032 0.406826 0.443343
O O13 0.250000 0.155840 0.244394
O O14 0.491995 0.250000 0.250615
O O15 0.750000 0.018012 0.415641
O O16 0.750000 0.845591 0.996612
O O17 0.508903 0.750000 0.998737
O O18 0.513061 0.891830 0.054480
O O19 0.750000 0.897327 0.117133
O O20 0.511426 0.838741 0.162180
O O21 0.250000 0.873794 0.203066
O O22 0.079191 0.750000 0.246867
#
# Coordination Sequence:
#
# PCOD8240119 Si02
#       8
#     8   8   8   8   8   8   8   8
#     4  10  20  36  55  80 113 147 187 231 274 326
#     4  10  18  33  55  75  98 132 179 228 274 330
#     4   9  19  38  62  86 116 156 195 229 269 322
#     4   9  17  31  54  79 100 132 182 233 275 320
#     4  10  21  36  57  88 121 152 189 234 278 322
#     4   9  18  31  49  75 102 130 172 226 279 336
#     4  11  21  33  51  76 108 140 173 219 282 344
#     4  10  21  38  58  79 105 142 189 235 275 322
#
# _framework density 19.298994
#
# number of rings (size 3 to 8) (size 9 to 14) (size 15 to 20)
#    0.000    2.250    1.250    1.875    0.000    4.500 
#    0.000    1.875    0.000    3.750    0.000    0.000 
#    0.000    0.000    0.000    0.000    0.000    0.000 
#
# Total GULP energy -793077.907222 kJ/mol
# GULP energy per Si atom -12391.842300 kJ/mol
# Density = 1.925507 g / cm^3
# Si number density = 19.298994 Si / 1000 Ang^3
#
#
#
# Elastic Constant Matrix: (Units=GPa)
#
#
# Indices 1 2 3 4 5 6 
#
# 1 38.5679 26.2091 35.3319 0.0000 0.0000 0.0000
# 2 26.2091 141.3887 47.4902 0.0000 0.0000 0.0000
# 3 35.3319 47.4902 127.0435 0.0000 0.0000 0.0000
# 4 0.0000 0.0000 0.0000 18.0267 0.0000 0.0000
# 5 0.0000 0.0000 0.0000 0.0000 28.9088 0.0000
# 6 0.0000 0.0000 0.0000 0.0000 0.0000 15.3127
#
#
#
# Elastic Compliance Matrix: (Units=1/GPa)
#
#
# Indices 1 2 3 4 5 6 
#
# 1 0.036530 -0.003842 -0.008723 0.000000 0.000000 0.000000
# 2 -0.003842 0.008492 -0.002106 0.000000 0.000000 0.000000
# 3 -0.008723 -0.002106 0.011085 0.000000 0.000000 0.000000
# 4 0.000000 0.000000 0.000000 0.055473 0.000000 0.000000
# 5 0.000000 0.000000 0.000000 0.000000 0.034592 0.000000
# 6 0.000000 0.000000 0.000000 0.000000 0.000000 0.065305
#
#
# Mechanical properties :
#
#
# Convention : Reuss Voigt Hill
#
# Bulk Modulus (GPa) = 37.36208 58.34029 47.85119
# Shear Modulus (GPa) = 20.02071 25.64755 22.83413
#
# Velocity S-wave (km/s) = 3.22436 3.64944 3.44347
# Velocity P-wave (km/s) = 5.76746 6.93204 6.37640
#
# Compressibility (1/GPa) = 0.02676510
#
# Stress axis : x y z
#
# Youngs Moduli (GPa) = 27.37449 117.75485 90.21481
#
# Poissons Ratio (x) = 0.45236 0.78698
# Poissons Ratio (y) = 0.10516 0.19000
# Poissons Ratio (z) = 0.23880 0.24800
#
# Static dielectric constant tensor:
#      x y z
#    x 3.190710 0.000000 0.000000 
#    y 0.000000 3.827500 0.000000 
#    z 0.000000 0.000000 3.577300 
# 
# 
# High freq. dielectric constant tensor:
#      x y z
#    x 1.714410 0.000000 0.000000 
#    y 0.000000 1.764010 0.000000 
#    z 0.000000 0.000000 1.752260 
# 
# From -- ./inp_files/31495.got.cif
#   From: 2010.03.12/outbox.cif.g09.slc.cpg/sg59_16_cif.got.tgz:31495.got - 2010.04.16 16:29:54.
