data_PCOD8240148
_publ_section_title
;
Structure prediction by ZEFSAII (Michael W. Deem and Ramdas Pophale) SiO2 
 PCOD8240148
Probable space group: P M M N
;
_chemical_formula_sum "Si O2"
_cell_formula_units_Z 56
_cell_length_a 19.514564
_cell_length_b 17.336912
_cell_length_c 8.689691
_cell_angle_alpha 90.000000
_cell_angle_beta 90.000000
_cell_angle_gamma 90.000000
_cell_volume 2939.916061
_symmetry_space_group_name_H-M "P M M N"
_symmetry_group_IT_number 59
_space_group.IT_coordinate_system_code '2'
_symmetry_cell_setting 'orthorhombic'
loop_
_space_group_symop_operation_xyz
x,y,z
1/2-x,1/2-y,z
1/2+x,-y,-z
-x,1/2+y,-z
-x,-y,-z
1/2+x,1/2+y,-z
1/2-x,y,z
x,1/2-y,z
loop_
_atom_site_type_symbol
_atom_site_label
_atom_site_fract_x
_atom_site_fract_y
_atom_site_fract_z
Si Si1 0.143312 0.958052 0.946941
Si Si2 0.174591 0.068841 0.189173
Si Si3 0.524904 0.090144 0.856232
Si Si4 0.750000 0.337905 0.099235
Si Si5 0.040484 0.339563 0.138698
Si Si6 0.376841 0.574135 0.387425
Si Si7 0.053137 0.540974 0.690736
Si Si8 0.250000 0.660923 0.535260
O O1 0.183644 0.878288 0.976120
O O2 0.129833 0.964366 0.764868
O O3 0.066365 0.961192 0.019238
O O4 0.183214 0.029900 0.019970
O O5 0.250000 0.102563 0.233085
O O6 0.118343 0.136152 0.178812
O O7 0.153103 0.003459 0.311058
O O8 0.584162 0.126194 0.743889
O O9 0.483813 0.037556 0.737485
O O10 0.477388 0.147874 0.955704
O O11 0.750000 0.250000 0.047213
O O12 0.750000 0.349213 0.281927
O O13 0.032612 0.250000 0.175934
O O14 0.987942 0.383871 0.249782
O O15 0.434441 0.547056 0.509584
O O16 0.317629 0.623824 0.463456
O O17 0.250000 0.750000 0.489987
#
# Coordination Sequence:
#
# PCOD8240148 Si02
#       8
#     8   8   8   4   8   8   8   4
#     4  10  18  33  59  82 111 152 193 232 274 340
#     4  11  21  38  62  87 112 149 200 245 288 349
#     4  10  21  37  59  87 113 146 196 244 281 344
#     4  11  22  35  55  87 123 156 192 237 282 345
#     4  11  23  39  59  87 118 149 192 251 298 339
#     4  11  22  36  64  88 115 159 196 230 289 346
#     4  11  19  37  62  88 115 151 198 234 286 348
#     4  11  24  39  51  85 131 156 188 231 280 355
#
# _framework density 19.048162000000001
#
# number of rings (size 3 to 8) (size 9 to 14) (size 15 to 20)
#    0.000    1.286    7.143    1.286    0.000    3.714 
#    0.000    5.000    0.000    0.000    0.000    0.000 
#    0.000    0.000    0.000    0.000    0.000    0.000 
#
# Total GULP energy -693750.865962 kJ/mol
# GULP energy per Si atom -12388.408321 kJ/mol
# Density = 1.900481 g / cm^3
# Si number density = 19.048162 Si / 1000 Ang^3
#
#
#
# Elastic Constant Matrix: (Units=GPa)
#
#
# Indices 1 2 3 4 5 6 
#
# 1 106.7794 24.1020 31.4223 0.0000 0.0000 0.0000
# 2 24.1020 63.7997 5.6867 0.0000 0.0000 0.0000
# 3 31.4223 5.6867 70.2585 0.0000 0.0000 0.0000
# 4 0.0000 0.0000 0.0000 15.0987 0.0000 0.0000
# 5 0.0000 0.0000 0.0000 0.0000 27.8166 0.0000
# 6 0.0000 0.0000 0.0000 0.0000 0.0000 26.3912
#
#
#
# Elastic Compliance Matrix: (Units=1/GPa)
#
#
# Indices 1 2 3 4 5 6 
#
# 1 0.011711 -0.003986 -0.004915 0.000000 0.000000 0.000000
# 2 -0.003986 0.017145 0.000395 0.000000 0.000000 0.000000
# 3 -0.004915 0.000395 0.016399 0.000000 0.000000 0.000000
# 4 0.000000 0.000000 0.000000 0.066231 0.000000 0.000000
# 5 0.000000 0.000000 0.000000 0.000000 0.035950 0.000000
# 6 0.000000 0.000000 0.000000 0.000000 0.000000 0.037891
#
#
# Mechanical properties :
#
#
# Convention : Reuss Voigt Hill
#
# Bulk Modulus (GPa) = 35.40695 40.36218 37.88457
# Shear Modulus (GPa) = 23.61231 25.83639 24.72435
#
# Velocity S-wave (km/s) = 3.52463 3.68689 3.60667
# Velocity P-wave (km/s) = 5.93233 6.27374 6.10542
#
# Compressibility (1/GPa) = 0.02824304
#
# Stress axis : x y z
#
# Youngs Moduli (GPa) = 85.38825 58.32701 60.97785
#
# Poissons Ratio (x) = 0.23250 0.29971
# Poissons Ratio (y) = 0.34037 -0.02409
# Poissons Ratio (z) = 0.41969 -0.02304
#
# Static dielectric constant tensor:
#      x y z
#    x 3.830150 0.000000 0.000000 
#    y 0.000000 3.071490 0.000000 
#    z 0.000000 0.000000 3.703550 
# 
# 
# High freq. dielectric constant tensor:
#      x y z
#    x 1.758570 0.000000 0.000000 
#    y 0.000000 1.694150 0.000000 
#    z 0.000000 0.000000 1.749050 
# 
# From -- ./inp_files/11469.got.cif
#   From: 2010.03.12/outbox.cif.g09.slc.cpg/sg59_6_cif.got.tgz:11469.got - 2010.04.16 16:29:54.
