data_PCOD8240385
_publ_section_title
;
Structure prediction by ZEFSAII (Michael W. Deem and Ramdas Pophale) SiO2 
 PCOD8240385
Probable space group: P M M N
;
_chemical_formula_sum "Si O2"
_cell_formula_units_Z 64
_cell_length_a 28.616406
_cell_length_b 9.030208
_cell_length_c 15.575674
_cell_angle_alpha 90.000000
_cell_angle_beta 90.000000
_cell_angle_gamma 90.000000
_cell_volume 4024.942602
_symmetry_space_group_name_H-M "P M M N"
_symmetry_group_IT_number 59
_space_group.IT_coordinate_system_code '2'
_symmetry_cell_setting 'orthorhombic'
loop_
_space_group_symop_operation_xyz
x,y,z
1/2-x,1/2-y,z
1/2+x,-y,-z
-x,1/2+y,-z
-x,-y,-z
1/2+x,1/2+y,-z
1/2-x,y,z
x,1/2-y,z
loop_
_atom_site_type_symbol
_atom_site_label
_atom_site_fract_x
_atom_site_fract_y
_atom_site_fract_z
Si Si1 0.944766 0.576393 0.318953
Si Si2 0.548210 0.920148 0.504261
Si Si3 0.197399 0.576741 0.110473
Si Si4 0.107163 0.578429 0.829249
Si Si5 0.199277 0.925728 0.915548
Si Si6 0.044518 0.423208 0.310160
Si Si7 0.450172 0.577103 0.999813
Si Si8 0.893290 0.925627 0.849392
O O1 0.949059 0.750000 0.302651
O O2 0.924581 0.539754 0.415716
O O3 0.907369 0.510572 0.254287
O O4 0.995640 0.507671 0.302538
O O5 0.535448 0.750000 0.501310
O O6 0.570801 0.957639 0.597746
O O7 0.500000 0.000000 0.500000
O O8 0.250000 0.546891 0.145319
O O9 0.185203 0.750000 0.117365
O O10 0.159729 0.482655 0.164289
O O11 0.193456 0.518929 0.012849
O O12 0.110750 0.750000 0.804699
O O13 0.157657 0.512231 0.856731
O O14 0.070515 0.554053 0.905422
O O15 0.250000 0.977194 0.879345
O O16 0.196245 0.750000 0.918123
O O17 0.033218 0.250000 0.300563
O O18 0.078602 0.476289 0.234999
O O19 0.455370 0.750000 0.022125
O O20 0.415952 0.502541 0.068138
O O21 0.500000 0.500000 0.000000
O O22 0.894081 0.750000 0.861837
#
# Coordination Sequence:
#
# PCOD8240385 Si02
#       8
#     8   8   8   8   8   8   8   8
#     4  10  19  29  45  69  92 117 150 191 228 263
#     4   8  15  29  46  63  86 115 149 186 226 266
#     4   9  17  32  52  69  88 118 154 191 232 275
#     4  10  19  31  46  64  88 120 152 182 220 270
#     4   8  14  28  49  67  82 108 149 188 221 264
#     4   9  18  32  47  64  90 124 154 183 222 272
#     4  11  22  34  45  61  90 128 162 188 220 266
#     4  11  21  31  46  69  94 121 154 191 229 268
#
# _framework density 15.900848
#
# number of rings (size 3 to 8) (size 9 to 14) (size 15 to 20)
#    0.000    2.500    1.250    2.625    0.000    5.750 
#    0.000    0.000    0.000    0.375    0.000    0.875 
#    0.000    5.000    0.000    0.000    0.000    0.000 
#
# Total GULP energy -793001.704536 kJ/mol
# GULP energy per Si atom -12390.651633 kJ/mol
# Density = 1.586466 g / cm^3
# Si number density = 15.900848 Si / 1000 Ang^3
#
#
#
# Elastic Constant Matrix: (Units=GPa)
#
#
# Indices 1 2 3 4 5 6 
#
# 1 88.9823 23.9381 22.9306 0.0000 0.0000 0.0000
# 2 23.9381 44.7375 23.0956 0.0000 0.0000 0.0000
# 3 22.9306 23.0956 73.2921 0.0000 0.0000 0.0000
# 4 0.0000 0.0000 0.0000 19.8207 0.0000 0.0000
# 5 0.0000 0.0000 0.0000 0.0000 12.1414 0.0000
# 6 0.0000 0.0000 0.0000 0.0000 0.0000 23.3885
#
#
#
# Elastic Compliance Matrix: (Units=1/GPa)
#
#
# Indices 1 2 3 4 5 6 
#
# 1 0.013450 -0.006000 -0.002317 0.000000 0.000000 0.000000
# 2 -0.006000 0.029372 -0.007378 0.000000 0.000000 0.000000
# 3 -0.002317 -0.007378 0.016694 0.000000 0.000000 0.000000
# 4 0.000000 0.000000 0.000000 0.050452 0.000000 0.000000
# 5 0.000000 0.000000 0.000000 0.000000 0.082363 0.000000
# 6 0.000000 0.000000 0.000000 0.000000 0.000000 0.042756
#
#
# Mechanical properties :
#
#
# Convention : Reuss Voigt Hill
#
# Bulk Modulus (GPa) = 35.55660 38.54896 37.05278
# Shear Modulus (GPa) = 18.12555 20.20662 19.16608
#
# Velocity S-wave (km/s) = 3.37992 3.56868 3.47558
# Velocity P-wave (km/s) = 6.13529 6.42469 6.28166
#
# Compressibility (1/GPa) = 0.02812418
#
# Stress axis : x y z
#
# Youngs Moduli (GPa) = 74.35210 34.04565 59.90169
#
# Poissons Ratio (x) = 0.20429 0.13880
# Poissons Ratio (y) = 0.44614 0.44198
# Poissons Ratio (z) = 0.17228 0.25120
#
# Static dielectric constant tensor:
#      x y z
#    x 3.090990 0.000000 0.000000 
#    y 0.000000 2.912090 0.000000 
#    z 0.000000 0.000000 3.458010 
# 
# 
# High freq. dielectric constant tensor:
#      x y z
#    x 1.591780 0.000000 0.000000 
#    y 0.000000 1.607490 0.000000 
#    z 0.000000 0.000000 1.605730 
# 
# From -- ./inp_files/21826.got.cif
#   From: 2010.03.12/outbox.cif.g09.slc.cpg/sg59_11_cif.got.tgz:21826.got - 2010.04.16 16:29:54.
