data_PCOD8240629
_publ_section_title
;
Structure prediction by ZEFSAII (Michael W. Deem and Ramdas Pophale) SiO2 
 PCOD8240629
Probable space group: P M M N
;
_chemical_formula_sum "Si O2"
_cell_formula_units_Z 64
_cell_length_a 14.448219
_cell_length_b 9.276248
_cell_length_c 27.566565
_cell_angle_alpha 90.000000
_cell_angle_beta 90.000000
_cell_angle_gamma 90.000000
_cell_volume 3694.616113
_symmetry_space_group_name_H-M "P M M N"
_symmetry_group_IT_number 59
_space_group.IT_coordinate_system_code '2'
_symmetry_cell_setting 'orthorhombic'
loop_
_space_group_symop_operation_xyz
x,y,z
1/2-x,1/2-y,z
1/2+x,-y,-z
-x,1/2+y,-z
-x,-y,-z
1/2+x,1/2+y,-z
1/2-x,y,z
x,1/2-y,z
loop_
_atom_site_type_symbol
_atom_site_label
_atom_site_fract_x
_atom_site_fract_y
_atom_site_fract_z
Si Si1 0.148041 0.579015 0.529720
Si Si2 0.022390 0.921499 0.617139
Si Si3 0.143014 0.917850 0.420713
Si Si4 0.085449 0.912896 0.983019
Si Si5 0.145075 0.084394 0.804815
Si Si6 0.648758 0.416437 0.916600
Si Si7 0.531380 0.080864 0.118052
Si Si8 0.856257 0.914994 0.308006
O O1 0.250000 0.518409 0.543191
O O2 0.151705 0.750000 0.530487
O O3 0.075345 0.521411 0.569028
O O4 0.121321 0.528533 0.475554
O O5 0.015877 0.750000 0.619687
O O6 0.076463 0.977366 0.663942
O O7 0.919717 0.988898 0.615820
O O8 0.250000 0.946372 0.407734
O O9 0.118868 0.750000 0.414486
O O10 0.051908 0.750000 0.982390
O O11 0.104458 0.953699 0.926408
O O12 0.162306 0.938515 0.024497
O O13 0.000000 0.000000 0.000000
O O14 0.250000 0.034356 0.815788
O O15 0.132236 0.250000 0.820150
O O16 0.122690 0.063801 0.748471
O O17 0.072686 0.988074 0.833850
O O18 0.750000 0.454355 0.894391
O O19 0.622738 0.250000 0.905838
O O20 0.570389 0.516418 0.893121
O O21 0.519249 0.250000 0.127181
O O22 0.750000 0.955488 0.319520
O O23 0.875746 0.750000 0.323363
#
# Coordination Sequence:
#
# PCOD8240629 Si02
#       8
#     8   8   8   8   8   8   8   8
#     4   8  15  28  45  68  99 132 164 197 234 279
#     4  11  20  29  48  76 103 129 157 197 248 293
#     4   9  18  33  50  66  92 134 176 206 232 272
#     4   8  15  27  42  63  92 125 160 196 233 274
#     4   9  19  36  55  73  95 125 160 197 237 285
#     4   9  17  30  48  68  95 135 175 204 232 274
#     4  10  19  30  48  74 102 129 158 199 248 292
#     4   9  19  36  55  74  97 125 158 195 235 286
#
# _framework density 17.322502
#
# number of rings (size 3 to 8) (size 9 to 14) (size 15 to 20)
#    0.000    2.875    0.000    3.000    0.000    3.000 
#    0.000    3.125    0.000    2.250    0.000    5.250 
#    0.000    0.000    0.000    0.000    0.000    0.000 
#
# Total GULP energy -792940.671440 kJ/mol
# GULP energy per Si atom -12389.697991 kJ/mol
# Density = 1.728308 g / cm^3
# Si number density = 17.322502 Si / 1000 Ang^3
#
#
#
# Elastic Constant Matrix: (Units=GPa)
#
#
# Indices 1 2 3 4 5 6 
#
# 1 101.0661 54.2937 53.4675 0.0000 0.0000 0.0000
# 2 54.2937 75.3736 45.6169 0.0000 0.0000 0.0000
# 3 53.4675 45.6169 74.1115 0.0000 0.0000 0.0000
# 4 0.0000 0.0000 0.0000 26.6660 0.0000 0.0000
# 5 0.0000 0.0000 0.0000 0.0000 25.6038 0.0000
# 6 0.0000 0.0000 0.0000 0.0000 0.0000 21.9395
#
#
#
# Elastic Compliance Matrix: (Units=1/GPa)
#
#
# Indices 1 2 3 4 5 6 
#
# 1 0.018931 -0.008559 -0.008389 0.000000 0.000000 0.000000
# 2 -0.008559 0.025013 -0.009221 0.000000 0.000000 0.000000
# 3 -0.008389 -0.009221 0.025221 0.000000 0.000000 0.000000
# 4 0.000000 0.000000 0.000000 0.037501 0.000000 0.000000
# 5 0.000000 0.000000 0.000000 0.000000 0.039057 0.000000
# 6 0.000000 0.000000 0.000000 0.000000 0.000000 0.045580
#
#
# Mechanical properties :
#
#
# Convention : Reuss Voigt Hill
#
# Bulk Modulus (GPa) = 59.43051 61.92304 60.67678
# Shear Modulus (GPa) = 20.06009 21.32006 20.69007
#
# Velocity S-wave (km/s) = 3.40669 3.51204 3.45977
# Velocity P-wave (km/s) = 7.06093 7.22985 7.14589
#
# Compressibility (1/GPa) = 0.01682637
#
# Stress axis : x y z
#
# Youngs Moduli (GPa) = 52.82409 39.97862 39.64876
#
# Poissons Ratio (x) = 0.34218 0.33262
# Poissons Ratio (y) = 0.45212 0.36561
# Poissons Ratio (z) = 0.44316 0.36865
#
# Static dielectric constant tensor:
#      x y z
#    x 2.962110 0.000000 0.000000 
#    y 0.000000 3.072690 0.000000 
#    z 0.000000 0.000000 3.425310 
# 
# 
# High freq. dielectric constant tensor:
#      x y z
#    x 1.660850 0.000000 0.000000 
#    y 0.000000 1.661010 0.000000 
#    z 0.000000 0.000000 1.653760 
# 
# From -- ./inp_files/32237.got.cif
#   From: 2010.03.12/outbox.cif.g09.slc.cpg/sg59_17_cif.got.tgz:32237.got - 2010.04.16 16:29:54.
