data_PCOD8240549
_publ_section_title
;
Structure prediction by ZEFSAII (Michael W. Deem and Ramdas Pophale) SiO2 
 PCOD8240549
Probable space group: P M M N
;
_chemical_formula_sum "Si O2"
_cell_formula_units_Z 64
_cell_length_a 15.042468
_cell_length_b 9.810334
_cell_length_c 23.779032
_cell_angle_alpha 90.000000
_cell_angle_beta 90.000000
_cell_angle_gamma 90.000000
_cell_volume 3509.110637
_symmetry_space_group_name_H-M "P M M N"
_symmetry_group_IT_number 59
_space_group.IT_coordinate_system_code '2'
_symmetry_cell_setting 'orthorhombic'
loop_
_space_group_symop_operation_xyz
x,y,z
1/2-x,1/2-y,z
1/2+x,-y,-z
-x,1/2+y,-z
-x,-y,-z
1/2+x,1/2+y,-z
1/2-x,y,z
x,1/2-y,z
loop_
_atom_site_type_symbol
_atom_site_label
_atom_site_fract_x
_atom_site_fract_y
_atom_site_fract_z
Si Si1 0.148437 0.907319 0.324341
Si Si2 0.572636 0.594101 0.470860
Si Si3 0.650125 0.605079 0.583451
Si Si4 0.481168 0.090279 0.742394
Si Si5 0.001690 0.087188 0.868176
Si Si6 0.850662 0.912783 0.352863
Si Si7 0.353463 0.092372 0.080716
Si Si8 0.347822 0.410977 0.952708
O O1 0.250000 0.944339 0.307297
O O2 0.140170 0.750000 0.339895
O O3 0.082830 0.948673 0.273635
O O4 0.108873 0.982703 0.379848
O O5 0.500000 0.500000 0.500000
O O6 0.538634 0.750000 0.463904
O O7 0.651820 0.583578 0.516358
O O8 0.606370 0.534685 0.411446
O O9 0.750000 0.613849 0.604673
O O10 0.601930 0.750000 0.597672
O O11 0.468265 0.250000 0.738302
O O12 0.464916 0.042993 0.806239
O O13 0.408631 0.027087 0.699230
O O14 0.985189 0.250000 0.872710
O O15 0.077285 0.032398 0.910716
O O16 0.910258 0.008504 0.880465
O O17 0.750000 0.968454 0.347002
O O18 0.849721 0.750000 0.353760
O O19 0.250000 0.071473 0.095362
O O20 0.380679 0.250000 0.090896
O O21 0.372514 0.049243 0.016328
O O22 0.250000 0.470969 0.937106
O O23 0.343044 0.250000 0.946983
#
# Coordination Sequence:
#
# PCOD8240549 Si02
#       8
#     8   8   8   8   8   8   8   8
#     4   9  17  30  47  65  90 125 156 184 228 285
#     4  10  19  30  47  70  93 117 147 186 234 282
#     4   9  17  29  45  66  89 110 139 183 228 268
#     4   9  18  30  44  67  96 124 158 197 235 275
#     4  10  19  30  49  76 100 125 162 207 247 281
#     4   9  17  30  48  69  95 128 163 197 233 278
#     4   9  18  33  51  71  99 134 164 192 238 299
#     4   8  15  29  49  73 101 130 159 195 242 293
#
# _framework density 18.238239
#
# number of rings (size 3 to 8) (size 9 to 14) (size 15 to 20)
#    0.000    2.875    0.000    2.250    0.000    4.250 
#    0.000    4.375    0.000    4.500    0.000    0.000 
#    0.000    0.000    0.000    0.000    0.000    0.000 
#
# Total GULP energy -792914.850577 kJ/mol
# GULP energy per Si atom -12389.294540 kJ/mol
# Density = 1.819673 g / cm^3
# Si number density = 18.238239 Si / 1000 Ang^3
#
#
#
# Elastic Constant Matrix: (Units=GPa)
#
#
# Indices 1 2 3 4 5 6 
#
# 1 108.2380 32.4132 61.6244 0.0000 0.0000 0.0000
# 2 32.4132 38.3170 28.7776 0.0000 0.0000 0.0000
# 3 61.6244 28.7776 117.2145 0.0000 0.0000 0.0000
# 4 0.0000 0.0000 0.0000 20.7541 0.0000 0.0000
# 5 0.0000 0.0000 0.0000 0.0000 25.0535 0.0000
# 6 0.0000 0.0000 0.0000 0.0000 0.0000 19.9352
#
#
#
# Elastic Compliance Matrix: (Units=1/GPa)
#
#
# Indices 1 2 3 4 5 6 
#
# 1 0.015087 -0.008344 -0.005883 0.000000 0.000000 0.000000
# 2 -0.008344 0.036613 -0.004602 0.000000 0.000000 0.000000
# 3 -0.005883 -0.004602 0.012754 0.000000 0.000000 0.000000
# 4 0.000000 0.000000 0.000000 0.048183 0.000000 0.000000
# 5 0.000000 0.000000 0.000000 0.000000 0.039915 0.000000
# 6 0.000000 0.000000 0.000000 0.000000 0.000000 0.050163
#
#
# Mechanical properties :
#
#
# Convention : Reuss Voigt Hill
#
# Bulk Modulus (GPa) = 37.31980 56.59998 46.95989
# Shear Modulus (GPa) = 20.05568 22.54551 21.30060
#
# Velocity S-wave (km/s) = 3.31969 3.51973 3.42118
# Velocity P-wave (km/s) = 5.93301 6.90066 6.43505
#
# Compressibility (1/GPa) = 0.02679543
#
# Stress axis : x y z
#
# Youngs Moduli (GPa) = 66.28085 27.31280 78.40419
#
# Poissons Ratio (x) = 0.22790 0.46129
# Poissons Ratio (y) = 0.55305 0.36083
# Poissons Ratio (z) = 0.38996 0.12570
#
# Static dielectric constant tensor:
#      x y z
#    x 3.614310 0.000000 0.000000 
#    y 0.000000 3.122230 0.000000 
#    z 0.000000 0.000000 3.612670 
# 
# 
# High freq. dielectric constant tensor:
#      x y z
#    x 1.708250 0.000000 0.000000 
#    y 0.000000 1.661680 0.000000 
#    z 0.000000 0.000000 1.707290 
# 
# From -- ./inp_files/32240.got.cif
#   From: 2010.03.12/outbox.cif.g09.slc.cpg/sg59_17_cif.got.tgz:32240.got - 2010.04.16 16:29:54.
