data_PCOD8240489
_publ_section_title
;
Structure prediction by ZEFSAII (Michael W. Deem and Ramdas Pophale) SiO2 
 PCOD8240489
Probable space group: P M M N
;
_chemical_formula_sum "Si O2"
_cell_formula_units_Z 64
_cell_length_a 14.025079
_cell_length_b 9.026570
_cell_length_c 31.215679
_cell_angle_alpha 90.000000
_cell_angle_beta 90.000000
_cell_angle_gamma 90.000000
_cell_volume 3951.853685
_symmetry_space_group_name_H-M "P M M N"
_symmetry_group_IT_number 59
_space_group.IT_coordinate_system_code '2'
_symmetry_cell_setting 'orthorhombic'
loop_
_space_group_symop_operation_xyz
x,y,z
1/2-x,1/2-y,z
1/2+x,-y,-z
-x,1/2+y,-z
-x,-y,-z
1/2+x,1/2+y,-z
1/2-x,y,z
x,1/2-y,z
loop_
_atom_site_type_symbol
_atom_site_label
_atom_site_fract_x
_atom_site_fract_y
_atom_site_fract_z
Si Si1 0.090864 0.079833 0.481523
Si Si2 0.136738 0.583198 0.233700
Si Si3 0.637167 0.579488 0.681542
Si Si4 0.554552 0.073312 0.599600
Si Si5 0.143109 0.923652 0.983738
Si Si6 0.046050 0.076197 0.061305
Si Si7 0.650023 0.920455 0.427722
Si Si8 0.639756 0.922986 0.851331
O O1 0.070197 0.250000 0.469621
O O2 0.164257 0.066344 0.520695
O O3 0.122364 0.995358 0.437822
O O4 0.000000 0.000000 0.500000
O O5 0.250000 0.583292 0.233599
O O6 0.096618 0.750000 0.237735
O O7 0.099924 0.485122 0.273376
O O8 0.100016 0.511232 0.189630
O O9 0.750000 0.562390 0.677189
O O10 0.605683 0.750000 0.677929
O O11 0.588135 0.482250 0.645256
O O12 0.560841 0.250000 0.597245
O O13 0.446900 0.008807 0.591294
O O14 0.250000 0.971730 0.968964
O O15 0.139051 0.750000 0.992145
O O16 0.064454 0.968973 0.947836
O O17 0.117858 0.000345 0.028326
O O18 0.061714 0.250000 0.056070
O O19 0.074841 0.025102 0.108855
O O20 0.750000 0.988265 0.408717
O O21 0.643657 0.750000 0.414524
O O22 0.750000 0.961420 0.861182
O O23 0.627951 0.750000 0.841574
#
# Coordination Sequence:
#
# PCOD8240489 Si02
#       8
#     8   8   8   8   8   8   8   8
#     4   9  16  27  43  61  84 114 146 180 215 252
#     4   9  17  29  45  65  88 111 136 171 215 261
#     4  10  20  33  48  65  88 118 146 173 212 264
#     4  10  19  30  46  67  90 116 146 182 219 256
#     4   9  17  28  41  59  86 118 151 189 228 260
#     4   9  17  28  42  61  85 116 153 186 218 261
#     4   8  15  28  45  64  86 114 147 179 212 251
#     4   9  16  26  41  61  85 112 141 173 211 258
#
# _framework density 16.194932000000001
#
# number of rings (size 3 to 8) (size 9 to 14) (size 15 to 20)
#    0.000    2.875    0.000    2.625    0.000    4.000 
#    0.000    2.500    0.000   13.125    0.000    0.875 
#    0.000    3.000    0.000    0.000    0.000    0.000 
#
# Total GULP energy -792959.324989 kJ/mol
# GULP energy per Si atom -12389.989453 kJ/mol
# Density = 1.615807 g / cm^3
# Si number density = 16.194932 Si / 1000 Ang^3
#
#
#
# Elastic Constant Matrix: (Units=GPa)
#
#
# Indices 1 2 3 4 5 6 
#
# 1 63.3791 24.7734 34.2690 0.0000 0.0000 0.0000
# 2 24.7734 71.3913 43.8911 0.0000 0.0000 0.0000
# 3 34.2690 43.8911 117.5804 0.0000 0.0000 0.0000
# 4 0.0000 0.0000 0.0000 30.4732 0.0000 0.0000
# 5 0.0000 0.0000 0.0000 0.0000 11.1359 0.0000
# 6 0.0000 0.0000 0.0000 0.0000 0.0000 14.3238
#
#
#
# Elastic Compliance Matrix: (Units=1/GPa)
#
#
# Indices 1 2 3 4 5 6 
#
# 1 0.019692 -0.004289 -0.004138 0.000000 0.000000 0.000000
# 2 -0.004289 0.019114 -0.005885 0.000000 0.000000 0.000000
# 3 -0.004138 -0.005885 0.011908 0.000000 0.000000 0.000000
# 4 0.000000 0.000000 0.000000 0.032816 0.000000 0.000000
# 5 0.000000 0.000000 0.000000 0.000000 0.089800 0.000000
# 6 0.000000 0.000000 0.000000 0.000000 0.000000 0.069814
#
#
# Mechanical properties :
#
#
# Convention : Reuss Voigt Hill
#
# Bulk Modulus (GPa) = 45.27128 50.91308 48.09218
# Shear Modulus (GPa) = 17.91279 21.14773 19.53026
#
# Velocity S-wave (km/s) = 3.32938 3.61754 3.47644
# Velocity P-wave (km/s) = 6.54174 6.99676 6.77307
#
# Compressibility (1/GPa) = 0.02208906
#
# Stress axis : x y z
#
# Youngs Moduli (GPa) = 50.78172 52.31874 83.97993
#
# Poissons Ratio (x) = 0.22440 0.34753
# Poissons Ratio (y) = 0.21781 0.49420
# Poissons Ratio (z) = 0.21015 0.30788
#
# Static dielectric constant tensor:
#      x y z
#    x 3.183180 0.000000 0.000000 
#    y 0.000000 3.138990 0.000000 
#    z 0.000000 0.000000 3.170030 
# 
# 
# High freq. dielectric constant tensor:
#      x y z
#    x 1.596170 0.000000 0.000000 
#    y 0.000000 1.622480 0.000000 
#    z 0.000000 0.000000 1.613080 
# 
# From -- ./inp_files/33340.got.cif
#   From: 2010.03.12/outbox.cif.g09.slc.cpg/sg59_17_cif.got.tgz:33340.got - 2010.04.16 16:29:54.
