data_PCOD8240371
_publ_section_title
;
Structure prediction by ZEFSAII (Michael W. Deem and Ramdas Pophale) SiO2 
 PCOD8240371
Probable space group: P M M N
;
_chemical_formula_sum "Si O2"
_cell_formula_units_Z 64
_cell_length_a 13.912884
_cell_length_b 9.130736
_cell_length_c 31.146121
_cell_angle_alpha 90.000000
_cell_angle_beta 90.000000
_cell_angle_gamma 90.000000
_cell_volume 3956.643457
_symmetry_space_group_name_H-M "P M M N"
_symmetry_group_IT_number 59
_space_group.IT_coordinate_system_code '2'
_symmetry_cell_setting 'orthorhombic'
loop_
_space_group_symop_operation_xyz
x,y,z
1/2-x,1/2-y,z
1/2+x,-y,-z
-x,1/2+y,-z
-x,-y,-z
1/2+x,1/2+y,-z
1/2-x,y,z
x,1/2-y,z
loop_
_atom_site_type_symbol
_atom_site_label
_atom_site_fract_x
_atom_site_fract_y
_atom_site_fract_z
Si Si1 0.143666 0.075877 0.972648
Si Si2 0.639174 0.079023 0.522303
Si Si3 0.969562 0.078373 0.435595
Si Si4 0.362280 0.079378 0.640369
Si Si5 0.860606 0.078285 0.181180
Si Si6 0.637646 0.581757 0.932069
Si Si7 0.476133 0.076581 0.892131
Si Si8 0.363721 0.588663 0.723252
O O1 0.250000 0.013298 0.963671
O O2 0.146923 0.250000 0.972256
O O3 0.076821 0.015613 0.934791
O O4 0.109321 0.024912 0.019974
O O5 0.750000 0.029064 0.526269
O O6 0.627513 0.250000 0.532508
O O7 0.602648 0.042715 0.474525
O O8 0.574990 0.989285 0.556093
O O9 0.981883 0.250000 0.428309
O O10 0.924745 0.007963 0.393611
O O11 0.250000 0.043569 0.633144
O O12 0.383681 0.250000 0.635608
O O13 0.396784 0.028045 0.687567
O O14 0.750000 0.030523 0.174770
O O15 0.872654 0.250000 0.171945
O O16 0.897621 0.040062 0.229306
O O17 0.926409 0.985006 0.149959
O O18 0.750000 0.561685 0.924261
O O19 0.607061 0.750000 0.926113
O O20 0.584233 0.483968 0.896327
O O21 0.475992 0.250000 0.889156
O O22 0.250000 0.599944 0.724756
O O23 0.405432 0.750000 0.711765
#
# Coordination Sequence:
#
# PCOD8240371 Si02
#       8
#     8   8   8   8   8   8   8   8
#     4   8  15  28  44  63  88 117 147 178 215 259
#     4   9  18  32  47  64  91 126 161 198 238 274
#     4  10  19  30  46  68  93 123 160 197 232 274
#     4  10  19  29  44  68  96 124 154 189 228 270
#     4   9  18  32  48  67  93 123 152 180 213 262
#     4   9  18  33  49  61  80 115 155 191 223 257
#     4  11  20  28  44  69  94 118 144 180 224 267
#     4   8  15  29  47  65  88 119 151 183 220 262
#
# _framework density 16.175325999999998
#
# number of rings (size 3 to 8) (size 9 to 14) (size 15 to 20)
#    0.000    2.750    0.000    3.750    0.000    3.500 
#    0.000    1.875    0.000    1.500    0.000    0.875 
#    0.000    1.000    0.000    0.000    0.000    0.000 
#
# Total GULP energy -793425.395147 kJ/mol
# GULP energy per Si atom -12397.271799 kJ/mol
# Density = 1.613851 g / cm^3
# Si number density = 16.175326 Si / 1000 Ang^3
#
#
#
# Elastic Constant Matrix: (Units=GPa)
#
#
# Indices 1 2 3 4 5 6 
#
# 1 80.7404 46.4740 56.0039 0.0000 0.0000 0.0000
# 2 46.4740 68.8041 55.2281 0.0000 0.0000 0.0000
# 3 56.0039 55.2281 106.8417 0.0000 0.0000 0.0000
# 4 0.0000 0.0000 0.0000 27.7297 0.0000 0.0000
# 5 0.0000 0.0000 0.0000 0.0000 23.7667 0.0000
# 6 0.0000 0.0000 0.0000 0.0000 0.0000 22.6443
#
#
#
# Elastic Compliance Matrix: (Units=1/GPa)
#
#
# Indices 1 2 3 4 5 6 
#
# 1 0.022854 -0.009949 -0.006837 0.000000 0.000000 0.000000
# 2 -0.009949 0.029172 -0.009864 0.000000 0.000000 0.000000
# 3 -0.006837 -0.009864 0.018042 0.000000 0.000000 0.000000
# 4 0.000000 0.000000 0.000000 0.036062 0.000000 0.000000
# 5 0.000000 0.000000 0.000000 0.000000 0.042076 0.000000
# 6 0.000000 0.000000 0.000000 0.000000 0.000000 0.044161
#
#
# Mechanical properties :
#
#
# Convention : Reuss Voigt Hill
#
# Bulk Modulus (GPa) = 59.63709 63.53314 61.58511
# Shear Modulus (GPa) = 19.89980 21.40682 20.65331
#
# Velocity S-wave (km/s) = 3.51131 3.64184 3.57717
# Velocity P-wave (km/s) = 7.30673 7.55295 7.43086
#
# Compressibility (1/GPa) = 0.01676809
#
# Stress axis : x y z
#
# Youngs Moduli (GPa) = 43.75531 34.27906 55.42502
#
# Poissons Ratio (x) = 0.34105 0.37893
# Poissons Ratio (y) = 0.43533 0.54674
# Poissons Ratio (z) = 0.29915 0.33814
#
# Static dielectric constant tensor:
#      x y z
#    x 2.925140 0.000000 0.000000 
#    y 0.000000 2.986460 0.000000 
#    z 0.000000 0.000000 3.113680 
# 
# 
# High freq. dielectric constant tensor:
#      x y z
#    x 1.599250 0.000000 0.000000 
#    y 0.000000 1.618870 0.000000 
#    z 0.000000 0.000000 1.614000 
# 
# From -- ./inp_files/33339.got.cif
#   From: 2010.03.12/outbox.cif.g09.slc.cpg/sg59_17_cif.got.tgz:33339.got - 2010.04.16 16:29:54.
