data_PCOD8240582
_publ_section_title
;
Structure prediction by ZEFSAII (Michael W. Deem and Ramdas Pophale) SiO2 
 PCOD8240582
Probable space group: P M M N
;
_chemical_formula_sum "Si O2"
_cell_formula_units_Z 64
_cell_length_a 9.307622
_cell_length_b 33.346056
_cell_length_c 11.144379
_cell_angle_alpha 90.000000
_cell_angle_beta 90.000000
_cell_angle_gamma 90.000000
_cell_volume 3458.908598
_symmetry_space_group_name_H-M "P M M N"
_symmetry_group_IT_number 59
_space_group.IT_coordinate_system_code '2'
_symmetry_cell_setting 'orthorhombic'
loop_
_space_group_symop_operation_xyz
x,y,z
1/2-x,1/2-y,z
1/2+x,-y,-z
-x,1/2+y,-z
-x,-y,-z
1/2+x,1/2+y,-z
1/2-x,y,z
x,1/2-y,z
loop_
_atom_site_type_symbol
_atom_site_label
_atom_site_fract_x
_atom_site_fract_y
_atom_site_fract_z
Si Si1 0.582904 0.065031 0.964702
Si Si2 0.580685 0.633291 0.644818
Si Si3 0.582200 0.594150 0.398795
Si Si4 0.414127 0.368261 0.848315
Si Si5 0.087053 0.205132 0.998960
Si Si6 0.080923 0.703577 0.763797
Si Si7 0.413508 0.974126 0.286162
Si Si8 0.915782 0.942622 0.801598
O O1 0.750000 0.070285 0.989274
O O2 0.514198 0.108263 0.940605
O O3 0.549499 0.036853 0.851497
O O4 0.511468 0.047036 0.083434
O O5 0.750000 0.642662 0.641907
O O6 0.525880 0.615768 0.518133
O O7 0.495304 0.674436 0.668130
O O8 0.542892 0.600161 0.745218
O O9 0.750000 0.585684 0.409460
O O10 0.541621 0.623785 0.289130
O O11 0.510096 0.550655 0.379476
O O12 0.250000 0.382008 0.869143
O O13 0.436828 0.321711 0.880645
O O14 0.250000 0.200193 0.048049
O O15 0.056003 0.250000 0.955205
O O16 0.980368 0.192808 0.105349
O O17 0.250000 0.695326 0.763461
O O18 0.046546 0.750000 0.730979
O O19 0.250000 0.962849 0.316100
O O20 0.441588 0.021958 0.296887
O O21 0.750000 0.943189 0.842010
#
# Coordination Sequence:
#
# PCOD8240582 Si02
#       8
#     8   8   8   8   8   8   8   8
#     4  10  19  30  47  72  98 125 163 206 248 298
#     4  10  21  36  53  74 100 132 170 208 245 288
#     4   9  19  35  52  71  97 130 169 209 245 285
#     4   9  17  31  50  70  96 129 160 196 246 295
#     4   9  17  30  50  75 100 125 154 190 237 295
#     4  10  21  36  54  77 104 131 159 196 243 292
#     4   9  19  34  50  70  98 132 166 204 252 299
#     4  10  20  33  49  71 101 133 165 204 250 298
#
# _framework density 18.502946999999999
#
# number of rings (size 3 to 8) (size 9 to 14) (size 15 to 20)
#    0.000    2.500    0.000    1.875    0.000    6.750 
#    0.000    0.625    0.000    2.250    0.000    1.750 
#    0.000    0.000    0.000    0.000    0.000    0.000 
#
# Total GULP energy -793559.778468 kJ/mol
# GULP energy per Si atom -12399.371539 kJ/mol
# Density = 1.846083 g / cm^3
# Si number density = 18.502947 Si / 1000 Ang^3
#
#
#
# Elastic Constant Matrix: (Units=GPa)
#
#
# Indices 1 2 3 4 5 6 
#
# 1 66.7327 38.4516 28.5117 0.0000 0.0000 0.0000
# 2 38.4516 92.6870 20.5222 0.0000 0.0000 0.0000
# 3 28.5117 20.5222 46.9912 0.0000 0.0000 0.0000
# 4 0.0000 0.0000 0.0000 24.4306 0.0000 0.0000
# 5 0.0000 0.0000 0.0000 0.0000 18.8378 0.0000
# 6 0.0000 0.0000 0.0000 0.0000 0.0000 29.0533
#
#
#
# Elastic Compliance Matrix: (Units=1/GPa)
#
#
# Indices 1 2 3 4 5 6 
#
# 1 0.024178 -0.007508 -0.011391 0.000000 0.000000 0.000000
# 2 -0.007508 0.014276 -0.001679 0.000000 0.000000 0.000000
# 3 -0.011391 -0.001679 0.028925 0.000000 0.000000 0.000000
# 4 0.000000 0.000000 0.000000 0.040932 0.000000 0.000000
# 5 0.000000 0.000000 0.000000 0.000000 0.053085 0.000000
# 6 0.000000 0.000000 0.000000 0.000000 0.000000 0.034419
#
#
# Mechanical properties :
#
#
# Convention : Reuss Voigt Hill
#
# Bulk Modulus (GPa) = 38.13485 42.37576 40.25530
# Shear Modulus (GPa) = 20.34895 22.39271 21.37083
#
# Velocity S-wave (km/s) = 3.31987 3.48260 3.40221
# Velocity P-wave (km/s) = 5.94561 6.25486 6.10219
#
# Compressibility (1/GPa) = 0.02622273
#
# Stress axis : x y z
#
# Youngs Moduli (GPa) = 41.35936 70.04959 34.57192
#
# Poissons Ratio (x) = 0.52596 0.39381
# Poissons Ratio (y) = 0.31054 0.05804
# Poissons Ratio (z) = 0.47112 0.11760
#
# Static dielectric constant tensor:
#      x y z
#    x 3.374030 0.000000 0.000000 
#    y 0.000000 3.494240 0.000000 
#    z 0.000000 0.000000 3.263210 
# 
# 
# High freq. dielectric constant tensor:
#      x y z
#    x 1.712970 0.000000 0.000000 
#    y 0.000000 1.721980 0.000000 
#    z 0.000000 0.000000 1.700930 
# 
# From -- ./inp_files/15062.got.cif
#   From: 2010.03.12/outbox.cif.g09.slc.cpg/sg59_8_cif.got.tgz:15062.got - 2010.04.16 16:29:54.
