data_PCOD8240408
_publ_section_title
;
Structure prediction by ZEFSAII (Michael W. Deem and Ramdas Pophale) SiO2 
 PCOD8240408
Probable space group: P M M N
;
_chemical_formula_sum "Si O2"
_cell_formula_units_Z 48
_cell_length_a 8.987611
_cell_length_b 21.322529
_cell_length_c 14.990364
_cell_angle_alpha 90.000000
_cell_angle_beta 90.000000
_cell_angle_gamma 90.000000
_cell_volume 2872.732313
_symmetry_space_group_name_H-M "P M M N"
_symmetry_group_IT_number 59
_space_group.IT_coordinate_system_code '2'
_symmetry_cell_setting 'orthorhombic'
loop_
_space_group_symop_operation_xyz
x,y,z
1/2-x,1/2-y,z
1/2+x,-y,-z
-x,1/2+y,-z
-x,-y,-z
1/2+x,1/2+y,-z
1/2-x,y,z
x,1/2-y,z
loop_
_atom_site_type_symbol
_atom_site_label
_atom_site_fract_x
_atom_site_fract_y
_atom_site_fract_z
Si Si1 0.576431 0.101977 0.153327
Si Si2 0.923278 0.933988 0.012330
Si Si3 0.419448 0.458907 0.794841
Si Si4 0.577571 0.676527 0.691896
Si Si5 0.421906 0.911213 0.562925
Si Si6 0.921232 0.464541 0.623180
O O1 0.750000 0.115037 0.143365
O O2 0.508766 0.150331 0.223041
O O3 0.542346 0.031427 0.184883
O O4 0.500054 0.114520 0.056386
O O5 0.750000 0.939968 0.989151
O O6 0.945533 0.915971 0.116820
O O7 0.000000 0.000000 0.000000
O O8 0.250000 0.452710 0.762537
O O9 0.526750 0.433577 0.716361
O O10 0.750000 0.659243 0.701219
O O11 0.550272 0.750000 0.686205
O O12 0.514317 0.647111 0.600540
O O13 0.250000 0.902743 0.589161
O O14 0.444793 0.914412 0.456166
O O15 0.477201 0.974966 0.608148
O O16 0.750000 0.485630 0.628219
#
# Coordination Sequence:
#
# PCOD8240408 Si02
#       6
#     8   8   8   8   8   8
#     4  10  19  31  47  68  95 127 161 197 239 287
#     4   9  17  28  43  65  95 128 159 192 232 278
#     4   9  17  28  44  69  98 128 159 191 234 288
#     4  11  23  36  51  71  94 126 167 206 245 291
#     4  10  20  33  47  68  96 127 163 200 243 293
#     4  10  19  29  47  71  97 129 161 197 243 292
#
# _framework density 16.708832000000001
#
# number of rings (size 3 to 8) (size 9 to 14) (size 15 to 20)
#    0.000    2.167    1.667    3.500    0.000    6.667 
#    0.000    0.000    0.000    0.000    0.000    1.167 
#    0.000    6.667    0.000    0.000    0.000    0.000 
#
# Total GULP energy -595073.344908 kJ/mol
# GULP energy per Si atom -12397.361352 kJ/mol
# Density = 1.667080 g / cm^3
# Si number density = 16.708832 Si / 1000 Ang^3
#
#
#
# Elastic Constant Matrix: (Units=GPa)
#
#
# Indices 1 2 3 4 5 6 
#
# 1 114.7795 37.6294 71.9957 0.0000 0.0000 0.0000
# 2 37.6294 47.0304 36.6089 0.0000 0.0000 0.0000
# 3 71.9957 36.6089 137.2964 0.0000 0.0000 0.0000
# 4 0.0000 0.0000 0.0000 17.9133 0.0000 0.0000
# 5 0.0000 0.0000 0.0000 0.0000 35.9218 0.0000
# 6 0.0000 0.0000 0.0000 0.0000 0.0000 19.3930
#
#
#
# Elastic Compliance Matrix: (Units=1/GPa)
#
#
# Indices 1 2 3 4 5 6 
#
# 1 0.014725 -0.007283 -0.005780 0.000000 0.000000 0.000000
# 2 -0.007283 0.030434 -0.004296 0.000000 0.000000 0.000000
# 3 -0.005780 -0.004296 0.011460 0.000000 0.000000 0.000000
# 4 0.000000 0.000000 0.000000 0.055824 0.000000 0.000000
# 5 0.000000 0.000000 0.000000 0.000000 0.027838 0.000000
# 6 0.000000 0.000000 0.000000 0.000000 0.000000 0.051565
#
#
# Mechanical properties :
#
#
# Convention : Reuss Voigt Hill
#
# Bulk Modulus (GPa) = 45.65812 65.73049 55.69431
# Shear Modulus (GPa) = 21.37989 24.83711 23.10850
#
# Velocity S-wave (km/s) = 3.58097 3.85965 3.72292
# Velocity P-wave (km/s) = 6.66955 7.69979 7.20311
#
# Compressibility (1/GPa) = 0.02190191
#
# Stress axis : x y z
#
# Youngs Moduli (GPa) = 67.90998 32.85807 87.26139
#
# Poissons Ratio (x) = 0.23930 0.50435
# Poissons Ratio (y) = 0.49458 0.37487
# Poissons Ratio (z) = 0.39251 0.14116
#
# Static dielectric constant tensor:
#      x y z
#    x 3.352820 0.000000 0.000000 
#    y 0.000000 2.634520 0.000000 
#    z 0.000000 0.000000 3.620970 
# 
# 
# High freq. dielectric constant tensor:
#      x y z
#    x 1.664160 0.000000 0.000000 
#    y 0.000000 1.572510 0.000000 
#    z 0.000000 0.000000 1.662830 
# 
# From -- ./inp_files/20703.got.cif
#   From: 2010.03.12/outbox.cif.g09.slc.cpg/sg59_11_cif.got.tgz:20703.got - 2010.04.16 16:29:54.
