data_PCOD8240247
_publ_section_title
;
Structure prediction by ZEFSAII (Michael W. Deem and Ramdas Pophale) SiO2 
 PCOD8240247
Probable space group: P M M N
;
_chemical_formula_sum "Si O2"
_cell_formula_units_Z 64
_cell_length_a 18.654351
_cell_length_b 9.487110
_cell_length_c 23.113878
_cell_angle_alpha 90.000000
_cell_angle_beta 90.000000
_cell_angle_gamma 90.000000
_cell_volume 4090.598897
_symmetry_space_group_name_H-M "P M M N"
_symmetry_group_IT_number 59
_space_group.IT_coordinate_system_code '2'
_symmetry_cell_setting 'orthorhombic'
loop_
_space_group_symop_operation_xyz
x,y,z
1/2-x,1/2-y,z
1/2+x,-y,-z
-x,1/2+y,-z
-x,-y,-z
1/2+x,1/2+y,-z
1/2-x,y,z
x,1/2-y,z
loop_
_atom_site_type_symbol
_atom_site_label
_atom_site_fract_x
_atom_site_fract_y
_atom_site_fract_z
Si Si1 0.896017 0.409344 0.607297
Si Si2 0.833353 0.085843 0.481705
Si Si3 0.519971 0.403523 0.088529
Si Si4 0.332132 0.085449 0.289601
Si Si5 0.598907 0.906113 0.011103
Si Si6 0.831039 0.098089 0.926808
Si Si7 0.538886 0.585469 0.450060
Si Si8 0.602863 0.587689 0.830996
O O1 0.876605 0.250000 0.624649
O O2 0.856456 0.447398 0.547309
O O3 0.864868 0.510825 0.655205
O O4 0.982984 0.426039 0.603539
O O5 0.750000 0.045232 0.472395
O O6 0.846602 0.250000 0.467101
O O7 0.883643 0.989631 0.439279
O O8 0.558107 0.250000 0.091971
O O9 0.574792 0.528295 0.072973
O O10 0.480228 0.434657 0.149722
O O11 0.463090 0.399483 0.036543
O O12 0.250000 0.037330 0.278113
O O13 0.334882 0.250000 0.302410
O O14 0.382735 0.045883 0.235242
O O15 0.629348 0.750000 0.023440
O O16 0.658604 0.008785 0.985229
O O17 0.750000 0.137755 0.922181
O O18 0.873231 0.250000 0.929431
O O19 0.849196 0.011730 0.869873
O O20 0.500000 0.500000 0.500000
O O21 0.550245 0.750000 0.466733
O O22 0.625675 0.750000 0.842196
#
# Coordination Sequence:
#
# PCOD8240247 Si02
#       8
#     8   8   8   8   8   8   8   8
#     4   9  18  31  44  59  84 118 150 179 213 253
#     4   9  17  29  45  66  91 116 143 178 220 264
#     4   8  14  25  40  56  74  97 126 161 200 240
#     4  10  20  31  43  61  84 111 147 186 215 243
#     4   9  16  25  39  57  76 100 127 158 198 241
#     4  10  19  28  39  57  80 106 136 167 199 239
#     4   9  17  29  44  62  85 114 147 181 218 260
#     4   9  18  31  44  57  77 107 139 172 209 243
#
# _framework density 15.645631
#
# number of rings (size 3 to 8) (size 9 to 14) (size 15 to 20)
#    0.000    2.875    0.000    3.375    0.000    8.500 
#    0.000    0.000    0.000    0.000    0.000    0.000 
#    0.000    1.000    0.000    9.000    0.000    5.875 
#
# Total GULP energy -792864.092550 kJ/mol
# GULP energy per Si atom -12388.501446 kJ/mol
# Density = 1.561002 g / cm^3
# Si number density = 15.645631 Si / 1000 Ang^3
#
#
#
# Elastic Constant Matrix: (Units=GPa)
#
#
# Indices 1 2 3 4 5 6 
#
# 1 54.6415 33.8832 20.6058 0.0000 0.0000 0.0000
# 2 33.8832 92.3812 31.0730 0.0000 0.0000 0.0000
# 3 20.6058 31.0730 53.6886 0.0000 0.0000 0.0000
# 4 0.0000 0.0000 0.0000 19.7571 0.0000 0.0000
# 5 0.0000 0.0000 0.0000 0.0000 21.1627 0.0000
# 6 0.0000 0.0000 0.0000 0.0000 0.0000 23.5589
#
#
#
# Elastic Compliance Matrix: (Units=1/GPa)
#
#
# Indices 1 2 3 4 5 6 
#
# 1 0.024843 -0.007332 -0.005291 0.000000 0.000000 0.000000
# 2 -0.007332 0.015605 -0.006218 0.000000 0.000000 0.000000
# 3 -0.005291 -0.006218 0.024255 0.000000 0.000000 0.000000
# 4 0.000000 0.000000 0.000000 0.050615 0.000000 0.000000
# 5 0.000000 0.000000 0.000000 0.000000 0.047253 0.000000
# 6 0.000000 0.000000 0.000000 0.000000 0.000000 0.042447
#
#
# Mechanical properties :
#
#
# Convention : Reuss Voigt Hill
#
# Bulk Modulus (GPa) = 37.00749 41.31503 39.16126
# Shear Modulus (GPa) = 19.86431 20.57235 20.21833
#
# Velocity S-wave (km/s) = 3.56707 3.63008 3.59871
# Velocity P-wave (km/s) = 6.37732 6.63582 6.50785
#
# Compressibility (1/GPa) = 0.02702156
#
# Stress axis : x y z
#
# Youngs Moduli (GPa) = 40.25260 64.08076 41.22810
#
# Poissons Ratio (x) = 0.46985 0.21815
# Poissons Ratio (y) = 0.29514 0.25634
# Poissons Ratio (z) = 0.21299 0.39843
#
# Static dielectric constant tensor:
#      x y z
#    x 3.084130 0.000000 0.000000 
#    y 0.000000 3.216480 0.000000 
#    z 0.000000 0.000000 2.756850 
# 
# 
# High freq. dielectric constant tensor:
#      x y z
#    x 1.579560 0.000000 0.000000 
#    y 0.000000 1.618850 0.000000 
#    z 0.000000 0.000000 1.555460 
# 
# From -- ./inp_files/31039.got.cif
#   From: 2010.03.12/outbox.cif.g09.slc.cpg/sg59_16_cif.got.tgz:31039.got - 2010.04.16 16:29:54.
