data_PCOD8240291
_publ_section_title
;
Structure prediction by ZEFSAII (Michael W. Deem and Ramdas Pophale) SiO2 
 PCOD8240291
Probable space group: P M M N
;
_chemical_formula_sum "Si O2"
_cell_formula_units_Z 64
_cell_length_a 22.405275
_cell_length_b 9.259066
_cell_length_c 20.288952
_cell_angle_alpha 90.000000
_cell_angle_beta 90.000000
_cell_angle_gamma 90.000000
_cell_volume 4208.982047
_symmetry_space_group_name_H-M "P M M N"
_symmetry_group_IT_number 59
_space_group.IT_coordinate_system_code '2'
_symmetry_cell_setting 'orthorhombic'
loop_
_space_group_symop_operation_xyz
x,y,z
1/2-x,1/2-y,z
1/2+x,-y,-z
-x,1/2+y,-z
-x,-y,-z
1/2+x,1/2+y,-z
1/2-x,y,z
x,1/2-y,z
loop_
_atom_site_type_symbol
_atom_site_label
_atom_site_fract_x
_atom_site_fract_y
_atom_site_fract_z
Si Si1 0.104458 0.921240 0.689607
Si Si2 0.680960 0.917167 0.055949
Si Si3 0.910538 0.086672 0.975907
Si Si4 0.498027 0.913761 0.900689
Si Si5 0.585188 0.409361 0.524492
Si Si6 0.998887 0.591450 0.599873
Si Si7 0.683576 0.077716 0.431436
Si Si8 0.096426 0.419341 0.822607
O O1 0.106898 0.750000 0.703968
O O2 0.155292 0.969307 0.638007
O O3 0.039792 0.966304 0.659870
O O4 0.118142 0.011946 0.754555
O O5 0.750000 0.961402 0.062557
O O6 0.673306 0.750000 0.036508
O O7 0.649119 0.948883 0.125390
O O8 0.651075 0.012014 0.998356
O O9 0.897245 0.250000 0.952020
O O10 0.956776 0.088932 0.035472
O O11 0.939651 0.994276 0.916592
O O12 0.511231 0.750000 0.876963
O O13 0.464767 0.002232 0.843527
O O14 0.599227 0.250000 0.551246
O O15 0.537587 0.401710 0.466062
O O16 0.559745 0.495343 0.587357
O O17 0.645051 0.481756 0.493620
O O18 0.975428 0.750000 0.617981
O O19 0.750000 0.013835 0.436428
O O20 0.682420 0.250000 0.435057
O O21 0.083521 0.250000 0.814711
#
# Coordination Sequence:
#
# PCOD8240291 Si02
#       8
#     8   8   8   8   8   8   8   8
#     4   9  17  28  40  55  77 107 140 168 197 238
#     4   9  18  31  43  56  80 114 145 170 200 239
#     4   9  16  26  42  63  82 100 129 170 210 244
#     4   9  16  27  43  60  79 104 132 164 206 252
#     4   8  13  22  38  57  73  93 125 162 199 238
#     4   8  14  24  37  53  74  98 124 159 202 241
#     4   8  14  25  40  57  78 105 136 168 199 233
#     4  10  19  29  41  58  81 109 141 176 207 234
#
# _framework density 15.205576000000001
#
# number of rings (size 3 to 8) (size 9 to 14) (size 15 to 20)
#    0.000    3.250    0.000    2.625    0.000    4.750 
#    0.000    1.875    0.000    1.125    0.000    0.000 
#    0.000    1.000    0.000    6.500    0.000    4.750 
#
# Total GULP energy -793196.297349 kJ/mol
# GULP energy per Si atom -12393.692146 kJ/mol
# Density = 1.517097 g / cm^3
# Si number density = 15.205576 Si / 1000 Ang^3
#
#
#
# Elastic Constant Matrix: (Units=GPa)
#
#
# Indices 1 2 3 4 5 6 
#
# 1 107.7713 52.4284 49.5622 0.0000 0.0000 0.0000
# 2 52.4284 79.9483 25.3925 0.0000 0.0000 0.0000
# 3 49.5622 25.3925 26.2256 0.0000 0.0000 0.0000
# 4 0.0000 0.0000 0.0000 23.6543 0.0000 0.0000
# 5 0.0000 0.0000 0.0000 0.0000 15.8657 0.0000
# 6 0.0000 0.0000 0.0000 0.0000 0.0000 19.2147
#
#
#
# Elastic Compliance Matrix: (Units=1/GPa)
#
#
# Indices 1 2 3 4 5 6 
#
# 1 0.072726 -0.005833 -0.131793 0.000000 0.000000 0.000000
# 2 -0.005833 0.018531 -0.006918 0.000000 0.000000 0.000000
# 3 -0.131793 -0.006918 0.293897 0.000000 0.000000 0.000000
# 4 0.000000 0.000000 0.000000 0.042276 0.000000 0.000000
# 5 0.000000 0.000000 0.000000 0.000000 0.063029 0.000000
# 6 0.000000 0.000000 0.000000 0.000000 0.000000 0.052043
#
#
# Mechanical properties :
#
#
# Convention : Reuss Voigt Hill
#
# Bulk Modulus (GPa) = 10.40958 52.07903 31.24431
# Shear Modulus (GPa) = 5.78964 17.51775 11.65369
#
# Velocity S-wave (km/s) = 1.95342 3.39788 2.77141
# Velocity P-wave (km/s) = 3.45667 7.05113 5.55279
#
# Compressibility (1/GPa) = 0.09606531
#
# Stress axis : x y z
#
# Youngs Moduli (GPa) = 13.75024 53.96466 3.40255
#
# Poissons Ratio (x) = 0.31479 0.44843
# Poissons Ratio (y) = 0.08021 0.02354
# Poissons Ratio (z) = 1.81218 0.37333
#
# Static dielectric constant tensor:
#      x y z
#    x 2.976490 0.000000 0.000000 
#    y 0.000000 3.027810 0.000000 
#    z 0.000000 0.000000 2.672590 
# 
# 
# High freq. dielectric constant tensor:
#      x y z
#    x 1.564290 0.000000 0.000000 
#    y 0.000000 1.580230 0.000000 
#    z 0.000000 0.000000 1.545270 
# 
# From -- ./inp_files/30976.got.cif
#   From: 2010.03.12/outbox.cif.g09.slc.cpg/sg59_16_cif.got.tgz:30976.got - 2010.04.16 16:29:54.
