data_PCOD8240535
_publ_section_title
;
Structure prediction by ZEFSAII (Michael W. Deem and Ramdas Pophale) SiO2 
 PCOD8240535
Probable space group: P M M N
;
_chemical_formula_sum "Si O2"
_cell_formula_units_Z 64
_cell_length_a 9.048723
_cell_length_b 19.256541
_cell_length_c 20.643174
_cell_angle_alpha 90.000000
_cell_angle_beta 90.000000
_cell_angle_gamma 90.000000
_cell_volume 3597.013317
_symmetry_space_group_name_H-M "P M M N"
_symmetry_group_IT_number 59
_space_group.IT_coordinate_system_code '2'
_symmetry_cell_setting 'orthorhombic'
loop_
_space_group_symop_operation_xyz
x,y,z
1/2-x,1/2-y,z
1/2+x,-y,-z
-x,1/2+y,-z
-x,-y,-z
1/2+x,1/2+y,-z
1/2-x,y,z
x,1/2-y,z
loop_
_atom_site_type_symbol
_atom_site_label
_atom_site_fract_x
_atom_site_fract_y
_atom_site_fract_z
Si Si1 0.073578 0.074843 0.005520
Si Si2 0.422570 0.829796 0.891320
Si Si3 0.425230 0.172676 0.891519
Si Si4 0.077143 0.423292 0.359781
Si Si5 0.920107 0.928171 0.500451
Si Si6 0.082678 0.669539 0.741985
Si Si7 0.925702 0.827275 0.252125
Si Si8 0.924174 0.928709 0.360546
O O1 0.250000 0.067107 0.007062
O O2 0.021099 0.116151 0.068885
O O3 0.014857 0.118056 0.943613
O O4 0.000000 0.000000 0.000000
O O5 0.250000 0.842619 0.905608
O O6 0.464454 0.750000 0.908643
O O7 0.458737 0.844838 0.816418
O O8 0.250000 0.175435 0.894738
O O9 0.487459 0.250000 0.906821
O O10 0.476304 0.148783 0.819747
O O11 0.250000 0.435367 0.351093
O O12 0.040342 0.389385 0.431562
O O13 0.025722 0.371809 0.304329
O O14 0.998393 0.496916 0.352785
O O15 0.750000 0.947023 0.501447
O O16 0.958012 0.892029 0.431147
O O17 0.000000 0.000000 0.500000
O O18 0.250000 0.645395 0.728669
O O19 0.063808 0.750000 0.725837
O O20 0.750000 0.826897 0.256480
O O21 0.986149 0.750000 0.266038
O O22 0.992761 0.878933 0.305599
O O23 0.750000 0.938886 0.350399
#
# Coordination Sequence:
#
# PCOD8240535 Si02
#       8
#     8   8   8   8   8   8   8   8
#     4  11  22  34  50  75 106 135 163 200 245 291
#     4   9  19  37  58  76  96 126 165 208 252 299
#     4   8  15  29  48  69  93 122 156 192 231 279
#     4  10  19  30  46  70  99 129 161 201 246 290
#     4   8  15  27  42  64  94 126 161 198 237 283
#     4   9  19  36  55  73  95 126 164 204 247 300
#     4   8  14  26  46  71  94 117 153 199 237 272
#     4   9  16  28  48  71  94 126 166 203 242 289
#
# _framework density 17.792538
#
# number of rings (size 3 to 8) (size 9 to 14) (size 15 to 20)
#    0.000    3.000    0.000    2.625    0.000    3.000 
#    0.000    4.375    0.000    3.375    0.000    3.500 
#    0.000    0.000    0.000    0.000    0.000    0.000 
#
# Total GULP energy -792897.900059 kJ/mol
# GULP energy per Si atom -12389.029688 kJ/mol
# Density = 1.775204 g / cm^3
# Si number density = 17.792538 Si / 1000 Ang^3
#
#
#
# Elastic Constant Matrix: (Units=GPa)
#
#
# Indices 1 2 3 4 5 6 
#
# 1 39.0111 30.6506 38.9671 0.0000 0.0000 0.0000
# 2 30.6506 94.4798 80.6557 0.0000 0.0000 0.0000
# 3 38.9671 80.6557 152.7136 0.0000 0.0000 0.0000
# 4 0.0000 0.0000 0.0000 26.6802 0.0000 0.0000
# 5 0.0000 0.0000 0.0000 0.0000 23.8571 0.0000
# 6 0.0000 0.0000 0.0000 0.0000 0.0000 18.7007
#
#
#
# Elastic Compliance Matrix: (Units=1/GPa)
#
#
# Indices 1 2 3 4 5 6 
#
# 1 0.036882 -0.007159 -0.005630 0.000000 0.000000 0.000000
# 2 -0.007159 0.020664 -0.009087 0.000000 0.000000 0.000000
# 3 -0.005630 -0.009087 0.012784 0.000000 0.000000 0.000000
# 4 0.000000 0.000000 0.000000 0.037481 0.000000 0.000000
# 5 0.000000 0.000000 0.000000 0.000000 0.041916 0.000000
# 6 0.000000 0.000000 0.000000 0.000000 0.000000 0.053474
#
#
# Mechanical properties :
#
#
# Convention : Reuss Voigt Hill
#
# Bulk Modulus (GPa) = 37.62452 65.19460 51.40956
# Shear Modulus (GPa) = 19.54553 22.90967 21.22760
#
# Velocity S-wave (km/s) = 3.31799 3.59221 3.45782
# Velocity P-wave (km/s) = 5.98923 7.34346 6.70064
#
# Compressibility (1/GPa) = 0.02657841
#
# Stress axis : x y z
#
# Youngs Moduli (GPa) = 27.11352 48.39283 78.22166
#
# Poissons Ratio (x) = 0.34643 0.44039
# Poissons Ratio (y) = 0.19410 0.71081
# Poissons Ratio (z) = 0.15265 0.43975
#
# Static dielectric constant tensor:
#      x y z
#    x 3.349680 0.000000 0.000000 
#    y 0.000000 3.175100 0.000000 
#    z 0.000000 0.000000 3.899480 
# 
# 
# High freq. dielectric constant tensor:
#      x y z
#    x 1.663530 0.000000 0.000000 
#    y 0.000000 1.666940 0.000000 
#    z 0.000000 0.000000 1.710690 
# 
# From -- ./inp_files/29410.got.cif
#   From: 2010.03.12/outbox.cif.g09.slc.cpg/sg59_15_cif.got.tgz:29410.got - 2010.04.16 16:29:54.
