data_PCOD8240205
_publ_section_title
;
Structure prediction by ZEFSAII (Michael W. Deem and Ramdas Pophale) SiO2 
 PCOD8240205
Probable space group: P M M N
;
_chemical_formula_sum "Si O2"
_cell_formula_units_Z 56
_cell_length_a 14.857423
_cell_length_b 8.945563
_cell_length_c 22.027979
_cell_angle_alpha 90.000000
_cell_angle_beta 90.000000
_cell_angle_gamma 90.000000
_cell_volume 2927.694930
_symmetry_space_group_name_H-M "P M M N"
_symmetry_group_IT_number 59
_space_group.IT_coordinate_system_code '2'
_symmetry_cell_setting 'orthorhombic'
loop_
_space_group_symop_operation_xyz
x,y,z
1/2-x,1/2-y,z
1/2+x,-y,-z
-x,1/2+y,-z
-x,-y,-z
1/2+x,1/2+y,-z
1/2-x,y,z
x,1/2-y,z
loop_
_atom_site_type_symbol
_atom_site_label
_atom_site_fract_x
_atom_site_fract_y
_atom_site_fract_z
Si Si1 0.561614 0.427507 0.333816
Si Si2 0.750000 0.072494 0.384966
Si Si3 0.903744 0.426024 0.995052
Si Si4 0.349577 0.080304 0.888666
Si Si5 0.647796 0.421130 0.859578
Si Si6 0.987402 0.426801 0.201087
Si Si7 0.750000 0.575845 0.514421
Si Si8 0.054191 0.074493 0.445834
O O1 0.563051 0.250000 0.332418
O O2 0.660976 0.488563 0.350931
O O3 0.533941 0.490289 0.268069
O O4 0.487797 0.484231 0.382556
O O5 0.750000 0.250000 0.386345
O O6 0.750000 0.017782 0.453432
O O7 0.910011 0.250000 0.006378
O O8 0.842182 0.499696 0.046457
O O9 0.861436 0.464451 0.930058
O O10 0.000000 0.500000 0.000000
O O11 0.250000 0.077517 0.859540
O O12 0.384281 0.250000 0.897216
O O13 0.417124 0.994588 0.845520
O O14 0.750000 0.446912 0.839055
O O15 0.617823 0.250000 0.849978
O O16 0.587695 0.526268 0.817265
O O17 0.978727 0.250000 0.198758
O O18 0.750000 0.750000 0.497297
O O19 0.839534 0.533764 0.552735
O O20 0.039250 0.250000 0.452509
O O21 0.000000 0.000000 0.500000
#
# Coordination Sequence:
#
# PCOD8240205 Si02
#       8
#     8   4   8   8   8   8   4   8
#     4   9  20  36  56  83 113 149 191 233 282 337
#     4  10  18  34  60  84 112 148 187 230 277 342
#     4  11  21  36  61  89 117 150 189 237 294 349
#     4  11  24  40  58  84 118 154 192 238 291 347
#     4  10  22  41  63  84 113 152 191 236 293 349
#     4  11  23  39  60  85 113 151 197 242 287 342
#     4  10  20  32  54  88 118 144 181 232 287 336
#     4  10  19  35  56  82 114 147 184 231 283 334
#
# _framework density 19.127675
#
# number of rings (size 3 to 8) (size 9 to 14) (size 15 to 20)
#    0.000    1.714    2.857    1.714    1.000    2.571 
#    1.286    2.857    0.000    0.000    0.000    0.000 
#    0.000    0.000    0.000    0.000    0.000    0.000 
#
# Total GULP energy -694460.551344 kJ/mol
# GULP energy per Si atom -12401.081274 kJ/mol
# Density = 1.908414 g / cm^3
# Si number density = 19.127675 Si / 1000 Ang^3
#
#
#
# Elastic Constant Matrix: (Units=GPa)
#
#
# Indices 1 2 3 4 5 6 
#
# 1 148.4844 39.0452 68.2219 0.0000 0.0000 0.0000
# 2 39.0452 61.9419 39.1381 0.0000 0.0000 0.0000
# 3 68.2219 39.1381 137.6349 0.0000 0.0000 0.0000
# 4 0.0000 0.0000 0.0000 25.5748 0.0000 0.0000
# 5 0.0000 0.0000 0.0000 0.0000 11.3480 0.0000
# 6 0.0000 0.0000 0.0000 0.0000 0.0000 20.6695
#
#
#
# Elastic Compliance Matrix: (Units=1/GPa)
#
#
# Indices 1 2 3 4 5 6 
#
# 1 0.009339 -0.003611 -0.003603 0.000000 0.000000 0.000000
# 2 -0.003611 0.021076 -0.004203 0.000000 0.000000 0.000000
# 3 -0.003603 -0.004203 0.010247 0.000000 0.000000 0.000000
# 4 0.000000 0.000000 0.000000 0.039101 0.000000 0.000000
# 5 0.000000 0.000000 0.000000 0.000000 0.088122 0.000000
# 6 0.000000 0.000000 0.000000 0.000000 0.000000 0.048380
#
#
# Mechanical properties :
#
#
# Convention : Reuss Voigt Hill
#
# Bulk Modulus (GPa) = 56.08981 71.20798 63.64889
# Shear Modulus (GPa) = 20.40469 24.96218 22.68344
#
# Velocity S-wave (km/s) = 3.26968 3.61644 3.44742
# Velocity P-wave (km/s) = 6.60620 7.39910 7.01387
#
# Compressibility (1/GPa) = 0.01782855
#
# Stress axis : x y z
#
# Youngs Moduli (GPa) = 107.07311 47.44671 97.59359
#
# Poissons Ratio (x) = 0.17132 0.35158
# Poissons Ratio (y) = 0.38663 0.41023
# Poissons Ratio (z) = 0.38573 0.19944
#
# Static dielectric constant tensor:
#      x y z
#    x 3.772370 0.000000 0.000000 
#    y 0.000000 3.494360 0.000000 
#    z 0.000000 0.000000 3.771980 
# 
# 
# High freq. dielectric constant tensor:
#      x y z
#    x 1.760770 0.000000 0.000000 
#    y 0.000000 1.731400 0.000000 
#    z 0.000000 0.000000 1.737480 
# 
# From -- ./inp_files/30467.got.cif
#   From: 2010.03.12/outbox.cif.g09.slc.cpg/sg59_16_cif.got.tgz:30467.got - 2010.04.16 16:29:54.
