data_PCOD8240124
_publ_section_title
;
Structure prediction by ZEFSAII (Michael W. Deem and Ramdas Pophale) SiO2 
 PCOD8240124
Probable space group: P M M N
;
_chemical_formula_sum "Si O2"
_cell_formula_units_Z 40
_cell_length_a 9.843908
_cell_length_b 8.996663
_cell_length_c 24.598765
_cell_angle_alpha 90.000000
_cell_angle_beta 90.000000
_cell_angle_gamma 90.000000
_cell_volume 2178.523768
_symmetry_space_group_name_H-M "P M M N"
_symmetry_group_IT_number 59
_space_group.IT_coordinate_system_code '2'
_symmetry_cell_setting 'orthorhombic'
loop_
_space_group_symop_operation_xyz
x,y,z
1/2-x,1/2-y,z
1/2+x,-y,-z
-x,1/2+y,-z
-x,-y,-z
1/2+x,1/2+y,-z
1/2-x,y,z
x,1/2-y,z
loop_
_atom_site_type_symbol
_atom_site_label
_atom_site_fract_x
_atom_site_fract_y
_atom_site_fract_z
Si Si1 0.750000 0.925252 0.563406
Si Si2 0.096424 0.073754 0.856337
Si Si3 0.010242 0.574474 0.375626
Si Si4 0.091260 0.573214 0.046313
Si Si5 0.250000 0.424610 0.557774
Si Si6 0.599502 0.926291 0.263574
O O1 0.750000 0.750000 0.559707
O O2 0.750000 0.996054 0.502680
O O3 0.623923 0.979046 0.597137
O O4 0.250000 0.014293 0.870256
O O5 0.102283 0.250000 0.857834
O O6 0.050401 0.018724 0.796071
O O7 0.981014 0.017784 0.898031
O O8 0.039463 0.750000 0.380563
O O9 0.877930 0.523585 0.407908
O O10 0.999418 0.523654 0.312350
O O11 0.250000 0.520501 0.044742
O O12 0.084507 0.750000 0.040080
O O13 0.000000 0.500000 0.000000
O O14 0.250000 0.250000 0.551126
O O15 0.750000 0.990257 0.274724
O O16 0.607998 0.750000 0.264146
#
# Coordination Sequence:
#
# PCOD8240124 Si02
#       6
#     4   8   8   8   4   8
#     4  11  23  35  45  69 107 141 164 197 252 306
#     4   8  14  26  46  73 102 128 157 202 257 300
#     4  10  18  33  55  77  97 125 168 213 252 294
#     4  10  20  33  50  75 106 138 170 204 244 293
#     4   9  18  33  55  75  97 127 166 213 254 296
#     4   8  13  25  49  77  99 121 157 207 256 297
#
# _framework density 18.361056000000001
#
# number of rings (size 3 to 8) (size 9 to 14) (size 15 to 20)
#    0.000    2.800    1.000    2.700    0.000    1.200 
#    1.800    1.500    0.000    1.200    0.000    2.800 
#    0.000    0.000    0.000    0.000    0.000    0.000 
#
# Total GULP energy -495561.378239 kJ/mol
# GULP energy per Si atom -12389.034456 kJ/mol
# Density = 1.831926 g / cm^3
# Si number density = 18.361056 Si / 1000 Ang^3
#
#
#
# Elastic Constant Matrix: (Units=GPa)
#
#
# Indices 1 2 3 4 5 6 
#
# 1 140.2756 25.8032 88.2805 0.0000 0.0000 0.0000
# 2 25.8032 20.8152 25.8135 0.0000 0.0000 0.0000
# 3 88.2805 25.8135 181.0519 0.0000 0.0000 0.0000
# 4 0.0000 0.0000 0.0000 21.8719 0.0000 0.0000
# 5 0.0000 0.0000 0.0000 0.0000 29.3240 0.0000
# 6 0.0000 0.0000 0.0000 0.0000 0.0000 26.1018
#
#
#
# Elastic Compliance Matrix: (Units=1/GPa)
#
#
# Indices 1 2 3 4 5 6 
#
# 1 0.011490 -0.008862 -0.004339 0.000000 0.000000 0.000000
# 2 -0.008862 0.065196 -0.004974 0.000000 0.000000 0.000000
# 3 -0.004339 -0.004974 0.008348 0.000000 0.000000 0.000000
# 4 0.000000 0.000000 0.000000 0.045721 0.000000 0.000000
# 5 0.000000 0.000000 0.000000 0.000000 0.034102 0.000000
# 6 0.000000 0.000000 0.000000 0.000000 0.000000 0.038312
#
#
# Mechanical properties :
#
#
# Convention : Reuss Voigt Hill
#
# Bulk Modulus (GPa) = 20.54077 69.10412 44.82244
# Shear Modulus (GPa) = 19.55063 28.94256 24.24659
#
# Velocity S-wave (km/s) = 3.26665 3.97457 3.63787
# Velocity P-wave (km/s) = 5.04375 7.66687 6.48924
#
# Compressibility (1/GPa) = 0.04868366
#
# Stress axis : x y z
#
# Youngs Moduli (GPa) = 87.03585 15.33827 119.78888
#
# Poissons Ratio (x) = 0.13593 0.51973
# Poissons Ratio (y) = 0.77133 0.59585
# Poissons Ratio (z) = 0.37762 0.07630
#
# Static dielectric constant tensor:
#      x y z
#    x 3.390190 0.000000 0.000000 
#    y 0.000000 2.830650 0.000000 
#    z 0.000000 0.000000 4.006990 
# 
# 
# High freq. dielectric constant tensor:
#      x y z
#    x 1.709140 0.000000 0.000000 
#    y 0.000000 1.651010 0.000000 
#    z 0.000000 0.000000 1.735360 
# 
# From -- ./inp_files/32435.got.cif
#   From: 2010.03.12/outbox.cif.g09.slc.cpg/sg59_17_cif.got.tgz:32435.got - 2010.04.16 16:29:54.
