data_PCOD8240688
_publ_section_title
;
Structure prediction by ZEFSAII (Michael W. Deem and Ramdas Pophale) SiO2 
 PCOD8240688
Probable space group: P M M N
;
_chemical_formula_sum "Si O2"
_cell_formula_units_Z 64
_cell_length_a 9.029807
_cell_length_b 28.819454
_cell_length_c 15.680043
_cell_angle_alpha 90.000000
_cell_angle_beta 90.000000
_cell_angle_gamma 90.000000
_cell_volume 4080.481995
_symmetry_space_group_name_H-M "P M M N"
_symmetry_group_IT_number 59
_space_group.IT_coordinate_system_code '2'
_symmetry_cell_setting 'orthorhombic'
loop_
_space_group_symop_operation_xyz
x,y,z
1/2-x,1/2-y,z
1/2+x,-y,-z
-x,1/2+y,-z
-x,-y,-z
1/2+x,1/2+y,-z
1/2-x,y,z
x,1/2-y,z
loop_
_atom_site_type_symbol
_atom_site_label
_atom_site_fract_x
_atom_site_fract_y
_atom_site_fract_z
Si Si1 0.574697 0.800759 0.595470
Si Si2 0.577252 0.951846 0.818708
Si Si3 0.419294 0.698721 0.419525
Si Si4 0.925768 0.950354 0.493846
Si Si5 0.421807 0.603543 0.342862
Si Si6 0.424246 0.556776 0.168849
Si Si7 0.574165 0.604453 0.661464
Si Si8 0.577054 0.549237 0.005110
O O1 0.750000 0.801546 0.590644
O O2 0.518218 0.750000 0.627587
O O3 0.519978 0.811175 0.500697
O O4 0.517951 0.841922 0.657565
O O5 0.750000 0.955459 0.799319
O O6 0.503004 0.920213 0.744877
O O7 0.515243 0.004494 0.814193
O O8 0.549455 0.927878 0.911503
O O9 0.250000 0.696041 0.450461
O O10 0.453607 0.750000 0.380547
O O11 0.451360 0.658849 0.349827
O O12 0.750000 0.955886 0.490259
O O13 0.978416 0.921766 0.576524
O O14 0.979842 0.924282 0.409670
O O15 0.000000 0.000000 0.500000
O O16 0.250000 0.590976 0.359203
O O17 0.469511 0.588969 0.247917
O O18 0.250000 0.556872 0.151759
O O19 0.503220 0.577440 0.083511
O O20 0.750000 0.603572 0.667359
O O21 0.750000 0.543129 0.022911
O O22 0.500000 0.500000 0.000000
#
# Coordination Sequence:
#
# PCOD8240688 Si02
#       8
#     8   8   8   8   8   8   8   8
#     4   9  16  27  44  64  84 108 143 184 219 255
#     4   8  14  25  41  59  81 109 140 171 211 258
#     4   9  17  29  45  64  87 114 145 185 229 267
#     4  11  21  31  43  61  88 123 154 181 215 257
#     4  10  19  31  46  64  88 119 153 185 222 268
#     4   9  17  29  44  61  84 115 146 182 223 261
#     4   9  16  27  42  61  85 114 144 173 212 259
#     4   9  16  27  44  64  84 110 143 181 221 262
#
# _framework density 15.684421
#
# number of rings (size 3 to 8) (size 9 to 14) (size 15 to 20)
#    0.000    2.750    1.250    2.250    0.000    2.500 
#    0.000    0.000    0.000    6.000    0.000    0.875 
#    0.000    1.000    0.000    0.000    0.000    0.000 
#
# Total GULP energy -793041.465188 kJ/mol
# GULP energy per Si atom -12391.272894 kJ/mol
# Density = 1.564872 g / cm^3
# Si number density = 15.684421 Si / 1000 Ang^3
#
#
#
# Elastic Constant Matrix: (Units=GPa)
#
#
# Indices 1 2 3 4 5 6 
#
# 1 33.6360 21.0123 30.7971 0.0000 0.0000 0.0000
# 2 21.0123 107.6378 58.5533 0.0000 0.0000 0.0000
# 3 30.7971 58.5533 118.9644 0.0000 0.0000 0.0000
# 4 0.0000 0.0000 0.0000 13.5157 0.0000 0.0000
# 5 0.0000 0.0000 0.0000 0.0000 22.3354 0.0000
# 6 0.0000 0.0000 0.0000 0.0000 0.0000 15.2552
#
#
#
# Elastic Compliance Matrix: (Units=1/GPa)
#
#
# Indices 1 2 3 4 5 6 
#
# 1 0.039638 -0.002944 -0.008812 0.000000 0.000000 0.000000
# 2 -0.002944 0.012906 -0.005590 0.000000 0.000000 0.000000
# 3 -0.008812 -0.005590 0.013439 0.000000 0.000000 0.000000
# 4 0.000000 0.000000 0.000000 0.073988 0.000000 0.000000
# 5 0.000000 0.000000 0.000000 0.000000 0.044772 0.000000
# 6 0.000000 0.000000 0.000000 0.000000 0.000000 0.065551
#
#
# Mechanical properties :
#
#
# Convention : Reuss Voigt Hill
#
# Bulk Modulus (GPa) = 31.95963 53.44039 42.70001
# Shear Modulus (GPa) = 16.92527 20.21296 18.56912
#
# Velocity S-wave (km/s) = 3.28855 3.59378 3.44455
# Velocity P-wave (km/s) = 5.90257 7.16705 6.56532
#
# Compressibility (1/GPa) = 0.03128947
#
# Stress axis : x y z
#
# Youngs Moduli (GPa) = 25.22859 77.48297 74.41285
#
# Poissons Ratio (x) = 0.22811 0.65574
# Poissons Ratio (y) = 0.07427 0.41598
# Poissons Ratio (z) = 0.22232 0.43314
#
# Static dielectric constant tensor:
#      x y z
#    x 2.903110 0.000000 0.000000 
#    y 0.000000 3.143420 0.000000 
#    z 0.000000 0.000000 3.137110 
# 
# 
# High freq. dielectric constant tensor:
#      x y z
#    x 1.585890 0.000000 0.000000 
#    y 0.000000 1.586460 0.000000 
#    z 0.000000 0.000000 1.592870 
# 
# From -- ./inp_files/21838.got.cif
#   From: 2010.03.12/outbox.cif.g09.slc.cpg/sg59_11_cif.got.tgz:21838.got - 2010.04.16 16:29:54.
