data_PCOD8240104
_publ_section_title
;
Structure prediction by ZEFSAII (Michael W. Deem and Ramdas Pophale) SiO2 
 PCOD8240104
Probable space group: P M M N
;
_chemical_formula_sum "Si O2"
_cell_formula_units_Z 56
_cell_length_a 18.483542
_cell_length_b 20.246058
_cell_length_c 7.935929
_cell_angle_alpha 90.000000
_cell_angle_beta 90.000000
_cell_angle_gamma 90.000000
_cell_volume 2969.774330
_symmetry_space_group_name_H-M "P M M N"
_symmetry_group_IT_number 59
_space_group.IT_coordinate_system_code '2'
_symmetry_cell_setting 'orthorhombic'
loop_
_space_group_symop_operation_xyz
x,y,z
1/2-x,1/2-y,z
1/2+x,-y,-z
-x,1/2+y,-z
-x,-y,-z
1/2+x,1/2+y,-z
1/2-x,y,z
x,1/2-y,z
loop_
_atom_site_type_symbol
_atom_site_label
_atom_site_fract_x
_atom_site_fract_y
_atom_site_fract_z
Si Si1 0.020000 0.327493 0.129109
Si Si2 0.329305 0.371932 0.655340
Si Si3 0.172383 0.175128 0.016556
Si Si4 0.964061 0.606542 0.545362
Si Si5 0.082644 0.963561 0.363225
Si Si6 0.562687 0.055573 0.001123
Si Si7 0.831554 0.024749 0.303729
O O1 0.010636 0.250000 0.085842
O O2 0.998936 0.343292 0.322400
O O3 0.103074 0.354470 0.111449
O O4 0.971504 0.370927 0.003795
O O5 0.250000 0.358431 0.573360
O O6 0.341325 0.326084 0.816393
O O7 0.391553 0.357483 0.520363
O O8 0.334517 0.446760 0.718167
O O9 0.250000 0.139162 0.059540
O O10 0.179198 0.250000 0.074296
O O11 0.948625 0.537475 0.638467
O O12 0.018962 0.590113 0.394203
O O13 0.109645 0.949962 0.171999
O O14 0.143637 0.954949 0.506923
O O15 0.615200 0.052531 0.161916
O O16 0.500000 0.000000 0.000000
O O17 0.750000 0.051826 0.277738
#
# Coordination Sequence:
#
# PCOD8240104 Si02
#       7
#     8   8   8   8   8   8   8
#     4  11  22  34  52  84 116 145 192 245 288 340
#     4   9  18  31  49  76 111 145 189 237 272 325
#     4   9  18  32  47  67 105 155 196 228 268 329
#     4  10  18  33  50  77 109 146 183 231 280 335
#     4  10  19  34  57  80 108 144 190 228 278 343
#     4  12  20  36  64  86 112 159 191 232 293 350
#     4  10  21  36  55  87 118 142 185 243 291 341
#
# _framework density 18.856652
#
# number of rings (size 3 to 8) (size 9 to 14) (size 15 to 20)
#    0.000    1.857    2.857    3.429    0.000    1.714 
#    0.000    0.714    0.000    0.429    0.000    0.000 
#    0.000    0.000    0.000    0.000    0.000    0.000 
#
# Total GULP energy -693935.846044 kJ/mol
# GULP energy per Si atom -12391.711537 kJ/mol
# Density = 1.881373 g / cm^3
# Si number density = 18.856652 Si / 1000 Ang^3
#
#
#
# Elastic Constant Matrix: (Units=GPa)
#
#
# Indices 1 2 3 4 5 6 
#
# 1 87.5401 27.2734 34.3664 0.0000 0.0000 0.0000
# 2 27.2734 54.4382 21.7838 0.0000 0.0000 0.0000
# 3 34.3664 21.7838 103.4859 0.0000 0.0000 0.0000
# 4 0.0000 0.0000 0.0000 21.6695 0.0000 0.0000
# 5 0.0000 0.0000 0.0000 0.0000 24.3999 0.0000
# 6 0.0000 0.0000 0.0000 0.0000 0.0000 17.3643
#
#
#
# Elastic Compliance Matrix: (Units=1/GPa)
#
#
# Indices 1 2 3 4 5 6 
#
# 1 0.014690 -0.005905 -0.003635 0.000000 0.000000 0.000000
# 2 -0.005905 0.022433 -0.002761 0.000000 0.000000 0.000000
# 3 -0.003635 -0.002761 0.011452 0.000000 0.000000 0.000000
# 4 0.000000 0.000000 0.000000 0.046148 0.000000 0.000000
# 5 0.000000 0.000000 0.000000 0.000000 0.040984 0.000000
# 6 0.000000 0.000000 0.000000 0.000000 0.000000 0.057590
#
#
# Mechanical properties :
#
#
# Convention : Reuss Voigt Hill
#
# Bulk Modulus (GPa) = 41.71625 45.81238 43.76432
# Shear Modulus (GPa) = 22.13471 23.48943 22.81207
#
# Velocity S-wave (km/s) = 3.42985 3.53325 3.48194
# Velocity P-wave (km/s) = 6.15273 6.40258 6.27889
#
# Compressibility (1/GPa) = 0.02397147
#
# Stress axis : x y z
#
# Youngs Moduli (GPa) = 68.07225 44.57772 87.32365
#
# Poissons Ratio (x) = 0.26323 0.31746
# Poissons Ratio (y) = 0.40197 0.24111
# Poissons Ratio (z) = 0.24747 0.12308
#
# Static dielectric constant tensor:
#      x y z
#    x 3.693400 0.000000 0.000000 
#    y 0.000000 3.184170 0.000000 
#    z 0.000000 0.000000 3.417690 
# 
# 
# High freq. dielectric constant tensor:
#      x y z
#    x 1.719480 0.000000 0.000000 
#    y 0.000000 1.696890 0.000000 
#    z 0.000000 0.000000 1.735830 
# 
# From -- ./inp_files/10620.got.cif
#   From: 2010.03.12/outbox.cif.g09.slc.cpg/sg59_6_cif.got.tgz:10620.got - 2010.04.16 16:29:54.
