data_PCOD8240212
_publ_section_title
;
Structure prediction by ZEFSAII (Michael W. Deem and Ramdas Pophale) SiO2 
 PCOD8240212
Probable space group: P M M N
;
_chemical_formula_sum "Si O2"
_cell_formula_units_Z 64
_cell_length_a 8.810625
_cell_length_b 30.672213
_cell_length_c 11.887879
_cell_angle_alpha 90.000000
_cell_angle_beta 90.000000
_cell_angle_gamma 90.000000
_cell_volume 3212.596668
_symmetry_space_group_name_H-M "P M M N"
_symmetry_group_IT_number 59
_space_group.IT_coordinate_system_code '2'
_symmetry_cell_setting 'orthorhombic'
loop_
_space_group_symop_operation_xyz
x,y,z
1/2-x,1/2-y,z
1/2+x,-y,-z
-x,1/2+y,-z
-x,-y,-z
1/2+x,1/2+y,-z
1/2-x,y,z
x,1/2-y,z
loop_
_atom_site_type_symbol
_atom_site_label
_atom_site_fract_x
_atom_site_fract_y
_atom_site_fract_z
Si Si1 0.076734 0.450613 0.233868
Si Si2 0.075617 0.951607 0.240294
Si Si3 0.070969 0.378591 0.613103
Si Si4 0.069657 0.298328 0.759479
Si Si5 0.072065 0.624327 0.628006
Si Si6 0.428118 0.328909 0.996553
Si Si7 0.925366 0.570489 0.015766
Si Si8 0.427735 0.299522 0.235466
O O1 0.250000 0.434577 0.250695
O O2 0.052697 0.498916 0.284495
O O3 0.967450 0.416652 0.294096
O O4 0.038932 0.452998 0.101620
O O5 0.250000 0.937173 0.254770
O O6 0.967291 0.919927 0.309852
O O7 0.031908 0.950649 0.109357
O O8 0.250000 0.376503 0.595514
O O9 0.008571 0.334412 0.672141
O O10 0.992383 0.384687 0.494591
O O11 0.250000 0.302305 0.765215
O O12 0.019162 0.250000 0.719560
O O13 0.001593 0.307138 0.884197
O O14 0.250000 0.628802 0.619955
O O15 0.007409 0.669357 0.675360
O O16 0.250000 0.320643 0.995869
O O17 0.470127 0.379296 0.997587
O O18 0.494918 0.307210 0.109970
O O19 0.750000 0.565410 0.051725
O O20 0.250000 0.310537 0.237247
O O21 0.459874 0.250000 0.272372
#
# Coordination Sequence:
#
# PCOD8240212 Si02
#       8
#     8   8   8   8   8   8   8   8
#     4  10  22  41  63  87 119 159 202 246 291 358
#     4  11  23  38  60  91 124 156 194 244 303 360
#     4  11  23  41  63  85 114 157 203 250 300 360
#     4   9  17  31  56  90 118 144 188 241 287 335
#     4  12  26  42  61  86 118 156 199 256 313 358
#     4   9  15  29  57  91 121 150 191 241 288 336
#     4  10  18  34  61  89 121 159 198 239 291 354
#     4  10  20  37  64  93 122 160 202 243 291 354
#
# _framework density 19.921578
#
# number of rings (size 3 to 8) (size 9 to 14) (size 15 to 20)
#    0.000    1.750    2.500    2.625    0.000    4.250 
#    0.000    1.250    0.000    1.125    0.000    0.000 
#    0.000    0.000    0.000    0.000    0.000    0.000 
#
# Total GULP energy -793693.819728 kJ/mol
# GULP energy per Si atom -12401.465933 kJ/mol
# Density = 1.987624 g / cm^3
# Si number density = 19.921578 Si / 1000 Ang^3
#
#
#
# Elastic Constant Matrix: (Units=GPa)
#
#
# Indices 1 2 3 4 5 6 
#
# 1 59.0796 36.2579 28.7560 0.0000 0.0000 0.0000
# 2 36.2579 105.3825 41.2125 0.0000 0.0000 0.0000
# 3 28.7560 41.2125 92.6241 0.0000 0.0000 0.0000
# 4 0.0000 0.0000 0.0000 7.4889 0.0000 0.0000
# 5 0.0000 0.0000 0.0000 0.0000 22.3661 0.0000
# 6 0.0000 0.0000 0.0000 0.0000 0.0000 23.9540
#
#
#
# Elastic Compliance Matrix: (Units=1/GPa)
#
#
# Indices 1 2 3 4 5 6 
#
# 1 0.022817 -0.006150 -0.004347 0.000000 0.000000 0.000000
# 2 -0.006150 0.013146 -0.003940 0.000000 0.000000 0.000000
# 3 -0.004347 -0.003940 0.013899 0.000000 0.000000 0.000000
# 4 0.000000 0.000000 0.000000 0.133531 0.000000 0.000000
# 5 0.000000 0.000000 0.000000 0.000000 0.044710 0.000000
# 6 0.000000 0.000000 0.000000 0.000000 0.000000 0.041747
#
#
# Mechanical properties :
#
#
# Convention : Reuss Voigt Hill
#
# Bulk Modulus (GPa) = 47.64805 52.17102 49.90953
# Shear Modulus (GPa) = 16.35484 20.81912 18.58698
#
# Velocity S-wave (km/s) = 2.86835 3.23624 3.05783
# Velocity P-wave (km/s) = 5.91098 6.34108 6.12980
#
# Compressibility (1/GPa) = 0.02098722
#
# Stress axis : x y z
#
# Youngs Moduli (GPa) = 43.82752 76.06825 71.94788
#
# Poissons Ratio (x) = 0.46784 0.31277
# Poissons Ratio (y) = 0.26955 0.28346
# Poissons Ratio (z) = 0.19052 0.29970
#
# Static dielectric constant tensor:
#      x y z
#    x 3.289420 0.000000 0.000000 
#    y 0.000000 3.719190 0.000000 
#    z 0.000000 0.000000 3.691850 
# 
# 
# High freq. dielectric constant tensor:
#      x y z
#    x 1.742150 0.000000 0.000000 
#    y 0.000000 1.791950 0.000000 
#    z 0.000000 0.000000 1.778330 
# 
# From -- ./inp_files/15057.got.cif
#   From: 2010.03.12/outbox.cif.g09.slc.cpg/sg59_8_cif.got.tgz:15057.got - 2010.04.16 16:29:54.
