data_PCOD8240786
_publ_section_title
;
Structure prediction by ZEFSAII (Michael W. Deem and Ramdas Pophale) SiO2 
 PCOD8240786
Probable space group: P M M N
;
_chemical_formula_sum "Si O2"
_cell_formula_units_Z 64
_cell_length_a 9.164252
_cell_length_b 24.416242
_cell_length_c 15.620226
_cell_angle_alpha 90.000000
_cell_angle_beta 90.000000
_cell_angle_gamma 90.000000
_cell_volume 3495.128576
_symmetry_space_group_name_H-M "P M M N"
_symmetry_group_IT_number 59
_space_group.IT_coordinate_system_code '2'
_symmetry_cell_setting 'orthorhombic'
loop_
_space_group_symop_operation_xyz
x,y,z
1/2-x,1/2-y,z
1/2+x,-y,-z
-x,1/2+y,-z
-x,-y,-z
1/2+x,1/2+y,-z
1/2-x,y,z
x,1/2-y,z
loop_
_atom_site_type_symbol
_atom_site_label
_atom_site_fract_x
_atom_site_fract_y
_atom_site_fract_z
Si Si1 0.081407 0.085078 0.726019
Si Si2 0.076777 0.188095 0.138693
Si Si3 0.591644 0.687858 0.675383
Si Si4 0.917117 0.551408 0.466582
Si Si5 0.921122 0.582654 0.963983
Si Si6 0.420795 0.968595 0.120599
Si Si7 0.580942 0.154571 0.482573
Si Si8 0.917744 0.311283 0.671254
O O1 0.250000 0.088910 0.752920
O O2 0.059816 0.057696 0.634175
O O3 0.994811 0.045950 0.789698
O O4 0.017858 0.146804 0.723908
O O5 0.250000 0.190029 0.134425
O O6 0.015235 0.250000 0.117200
O O7 0.030134 0.165638 0.233440
O O8 0.021350 0.140968 0.073127
O O9 0.750000 0.660724 0.650308
O O10 0.624680 0.750000 0.697054
O O11 0.472035 0.686736 0.600752
O O12 0.750000 0.546525 0.491932
O O13 0.000000 0.500000 0.500000
O O14 0.985629 0.600613 0.518821
O O15 0.750000 0.585091 0.986511
O O16 0.951620 0.532619 0.898227
O O17 0.010684 0.571375 0.049819
O O18 0.250000 0.956226 0.125861
O O19 0.750000 0.140061 0.473035
O O20 0.550141 0.188115 0.569386
O O21 0.750000 0.327317 0.688028
O O22 0.952102 0.250000 0.704132
#
# Coordination Sequence:
#
# PCOD8240786 Si02
#       8
#     8   8   8   8   8   8   8   8
#     4  10  21  36  54  77 104 134 171 215 259 305
#     4   8  15  30  52  77 104 133 167 209 258 312
#     4   9  17  29  46  70 100 132 166 205 249 299
#     4  10  21  36  52  72 100 134 171 211 256 303
#     4   9  18  34  56  79 101 130 169 210 255 309
#     4  10  20  34  54  79 105 134 169 210 257 308
#     4  10  19  31  48  71  99 133 173 213 254 300
#     4   9  18  33  52  73 100 135 173 214 261 310
#
# _framework density 18.311199999999999
#
# number of rings (size 3 to 8) (size 9 to 14) (size 15 to 20)
#    0.000    2.625    0.000    2.625    0.000    4.500 
#    0.000    2.500    0.000    3.375    0.000    0.000 
#    0.000    0.000    0.000    0.000    0.000    0.000 
#
# Total GULP energy -793219.028847 kJ/mol
# GULP energy per Si atom -12394.047326 kJ/mol
# Density = 1.826952 g / cm^3
# Si number density = 18.311200 Si / 1000 Ang^3
#
#
#
# Elastic Constant Matrix: (Units=GPa)
#
#
# Indices 1 2 3 4 5 6 
#
# 1 87.4496 41.1046 30.6153 0.0000 0.0000 0.0000
# 2 41.1046 98.1769 34.0015 0.0000 0.0000 0.0000
# 3 30.6153 34.0015 52.6092 0.0000 0.0000 0.0000
# 4 0.0000 0.0000 0.0000 24.9457 0.0000 0.0000
# 5 0.0000 0.0000 0.0000 0.0000 31.4576 0.0000
# 6 0.0000 0.0000 0.0000 0.0000 0.0000 27.0586
#
#
#
# Elastic Compliance Matrix: (Units=1/GPa)
#
#
# Indices 1 2 3 4 5 6 
#
# 1 0.015706 -0.004394 -0.006300 0.000000 0.000000 0.000000
# 2 -0.004394 0.014352 -0.006719 0.000000 0.000000 0.000000
# 3 -0.006300 -0.006719 0.027017 0.000000 0.000000 0.000000
# 4 0.000000 0.000000 0.000000 0.040087 0.000000 0.000000
# 5 0.000000 0.000000 0.000000 0.000000 0.031789 0.000000
# 6 0.000000 0.000000 0.000000 0.000000 0.000000 0.036957
#
#
# Mechanical properties :
#
#
# Convention : Reuss Voigt Hill
#
# Bulk Modulus (GPa) = 44.94543 49.96427 47.45485
# Shear Modulus (GPa) = 24.02109 25.52667 24.77388
#
# Velocity S-wave (km/s) = 3.62584 3.73774 3.68222
# Velocity P-wave (km/s) = 6.49058 6.78034 6.63704
#
# Compressibility (1/GPa) = 0.02224920
#
# Stress axis : x y z
#
# Youngs Moduli (GPa) = 63.66959 69.67528 37.01387
#
# Poissons Ratio (x) = 0.30614 0.23319
# Poissons Ratio (y) = 0.27976 0.24869
# Poissons Ratio (z) = 0.40113 0.46815
#
# Static dielectric constant tensor:
#      x y z
#    x 3.310620 0.000000 0.000000 
#    y 0.000000 3.333440 0.000000 
#    z 0.000000 0.000000 2.766260 
# 
# 
# High freq. dielectric constant tensor:
#      x y z
#    x 1.703000 0.000000 0.000000 
#    y 0.000000 1.708070 0.000000 
#    z 0.000000 0.000000 1.699490 
# 
# From -- ./inp_files/21417.got.cif
#   From: 2010.03.12/outbox.cif.g09.slc.cpg/sg59_11_cif.got.tgz:21417.got - 2010.04.16 16:29:54.
