data_PCOD8240603
_publ_section_title
;
Structure prediction by ZEFSAII (Michael W. Deem and Ramdas Pophale) SiO2 
 PCOD8240603
Probable space group: P M M N
;
_chemical_formula_sum "Si O2"
_cell_formula_units_Z 64
_cell_length_a 8.631874
_cell_length_b 29.756671
_cell_length_c 14.827371
_cell_angle_alpha 90.000000
_cell_angle_beta 90.000000
_cell_angle_gamma 90.000000
_cell_volume 3808.496755
_symmetry_space_group_name_H-M "P M M N"
_symmetry_group_IT_number 59
_space_group.IT_coordinate_system_code '2'
_symmetry_cell_setting 'orthorhombic'
loop_
_space_group_symop_operation_xyz
x,y,z
1/2-x,1/2-y,z
1/2+x,-y,-z
-x,1/2+y,-z
-x,-y,-z
1/2+x,1/2+y,-z
1/2-x,y,z
x,1/2-y,z
loop_
_atom_site_type_symbol
_atom_site_label
_atom_site_fract_x
_atom_site_fract_y
_atom_site_fract_z
Si Si1 0.929288 0.385329 0.303793
Si Si2 0.073202 0.799866 0.799830
Si Si3 0.431549 0.201008 0.009503
Si Si4 0.069269 0.557411 0.871639
Si Si5 0.569802 0.036226 0.822717
Si Si6 0.072430 0.442640 0.442267
Si Si7 0.066741 0.395081 0.955994
Si Si8 0.572654 0.529902 0.365402
O O1 0.750000 0.389103 0.329539
O O2 0.976227 0.334789 0.277046
O O3 0.971778 0.418964 0.222497
O O4 0.031672 0.396371 0.391845
O O5 0.250000 0.809413 0.830431
O O6 0.054412 0.750000 0.759156
O O7 0.966145 0.806916 0.885834
O O8 0.250000 0.203446 0.997114
O O9 0.502776 0.250000 0.978307
O O10 0.492299 0.157184 0.955536
O O11 0.250000 0.561612 0.895250
O O12 0.024989 0.505236 0.864312
O O13 0.972520 0.581099 0.949869
O O14 0.750000 0.026512 0.836339
O O15 0.521557 0.081314 0.874222
O O16 0.535262 0.044069 0.717278
O O17 0.250000 0.456712 0.425915
O O18 0.041101 0.437186 0.549396
O O19 0.961005 0.479572 0.398220
O O20 0.250000 0.397966 0.940734
O O21 0.750000 0.532002 0.332635
#
# Coordination Sequence:
#
# PCOD8240603 Si02
#       8
#     8   8   8   8   8   8   8   8
#     4  10  19  30  48  72 101 134 165 200 240 287
#     4   9  17  30  48  70  97 129 163 199 241 286
#     4   9  18  32  50  72  96 124 160 201 245 291
#     4  11  21  34  49  70 101 135 171 205 239 284
#     4  12  24  36  51  70  96 132 172 209 246 290
#     4  10  20  32  51  74  97 126 160 197 240 290
#     4  11  22  35  51  71  99 134 167 204 246 292
#     4  10  20  35  51  71  97 125 160 203 245 286
#
# _framework density 16.80453
#
# number of rings (size 3 to 8) (size 9 to 14) (size 15 to 20)
#    0.000    1.750    2.500    3.000    0.000    3.000 
#    0.000    0.000    0.000    0.000    0.000    0.875 
#    0.000    1.000    0.000    0.000    0.000    0.000 
#
# Total GULP energy -793512.655545 kJ/mol
# GULP energy per Si atom -12398.635243 kJ/mol
# Density = 1.676628 g / cm^3
# Si number density = 16.804530 Si / 1000 Ang^3
#
#
#
# Elastic Constant Matrix: (Units=GPa)
#
#
# Indices 1 2 3 4 5 6 
#
# 1 37.9355 18.4824 21.4678 0.0000 0.0000 0.0000
# 2 18.4824 118.4447 44.7064 0.0000 0.0000 0.0000
# 3 21.4678 44.7064 66.9395 0.0000 0.0000 0.0000
# 4 0.0000 0.0000 0.0000 20.9481 0.0000 0.0000
# 5 0.0000 0.0000 0.0000 0.0000 26.9377 0.0000
# 6 0.0000 0.0000 0.0000 0.0000 0.0000 18.5081
#
#
#
# Elastic Compliance Matrix: (Units=1/GPa)
#
#
# Indices 1 2 3 4 5 6 
#
# 1 0.032408 -0.001516 -0.009381 0.000000 0.000000 0.000000
# 2 -0.001516 0.011359 -0.007100 0.000000 0.000000 0.000000
# 3 -0.009381 -0.007100 0.022689 0.000000 0.000000 0.000000
# 4 0.000000 0.000000 0.000000 0.047737 0.000000 0.000000
# 5 0.000000 0.000000 0.000000 0.000000 0.037123 0.000000
# 6 0.000000 0.000000 0.000000 0.000000 0.000000 0.054031
#
#
# Mechanical properties :
#
#
# Convention : Reuss Voigt Hill
#
# Bulk Modulus (GPa) = 32.82770 43.62590 38.22680
# Shear Modulus (GPa) = 19.88112 22.52298 21.20205
#
# Velocity S-wave (km/s) = 3.44333 3.66497 3.55588
# Velocity P-wave (km/s) = 5.94862 6.62771 6.29733
#
# Compressibility (1/GPa) = 0.03046208
#
# Stress axis : x y z
#
# Youngs Moduli (GPa) = 30.85672 88.03370 44.07381
#
# Poissons Ratio (x) = 0.13349 0.41344
# Poissons Ratio (y) = 0.04679 0.31293
# Poissons Ratio (z) = 0.28946 0.62505
#
# Static dielectric constant tensor:
#      x y z
#    x 3.158590 0.000000 0.000000 
#    y 0.000000 3.408220 0.000000 
#    z 0.000000 0.000000 3.101910 
# 
# 
# High freq. dielectric constant tensor:
#      x y z
#    x 1.654200 0.000000 0.000000 
#    y 0.000000 1.638410 0.000000 
#    z 0.000000 0.000000 1.624970 
# 
# From -- ./inp_files/21877.got.cif
#   From: 2010.03.12/outbox.cif.g09.slc.cpg/sg59_11_cif.got.tgz:21877.got - 2010.04.16 16:29:54.
