data_PCOD8240293
_publ_section_title
;
Structure prediction by ZEFSAII (Michael W. Deem and Ramdas Pophale) SiO2 
 PCOD8240293
Probable space group: P M M N
;
_chemical_formula_sum "Si O2"
_cell_formula_units_Z 64
_cell_length_a 30.692075
_cell_length_b 9.193846
_cell_length_c 15.083703
_cell_angle_alpha 90.000000
_cell_angle_beta 90.000000
_cell_angle_gamma 90.000000
_cell_volume 4256.292327
_symmetry_space_group_name_H-M "P M M N"
_symmetry_group_IT_number 59
_space_group.IT_coordinate_system_code '2'
_symmetry_cell_setting 'orthorhombic'
loop_
_space_group_symop_operation_xyz
x,y,z
1/2-x,1/2-y,z
1/2+x,-y,-z
-x,1/2+y,-z
-x,-y,-z
1/2+x,1/2+y,-z
1/2-x,y,z
x,1/2-y,z
loop_
_atom_site_type_symbol
_atom_site_label
_atom_site_fract_x
_atom_site_fract_y
_atom_site_fract_z
Si Si1 0.950007 0.080721 0.257850
Si Si2 0.203578 0.585415 0.409160
Si Si3 0.380849 0.581634 0.598872
Si Si4 0.890262 0.416086 0.607546
Si Si5 0.448094 0.085885 0.915696
Si Si6 0.949540 0.579696 0.739579
Si Si7 0.051797 0.914375 0.085411
Si Si8 0.297634 0.419265 0.588528
O O1 0.944749 0.250000 0.234884
O O2 0.922387 0.032803 0.343446
O O3 0.000072 0.043057 0.278726
O O4 0.932141 0.991488 0.173888
O O5 0.250000 0.569467 0.355514
O O6 0.200229 0.750000 0.448718
O O7 0.159145 0.559874 0.353135
O O8 0.204426 0.470877 0.487631
O O9 0.371510 0.750000 0.611642
O O10 0.390565 0.543856 0.496589
O O11 0.337701 0.500672 0.636359
O O12 0.905730 0.250000 0.622835
O O13 0.922846 0.525258 0.655062
O O14 0.429886 0.250000 0.918400
O O15 0.499981 0.085747 0.919056
O O16 0.429198 0.998078 0.999868
O O17 0.941887 0.750000 0.753556
O O18 0.932212 0.497103 0.826647
O O19 0.070046 0.750000 0.086678
O O20 0.250000 0.450941 0.633146
O O21 0.308151 0.250000 0.589996
#
# Coordination Sequence:
#
# PCOD8240293 Si02
#       8
#     8   8   8   8   8   8   8   8
#     4   9  18  31  43  57  80 111 145 176 204 237
#     4   8  14  26  43  59  76 102 134 167 206 250
#     4   9  18  31  44  57  78 111 147 177 203 238
#     4   9  17  28  41  58  81 109 142 176 206 240
#     4   9  16  26  42  63  82 101 129 167 211 252
#     4  10  19  29  41  58  82 111 142 175 208 242
#     4   9  16  27  43  60  79 104 133 167 207 248
#     4   9  16  25  39  60  82 101 126 166 213 253
#
# _framework density 15.036562
#
# number of rings (size 3 to 8) (size 9 to 14) (size 15 to 20)
#    0.000    3.000    0.000    2.250    0.000    7.250 
#    0.000    0.000    0.000    0.000    0.000    0.000 
#    0.000    1.000    0.000    5.250    0.000    4.750 
#
# Total GULP energy -793050.245235 kJ/mol
# GULP energy per Si atom -12391.410082 kJ/mol
# Density = 1.500234 g / cm^3
# Si number density = 15.036562 Si / 1000 Ang^3
#
#
#
# Elastic Constant Matrix: (Units=GPa)
#
#
# Indices 1 2 3 4 5 6 
#
# 1 80.0030 44.3153 45.6247 0.0000 0.0000 0.0000
# 2 44.3153 84.0399 46.4152 0.0000 0.0000 0.0000
# 3 45.6247 46.4152 75.9454 0.0000 0.0000 0.0000
# 4 0.0000 0.0000 0.0000 23.8705 0.0000 0.0000
# 5 0.0000 0.0000 0.0000 0.0000 1.3291 0.0000
# 6 0.0000 0.0000 0.0000 0.0000 0.0000 20.5505
#
#
#
# Elastic Compliance Matrix: (Units=1/GPa)
#
#
# Indices 1 2 3 4 5 6 
#
# 1 0.020945 -0.006182 -0.008805 0.000000 0.000000 0.000000
# 2 -0.006182 0.019787 -0.008379 0.000000 0.000000 0.000000
# 3 -0.008805 -0.008379 0.023578 0.000000 0.000000 0.000000
# 4 0.000000 0.000000 0.000000 0.041893 0.000000 0.000000
# 5 0.000000 0.000000 0.000000 0.000000 0.752381 0.000000
# 6 0.000000 0.000000 0.000000 0.000000 0.000000 0.048661
#
#
# Mechanical properties :
#
#
# Convention : Reuss Voigt Hill
#
# Bulk Modulus (GPa) = 56.88867 56.96652 56.92760
# Shear Modulus (GPa) = 5.20923 16.05890 10.63407
#
# Velocity S-wave (km/s) = 1.86330 3.27156 2.66223
# Velocity P-wave (km/s) = 6.52264 7.22761 6.88416
#
# Compressibility (1/GPa) = 0.01757819
#
# Stress axis : x y z
#
# Youngs Moduli (GPa) = 47.74430 50.53920 42.41243
#
# Poissons Ratio (x) = 0.31242 0.37343
# Poissons Ratio (y) = 0.29514 0.35538
# Poissons Ratio (z) = 0.42038 0.42348
#
# Static dielectric constant tensor:
#      x y z
#    x 3.000990 0.000000 0.000000 
#    y 0.000000 2.998400 0.000000 
#    z 0.000000 0.000000 2.709980 
# 
# 
# High freq. dielectric constant tensor:
#      x y z
#    x 1.553900 0.000000 0.000000 
#    y 0.000000 1.588110 0.000000 
#    z 0.000000 0.000000 1.540090 
# 
# From -- ./inp_files/21910.got.cif
#   From: 2010.03.12/outbox.cif.g09.slc.cpg/sg59_11_cif.got.tgz:21910.got - 2010.04.16 16:29:54.
