data_PCOD8240248
_publ_section_title
;
Structure prediction by ZEFSAII (Michael W. Deem and Ramdas Pophale) SiO2 
 PCOD8240248
Probable space group: P M M N
;
_chemical_formula_sum "Si O2"
_cell_formula_units_Z 64
_cell_length_a 9.168586
_cell_length_b 24.090321
_cell_length_c 17.144168
_cell_angle_alpha 90.000000
_cell_angle_beta 90.000000
_cell_angle_gamma 90.000000
_cell_volume 3786.704046
_symmetry_space_group_name_H-M "P M M N"
_symmetry_group_IT_number 59
_space_group.IT_coordinate_system_code '2'
_symmetry_cell_setting 'orthorhombic'
loop_
_space_group_symop_operation_xyz
x,y,z
1/2-x,1/2-y,z
1/2+x,-y,-z
-x,1/2+y,-z
-x,-y,-z
1/2+x,1/2+y,-z
1/2-x,y,z
x,1/2-y,z
loop_
_atom_site_type_symbol
_atom_site_label
_atom_site_fract_x
_atom_site_fract_y
_atom_site_fract_z
Si Si1 0.921518 0.368762 0.768836
Si Si2 0.925129 0.687439 0.755041
Si Si3 0.420787 0.091982 0.355889
Si Si4 0.085543 0.187949 0.637233
Si Si5 0.575805 0.813661 0.091926
Si Si6 0.919160 0.030346 0.664679
Si Si7 0.591872 0.684698 0.923100
Si Si8 0.418863 0.087787 0.529775
O O1 0.750000 0.363872 0.782360
O O2 0.968119 0.429591 0.735801
O O3 0.972251 0.323195 0.706371
O O4 0.002518 0.357287 0.849738
O O5 0.750000 0.685298 0.759149
O O6 0.975433 0.750000 0.731915
O O7 0.989515 0.643054 0.693174
O O8 0.989080 0.670094 0.841200
O O9 0.250000 0.103461 0.363655
O O10 0.487279 0.088798 0.443002
O O11 0.451828 0.033495 0.312069
O O12 0.250000 0.178922 0.669859
O O13 0.062619 0.250000 0.606518
O O14 0.056121 0.149131 0.563544
O O15 0.750000 0.819653 0.094861
O O16 0.531736 0.750000 0.112648
O O17 0.514151 0.830747 0.005350
O O18 0.750000 0.040024 0.646922
O O19 0.000825 0.043212 0.583949
O O20 0.750000 0.655082 0.922657
O O21 0.616837 0.750000 0.924106
O O22 0.250000 0.070559 0.527696
#
# Coordination Sequence:
#
# PCOD8240248 Si02
#       8
#     8   8   8   8   8   8   8   8
#     4  10  19  28  39  57  81 110 144 176 201 232
#     4   8  13  22  39  65  92 110 127 161 209 253
#     4   9  16  26  42  62  83 108 137 169 206 246
#     4   9  17  28  40  56  83 114 136 161 206 254
#     4   9  16  26  42  63  85 108 134 166 205 246
#     4   9  18  31  43  57  82 114 143 171 205 241
#     4   7  11  21  37  59  86 110 130 157 198 247
#     4   9  17  28  43  63  83 106 140 177 206 237
#
# _framework density 16.901242
#
# number of rings (size 3 to 8) (size 9 to 14) (size 15 to 20)
#    0.000    3.250    0.000    2.625    0.000    3.000 
#    0.000    2.500    0.000    0.750    0.000    1.750 
#    0.000    3.500    0.000    0.000    0.000    0.375 
#
# Total GULP energy -792888.229111 kJ/mol
# GULP energy per Si atom -12388.878580 kJ/mol
# Density = 1.686277 g / cm^3
# Si number density = 16.901242 Si / 1000 Ang^3
#
#
#
# Elastic Constant Matrix: (Units=GPa)
#
#
# Indices 1 2 3 4 5 6 
#
# 1 24.6993 19.7042 25.7939 0.0000 0.0000 0.0000
# 2 19.7042 101.2371 63.6889 0.0000 0.0000 0.0000
# 3 25.7939 63.6889 131.6543 0.0000 0.0000 0.0000
# 4 0.0000 0.0000 0.0000 21.1059 0.0000 0.0000
# 5 0.0000 0.0000 0.0000 0.0000 7.9191 0.0000
# 6 0.0000 0.0000 0.0000 0.0000 0.0000 14.8842
#
#
#
# Elastic Compliance Matrix: (Units=1/GPa)
#
#
# Indices 1 2 3 4 5 6 
#
# 1 0.052898 -0.005428 -0.007738 0.000000 0.000000 0.000000
# 2 -0.005428 0.014756 -0.006075 0.000000 0.000000 0.000000
# 3 -0.007738 -0.006075 0.012051 0.000000 0.000000 0.000000
# 4 0.000000 0.000000 0.000000 0.047380 0.000000 0.000000
# 5 0.000000 0.000000 0.000000 0.000000 0.126277 0.000000
# 6 0.000000 0.000000 0.000000 0.000000 0.000000 0.067186
#
#
# Mechanical properties :
#
#
# Convention : Reuss Voigt Hill
#
# Bulk Modulus (GPa) = 24.25823 52.88496 38.57160
# Shear Modulus (GPa) = 13.41309 18.67541 16.04425
#
# Velocity S-wave (km/s) = 2.82017 3.32772 3.08440
# Velocity P-wave (km/s) = 4.99886 6.79143 5.96289
#
# Compressibility (1/GPa) = 0.04122312
#
# Stress axis : x y z
#
# Youngs Moduli (GPa) = 18.90425 67.76910 82.98370
#
# Poissons Ratio (x) = 0.36782 0.64215
# Poissons Ratio (y) = 0.10260 0.50412
# Poissons Ratio (z) = 0.14629 0.41169
#
# Static dielectric constant tensor:
#      x y z
#    x 2.792500 0.000000 0.000000 
#    y 0.000000 3.143690 0.000000 
#    z 0.000000 0.000000 3.487080 
# 
# 
# High freq. dielectric constant tensor:
#      x y z
#    x 1.606050 0.000000 0.000000 
#    y 0.000000 1.636080 0.000000 
#    z 0.000000 0.000000 1.654500 
# 
# From -- ./inp_files/26679.got.cif
#   From: 2010.03.12/outbox.cif.g09.slc.cpg/sg59_14_cif.got.tgz:26679.got - 2010.04.16 16:29:54.
