data_PCOD8240530
_publ_section_title
;
Structure prediction by ZEFSAII (Michael W. Deem and Ramdas Pophale) SiO2 
 PCOD8240530
Probable space group: P M M N
;
_chemical_formula_sum "Si O2"
_cell_formula_units_Z 56
_cell_length_a 8.640613
_cell_length_b 22.994067
_cell_length_c 14.502143
_cell_angle_alpha 90.000000
_cell_angle_beta 90.000000
_cell_angle_gamma 90.000000
_cell_volume 2881.326874
_symmetry_space_group_name_H-M "P M M N"
_symmetry_group_IT_number 59
_space_group.IT_coordinate_system_code '2'
_symmetry_cell_setting 'orthorhombic'
loop_
_space_group_symop_operation_xyz
x,y,z
1/2-x,1/2-y,z
1/2+x,-y,-z
-x,1/2+y,-z
-x,-y,-z
1/2+x,1/2+y,-z
1/2-x,y,z
x,1/2-y,z
loop_
_atom_site_type_symbol
_atom_site_label
_atom_site_fract_x
_atom_site_fract_y
_atom_site_fract_z
Si Si1 0.569386 0.184354 0.827178
Si Si2 0.070687 0.997952 0.399921
Si Si3 0.926331 0.502625 0.102693
Si Si4 0.422302 0.088504 0.725423
Si Si5 0.069661 0.682899 0.842103
Si Si6 0.568247 0.615903 0.008365
Si Si7 0.567571 0.916750 0.757614
O O1 0.750000 0.181017 0.806660
O O2 0.509865 0.250000 0.834775
O O3 0.478468 0.154023 0.743606
O O4 0.534737 0.152809 0.922539
O O5 0.250000 0.006620 0.411307
O O6 0.005274 0.047683 0.330910
O O7 0.000000 0.000000 0.500000
O O8 0.033841 0.936589 0.353068
O O9 0.750000 0.480213 0.088283
O O10 0.930006 0.553680 0.178897
O O11 0.985396 0.545509 0.013104
O O12 0.031665 0.450789 0.145269
O O13 0.250000 0.088894 0.684816
O O14 0.250000 0.678375 0.867772
O O15 0.020229 0.750000 0.830072
O O16 0.026575 0.644779 0.751588
O O17 0.960024 0.649387 0.913825
O O18 0.750000 0.617078 0.034238
O O19 0.750000 0.906111 0.753338
#
# Coordination Sequence:
#
# PCOD8240530 Si02
#       7
#     8   8   8   8   8   8   8
#     4  10  19  30  46  70 103 142 180 217 258 304
#     4  10  20  35  58  86 110 131 160 202 257 319
#     4   8  16  31  50  74 104 136 170 212 262 310
#     4   9  17  30  49  74 104 136 170 208 252 302
#     4  11  24  39  54  73 101 141 185 225 265 309
#     4  10  20  33  51  75 103 139 183 227 267 305
#     4  10  21  36  56  81 106 136 173 213 262 316
#
# _framework density 19.435490000000001
#
# number of rings (size 3 to 8) (size 9 to 14) (size 15 to 20)
#    0.000    2.286    0.000    3.857    0.000   10.286 
#    0.000    0.000    0.000    0.857    0.000    4.000 
#    0.000    0.000    0.000    0.000    0.000    0.000 
#
# Total GULP energy -694142.244669 kJ/mol
# GULP energy per Si atom -12395.397226 kJ/mol
# Density = 1.939125 g / cm^3
# Si number density = 19.435490 Si / 1000 Ang^3
#
#
#
# Elastic Constant Matrix: (Units=GPa)
#
#
# Indices 1 2 3 4 5 6 
#
# 1 57.3216 39.6149 12.7309 0.0000 0.0000 0.0000
# 2 39.6149 170.5460 47.1611 0.0000 0.0000 0.0000
# 3 12.7309 47.1611 95.5453 0.0000 0.0000 0.0000
# 4 0.0000 0.0000 0.0000 14.3162 0.0000 0.0000
# 5 0.0000 0.0000 0.0000 0.0000 28.7055 0.0000
# 6 0.0000 0.0000 0.0000 0.0000 0.0000 31.7196
#
#
#
# Elastic Compliance Matrix: (Units=1/GPa)
#
#
# Indices 1 2 3 4 5 6 
#
# 1 0.020798 -0.004707 -0.000448 0.000000 0.000000 0.000000
# 2 -0.004707 0.007856 -0.003250 0.000000 0.000000 0.000000
# 3 -0.000448 -0.003250 0.012130 0.000000 0.000000 0.000000
# 4 0.000000 0.000000 0.000000 0.069851 0.000000 0.000000
# 5 0.000000 0.000000 0.000000 0.000000 0.034837 0.000000
# 6 0.000000 0.000000 0.000000 0.000000 0.000000 0.031526
#
#
# Mechanical properties :
#
#
# Convention : Reuss Voigt Hill
#
# Bulk Modulus (GPa) = 41.71295 58.04742 49.88019
# Shear Modulus (GPa) = 24.77705 29.87533 27.32619
#
# Velocity S-wave (km/s) = 3.57436 3.92491 3.75373
# Velocity P-wave (km/s) = 6.20835 7.10432 6.67139
#
# Compressibility (1/GPa) = 0.02397337
#
# Stress axis : x y z
#
# Youngs Moduli (GPa) = 48.08151 127.29532 82.43826
#
# Poissons Ratio (x) = 0.59920 0.03691
# Poissons Ratio (y) = 0.22633 0.26796
# Poissons Ratio (z) = 0.02153 0.41376
#
# Static dielectric constant tensor:
#      x y z
#    x 3.537150 0.000000 0.000000 
#    y 0.000000 4.059160 0.000000 
#    z 0.000000 0.000000 3.728870 
# 
# 
# High freq. dielectric constant tensor:
#      x y z
#    x 1.762370 0.000000 0.000000 
#    y 0.000000 1.769340 0.000000 
#    z 0.000000 0.000000 1.730990 
# 
# From -- ./inp_files/21051.got.cif
#   From: 2010.03.12/outbox.cif.g09.slc.cpg/sg59_11_cif.got.tgz:21051.got - 2010.04.16 16:29:54.
