data_PCOD8240580
_publ_section_title
;
Structure prediction by ZEFSAII (Michael W. Deem and Ramdas Pophale) SiO2 
 PCOD8240580
Probable space group: P M M N
;
_chemical_formula_sum "Si O2"
_cell_formula_units_Z 64
_cell_length_a 23.253159
_cell_length_b 8.987376
_cell_length_c 19.006809
_cell_angle_alpha 90.000000
_cell_angle_beta 90.000000
_cell_angle_gamma 90.000000
_cell_volume 3972.135757
_symmetry_space_group_name_H-M "P M M N"
_symmetry_group_IT_number 59
_space_group.IT_coordinate_system_code '2'
_symmetry_cell_setting 'orthorhombic'
loop_
_space_group_symop_operation_xyz
x,y,z
1/2-x,1/2-y,z
1/2+x,-y,-z
-x,1/2+y,-z
-x,-y,-z
1/2+x,1/2+y,-z
1/2-x,y,z
x,1/2-y,z
loop_
_atom_site_type_symbol
_atom_site_label
_atom_site_fract_x
_atom_site_fract_y
_atom_site_fract_z
Si Si1 0.183789 0.422237 0.119032
Si Si2 0.519355 0.577493 0.390201
Si Si3 0.506778 0.574340 0.745791
Si Si4 0.974695 0.423915 0.101133
Si Si5 0.585763 0.923368 0.984016
Si Si6 0.814834 0.580066 0.618041
Si Si7 0.079113 0.420105 0.471163
Si Si8 0.369131 0.925657 0.252103
O O1 0.250000 0.450682 0.099995
O O2 0.172066 0.250000 0.138990
O O3 0.146652 0.467415 0.050488
O O4 0.165799 0.523666 0.183898
O O5 0.515329 0.750000 0.370487
O O6 0.531375 0.485400 0.319120
O O7 0.570347 0.544125 0.446079
O O8 0.458815 0.528618 0.423514
O O9 0.515048 0.750000 0.740238
O O10 0.473653 0.529196 0.817157
O O11 0.569301 0.502356 0.743987
O O12 0.967386 0.250000 0.092329
O O13 0.035484 0.477814 0.068763
O O14 0.921622 0.498882 0.059853
O O15 0.581426 0.750000 0.997846
O O16 0.750000 0.544889 0.594210
O O17 0.820979 0.750000 0.645162
O O18 0.854595 0.554057 0.549385
O O19 0.832011 0.470291 0.680371
O O20 0.059589 0.250000 0.456165
O O21 0.377604 0.750000 0.250239
#
# Coordination Sequence:
#
# PCOD8240580 Si02
#       8
#     8   8   8   8   8   8   8   8
#     4  10  20  35  52  68  93 132 168 194 228 279
#     4  10  19  30  47  72  96 121 157 198 240 281
#     4  11  20  33  50  69  96 129 161 192 236 291
#     4   9  18  31  48  68  92 121 155 193 238 286
#     4   9  17  31  48  69  93 120 156 196 234 274
#     4  10  20  34  51  68  91 130 169 195 229 279
#     4   9  18  32  48  67  95 127 157 194 237 283
#     4  12  23  32  45  69  99 129 164 201 234 269
#
# _framework density 16.112238000000001
#
# number of rings (size 3 to 8) (size 9 to 14) (size 15 to 20)
#    0.000    2.000    2.500    2.250    0.000    4.000 
#    0.000    0.000    0.000    0.000    0.000    0.875 
#    0.000    5.000    0.000    0.000    0.000    0.000 
#
# Total GULP energy -793609.137523 kJ/mol
# GULP energy per Si atom -12400.142774 kJ/mol
# Density = 1.607557 g / cm^3
# Si number density = 16.112238 Si / 1000 Ang^3
#
#
#
# Elastic Constant Matrix: (Units=GPa)
#
#
# Indices 1 2 3 4 5 6 
#
# 1 84.2241 33.2514 66.0780 0.0000 0.0000 0.0000
# 2 33.2514 68.8124 54.4057 0.0000 0.0000 0.0000
# 3 66.0780 54.4057 136.8294 0.0000 0.0000 0.0000
# 4 0.0000 0.0000 0.0000 27.8607 0.0000 0.0000
# 5 0.0000 0.0000 0.0000 0.0000 14.7937 0.0000
# 6 0.0000 0.0000 0.0000 0.0000 0.0000 17.5818
#
#
#
# Elastic Compliance Matrix: (Units=1/GPa)
#
#
# Indices 1 2 3 4 5 6 
#
# 1 0.019500 -0.002884 -0.008270 0.000000 0.000000 0.000000
# 2 -0.002884 0.021622 -0.007205 0.000000 0.000000 0.000000
# 3 -0.008270 -0.007205 0.014167 0.000000 0.000000 0.000000
# 4 0.000000 0.000000 0.000000 0.035893 0.000000 0.000000
# 5 0.000000 0.000000 0.000000 0.000000 0.067596 0.000000
# 6 0.000000 0.000000 0.000000 0.000000 0.000000 0.056877
#
#
# Mechanical properties :
#
#
# Convention : Reuss Voigt Hill
#
# Bulk Modulus (GPa) = 53.84620 66.37066 60.10843
# Shear Modulus (GPa) = 19.33761 21.12264 20.23012
#
# Velocity S-wave (km/s) = 3.46812 3.62466 3.54725
# Velocity P-wave (km/s) = 7.03769 7.66809 7.35965
#
# Compressibility (1/GPa) = 0.01857141
#
# Stress axis : x y z
#
# Youngs Moduli (GPa) = 51.28166 46.24908 70.58673
#
# Poissons Ratio (x) = 0.13338 0.58378
# Poissons Ratio (y) = 0.14789 0.50855
# Poissons Ratio (z) = 0.42412 0.33320
#
# Static dielectric constant tensor:
#      x y z
#    x 2.941310 0.000000 0.000000 
#    y 0.000000 3.095450 0.000000 
#    z 0.000000 0.000000 3.238450 
# 
# 
# High freq. dielectric constant tensor:
#      x y z
#    x 1.589840 0.000000 0.000000 
#    y 0.000000 1.623640 0.000000 
#    z 0.000000 0.000000 1.615920 
# 
# From -- ./inp_files/28465.got.cif
#   From: 2010.03.12/outbox.cif.g09.slc.cpg/sg59_15_cif.got.tgz:28465.got - 2010.04.16 16:29:54.
