data_PCOD8240791
_publ_section_title
;
Structure prediction by ZEFSAII (Michael W. Deem and Ramdas Pophale) SiO2 
 PCOD8240791
Probable space group: P M M N
;
_chemical_formula_sum "Si O2"
_cell_formula_units_Z 56
_cell_length_a 19.602807
_cell_length_b 9.454567
_cell_length_c 16.148286
_cell_angle_alpha 90.000000
_cell_angle_beta 90.000000
_cell_angle_gamma 90.000000
_cell_volume 2992.859577
_symmetry_space_group_name_H-M "P M M N"
_symmetry_group_IT_number 59
_space_group.IT_coordinate_system_code '2'
_symmetry_cell_setting 'orthorhombic'
loop_
_space_group_symop_operation_xyz
x,y,z
1/2-x,1/2-y,z
1/2+x,-y,-z
-x,1/2+y,-z
-x,-y,-z
1/2+x,1/2+y,-z
1/2-x,y,z
x,1/2-y,z
loop_
_atom_site_type_symbol
_atom_site_label
_atom_site_fract_x
_atom_site_fract_y
_atom_site_fract_z
Si Si1 0.676668 0.416501 0.013137
Si Si2 0.087641 0.416132 0.671459
Si Si3 0.829550 0.411113 0.196797
Si Si4 0.171414 0.084341 0.333419
Si Si5 0.674421 0.582265 0.480680
Si Si6 0.541600 0.085176 0.932331
Si Si7 0.947238 0.414808 0.746199
O O1 0.750000 0.481519 0.985858
O O2 0.684811 0.250000 0.022261
O O3 0.655884 0.470894 0.104552
O O4 0.620823 0.457012 0.945218
O O5 0.100257 0.250000 0.680813
O O6 0.128989 0.489667 0.743182
O O7 0.116477 0.472188 0.583112
O O8 0.007147 0.451182 0.680446
O O9 0.750000 0.421894 0.218123
O O10 0.855210 0.250000 0.207190
O O11 0.250000 0.052247 0.309224
O O12 0.155952 0.250000 0.325180
O O13 0.156948 0.029374 0.426895
O O14 0.120872 0.001441 0.272963
O O15 0.750000 0.526437 0.454369
O O16 0.676468 0.750000 0.482287
O O17 0.528438 0.250000 0.949542
O O18 0.524478 0.044261 0.837741
O O19 0.500000 0.000000 0.000000
O O20 0.927658 0.250000 0.744285
#
# Coordination Sequence:
#
# PCOD8240791 Si02
#       7
#     8   8   8   8   8   8   8
#     4   8  15  29  48  67  88 122 167 205 239 288
#     4  10  19  31  48  72 104 137 167 198 240 302
#     4   9  17  29  46  70  98 126 163 211 252 288
#     4   9  19  37  58  76  95 126 172 216 251 299
#     4   8  15  30  52  74  96 129 171 207 241 291
#     4  10  20  34  52  73 100 134 169 205 246 295
#     4  10  22  35  49  77 109 133 163 208 260 306
#
# _framework density 18.711200999999999
#
# number of rings (size 3 to 8) (size 9 to 14) (size 15 to 20)
#    0.000    2.857    0.000    3.000    0.000    3.429 
#    0.000    2.143    0.000    2.143    0.000    0.000 
#    0.000    0.000    0.000    0.000    0.000    0.000 
#
# Total GULP energy -694075.886812 kJ/mol
# GULP energy per Si atom -12394.212265 kJ/mol
# Density = 1.866861 g / cm^3
# Si number density = 18.711201 Si / 1000 Ang^3
#
#
#
# Elastic Constant Matrix: (Units=GPa)
#
#
# Indices 1 2 3 4 5 6 
#
# 1 98.4048 39.7457 61.6067 0.0000 0.0000 0.0000
# 2 39.7457 38.9934 33.1404 0.0000 0.0000 0.0000
# 3 61.6067 33.1404 91.1614 0.0000 0.0000 0.0000
# 4 0.0000 0.0000 0.0000 22.8872 0.0000 0.0000
# 5 0.0000 0.0000 0.0000 0.0000 33.3431 0.0000
# 6 0.0000 0.0000 0.0000 0.0000 0.0000 26.6221
#
#
#
# Elastic Compliance Matrix: (Units=1/GPa)
#
#
# Indices 1 2 3 4 5 6 
#
# 1 0.021930 -0.014120 -0.009687 0.000000 0.000000 0.000000
# 2 -0.014120 0.046203 -0.007254 0.000000 0.000000 0.000000
# 3 -0.009687 -0.007254 0.020153 0.000000 0.000000 0.000000
# 4 0.000000 0.000000 0.000000 0.043693 0.000000 0.000000
# 5 0.000000 0.000000 0.000000 0.000000 0.029991 0.000000
# 6 0.000000 0.000000 0.000000 0.000000 0.000000 0.037563
#
#
# Mechanical properties :
#
#
# Convention : Reuss Voigt Hill
#
# Bulk Modulus (GPa) = 38.22086 55.28281 46.75184
# Shear Modulus (GPa) = 18.49275 22.84158 20.66717
#
# Velocity S-wave (km/s) = 3.14717 3.49770 3.32706
# Velocity P-wave (km/s) = 5.80322 6.77653 6.30867
#
# Compressibility (1/GPa) = 0.02616372
#
# Stress axis : x y z
#
# Youngs Moduli (GPa) = 45.60029 21.64355 49.61998
#
# Poissons Ratio (x) = 0.30560 0.48067
# Poissons Ratio (y) = 0.64387 0.35996
# Poissons Ratio (z) = 0.44173 0.15701
#
# Static dielectric constant tensor:
#      x y z
#    x 3.240220 0.000000 0.000000 
#    y 0.000000 3.066360 0.000000 
#    z 0.000000 0.000000 3.546240 
# 
# 
# High freq. dielectric constant tensor:
#      x y z
#    x 1.732970 0.000000 0.000000 
#    y 0.000000 1.689070 0.000000 
#    z 0.000000 0.000000 1.726380 
# 
# From -- ./inp_files/24193.got.cif
#   From: 2010.03.12/outbox.cif.g09.slc.cpg/sg59_13_cif.got.tgz:24193.got - 2010.04.16 16:29:54.
