data_PCOD8240920
_publ_section_title
;
Structure prediction by ZEFSAII (Michael W. Deem and Ramdas Pophale) SiO2 
 PCOD8240920
Probable space group: P M M N
;
_chemical_formula_sum "Si O2"
_cell_formula_units_Z 64
_cell_length_a 8.937861
_cell_length_b 20.653893
_cell_length_c 20.455387
_cell_angle_alpha 90.000000
_cell_angle_beta 90.000000
_cell_angle_gamma 90.000000
_cell_volume 3776.097675
_symmetry_space_group_name_H-M "P M M N"
_symmetry_group_IT_number 59
_space_group.IT_coordinate_system_code '2'
_symmetry_cell_setting 'orthorhombic'
loop_
_space_group_symop_operation_xyz
x,y,z
1/2-x,1/2-y,z
1/2+x,-y,-z
-x,1/2+y,-z
-x,-y,-z
1/2+x,1/2+y,-z
1/2-x,y,z
x,1/2-y,z
loop_
_atom_site_type_symbol
_atom_site_label
_atom_site_fract_x
_atom_site_fract_y
_atom_site_fract_z
Si Si1 0.585127 0.990534 0.812654
Si Si2 0.080590 0.321761 0.467962
Si Si3 0.925274 0.552713 0.452584
Si Si4 0.425355 0.961520 0.941835
Si Si5 0.927914 0.004417 0.670807
Si Si6 0.074491 0.866644 0.655800
Si Si7 0.922182 0.319696 0.090853
Si Si8 0.914907 0.658377 0.780338
O O1 0.750000 0.015732 0.834622
O O2 0.472272 0.995639 0.873524
O O3 0.597713 0.917511 0.789754
O O4 0.529945 0.026454 0.745859
O O5 0.250000 0.332457 0.441925
O O6 0.063170 0.250000 0.499076
O O7 0.042459 0.375143 0.522108
O O8 0.964746 0.326478 0.408504
O O9 0.750000 0.536671 0.448083
O O10 0.000000 0.500000 0.500000
O O11 0.998111 0.553568 0.380436
O O12 0.250000 0.968790 0.949333
O O13 0.476252 0.885279 0.946505
O O14 0.500000 0.000000 0.000000
O O15 0.750000 0.003291 0.662556
O O16 0.990468 0.934618 0.651646
O O17 0.250000 0.878650 0.661466
O O18 0.018110 0.825650 0.718193
O O19 0.750000 0.331266 0.109377
O O20 0.941164 0.250000 0.051950
O O21 0.013548 0.309186 0.156580
O O22 0.750000 0.687986 0.769502
#
# Coordination Sequence:
#
# PCOD8240920 Si02
#       8
#     8   8   8   8   8   8   8   8
#     4   8  16  30  47  69  97 127 160 199 239 284
#     4  10  22  38  51  65  92 129 166 205 252 305
#     4  11  21  33  53  76  98 126 164 210 256 301
#     4  10  19  31  50  74 102 134 164 200 243 290
#     4  10  19  32  51  74 101 129 161 205 252 298
#     4  11  20  30  47  69  94 127 166 206 245 287
#     4   9  18  32  48  68  95 128 168 207 239 279
#     4   9  17  29  45  65  93 128 163 199 239 283
#
# _framework density 16.948713999999999
#
# number of rings (size 3 to 8) (size 9 to 14) (size 15 to 20)
#    0.000    2.250    1.250    3.375    0.000    5.500 
#    0.000    0.000    0.000    0.000    0.000    0.875 
#    0.000    1.000    0.000    0.000    0.000    0.000 
#
# Total GULP energy -793051.299917 kJ/mol
# GULP energy per Si atom -12391.426561 kJ/mol
# Density = 1.691014 g / cm^3
# Si number density = 16.948714 Si / 1000 Ang^3
#
#
#
# Elastic Constant Matrix: (Units=GPa)
#
#
# Indices 1 2 3 4 5 6 
#
# 1 90.9415 39.7056 52.1586 0.0000 0.0000 0.0000
# 2 39.7056 90.5754 57.5762 0.0000 0.0000 0.0000
# 3 52.1586 57.5762 114.4328 0.0000 0.0000 0.0000
# 4 0.0000 0.0000 0.0000 13.4704 0.0000 0.0000
# 5 0.0000 0.0000 0.0000 0.0000 31.9248 0.0000
# 6 0.0000 0.0000 0.0000 0.0000 0.0000 12.4032
#
#
#
# Elastic Compliance Matrix: (Units=1/GPa)
#
#
# Indices 1 2 3 4 5 6 
#
# 1 0.015570 -0.003402 -0.005385 0.000000 0.000000 0.000000
# 2 -0.003402 0.016976 -0.006990 0.000000 0.000000 0.000000
# 3 -0.005385 -0.006990 0.014710 0.000000 0.000000 0.000000
# 4 0.000000 0.000000 0.000000 0.074237 0.000000 0.000000
# 5 0.000000 0.000000 0.000000 0.000000 0.031324 0.000000
# 6 0.000000 0.000000 0.000000 0.000000 0.000000 0.080625
#
#
# Mechanical properties :
#
#
# Convention : Reuss Voigt Hill
#
# Bulk Modulus (GPa) = 63.69172 66.09228 64.89200
# Shear Modulus (GPa) = 18.50273 21.32694 19.91483
#
# Velocity S-wave (km/s) = 3.30766 3.55113 3.43155
# Velocity P-wave (km/s) = 7.22829 7.47624 7.35331
#
# Compressibility (1/GPa) = 0.01570063
#
# Stress axis : x y z
#
# Youngs Moduli (GPa) = 64.22570 58.90796 67.97913
#
# Poissons Ratio (x) = 0.20043 0.36606
# Poissons Ratio (y) = 0.21852 0.47520
# Poissons Ratio (z) = 0.34585 0.41179
#
# Static dielectric constant tensor:
#      x y z
#    x 3.330720 0.000000 0.000000 
#    y 0.000000 3.100680 0.000000 
#    z 0.000000 0.000000 3.298400 
# 
# 
# High freq. dielectric constant tensor:
#      x y z
#    x 1.664920 0.000000 0.000000 
#    y 0.000000 1.626730 0.000000 
#    z 0.000000 0.000000 1.634640 
# 
# From -- ./inp_files/29774.got.cif
#   From: 2010.03.12/outbox.cif.g09.slc.cpg/sg59_15_cif.got.tgz:29774.got - 2010.04.16 16:29:54.
