data_PCOD8240762
_publ_section_title
;
Structure prediction by ZEFSAII (Michael W. Deem and Ramdas Pophale) SiO2 
 PCOD8240762
Probable space group: P M M N
;
_chemical_formula_sum "Si O2"
_cell_formula_units_Z 64
_cell_length_a 9.144163
_cell_length_b 19.306015
_cell_length_c 21.810396
_cell_angle_alpha 90.000000
_cell_angle_beta 90.000000
_cell_angle_gamma 90.000000
_cell_volume 3850.349470
_symmetry_space_group_name_H-M "P M M N"
_symmetry_group_IT_number 59
_space_group.IT_coordinate_system_code '2'
_symmetry_cell_setting 'orthorhombic'
loop_
_space_group_symop_operation_xyz
x,y,z
1/2-x,1/2-y,z
1/2+x,-y,-z
-x,1/2+y,-z
-x,-y,-z
1/2+x,1/2+y,-z
1/2-x,y,z
x,1/2-y,z
loop_
_atom_site_type_symbol
_atom_site_label
_atom_site_fract_x
_atom_site_fract_y
_atom_site_fract_z
Si Si1 0.912808 0.105404 0.986392
Si Si2 0.080654 0.673850 0.509495
Si Si3 0.080905 0.040969 0.681712
Si Si4 0.076089 0.949531 0.194905
Si Si5 0.583174 0.826342 0.388376
Si Si6 0.578545 0.830327 0.122783
Si Si7 0.579610 0.032067 0.441638
Si Si8 0.088688 0.038134 0.083695
O O1 0.750000 0.137180 0.993149
O O2 0.010360 0.155651 0.944284
O O3 0.903475 0.029910 0.957653
O O4 0.983978 0.096489 0.054038
O O5 0.250000 0.678914 0.494523
O O6 0.021776 0.750000 0.530724
O O7 0.050613 0.615157 0.560537
O O8 0.006889 0.648626 0.446883
O O9 0.250000 0.023279 0.696424
O O10 0.059351 0.122332 0.668135
O O11 0.979308 0.024584 0.739313
O O12 0.023010 0.997818 0.623002
O O13 0.250000 0.936724 0.194439
O O14 0.998319 0.878180 0.174089
O O15 0.032082 0.013004 0.150097
O O16 0.750000 0.827247 0.410112
O O17 0.534043 0.750000 0.366420
O O18 0.750000 0.848621 0.120696
O O19 0.553412 0.750000 0.140261
O O20 0.750000 0.013943 0.448933
O O21 0.500000 0.000000 0.500000
O O22 0.250000 0.071235 0.088840
#
# Coordination Sequence:
#
# PCOD8240762 Si02
#       8
#     8   8   8   8   8   8   8   8
#     4   9  16  26  45  71  94 119 152 192 233 269
#     4   9  17  29  46  68  92 117 147 187 236 288
#     4  10  20  32  45  65  93 125 162 201 244 298
#     4  10  21  34  48  67  92 125 163 203 241 281
#     4   9  17  29  44  62  87 119 153 189 231 284
#     4  10  20  33  49  69  97 134 168 196 230 274
#     4  10  19  31  48  70  95 122 155 199 250 299
#     4   8  15  28  44  64  90 117 149 190 235 278
#
# _framework density 16.621867999999999
#
# number of rings (size 3 to 8) (size 9 to 14) (size 15 to 20)
#    0.000    2.625    1.250    1.875    0.000    6.000 
#    0.000    1.250    0.000    0.000    0.000    0.875 
#    0.000    3.000    0.000    0.000    0.000    0.000 
#
# Total GULP energy -793229.241556 kJ/mol
# GULP energy per Si atom -12394.206899 kJ/mol
# Density = 1.658404 g / cm^3
# Si number density = 16.621868 Si / 1000 Ang^3
#
#
#
# Elastic Constant Matrix: (Units=GPa)
#
#
# Indices 1 2 3 4 5 6 
#
# 1 75.8281 28.5390 49.3797 0.0000 0.0000 0.0000
# 2 28.5390 44.2961 44.9417 0.0000 0.0000 0.0000
# 3 49.3797 44.9417 119.8106 0.0000 0.0000 0.0000
# 4 0.0000 0.0000 0.0000 17.2363 0.0000 0.0000
# 5 0.0000 0.0000 0.0000 0.0000 28.3048 0.0000
# 6 0.0000 0.0000 0.0000 0.0000 0.0000 18.3045
#
#
#
# Elastic Compliance Matrix: (Units=1/GPa)
#
#
# Indices 1 2 3 4 5 6 
#
# 1 0.019298 -0.007045 -0.005311 0.000000 0.000000 0.000000
# 2 -0.007045 0.039017 -0.011732 0.000000 0.000000 0.000000
# 3 -0.005311 -0.011732 0.014936 0.000000 0.000000 0.000000
# 4 0.000000 0.000000 0.000000 0.058017 0.000000 0.000000
# 5 0.000000 0.000000 0.000000 0.000000 0.035330 0.000000
# 6 0.000000 0.000000 0.000000 0.000000 0.000000 0.054631
#
#
# Mechanical properties :
#
#
# Convention : Reuss Voigt Hill
#
# Bulk Modulus (GPa) = 39.87962 53.96174 46.92068
# Shear Modulus (GPa) = 18.00095 20.57408 19.28752
#
# Velocity S-wave (km/s) = 3.29442 3.52202 3.41012
# Velocity P-wave (km/s) = 6.20607 7.00530 6.61776
#
# Compressibility (1/GPa) = 0.02507546
#
# Stress axis : x y z
#
# Youngs Moduli (GPa) = 51.81990 25.62974 66.95135
#
# Poissons Ratio (x) = 0.18055 0.35558
# Poissons Ratio (y) = 0.36505 0.78548
# Poissons Ratio (z) = 0.27521 0.30069
#
# Static dielectric constant tensor:
#      x y z
#    x 3.252010 0.000000 0.000000 
#    y 0.000000 3.231040 0.000000 
#    z 0.000000 0.000000 3.046020 
# 
# 
# High freq. dielectric constant tensor:
#      x y z
#    x 1.646180 0.000000 0.000000 
#    y 0.000000 1.619470 0.000000 
#    z 0.000000 0.000000 1.618000 
# 
# From -- ./inp_files/29675.got.cif
#   From: 2010.03.12/outbox.cif.g09.slc.cpg/sg59_15_cif.got.tgz:29675.got - 2010.04.16 16:29:54.
