data_PCOD8240708
_publ_section_title
;
Structure prediction by ZEFSAII (Michael W. Deem and Ramdas Pophale) SiO2 
 PCOD8240708
Probable space group: P M M N
;
_chemical_formula_sum "Si O2"
_cell_formula_units_Z 64
_cell_length_a 9.307539
_cell_length_b 24.698886
_cell_length_c 15.639039
_cell_angle_alpha 90.000000
_cell_angle_beta 90.000000
_cell_angle_gamma 90.000000
_cell_volume 3595.193691
_symmetry_space_group_name_H-M "P M M N"
_symmetry_group_IT_number 59
_space_group.IT_coordinate_system_code '2'
_symmetry_cell_setting 'orthorhombic'
loop_
_space_group_symop_operation_xyz
x,y,z
1/2-x,1/2-y,z
1/2+x,-y,-z
-x,1/2+y,-z
-x,-y,-z
1/2+x,1/2+y,-z
1/2-x,y,z
x,1/2-y,z
loop_
_atom_site_type_symbol
_atom_site_label
_atom_site_fract_x
_atom_site_fract_y
_atom_site_fract_z
Si Si1 0.084264 0.090100 0.718437
Si Si2 0.080352 0.189187 0.131204
Si Si3 0.593593 0.687835 0.680842
Si Si4 0.916583 0.551306 0.469786
Si Si5 0.918458 0.578296 0.946466
Si Si6 0.581774 0.978858 0.121723
Si Si7 0.582665 0.151378 0.473682
Si Si8 0.915443 0.310401 0.660479
O O1 0.250000 0.103819 0.733101
O O2 0.056654 0.058761 0.630589
O O3 0.025637 0.051996 0.793798
O O4 0.004645 0.147687 0.717167
O O5 0.250000 0.194427 0.123469
O O6 0.015098 0.250000 0.110165
O O7 0.038570 0.167355 0.226348
O O8 0.026786 0.140525 0.068213
O O9 0.750000 0.661445 0.655507
O O10 0.623442 0.750000 0.695782
O O11 0.470328 0.682406 0.610022
O O12 0.750000 0.546404 0.492312
O O13 0.000000 0.500000 0.500000
O O14 0.985368 0.598713 0.524510
O O15 0.750000 0.573687 0.925892
O O16 0.999530 0.535882 0.884739
O O17 0.953259 0.561523 0.043572
O O18 0.750000 0.992098 0.127496
O O19 0.750000 0.136729 0.464316
O O20 0.552851 0.185912 0.559033
O O21 0.750000 0.323054 0.678108
O O22 0.957568 0.250000 0.689904
#
# Coordination Sequence:
#
# PCOD8240708 Si02
#       8
#     8   8   8   8   8   8   8   8
#     4   9  19  34  50  70  97 127 158 197 244 288
#     4   8  15  29  48  71  99 127 157 195 236 282
#     4   9  17  29  45  66  93 123 154 190 231 274
#     4  10  20  34  49  66  92 125 160 196 237 285
#     4   9  17  31  53  76  95 123 160 192 232 287
#     4   9  18  33  51  73 100 124 154 199 242 280
#     4  10  19  31  47  67  92 123 160 199 237 278
#     4   9  18  32  49  69  94 125 161 200 240 283
#
# _framework density 17.801545000000001
#
# number of rings (size 3 to 8) (size 9 to 14) (size 15 to 20)
#    0.000    2.875    0.000    1.875    0.000    3.500 
#    0.000    3.750    0.000    3.375    0.000    0.000 
#    0.000    0.000    0.000    0.000    0.000    0.000 
#
# Total GULP energy -793164.033130 kJ/mol
# GULP energy per Si atom -12393.188018 kJ/mol
# Density = 1.776103 g / cm^3
# Si number density = 17.801545 Si / 1000 Ang^3
#
#
#
# Elastic Constant Matrix: (Units=GPa)
#
#
# Indices 1 2 3 4 5 6 
#
# 1 62.0760 43.8022 25.5361 0.0000 0.0000 0.0000
# 2 43.8022 125.4963 44.1191 0.0000 0.0000 0.0000
# 3 25.5361 44.1191 57.2919 0.0000 0.0000 0.0000
# 4 0.0000 0.0000 0.0000 27.2093 0.0000 0.0000
# 5 0.0000 0.0000 0.0000 0.0000 20.5488 0.0000
# 6 0.0000 0.0000 0.0000 0.0000 0.0000 30.5198
#
#
#
# Elastic Compliance Matrix: (Units=1/GPa)
#
#
# Indices 1 2 3 4 5 6 
#
# 1 0.022559 -0.005950 -0.005473 0.000000 0.000000 0.000000
# 2 -0.005950 0.012496 -0.006971 0.000000 0.000000 0.000000
# 3 -0.005473 -0.006971 0.025262 0.000000 0.000000 0.000000
# 4 0.000000 0.000000 0.000000 0.036752 0.000000 0.000000
# 5 0.000000 0.000000 0.000000 0.000000 0.048665 0.000000
# 6 0.000000 0.000000 0.000000 0.000000 0.000000 0.032766
#
#
# Mechanical properties :
#
#
# Convention : Reuss Voigt Hill
#
# Bulk Modulus (GPa) = 42.50012 52.41988 47.46000
# Shear Modulus (GPa) = 22.40853 24.41604 23.41229
#
# Velocity S-wave (km/s) = 3.55180 3.70749 3.63048
# Velocity P-wave (km/s) = 6.38331 6.91650 6.65525
#
# Compressibility (1/GPa) = 0.02352934
#
# Stress axis : x y z
#
# Youngs Moduli (GPa) = 44.32810 80.02833 39.58522
#
# Poissons Ratio (x) = 0.47614 0.21666
# Poissons Ratio (y) = 0.26374 0.27594
# Poissons Ratio (z) = 0.24262 0.55785
#
# Static dielectric constant tensor:
#      x y z
#    x 3.171950 0.000000 0.000000 
#    y 0.000000 8.919820 0.000000 
#    z 0.000000 0.000000 1.289100 
# 
# 
# High freq. dielectric constant tensor:
#      x y z
#    x 1.675190 0.000000 0.000000 
#    y 0.000000 1.690120 0.000000 
#    z 0.000000 0.000000 1.676170 
# 
# From -- ./inp_files/21416.got.cif
#   From: 2010.03.12/outbox.cif.g09.slc.cpg/sg59_11_cif.got.tgz:21416.got - 2010.04.16 16:29:54.
