data_PCOD8240428
_publ_section_title
;
Structure prediction by ZEFSAII (Michael W. Deem and Ramdas Pophale) SiO2 
 PCOD8240428
Probable space group: P M M N
;
_chemical_formula_sum "Si O2"
_cell_formula_units_Z 64
_cell_length_a 24.850788
_cell_length_b 9.003387
_cell_length_c 18.372134
_cell_angle_alpha 90.000000
_cell_angle_beta 90.000000
_cell_angle_gamma 90.000000
_cell_volume 4110.604440
_symmetry_space_group_name_H-M "P M M N"
_symmetry_group_IT_number 59
_space_group.IT_coordinate_system_code '2'
_symmetry_cell_setting 'orthorhombic'
loop_
_space_group_symop_operation_xyz
x,y,z
1/2-x,1/2-y,z
1/2+x,-y,-z
-x,1/2+y,-z
-x,-y,-z
1/2+x,1/2+y,-z
1/2-x,y,z
x,1/2-y,z
loop_
_atom_site_type_symbol
_atom_site_label
_atom_site_fract_x
_atom_site_fract_y
_atom_site_fract_z
Si Si1 0.391728 0.075384 0.818351
Si Si2 0.189446 0.420293 0.573271
Si Si3 0.040963 0.916114 0.100665
Si Si4 0.579953 0.920368 0.498322
Si Si5 0.001187 0.573781 0.765310
Si Si6 0.076059 0.085016 0.970731
Si Si7 0.011215 0.922147 0.385822
Si Si8 0.312254 0.916131 0.721256
O O1 0.403425 0.250000 0.808514
O O2 0.385236 0.035555 0.904219
O O3 0.439506 0.986200 0.780454
O O4 0.337270 0.027258 0.779832
O O5 0.250000 0.450926 0.542123
O O6 0.184801 0.250000 0.599803
O O7 0.143513 0.453077 0.513371
O O8 0.176802 0.526029 0.640520
O O9 0.058797 0.750000 0.121120
O O10 0.983055 0.919412 0.063631
O O11 0.040638 0.013496 0.174024
O O12 0.082835 0.979839 0.040868
O O13 0.570578 0.750000 0.522508
O O14 0.546517 0.951266 0.424093
O O15 0.559516 0.029474 0.560981
O O16 0.000920 0.750000 0.768245
O O17 0.983120 0.519327 0.686330
O O18 0.089933 0.250000 0.997859
O O19 0.018354 0.750000 0.365787
O O20 0.250000 0.914842 0.739446
O O21 0.336513 0.750000 0.727469
#
# Coordination Sequence:
#
# PCOD8240428 Si02
#       8
#     8   8   8   8   8   8   8   8
#     4  10  19  30  44  61  83 113 148 181 213 255
#     4   9  17  30  48  66  85 113 147 182 220 261
#     4   9  16  26  40  58  82 110 139 170 203 242
#     4   9  18  31  45  62  85 112 144 181 219 261
#     4  11  20  29  43  62  86 114 144 178 215 254
#     4   8  15  26  39  57  80 107 139 172 205 240
#     4  10  19  30  44  62  86 116 148 180 216 261
#     4  10  20  31  43  62  87 113 144 182 219 254
#
# _framework density 15.569485
#
# number of rings (size 3 to 8) (size 9 to 14) (size 15 to 20)
#    0.000    2.500    0.000    4.125    0.000    6.250 
#    0.000    0.000    0.000    0.000    0.000    0.000 
#    0.000    1.000    0.000    5.250    0.000    4.375 
#
# Total GULP energy -793411.067589 kJ/mol
# GULP energy per Si atom -12397.047931 kJ/mol
# Density = 1.553405 g / cm^3
# Si number density = 15.569485 Si / 1000 Ang^3
#
#
#
# Elastic Constant Matrix: (Units=GPa)
#
#
# Indices 1 2 3 4 5 6 
#
# 1 58.3826 30.0476 33.4509 0.0000 0.0000 0.0000
# 2 30.0476 106.7747 54.9252 0.0000 0.0000 0.0000
# 3 33.4509 54.9252 90.7960 0.0000 0.0000 0.0000
# 4 0.0000 0.0000 0.0000 30.5320 0.0000 0.0000
# 5 0.0000 0.0000 0.0000 0.0000 20.9235 0.0000
# 6 0.0000 0.0000 0.0000 0.0000 0.0000 18.2780
#
#
#
# Elastic Compliance Matrix: (Units=1/GPa)
#
#
# Indices 1 2 3 4 5 6 
#
# 1 0.022347 -0.002981 -0.006429 0.000000 0.000000 0.000000
# 2 -0.002981 0.013994 -0.007367 0.000000 0.000000 0.000000
# 3 -0.006429 -0.007367 0.017839 0.000000 0.000000 0.000000
# 4 0.000000 0.000000 0.000000 0.032753 0.000000 0.000000
# 5 0.000000 0.000000 0.000000 0.000000 0.047793 0.000000
# 6 0.000000 0.000000 0.000000 0.000000 0.000000 0.054711
#
#
# Mechanical properties :
#
#
# Convention : Reuss Voigt Hill
#
# Bulk Modulus (GPa) = 48.48698 54.75563 51.62131
# Shear Modulus (GPa) = 21.75177 23.11533 22.43355
#
# Velocity S-wave (km/s) = 3.74180 3.85730 3.79999
# Velocity P-wave (km/s) = 7.06244 7.42181 7.24435
#
# Compressibility (1/GPa) = 0.02062409
#
# Stress axis : x y z
#
# Youngs Moduli (GPa) = 44.74964 71.45856 56.05697
#
# Poissons Ratio (x) = 0.21304 0.36041
# Poissons Ratio (y) = 0.13341 0.41298
# Poissons Ratio (z) = 0.28771 0.52644
#
# Static dielectric constant tensor:
#      x y z
#    x 2.757980 0.000000 0.000000 
#    y 0.000000 3.156110 0.000000 
#    z 0.000000 0.000000 2.986300 
# 
# 
# High freq. dielectric constant tensor:
#      x y z
#    x 1.553020 0.000000 0.000000 
#    y 0.000000 1.612710 0.000000 
#    z 0.000000 0.000000 1.588590 
# 
# From -- ./inp_files/31070.got.cif
#   From: 2010.03.12/outbox.cif.g09.slc.cpg/sg59_16_cif.got.tgz:31070.got - 2010.04.16 16:29:54.
