data_PCOD8240731
_publ_section_title
;
Structure prediction by ZEFSAII (Michael W. Deem and Ramdas Pophale) SiO2 
 PCOD8240731
Probable space group: P M M N
;
_chemical_formula_sum "Si O2"
_cell_formula_units_Z 48
_cell_length_a 31.525215
_cell_length_b 9.043072
_cell_length_c 9.200086
_cell_angle_alpha 90.000000
_cell_angle_beta 90.000000
_cell_angle_gamma 90.000000
_cell_volume 2622.804577
_symmetry_space_group_name_H-M "P M M N"
_symmetry_group_IT_number 59
_space_group.IT_coordinate_system_code '2'
_symmetry_cell_setting 'orthorhombic'
loop_
_space_group_symop_operation_xyz
x,y,z
1/2-x,1/2-y,z
1/2+x,-y,-z
-x,1/2+y,-z
-x,-y,-z
1/2+x,1/2+y,-z
1/2-x,y,z
x,1/2-y,z
loop_
_atom_site_type_symbol
_atom_site_label
_atom_site_fract_x
_atom_site_fract_y
_atom_site_fract_z
Si Si1 0.092815 0.424098 0.839830
Si Si2 0.332758 0.926041 0.668969
Si Si3 0.909191 0.076355 0.848602
Si Si4 0.998975 0.580946 0.149311
Si Si5 0.331072 0.574548 0.340080
Si Si6 0.250000 0.926549 0.166870
Si Si7 0.750000 0.425718 0.161470
O O1 0.102463 0.250000 0.843538
O O2 0.125298 0.504961 0.735725
O O3 0.045541 0.458939 0.771055
O O4 0.096460 0.487075 0.002527
O O5 0.336522 0.750000 0.676328
O O6 0.328664 0.984433 0.504300
O O7 0.291775 0.983994 0.756430
O O8 0.902671 0.250000 0.883437
O O9 0.874411 0.018820 0.734473
O O10 0.955712 0.046991 0.772590
O O11 0.996968 0.750000 0.106093
O O12 0.000000 0.500000 0.000000
O O13 0.329121 0.750000 0.341310
O O14 0.291363 0.511465 0.249242
O O15 0.250000 0.750000 0.165486
O O16 0.250000 0.987999 0.002473
O O17 0.750000 0.250000 0.161706
#
# Coordination Sequence:
#
# PCOD8240731 Si02
#       7
#     8   8   8   8   8   4   4
#     4  10  19  31  47  70  97 126 159 199 241 282
#     4  10  19  32  49  71  97 126 156 190 233 284
#     4   9  16  30  51  72  93 124 164 203 237 278
#     4   8  15  27  45  67  92 121 158 200 239 274
#     4   9  17  28  46  71  98 123 152 191 236 281
#     4   9  15  25  43  71  98 117 144 192 242 277
#     4   9  17  29  50  75  96 119 154 196 236 277
#
# _framework density 18.301020000000001
#
# number of rings (size 3 to 8) (size 9 to 14) (size 15 to 20)
#    0.000    2.833    0.000    2.000    0.000    5.333 
#    0.000    2.083    0.000    0.000    0.000    1.167 
#    0.000    0.000    0.000    0.000    0.000    0.000 
#
# Total GULP energy -594692.110873 kJ/mol
# GULP energy per Si atom -12389.418977 kJ/mol
# Density = 1.825937 g / cm^3
# Si number density = 18.301020 Si / 1000 Ang^3
#
#
#
# Elastic Constant Matrix: (Units=GPa)
#
#
# Indices 1 2 3 4 5 6 
#
# 1 207.1399 30.0912 95.4679 0.0000 0.0000 0.0000
# 2 30.0912 23.8495 19.7618 0.0000 0.0000 0.0000
# 3 95.4679 19.7618 136.3237 0.0000 0.0000 0.0000
# 4 0.0000 0.0000 0.0000 10.5405 0.0000 0.0000
# 5 0.0000 0.0000 0.0000 0.0000 13.0320 0.0000
# 6 0.0000 0.0000 0.0000 0.0000 0.0000 22.4895
#
#
#
# Elastic Compliance Matrix: (Units=1/GPa)
#
#
# Indices 1 2 3 4 5 6 
#
# 1 0.007831 -0.006065 -0.004605 0.000000 0.000000 0.000000
# 2 -0.006065 0.052351 -0.003342 0.000000 0.000000 0.000000
# 3 -0.004605 -0.003342 0.011045 0.000000 0.000000 0.000000
# 4 0.000000 0.000000 0.000000 0.094872 0.000000 0.000000
# 5 0.000000 0.000000 0.000000 0.000000 0.076734 0.000000
# 6 0.000000 0.000000 0.000000 0.000000 0.000000 0.044465
#
#
# Mechanical properties :
#
#
# Convention : Reuss Voigt Hill
#
# Bulk Modulus (GPa) = 23.14626 73.10609 48.12617
# Shear Modulus (GPa) = 15.16430 24.01190 19.58810
#
# Velocity S-wave (km/s) = 2.88167 3.62616 3.27514
# Velocity P-wave (km/s) = 4.87309 7.58717 6.37621
#
# Compressibility (1/GPa) = 0.04320352
#
# Stress axis : x y z
#
# Youngs Moduli (GPa) = 127.69700 19.10200 90.54092
#
# Poissons Ratio (x) = 0.11585 0.41693
# Poissons Ratio (y) = 0.77446 0.30255
# Poissons Ratio (z) = 0.58803 0.06383
#
# Static dielectric constant tensor:
#      x y z
#    x 4.161400 0.000000 0.000000 
#    y 0.000000 2.958370 0.000000 
#    z 0.000000 0.000000 3.252120 
# 
# 
# High freq. dielectric constant tensor:
#      x y z
#    x 1.740340 0.000000 0.000000 
#    y 0.000000 1.668930 0.000000 
#    z 0.000000 0.000000 1.684870 
# 
# From -- ./inp_files/6349.got.cif
#   From: 2010.03.12/outbox.cif.g09.slc.cpg/sg59_4_cif.got.tgz:6349.got - 2010.04.16 16:29:54.
