data_PCOD8240875
_publ_section_title
;
Structure prediction by ZEFSAII (Michael W. Deem and Ramdas Pophale) SiO2 
 PCOD8240875
Probable space group: P M M N
;
_chemical_formula_sum "Si O2"
_cell_formula_units_Z 64
_cell_length_a 9.324112
_cell_length_b 19.165632
_cell_length_c 20.030280
_cell_angle_alpha 90.000000
_cell_angle_beta 90.000000
_cell_angle_gamma 90.000000
_cell_volume 3579.461098
_symmetry_space_group_name_H-M "P M M N"
_symmetry_group_IT_number 59
_space_group.IT_coordinate_system_code '2'
_symmetry_cell_setting 'orthorhombic'
loop_
_space_group_symop_operation_xyz
x,y,z
1/2-x,1/2-y,z
1/2+x,-y,-z
-x,1/2+y,-z
-x,-y,-z
1/2+x,1/2+y,-z
1/2-x,y,z
x,1/2-y,z
loop_
_atom_site_type_symbol
_atom_site_label
_atom_site_fract_x
_atom_site_fract_y
_atom_site_fract_z
Si Si1 0.919305 0.039655 0.273917
Si Si2 0.918715 0.886145 0.239200
Si Si3 0.910188 0.592356 0.459947
Si Si4 0.581215 0.576303 0.093924
Si Si5 0.589208 0.432508 0.418721
Si Si6 0.920519 0.077676 0.128792
Si Si7 0.089326 0.671424 0.350592
Si Si8 0.919750 0.830930 0.971722
O O1 0.750000 0.036564 0.278702
O O2 0.976365 0.073218 0.343242
O O3 0.964179 0.081880 0.207287
O O4 0.972008 0.960406 0.267711
O O5 0.750000 0.873419 0.250820
O O6 0.958521 0.881943 0.161115
O O7 0.011223 0.829190 0.278526
O O8 0.750000 0.623870 0.462311
O O9 0.903171 0.511417 0.443348
O O10 0.984836 0.608744 0.531219
O O11 0.999699 0.627375 0.402282
O O12 0.750000 0.571226 0.087804
O O13 0.524390 0.496234 0.097181
O O14 0.519491 0.621225 0.032359
O O15 0.750000 0.400273 0.421488
O O16 0.750000 0.085505 0.119912
O O17 0.001404 0.141970 0.094493
O O18 0.250000 0.640698 0.344691
O O19 0.094862 0.750000 0.376437
O O20 0.750000 0.839674 0.962985
O O21 0.959677 0.750000 0.984251
#
# Coordination Sequence:
#
# PCOD8240875 Si02
#       8
#     8   8   8   8   8   8   8   8
#     4   8  14  28  50  75 100 123 152 197 249 295
#     4   9  16  31  52  73  94 121 163 204 240 289
#     4  10  19  31  49  73  97 126 165 201 236 285
#     4   8  16  31  53  76  99 129 166 209 253 300
#     4   9  16  29  50  74 101 125 149 196 253 294
#     4   9  17  31  53  76  98 128 168 212 250 294
#     4  11  23  35  46  65  99 138 169 200 241 288
#     4  10  20  33  48  70 103 137 168 206 254 306
#
# _framework density 17.879787
#
# number of rings (size 3 to 8) (size 9 to 14) (size 15 to 20)
#    0.000    2.750    1.250    2.625    0.000    2.250 
#    0.000    5.000    0.000    0.750    0.000    1.750 
#    0.000    0.000    0.000    0.000    0.000    0.000 
#
# Total GULP energy -793181.408089 kJ/mol
# GULP energy per Si atom -12393.459501 kJ/mol
# Density = 1.783909 g / cm^3
# Si number density = 17.879787 Si / 1000 Ang^3
#
#
#
# Elastic Constant Matrix: (Units=GPa)
#
#
# Indices 1 2 3 4 5 6 
#
# 1 74.7958 21.5857 39.0298 0.0000 0.0000 0.0000
# 2 21.5857 41.4151 24.0307 0.0000 0.0000 0.0000
# 3 39.0298 24.0307 122.2436 0.0000 0.0000 0.0000
# 4 0.0000 0.0000 0.0000 6.6621 0.0000 0.0000
# 5 0.0000 0.0000 0.0000 0.0000 28.5964 0.0000
# 6 0.0000 0.0000 0.0000 0.0000 0.0000 18.6730
#
#
#
# Elastic Compliance Matrix: (Units=1/GPa)
#
#
# Indices 1 2 3 4 5 6 
#
# 1 0.017526 -0.006646 -0.004289 0.000000 0.000000 0.000000
# 2 -0.006646 0.029775 -0.003731 0.000000 0.000000 0.000000
# 3 -0.004289 -0.003731 0.010283 0.000000 0.000000 0.000000
# 4 0.000000 0.000000 0.000000 0.150102 0.000000 0.000000
# 5 0.000000 0.000000 0.000000 0.000000 0.034969 0.000000
# 6 0.000000 0.000000 0.000000 0.000000 0.000000 0.053553
#
#
# Mechanical properties :
#
#
# Convention : Reuss Voigt Hill
#
# Bulk Modulus (GPa) = 35.39655 45.30521 40.35088
# Shear Modulus (GPa) = 14.92723 21.04019 17.98371
#
# Velocity S-wave (km/s) = 2.89254 3.43411 3.17489
# Velocity P-wave (km/s) = 5.56737 6.41233 6.00473
#
# Compressibility (1/GPa) = 0.02825134
#
# Stress axis : x y z
#
# Youngs Moduli (GPa) = 57.05857 33.58567 97.24471
#
# Poissons Ratio (x) = 0.22320 0.41710
# Poissons Ratio (y) = 0.37920 0.36285
# Poissons Ratio (z) = 0.24474 0.12532
#
# Static dielectric constant tensor:
#      x y z
#    x 3.196020 0.000000 0.000000 
#    y 0.000000 3.076830 0.000000 
#    z 0.000000 0.000000 3.772050 
# 
# 
# High freq. dielectric constant tensor:
#      x y z
#    x 1.668850 0.000000 0.000000 
#    y 0.000000 1.654010 0.000000 
#    z 0.000000 0.000000 1.705870 
# 
# From -- ./inp_files/29560.got.cif
#   From: 2010.03.12/outbox.cif.g09.slc.cpg/sg59_15_cif.got.tgz:29560.got - 2010.04.16 16:29:54.
