data_PCOD8240438
_publ_section_title
;
Structure prediction by ZEFSAII (Michael W. Deem and Ramdas Pophale) SiO2 
 PCOD8240438
Probable space group: P M M N
;
_chemical_formula_sum "Si O2"
_cell_formula_units_Z 64
_cell_length_a 31.535168
_cell_length_b 8.781575
_cell_length_c 12.356744
_cell_angle_alpha 90.000000
_cell_angle_beta 90.000000
_cell_angle_gamma 90.000000
_cell_volume 3421.933876
_symmetry_space_group_name_H-M "P M M N"
_symmetry_group_IT_number 59
_space_group.IT_coordinate_system_code '2'
_symmetry_cell_setting 'orthorhombic'
loop_
_space_group_symop_operation_xyz
x,y,z
1/2-x,1/2-y,z
1/2+x,-y,-z
-x,1/2+y,-z
-x,-y,-z
1/2+x,1/2+y,-z
1/2-x,y,z
x,1/2-y,z
loop_
_atom_site_type_symbol
_atom_site_label
_atom_site_fract_x
_atom_site_fract_y
_atom_site_fract_z
Si Si1 0.363478 0.573556 0.128657
Si Si2 0.515403 0.083807 0.307409
Si Si3 0.379862 0.427316 0.909397
Si Si4 0.534393 0.416454 0.066065
Si Si5 0.360578 0.429178 0.470567
Si Si6 0.610615 0.068907 0.315777
Si Si7 0.427207 0.928347 0.312447
Si Si8 0.298621 0.927626 0.312711
O O1 0.363162 0.750000 0.099159
O O2 0.407611 0.531804 0.193101
O O3 0.324035 0.528813 0.204531
O O4 0.355254 0.484461 0.016467
O O5 0.508748 0.250000 0.364694
O O6 0.514702 0.113817 0.181318
O O7 0.561710 0.012490 0.336553
O O8 0.476387 0.971113 0.331907
O O9 0.371589 0.250000 0.893841
O O10 0.428137 0.463819 0.934219
O O11 0.368398 0.510095 0.796381
O O12 0.547853 0.250000 0.017079
O O13 0.500000 0.500000 0.000000
O O14 0.362149 0.250000 0.486057
O O15 0.360556 0.507752 0.587836
O O16 0.400972 0.482364 0.402343
O O17 0.316934 0.477529 0.413195
O O18 0.610285 0.250000 0.309506
O O19 0.421551 0.750000 0.334468
O O20 0.250000 0.973052 0.295096
O O21 0.304491 0.750000 0.339295
#
# Coordination Sequence:
#
# PCOD8240438 Si02
#       8
#     8   8   8   8   8   8   8   8
#     4   9  18  33  53  79 109 140 174 212 258 314
#     4   9  19  32  46  67  96 133 179 230 277 315
#     4  11  21  32  49  74 104 139 177 216 263 315
#     4  10  19  30  44  64  93 132 178 225 269 311
#     4  11  22  36  56  81 109 139 175 221 270 319
#     4  10  21  38  55  72 102 144 189 231 268 314
#     4  10  20  33  51  74 103 141 183 226 272 321
#     4   9  19  38  64  90 113 138 169 206 254 316
#
# _framework density 18.702874999999999
#
# number of rings (size 3 to 8) (size 9 to 14) (size 15 to 20)
#    0.000    2.125    0.000    5.625    0.000    8.250 
#    0.000    0.000    0.000    0.750    0.000    1.750 
#    0.000    0.000    0.000    0.000    0.000    0.000 
#
# Total GULP energy -793161.239640 kJ/mol
# GULP energy per Si atom -12393.144369 kJ/mol
# Density = 1.866031 g / cm^3
# Si number density = 18.702875 Si / 1000 Ang^3
#
#
#
# Elastic Constant Matrix: (Units=GPa)
#
#
# Indices 1 2 3 4 5 6 
#
# 1 49.1289 20.6932 49.3908 0.0000 0.0000 0.0000
# 2 20.6932 92.2903 50.4856 0.0000 0.0000 0.0000
# 3 49.3908 50.4856 120.1842 0.0000 0.0000 0.0000
# 4 0.0000 0.0000 0.0000 29.4168 0.0000 0.0000
# 5 0.0000 0.0000 0.0000 0.0000 13.1728 0.0000
# 6 0.0000 0.0000 0.0000 0.0000 0.0000 22.9686
#
#
#
# Elastic Compliance Matrix: (Units=1/GPa)
#
#
# Indices 1 2 3 4 5 6 
#
# 1 0.034685 0.000026 -0.014265 0.000000 0.000000 0.000000
# 2 0.000026 0.014068 -0.005920 0.000000 0.000000 0.000000
# 3 -0.014265 -0.005920 0.016670 0.000000 0.000000 0.000000
# 4 0.000000 0.000000 0.000000 0.033994 0.000000 0.000000
# 5 0.000000 0.000000 0.000000 0.000000 0.075914 0.000000
# 6 0.000000 0.000000 0.000000 0.000000 0.000000 0.043538
#
#
# Mechanical properties :
#
#
# Convention : Reuss Voigt Hill
#
# Bulk Modulus (GPa) = 39.83346 55.86030 47.84688
# Shear Modulus (GPa) = 18.68778 22.51390 20.60084
#
# Velocity S-wave (km/s) = 3.16443 3.47330 3.32246
# Velocity P-wave (km/s) = 5.89031 6.78359 6.35267
#
# Compressibility (1/GPa) = 0.02510452
#
# Stress axis : x y z
#
# Youngs Moduli (GPa) = 28.83124 71.08280 59.98819
#
# Poissons Ratio (x) = -0.00188 0.85574
# Poissons Ratio (y) = -0.00076 0.35516
# Poissons Ratio (z) = 0.41128 0.42084
#
# Static dielectric constant tensor:
#      x y z
#    x 3.224890 0.000000 0.000000 
#    y 0.000000 3.344120 0.000000 
#    z 0.000000 0.000000 3.548540 
# 
# 
# High freq. dielectric constant tensor:
#      x y z
#    x 1.691150 0.000000 0.000000 
#    y 0.000000 1.730040 0.000000 
#    z 0.000000 0.000000 1.729290 
# 
# From -- ./inp_files/19240.got.cif
#   From: 2010.03.12/outbox.cif.g09.slc.cpg/sg59_10_cif.got.tgz:19240.got - 2010.04.16 16:29:54.
