data_PCOD8240342
_publ_section_title
;
Structure prediction by ZEFSAII (Michael W. Deem and Ramdas Pophale) SiO2 
 PCOD8240342
Probable space group: P M M N
;
_chemical_formula_sum "Si O2"
_cell_formula_units_Z 56
_cell_length_a 9.122375
_cell_length_b 19.321277
_cell_length_c 18.157748
_cell_angle_alpha 90.000000
_cell_angle_beta 90.000000
_cell_angle_gamma 90.000000
_cell_volume 3200.410838
_symmetry_space_group_name_H-M "P M M N"
_symmetry_group_IT_number 59
_space_group.IT_coordinate_system_code '2'
_symmetry_cell_setting 'orthorhombic'
loop_
_space_group_symop_operation_xyz
x,y,z
1/2-x,1/2-y,z
1/2+x,-y,-z
-x,1/2+y,-z
-x,-y,-z
1/2+x,1/2+y,-z
1/2-x,y,z
x,1/2-y,z
loop_
_atom_site_type_symbol
_atom_site_label
_atom_site_fract_x
_atom_site_fract_y
_atom_site_fract_z
Si Si1 0.412516 0.078240 0.654030
Si Si2 0.424086 0.673297 0.078867
Si Si3 0.422249 0.925843 0.204836
Si Si4 0.422601 0.426876 0.494163
Si Si5 0.576962 0.915555 0.791330
Si Si6 0.082488 0.668667 0.913444
Si Si7 0.083444 0.586482 0.645861
O O1 0.250000 0.099664 0.679031
O O2 0.521584 0.104733 0.717231
O O3 0.447596 0.111358 0.573351
O O4 0.423481 0.995969 0.645531
O O5 0.250000 0.675752 0.083673
O O6 0.486798 0.750000 0.096175
O O7 0.489607 0.618894 0.137691
O O8 0.468098 0.650307 0.996481
O O9 0.250000 0.918401 0.205985
O O10 0.471217 0.005135 0.194313
O O11 0.500000 0.500000 0.500000
O O12 0.250000 0.436938 0.478413
O O13 0.497860 0.384959 0.426751
O O14 0.750000 0.909233 0.779963
O O15 0.527825 0.871261 0.860776
O O16 0.497416 0.885454 0.718778
O O17 0.250000 0.644702 0.899361
O O18 0.068075 0.750000 0.899210
O O19 0.250000 0.614094 0.644813
#
# Coordination Sequence:
#
# PCOD8240342 Si02
#       7
#     8   8   8   8   8   8   8
#     4   8  15  25  37  57  87 120 148 178 221 268
#     4   8  15  30  50  68  87 115 152 190 224 261
#     4   9  17  28  44  67  92 118 150 186 224 268
#     4   9  15  23  36  56  84 118 153 186 223 267
#     4  10  19  29  43  67  97 121 144 182 230 275
#     4   9  18  33  51  67  85 115 154 189 221 265
#     4   9  16  26  40  59  85 118 153 185 221 267
#
# _framework density 17.497754
#
# number of rings (size 3 to 8) (size 9 to 14) (size 15 to 20)
#    0.000    3.143    0.000    3.000    0.000    5.429 
#    0.000    0.714    0.000    1.286    0.000    1.000 
#    0.000    3.429    0.000    0.000    0.000    0.000 
#
# Total GULP energy -693989.337212 kJ/mol
# GULP energy per Si atom -12392.666736 kJ/mol
# Density = 1.745793 g / cm^3
# Si number density = 17.497754 Si / 1000 Ang^3
#
#
#
# Elastic Constant Matrix: (Units=GPa)
#
#
# Indices 1 2 3 4 5 6 
#
# 1 71.2186 22.4760 54.8541 0.0000 0.0000 0.0000
# 2 22.4760 32.0148 44.7554 0.0000 0.0000 0.0000
# 3 54.8541 44.7554 161.6682 0.0000 0.0000 0.0000
# 4 0.0000 0.0000 0.0000 1.5589 0.0000 0.0000
# 5 0.0000 0.0000 0.0000 0.0000 33.6818 0.0000
# 6 0.0000 0.0000 0.0000 0.0000 0.0000 12.9607
#
#
#
# Elastic Compliance Matrix: (Units=1/GPa)
#
#
# Indices 1 2 3 4 5 6 
#
# 1 0.020041 -0.007445 -0.004739 0.000000 0.000000 0.000000
# 2 -0.007445 0.053721 -0.012346 0.000000 0.000000 0.000000
# 3 -0.004739 -0.012346 0.011211 0.000000 0.000000 0.000000
# 4 0.000000 0.000000 0.000000 0.641480 0.000000 0.000000
# 5 0.000000 0.000000 0.000000 0.000000 0.029690 0.000000
# 6 0.000000 0.000000 0.000000 0.000000 0.000000 0.077156
#
#
# Mechanical properties :
#
#
# Convention : Reuss Voigt Hill
#
# Bulk Modulus (GPa) = 27.84436 56.56362 42.20399
# Shear Modulus (GPa) = 5.59078 19.16136 12.37607
#
# Velocity S-wave (km/s) = 1.78943 3.31278 2.66239
# Velocity P-wave (km/s) = 4.49634 6.85778 5.79854
#
# Compressibility (1/GPa) = 0.03591391
#
# Stress axis : x y z
#
# Youngs Moduli (GPa) = 49.89819 18.61464 89.19701
#
# Poissons Ratio (x) = 0.13859 0.42269
# Poissons Ratio (y) = 0.37149 1.10121
# Poissons Ratio (z) = 0.23646 0.22981
#
# Static dielectric constant tensor:
#      x y z
#    x 3.161360 0.000000 0.000000 
#    y 0.000000 2.878080 0.000000 
#    z 0.000000 0.000000 3.898850 
# 
# 
# High freq. dielectric constant tensor:
#      x y z
#    x 1.667720 0.000000 0.000000 
#    y 0.000000 1.613490 0.000000 
#    z 0.000000 0.000000 1.698230 
# 
# From -- ./inp_files/26007.got.cif
#   From: 2010.03.12/outbox.cif.g09.slc.cpg/sg59_14_cif.got.tgz:26007.got - 2010.04.16 16:29:54.
