data_PCOD8240654
_publ_section_title
;
Structure prediction by ZEFSAII (Michael W. Deem and Ramdas Pophale) SiO2 
 PCOD8240654
Probable space group: P M M N
;
_chemical_formula_sum "Si O2"
_cell_formula_units_Z 64
_cell_length_a 29.487876
_cell_length_b 11.423839
_cell_length_c 10.107800
_cell_angle_alpha 90.000000
_cell_angle_beta 90.000000
_cell_angle_gamma 90.000000
_cell_volume 3404.961499
_symmetry_space_group_name_H-M "P M M N"
_symmetry_group_IT_number 59
_space_group.IT_coordinate_system_code '2'
_symmetry_cell_setting 'orthorhombic'
loop_
_space_group_symop_operation_xyz
x,y,z
1/2-x,1/2-y,z
1/2+x,-y,-z
-x,1/2+y,-z
-x,-y,-z
1/2+x,1/2+y,-z
1/2-x,y,z
x,1/2-y,z
loop_
_atom_site_type_symbol
_atom_site_label
_atom_site_fract_x
_atom_site_fract_y
_atom_site_fract_z
Si Si1 0.106514 0.883106 0.665443
Si Si2 0.955878 0.385155 0.108605
Si Si3 0.201127 0.385087 0.419868
Si Si4 0.954304 0.474710 0.826514
Si Si5 0.198705 0.113979 0.964516
Si Si6 0.801268 0.999691 0.314619
Si Si7 0.531247 0.387368 0.542803
Si Si8 0.635992 0.888988 0.799433
O O1 0.103502 0.750000 0.700694
O O2 0.082546 0.941934 0.794525
O O3 0.159750 0.908561 0.649567
O O4 0.078814 0.911467 0.531527
O O5 0.964886 0.250000 0.139098
O O6 0.001532 0.451436 0.143444
O O7 0.941633 0.398794 0.955526
O O8 0.250000 0.442155 0.382481
O O9 0.203040 0.250000 0.384375
O O10 0.192747 0.398470 0.576177
O O11 0.161589 0.440645 0.330232
O O12 0.961491 0.390956 0.700349
O O13 0.914372 0.564393 0.796886
O O14 0.250000 0.088781 0.012572
O O15 0.191230 0.250000 0.939108
O O16 0.188035 0.050650 0.828135
O O17 0.163991 0.065648 0.073482
O O18 0.750000 0.053691 0.319937
O O19 0.500000 0.500000 0.500000
O O20 0.514339 0.250000 0.511037
O O21 0.633528 0.750000 0.798712
#
# Coordination Sequence:
#
# PCOD8240654 Si02
#       8
#     8   8   8   8   8   8   8   8
#     4  10  21  38  57  77 109 147 183 230 287 338
#     4  10  21  37  56  77 106 145 182 227 285 338
#     4   9  17  30  48  72 104 139 173 216 275 336
#     4  11  21  35  57  81 109 141 184 236 277 339
#     4   9  17  30  48  73 109 149 186 231 288 342
#     4  10  19  32  52  76 104 139 183 229 275 332
#     4  11  23  41  63  87 116 152 193 239 291 350
#     4  10  19  30  49  77 107 142 186 233 280 339
#
# _framework density 18.796101
#
# number of rings (size 3 to 8) (size 9 to 14) (size 15 to 20)
#    0.000    2.000    1.250    3.000    0.000    3.750 
#    0.000    1.250    0.000    0.000    0.000    0.000 
#    0.000   18.000    0.000    0.000    0.000    0.000 
#
# Total GULP energy -792875.359300 kJ/mol
# GULP energy per Si atom -12388.677489 kJ/mol
# Density = 1.875332 g / cm^3
# Si number density = 18.796101 Si / 1000 Ang^3
#
#
#
# Elastic Constant Matrix: (Units=GPa)
#
#
# Indices 1 2 3 4 5 6 
#
# 1 112.4463 31.3148 39.1439 0.0000 0.0000 0.0000
# 2 31.3148 52.7911 27.7776 0.0000 0.0000 0.0000
# 3 39.1439 27.7776 112.3728 0.0000 0.0000 0.0000
# 4 0.0000 0.0000 0.0000 22.2404 0.0000 0.0000
# 5 0.0000 0.0000 0.0000 0.0000 24.9386 0.0000
# 6 0.0000 0.0000 0.0000 0.0000 0.0000 24.1048
#
#
#
# Elastic Compliance Matrix: (Units=1/GPa)
#
#
# Indices 1 2 3 4 5 6 
#
# 1 0.011285 -0.005317 -0.002617 0.000000 0.000000 0.000000
# 2 -0.005317 0.024280 -0.004150 0.000000 0.000000 0.000000
# 3 -0.002617 -0.004150 0.010836 0.000000 0.000000 0.000000
# 4 0.000000 0.000000 0.000000 0.044963 0.000000 0.000000
# 5 0.000000 0.000000 0.000000 0.000000 0.040098 0.000000
# 6 0.000000 0.000000 0.000000 0.000000 0.000000 0.041486
#
#
# Mechanical properties :
#
#
# Convention : Reuss Voigt Hill
#
# Bulk Modulus (GPa) = 44.97563 52.67587 48.82575
# Shear Modulus (GPa) = 24.44672 26.21502 25.33087
#
# Velocity S-wave (km/s) = 3.61033 3.73863 3.67504
# Velocity P-wave (km/s) = 6.43113 6.83536 6.63633
#
# Compressibility (1/GPa) = 0.02223426
#
# Stress axis : x y z
#
# Youngs Moduli (GPa) = 88.61514 41.18600 92.28355
#
# Poissons Ratio (x) = 0.21899 0.24147
# Poissons Ratio (y) = 0.47118 0.38294
# Poissons Ratio (z) = 0.23187 0.17091
#
# Static dielectric constant tensor:
#      x y z
#    x 3.717160 0.000000 0.000000 
#    y 0.000000 3.181820 0.000000 
#    z 0.000000 0.000000 3.904080 
# 
# 
# High freq. dielectric constant tensor:
#      x y z
#    x 1.736140 0.000000 0.000000 
#    y 0.000000 1.694090 0.000000 
#    z 0.000000 0.000000 1.750860 
# 
# From -- ./inp_files/13219.got.cif
#   From: 2010.03.12/outbox.cif.g09.slc.cpg/sg59_7_cif.got.tgz:13219.got - 2010.04.16 16:29:54.
