data_PCOD8240327
_publ_section_title
;
Structure prediction by ZEFSAII (Michael W. Deem and Ramdas Pophale) SiO2 
 PCOD8240327
Probable space group: P M M N
;
_chemical_formula_sum "Si O2"
_cell_formula_units_Z 64
_cell_length_a 9.339236
_cell_length_b 17.810715
_cell_length_c 22.858194
_cell_angle_alpha 90.000000
_cell_angle_beta 90.000000
_cell_angle_gamma 90.000000
_cell_volume 3802.197033
_symmetry_space_group_name_H-M "P M M N"
_symmetry_group_IT_number 59
_space_group.IT_coordinate_system_code '2'
_symmetry_cell_setting 'orthorhombic'
loop_
_space_group_symop_operation_xyz
x,y,z
1/2-x,1/2-y,z
1/2+x,-y,-z
-x,1/2+y,-z
-x,-y,-z
1/2+x,1/2+y,-z
1/2-x,y,z
x,1/2-y,z
loop_
_atom_site_type_symbol
_atom_site_label
_atom_site_fract_x
_atom_site_fract_y
_atom_site_fract_z
Si Si1 0.417336 0.046814 0.867924
Si Si2 0.411610 0.027392 0.364305
Si Si3 0.918457 0.169277 0.183493
Si Si4 0.086057 0.932666 0.472226
Si Si5 0.917533 0.403846 0.064364
Si Si6 0.581744 0.834656 0.042163
Si Si7 0.419936 0.975873 0.751947
Si Si8 0.582963 0.836344 0.551658
O O1 0.250000 0.029762 0.864232
O O2 0.452864 0.128558 0.894266
O O3 0.476478 0.984207 0.913028
O O4 0.473276 0.036512 0.801145
O O5 0.250000 0.040870 0.342762
O O6 0.510767 0.007583 0.309973
O O7 0.462840 0.104001 0.397777
O O8 0.419347 0.951250 0.403240
O O9 0.750000 0.170184 0.192044
O O10 0.985522 0.250000 0.201179
O O11 0.952621 0.155436 0.115440
O O12 0.978748 0.104839 0.225820
O O13 0.250000 0.930712 0.494379
O O14 0.007388 0.855715 0.492530
O O15 0.000000 0.000000 0.500000
O O16 0.750000 0.405175 0.048373
O O17 0.004124 0.381795 0.007261
O O18 0.750000 0.837420 0.029427
O O19 0.523372 0.750000 0.044109
O O20 0.250000 0.977764 0.743735
O O21 0.750000 0.846951 0.536937
O O22 0.549990 0.750000 0.570523
#
# Coordination Sequence:
#
# PCOD8240327 Si02
#       8
#     8   8   8   8   8   8   8   8
#     4   8  16  31  46  62  86 116 149 184 225 267
#     4   9  18  31  46  67  95 123 150 184 227 267
#     4   8  14  25  40  59  84 111 139 176 221 263
#     4   9  17  30  48  69  94 125 158 189 223 265
#     4   9  16  28  47  65  83 111 145 180 219 269
#     4  10  19  29  43  64  89 113 138 178 232 281
#     4   9  17  29  46  63  80 112 156 190 213 252
#     4   9  18  32  49  71 101 130 151 180 227 277
#
# _framework density 16.832374000000002
#
# number of rings (size 3 to 8) (size 9 to 14) (size 15 to 20)
#    0.000    3.125    0.000    3.375    0.000    4.000 
#    0.000    3.125    0.000    1.500    0.000    1.750 
#    0.000    0.000    0.000    0.000    0.000    0.000 
#
# Total GULP energy -792895.604185 kJ/mol
# GULP energy per Si atom -12388.993815 kJ/mol
# Density = 1.679406 g / cm^3
# Si number density = 16.832374 Si / 1000 Ang^3
#
#
#
# Elastic Constant Matrix: (Units=GPa)
#
#
# Indices 1 2 3 4 5 6 
#
# 1 47.3239 22.6774 41.7405 0.0000 0.0000 0.0000
# 2 22.6774 63.5298 43.2805 0.0000 0.0000 0.0000
# 3 41.7405 43.2805 107.8971 0.0000 0.0000 0.0000
# 4 0.0000 0.0000 0.0000 15.4865 0.0000 0.0000
# 5 0.0000 0.0000 0.0000 0.0000 26.9617 0.0000
# 6 0.0000 0.0000 0.0000 0.0000 0.0000 18.7596
#
#
#
# Elastic Compliance Matrix: (Units=1/GPa)
#
#
# Indices 1 2 3 4 5 6 
#
# 1 0.032880 -0.004226 -0.011025 0.000000 0.000000 0.000000
# 2 -0.004226 0.022203 -0.007271 0.000000 0.000000 0.000000
# 3 -0.011025 -0.007271 0.016450 0.000000 0.000000 0.000000
# 4 0.000000 0.000000 0.000000 0.064572 0.000000 0.000000
# 5 0.000000 0.000000 0.000000 0.000000 0.037090 0.000000
# 6 0.000000 0.000000 0.000000 0.000000 0.000000 0.053306
#
#
# Mechanical properties :
#
#
# Convention : Reuss Voigt Hill
#
# Bulk Modulus (GPa) = 37.75209 48.23861 42.99535
# Shear Modulus (GPa) = 17.83333 19.64506 18.73919
#
# Velocity S-wave (km/s) = 3.25848 3.41999 3.34021
# Velocity P-wave (km/s) = 6.05259 6.65699 6.36197
#
# Compressibility (1/GPa) = 0.02648860
#
# Stress axis : x y z
#
# Youngs Moduli (GPa) = 30.41366 45.03928 60.79140
#
# Poissons Ratio (x) = 0.19034 0.67020
# Poissons Ratio (y) = 0.12853 0.44203
# Poissons Ratio (z) = 0.33530 0.32749
#
# Static dielectric constant tensor:
#      x y z
#    x 2.961150 0.000000 0.000000 
#    y 0.000000 3.501650 0.000000 
#    z 0.000000 0.000000 3.166700 
# 
# 
# High freq. dielectric constant tensor:
#      x y z
#    x 1.625080 0.000000 0.000000 
#    y 0.000000 1.638830 0.000000 
#    z 0.000000 0.000000 1.637130 
# 
# From -- ./inp_files/29558.got.cif
#   From: 2010.03.12/outbox.cif.g09.slc.cpg/sg59_15_cif.got.tgz:29558.got - 2010.04.16 16:29:54.
