data_PCOD8240337
_publ_section_title
;
Structure prediction by ZEFSAII (Michael W. Deem and Ramdas Pophale) SiO2 
 PCOD8240337
Probable space group: P M M N
;
_chemical_formula_sum "Si O2"
_cell_formula_units_Z 64
_cell_length_a 9.326343
_cell_length_b 23.547903
_cell_length_c 16.711110
_cell_angle_alpha 90.000000
_cell_angle_beta 90.000000
_cell_angle_gamma 90.000000
_cell_volume 3670.024131
_symmetry_space_group_name_H-M "P M M N"
_symmetry_group_IT_number 59
_space_group.IT_coordinate_system_code '2'
_symmetry_cell_setting 'orthorhombic'
loop_
_space_group_symop_operation_xyz
x,y,z
1/2-x,1/2-y,z
1/2+x,-y,-z
-x,1/2+y,-z
-x,-y,-z
1/2+x,1/2+y,-z
1/2-x,y,z
x,1/2-y,z
loop_
_atom_site_type_symbol
_atom_site_label
_atom_site_fract_x
_atom_site_fract_y
_atom_site_fract_z
Si Si1 0.414848 0.026678 0.830095
Si Si2 0.416009 0.902076 0.854330
Si Si3 0.081165 0.684548 0.417523
Si Si4 0.907807 0.317149 0.403578
Si Si5 0.919081 0.629662 0.277619
Si Si6 0.588578 0.313363 0.855209
Si Si7 0.582778 0.683522 0.747819
Si Si8 0.585033 0.415985 0.964990
O O1 0.250000 0.038689 0.850632
O O2 0.462910 0.067226 0.756470
O O3 0.498940 0.038790 0.912141
O O4 0.438809 0.960966 0.805237
O O5 0.250000 0.883057 0.853260
O O6 0.509634 0.851547 0.818526
O O7 0.469796 0.914175 0.944269
O O8 0.250000 0.678551 0.401849
O O9 0.033783 0.750000 0.402166
O O10 0.042197 0.664760 0.507717
O O11 0.995017 0.640829 0.362018
O O12 0.750000 0.342770 0.384051
O O13 0.896033 0.250000 0.402717
O O14 0.019702 0.338147 0.336972
O O15 0.750000 0.636218 0.288713
O O16 0.975993 0.676335 0.215512
O O17 0.750000 0.322928 0.821383
O O18 0.567805 0.250000 0.887522
O O19 0.558639 0.353311 0.930305
O O20 0.750000 0.670414 0.747250
O O21 0.550795 0.750000 0.761886
O O22 0.750000 0.434568 0.961575
#
# Coordination Sequence:
#
# PCOD8240337 Si02
#       8
#     8   8   8   8   8   8   8   8
#     4   9  19  34  49  68  96 128 161 200 244 284
#     4  10  20  34  53  73  93 123 163 201 238 285
#     4   9  17  29  47  72  99 126 158 194 231 275
#     4   8  15  30  51  72  95 125 157 188 228 279
#     4  10  19  29  43  66  96 127 159 195 233 275
#     4   9  17  29  43  61  91 126 156 191 235 281
#     4  10  21  35  51  75 104 127 150 188 239 288
#     4   9  18  31  49  72  92 119 163 208 245 280
#
# _framework density 17.438579000000001
#
# number of rings (size 3 to 8) (size 9 to 14) (size 15 to 20)
#    0.000    2.750    0.000    2.250    0.000    5.250 
#    0.000    2.500    0.000    0.750    0.000    0.000 
#    0.000    0.000    0.000    0.000    0.000    0.000 
#
# Total GULP energy -793435.670137 kJ/mol
# GULP energy per Si atom -12397.432346 kJ/mol
# Density = 1.739889 g / cm^3
# Si number density = 17.438579 Si / 1000 Ang^3
#
#
#
# Elastic Constant Matrix: (Units=GPa)
#
#
# Indices 1 2 3 4 5 6 
#
# 1 80.4289 40.8714 57.2525 0.0000 0.0000 0.0000
# 2 40.8714 72.0655 40.7505 0.0000 0.0000 0.0000
# 3 57.2525 40.7505 102.5672 0.0000 0.0000 0.0000
# 4 0.0000 0.0000 0.0000 18.9950 0.0000 0.0000
# 5 0.0000 0.0000 0.0000 0.0000 26.4665 0.0000
# 6 0.0000 0.0000 0.0000 0.0000 0.0000 22.3360
#
#
#
# Elastic Compliance Matrix: (Units=1/GPa)
#
#
# Indices 1 2 3 4 5 6 
#
# 1 0.023479 -0.007616 -0.010080 0.000000 0.000000 0.000000
# 2 -0.007616 0.020368 -0.003841 0.000000 0.000000 0.000000
# 3 -0.010080 -0.003841 0.016902 0.000000 0.000000 0.000000
# 4 0.000000 0.000000 0.000000 0.052645 0.000000 0.000000
# 5 0.000000 0.000000 0.000000 0.000000 0.037784 0.000000
# 6 0.000000 0.000000 0.000000 0.000000 0.000000 0.044771
#
#
# Mechanical properties :
#
#
# Convention : Reuss Voigt Hill
#
# Bulk Modulus (GPa) = 56.57708 59.20115 57.88912
# Shear Modulus (GPa) = 20.41536 21.30532 20.86034
#
# Velocity S-wave (km/s) = 3.42526 3.49912 3.46239
# Velocity P-wave (km/s) = 6.93955 7.09558 7.01800
#
# Compressibility (1/GPa) = 0.01767500
#
# Stress axis : x y z
#
# Youngs Moduli (GPa) = 42.59162 49.09778 59.16376
#
# Poissons Ratio (x) = 0.37393 0.59636
# Poissons Ratio (y) = 0.32438 0.22724
# Poissons Ratio (z) = 0.42932 0.18858
#
# Static dielectric constant tensor:
#      x y z
#    x 3.265280 0.000000 0.000000 
#    y 0.000000 3.146130 0.000000 
#    z 0.000000 0.000000 3.290120 
# 
# 
# High freq. dielectric constant tensor:
#      x y z
#    x 1.672380 0.000000 0.000000 
#    y 0.000000 1.655520 0.000000 
#    z 0.000000 0.000000 1.667270 
# 
# From -- ./inp_files/26469.got.cif
#   From: 2010.03.12/outbox.cif.g09.slc.cpg/sg59_14_cif.got.tgz:26469.got - 2010.04.16 16:29:54.
