data_PCOD8240100
_publ_section_title
;
Structure prediction by ZEFSAII (Michael W. Deem and Ramdas Pophale) SiO2 
 PCOD8240100
Probable space group: P M M N
;
_chemical_formula_sum "Si O2"
_cell_formula_units_Z 48
_cell_length_a 17.753136
_cell_length_b 13.839529
_cell_length_c 9.820360
_cell_angle_alpha 90.000000
_cell_angle_beta 90.000000
_cell_angle_gamma 90.000000
_cell_volume 2412.813748
_symmetry_space_group_name_H-M "P M M N"
_symmetry_group_IT_number 59
_space_group.IT_coordinate_system_code '2'
_symmetry_cell_setting 'orthorhombic'
loop_
_space_group_symop_operation_xyz
x,y,z
1/2-x,1/2-y,z
1/2+x,-y,-z
-x,1/2+y,-z
-x,-y,-z
1/2+x,1/2+y,-z
1/2-x,y,z
x,1/2-y,z
loop_
_atom_site_type_symbol
_atom_site_label
_atom_site_fract_x
_atom_site_fract_y
_atom_site_fract_z
Si Si1 0.877467 0.642372 0.066627
Si Si2 0.051778 0.860547 0.012718
Si Si3 0.428696 0.965140 0.284195
Si Si4 0.836614 0.361699 0.491219
Si Si5 0.094589 0.523507 0.751596
Si Si6 0.833567 0.642019 0.772053
O O1 0.865300 0.750000 0.126285
O O2 0.858211 0.566127 0.185145
O O3 0.962596 0.626555 0.016237
O O4 0.826827 0.624510 0.934267
O O5 0.077044 0.750000 0.030995
O O6 0.087659 0.923966 0.133406
O O7 0.079147 0.897819 0.867665
O O8 0.394071 0.888571 0.388748
O O9 0.517198 0.981353 0.312646
O O10 0.387722 0.067612 0.303830
O O11 0.750000 0.379347 0.536110
O O12 0.850012 0.250000 0.453438
O O13 0.854055 0.427517 0.361223
O O14 0.750000 0.630112 0.710977
O O15 0.865249 0.750000 0.744366
#
# Coordination Sequence:
#
# PCOD8240100 Si02
#       6
#     8   8   8   8   8   8
#     4   9  17  32  54  85 119 143 174 230 293 345
#     4  10  18  32  59  91 118 141 185 243 290 343
#     4  11  20  39  60  87 112 153 197 242 290 344
#     4  11  26  44  58  79 119 163 199 241 295 348
#     4  11  20  37  61  90 112 149 197 241 293 338
#     4  10  19  31  52  83 116 149 184 229 289 347
#
# _framework density 19.893785999999999
#
# number of rings (size 3 to 8) (size 9 to 14) (size 15 to 20)
#    0.000    1.667    3.333    3.000    0.000    2.000 
#    0.000    0.833    0.000    4.000    0.000    0.000 
#    0.000    0.000    0.000    0.000    0.000    0.000 
#
# Total GULP energy -595262.408019 kJ/mol
# GULP energy per Si atom -12401.300167 kJ/mol
# Density = 1.984851 g / cm^3
# Si number density = 19.893786 Si / 1000 Ang^3
#
#
#
# Elastic Constant Matrix: (Units=GPa)
#
#
# Indices 1 2 3 4 5 6 
#
# 1 41.5623 19.3581 7.5698 0.0000 0.0000 0.0000
# 2 19.3581 100.7367 9.9129 0.0000 0.0000 0.0000
# 3 7.5698 9.9129 53.7032 0.0000 0.0000 0.0000
# 4 0.0000 0.0000 0.0000 38.2513 0.0000 0.0000
# 5 0.0000 0.0000 0.0000 0.0000 14.4994 0.0000
# 6 0.0000 0.0000 0.0000 0.0000 0.0000 26.6712
#
#
#
# Elastic Compliance Matrix: (Units=1/GPa)
#
#
# Indices 1 2 3 4 5 6 
#
# 1 0.026857 -0.004877 -0.002885 0.000000 0.000000 0.000000
# 2 -0.004877 0.010996 -0.001342 0.000000 0.000000 0.000000
# 3 -0.002885 -0.001342 0.019275 0.000000 0.000000 0.000000
# 4 0.000000 0.000000 0.000000 0.026143 0.000000 0.000000
# 5 0.000000 0.000000 0.000000 0.000000 0.068968 0.000000
# 6 0.000000 0.000000 0.000000 0.000000 0.000000 0.037494
#
#
# Mechanical properties :
#
#
# Convention : Reuss Voigt Hill
#
# Bulk Modulus (GPa) = 25.69429 29.96488 27.82959
# Shear Modulus (GPa) = 22.63300 26.49515 24.56407
#
# Velocity S-wave (km/s) = 3.37663 3.65338 3.51773
# Velocity P-wave (km/s) = 5.30527 5.73510 5.52437
#
# Compressibility (1/GPa) = 0.03891915
#
# Stress axis : x y z
#
# Youngs Moduli (GPa) = 37.23376 90.94080 51.87966
#
# Poissons Ratio (x) = 0.44353 0.14970
# Poissons Ratio (y) = 0.18159 0.06964
# Poissons Ratio (z) = 0.10744 0.12207
#
# Static dielectric constant tensor:
#      x y z
#    x 3.429800 0.000000 0.000000 
#    y 0.000000 3.905990 0.000000 
#    z 0.000000 0.000000 3.389660 
# 
# 
# High freq. dielectric constant tensor:
#      x y z
#    x 1.758790 0.000000 0.000000 
#    y 0.000000 1.795800 0.000000 
#    z 0.000000 0.000000 1.752270 
# 
# From -- ./inp_files/8986.got.cif
#   From: 2010.03.12/outbox.cif.g09.slc.cpg/sg59_5_cif.got.tgz:8986.got - 2010.04.16 16:29:54.
