data_PCOD8240696
_publ_section_title
;
Structure prediction by ZEFSAII (Michael W. Deem and Ramdas Pophale) SiO2 
 PCOD8240696
Probable space group: P M M N
;
_chemical_formula_sum "Si O2"
_cell_formula_units_Z 32
_cell_length_a 17.031467
_cell_length_b 9.315701
_cell_length_c 11.858110
_cell_angle_alpha 90.000000
_cell_angle_beta 90.000000
_cell_angle_gamma 90.000000
_cell_volume 1881.408375
_symmetry_space_group_name_H-M "P M M N"
_symmetry_group_IT_number 59
_space_group.IT_coordinate_system_code '2'
_symmetry_cell_setting 'orthorhombic'
loop_
_space_group_symop_operation_xyz
x,y,z
1/2-x,1/2-y,z
1/2+x,-y,-z
-x,1/2+y,-z
-x,-y,-z
1/2+x,1/2+y,-z
1/2-x,y,z
x,1/2-y,z
loop_
_atom_site_type_symbol
_atom_site_label
_atom_site_fract_x
_atom_site_fract_y
_atom_site_fract_z
Si Si1 0.605472 0.416730 0.578063
Si Si2 0.662496 0.087650 0.184546
Si Si3 0.070303 0.083295 0.640432
Si Si4 0.750000 0.081548 0.975523
Si Si5 0.250000 0.920688 0.273155
O O1 0.616711 0.250000 0.547790
O O2 0.522609 0.445094 0.638425
O O3 0.612837 0.504064 0.462596
O O4 0.672556 0.473848 0.661899
O O5 0.750000 0.079240 0.240293
O O6 0.629793 0.250000 0.196408
O O7 0.602779 0.978337 0.242458
O O8 0.672409 0.043865 0.051278
O O9 0.090779 0.250000 0.632356
O O10 0.750000 0.250000 0.955589
O O11 0.750000 0.007697 0.852338
O O12 0.250000 0.750000 0.265487
#
# Coordination Sequence:
#
# PCOD8240696 Si02
#       5
#     8   8   8   4   4
#     4   9  19  32  49  71  96 126 158 194 232 279
#     4   8  16  30  50  70  90 120 158 195 229 272
#     4  10  19  31  46  71 102 125 151 192 241 282
#     4   7  14  29  49  72  90 115 160 205 228 261
#     4   9  16  31  53  70  88 121 164 197 226 273
#
# _framework density 17.008534000000001
#
# number of rings (size 3 to 8) (size 9 to 14) (size 15 to 20)
#    0.750    2.500    0.000    0.750    1.750    1.500 
#    0.000    1.250    0.000    3.000    0.000    0.000 
#    0.000    0.000    0.000    0.000    0.000    0.000 
#
# Total GULP energy -396490.843835 kJ/mol
# GULP energy per Si atom -12390.338870 kJ/mol
# Density = 1.696982 g / cm^3
# Si number density = 17.008534 Si / 1000 Ang^3
#
#
#
# Elastic Constant Matrix: (Units=GPa)
#
#
# Indices 1 2 3 4 5 6 
#
# 1 80.5944 35.1938 71.4530 0.0000 0.0000 0.0000
# 2 35.1938 58.5618 46.6282 0.0000 0.0000 0.0000
# 3 71.4530 46.6282 141.0795 0.0000 0.0000 0.0000
# 4 0.0000 0.0000 0.0000 15.3730 0.0000 0.0000
# 5 0.0000 0.0000 0.0000 0.0000 13.1135 0.0000
# 6 0.0000 0.0000 0.0000 0.0000 0.0000 23.9445
#
#
#
# Elastic Compliance Matrix: (Units=1/GPa)
#
#
# Indices 1 2 3 4 5 6 
#
# 1 0.024214 -0.006497 -0.010116 0.000000 0.000000 0.000000
# 2 -0.006497 0.024918 -0.004945 0.000000 0.000000 0.000000
# 3 -0.010116 -0.004945 0.013846 0.000000 0.000000 0.000000
# 4 0.000000 0.000000 0.000000 0.065049 0.000000 0.000000
# 5 0.000000 0.000000 0.000000 0.000000 0.076257 0.000000
# 6 0.000000 0.000000 0.000000 0.000000 0.000000 0.041763
#
#
# Mechanical properties :
#
#
# Convention : Reuss Voigt Hill
#
# Bulk Modulus (GPa) = 50.34938 65.19838 57.77388
# Shear Modulus (GPa) = 16.90422 18.95025 17.92723
#
# Velocity S-wave (km/s) = 3.15599 3.34153 3.25008
# Velocity P-wave (km/s) = 6.55340 7.30094 6.93724
#
# Compressibility (1/GPa) = 0.01986122
#
# Stress axis : x y z
#
# Youngs Moduli (GPa) = 41.29889 40.13199 72.22172
#
# Poissons Ratio (x) = 0.26073 0.73062
# Poissons Ratio (y) = 0.26831 0.35714
# Poissons Ratio (z) = 0.41779 0.19846
#
# Static dielectric constant tensor:
#      x y z
#    x 3.058580 0.000000 0.000000 
#    y 0.000000 2.921920 0.000000 
#    z 0.000000 0.000000 3.329330 
# 
# 
# High freq. dielectric constant tensor:
#      x y z
#    x 1.642040 0.000000 0.000000 
#    y 0.000000 1.631880 0.000000 
#    z 0.000000 0.000000 1.651840 
# 
# From -- ./inp_files/17431.got.cif
#   From: 2010.03.12/outbox.cif.g09.slc.cpg/sg59_9_cif.got.tgz:17431.got - 2010.04.16 16:29:54.
