data_PCOD8240836
_publ_section_title
;
Structure prediction by ZEFSAII (Michael W. Deem and Ramdas Pophale) SiO2 
 PCOD8240836
Probable space group: P M M N
;
_chemical_formula_sum "Si O2"
_cell_formula_units_Z 64
_cell_length_a 15.767407
_cell_length_b 8.861973
_cell_length_c 23.544233
_cell_angle_alpha 90.000000
_cell_angle_beta 90.000000
_cell_angle_gamma 90.000000
_cell_volume 3289.843567
_symmetry_space_group_name_H-M "P M M N"
_symmetry_group_IT_number 59
_space_group.IT_coordinate_system_code '2'
_symmetry_cell_setting 'orthorhombic'
loop_
_space_group_symop_operation_xyz
x,y,z
1/2-x,1/2-y,z
1/2+x,-y,-z
-x,1/2+y,-z
-x,-y,-z
1/2+x,1/2+y,-z
1/2-x,y,z
x,1/2-y,z
loop_
_atom_site_type_symbol
_atom_site_label
_atom_site_fract_x
_atom_site_fract_y
_atom_site_fract_z
Si Si1 0.421738 0.414893 0.864229
Si Si2 0.153184 0.425319 0.975003
Si Si3 0.344746 0.422156 0.193110
Si Si4 0.156146 0.571038 0.552034
Si Si5 0.346848 0.572884 0.423015
Si Si6 0.006939 0.929359 0.633381
Si Si7 0.000949 0.430493 0.752447
Si Si8 0.606152 0.083757 0.915161
O O1 0.382273 0.250000 0.852397
O O2 0.363009 0.497231 0.911590
O O3 0.435257 0.492668 0.802394
O O4 0.512371 0.399693 0.892761
O O5 0.250000 0.445791 0.991791
O O6 0.125319 0.250000 0.973802
O O7 0.100035 0.511205 0.022550
O O8 0.250000 0.433909 0.218323
O O9 0.377267 0.250000 0.193609
O O10 0.404825 0.521875 0.233198
O O11 0.341491 0.479453 0.128137
O O12 0.250000 0.512447 0.571624
O O13 0.156687 0.750000 0.554178
O O14 0.138928 0.518255 0.487663
O O15 0.080358 0.507728 0.591307
O O16 0.250000 0.535469 0.404208
O O17 0.364514 0.750000 0.416699
O O18 0.413563 0.484566 0.384191
O O19 0.006450 0.750000 0.635540
O O20 0.031444 0.994847 0.694485
O O21 0.003567 0.250000 0.748543
O O22 0.648450 0.250000 0.918743
#
# Coordination Sequence:
#
# PCOD8240836 Si02
#       8
#     8   8   8   8   8   8   8   8
#     4   8  17  34  51  67  89 123 164 201 241 287
#     4  10  19  31  49  72  96 121 153 198 249 297
#     4  10  20  34  52  74 100 129 164 209 257 304
#     4   8  16  33  56  81 109 142 180 219 262 313
#     4   9  18  34  56  81 111 147 181 213 256 312
#     4  11  21  33  54  82 110 141 177 221 267 308
#     4  10  21  37  54  71  97 134 175 214 251 302
#     4  10  19  31  49  72  99 129 159 194 240 301
#
# _framework density 19.453814000000001
#
# number of rings (size 3 to 8) (size 9 to 14) (size 15 to 20)
#    0.000    2.500    0.000    4.125    0.000    3.500 
#    0.000    4.375    0.000    3.750    0.000    0.000 
#    0.000    0.000    0.000    0.000    0.000    0.000 
#
# Total GULP energy -793114.683626 kJ/mol
# GULP energy per Si atom -12392.416932 kJ/mol
# Density = 1.940954 g / cm^3
# Si number density = 19.453814 Si / 1000 Ang^3
#
#
#
# Elastic Constant Matrix: (Units=GPa)
#
#
# Indices 1 2 3 4 5 6 
#
# 1 46.0930 16.6154 25.6191 0.0000 0.0000 0.0000
# 2 16.6154 63.5503 27.1738 0.0000 0.0000 0.0000
# 3 25.6191 27.1738 118.0069 0.0000 0.0000 0.0000
# 4 0.0000 0.0000 0.0000 24.4526 0.0000 0.0000
# 5 0.0000 0.0000 0.0000 0.0000 14.1364 0.0000
# 6 0.0000 0.0000 0.0000 0.0000 0.0000 17.8365
#
#
#
# Elastic Compliance Matrix: (Units=1/GPa)
#
#
# Indices 1 2 3 4 5 6 
#
# 1 0.025956 -0.004855 -0.004517 0.000000 0.000000 0.000000
# 2 -0.004855 0.018362 -0.003174 0.000000 0.000000 0.000000
# 3 -0.004517 -0.003174 0.010186 0.000000 0.000000 0.000000
# 4 0.000000 0.000000 0.000000 0.040895 0.000000 0.000000
# 5 0.000000 0.000000 0.000000 0.000000 0.070739 0.000000
# 6 0.000000 0.000000 0.000000 0.000000 0.000000 0.056065
#
#
# Mechanical properties :
#
#
# Convention : Reuss Voigt Hill
#
# Bulk Modulus (GPa) = 34.00037 40.71853 37.35945
# Shear Modulus (GPa) = 19.44771 21.83457 20.64114
#
# Velocity S-wave (km/s) = 3.16521 3.35383 3.26088
# Velocity P-wave (km/s) = 5.55639 5.99782 5.78132
#
# Compressibility (1/GPa) = 0.02941144
#
# Stress axis : x y z
#
# Youngs Moduli (GPa) = 38.52685 54.45965 98.17694
#
# Poissons Ratio (x) = 0.26439 0.44347
# Poissons Ratio (y) = 0.18704 0.31165
# Poissons Ratio (z) = 0.17403 0.17287
#
# Static dielectric constant tensor:
#      x y z
#    x 3.576260 0.000000 0.000000 
#    y 0.000000 3.358620 0.000000 
#    z 0.000000 0.000000 3.764280 
# 
# 
# High freq. dielectric constant tensor:
#      x y z
#    x 1.747860 0.000000 0.000000 
#    y 0.000000 1.733190 0.000000 
#    z 0.000000 0.000000 1.759940 
# 
# From -- ./inp_files/32195.got.cif
#   From: 2010.03.12/outbox.cif.g09.slc.cpg/sg59_17_cif.got.tgz:32195.got - 2010.04.16 16:29:54.
