data_PCOD8240055
_publ_section_title
;
Structure prediction by ZEFSAII (Michael W. Deem and Ramdas Pophale) SiO2 
 PCOD8240055
Probable space group: P M M N
;
_chemical_formula_sum "Si O2"
_cell_formula_units_Z 36
_cell_length_a 9.298066
_cell_length_b 14.213646
_cell_length_c 14.726394
_cell_angle_alpha 90.000000
_cell_angle_beta 90.000000
_cell_angle_gamma 90.000000
_cell_volume 1946.231669
_symmetry_space_group_name_H-M "P M M N"
_symmetry_group_IT_number 59
_space_group.IT_coordinate_system_code '2'
_symmetry_cell_setting 'orthorhombic'
loop_
_space_group_symop_operation_xyz
x,y,z
1/2-x,1/2-y,z
1/2+x,-y,-z
-x,1/2+y,-z
-x,-y,-z
1/2+x,1/2+y,-z
1/2-x,y,z
x,1/2-y,z
loop_
_atom_site_type_symbol
_atom_site_label
_atom_site_fract_x
_atom_site_fract_y
_atom_site_fract_z
Si Si1 0.087431 0.250000 0.885288
Si Si2 0.917247 0.434503 0.930393
Si Si3 0.523059 0.250000 0.695182
Si Si4 0.583477 0.448683 0.421645
Si Si5 0.904365 0.459453 0.727228
Si Si6 0.083615 0.750000 0.503372
O O1 0.250000 0.250000 0.922508
O O2 0.099252 0.250000 0.774012
O O3 0.001264 0.336957 0.926168
O O4 0.750000 0.419278 0.958677
O O5 0.927124 0.483672 0.832317
O O6 0.000000 0.500000 0.000000
O O7 0.608016 0.153091 0.711643
O O8 0.481100 0.250000 0.587199
O O9 0.500000 0.500000 0.500000
O O10 0.750000 0.472739 0.430528
O O11 0.531022 0.487944 0.325414
O O12 0.552231 0.338169 0.431817
O O13 0.750000 0.499774 0.694388
O O14 0.250000 0.750000 0.469182
#
# Coordination Sequence:
#
# PCOD8240055 Si02
#       6
#     4   8   4   8   8   4
#     4  10  21  36  56  87 119 143 185 239 288 343
#     4  10  21  38  61  86 115 151 190 235 292 348
#     4  10  18  32  55  80 111 146 179 224 280 335
#     4  11  22  36  54  77 107 146 187 227 274 330
#     4  10  20  36  57  82 111 146 183 226 280 335
#     4  10  20  36  53  73 108 151 186 223 276 334
#
# _framework density 18.497282999999999
#
# number of rings (size 3 to 8) (size 9 to 14) (size 15 to 20)
#    0.000    1.778    2.222    2.667    0.000    8.000 
#    0.000    3.333    0.000    5.333    0.000    0.000 
#    0.000    0.000    0.000    0.000    0.000    0.000 
#
# Total GULP energy -446081.525550 kJ/mol
# GULP energy per Si atom -12391.153488 kJ/mol
# Density = 1.845518 g / cm^3
# Si number density = 18.497283 Si / 1000 Ang^3
#
#
#
# Elastic Constant Matrix: (Units=GPa)
#
#
# Indices 1 2 3 4 5 6 
#
# 1 150.7841 69.2565 59.6352 0.0000 0.0000 0.0000
# 2 69.2565 121.4063 61.1876 0.0000 0.0000 0.0000
# 3 59.6352 61.1876 102.6802 0.0000 0.0000 0.0000
# 4 0.0000 0.0000 0.0000 32.7689 0.0000 0.0000
# 5 0.0000 0.0000 0.0000 0.0000 29.9621 0.0000
# 6 0.0000 0.0000 0.0000 0.0000 0.0000 21.4816
#
#
#
# Elastic Compliance Matrix: (Units=1/GPa)
#
#
# Indices 1 2 3 4 5 6 
#
# 1 0.009731 -0.003863 -0.003350 0.000000 0.000000 0.000000
# 2 -0.003863 0.013306 -0.005685 0.000000 0.000000 0.000000
# 3 -0.003350 -0.005685 0.015072 0.000000 0.000000 0.000000
# 4 0.000000 0.000000 0.000000 0.030517 0.000000 0.000000
# 5 0.000000 0.000000 0.000000 0.000000 0.033375 0.000000
# 6 0.000000 0.000000 0.000000 0.000000 0.000000 0.046552
#
#
# Mechanical properties :
#
#
# Convention : Reuss Voigt Hill
#
# Bulk Modulus (GPa) = 81.21423 83.89214 82.55318
# Shear Modulus (GPa) = 28.01846 29.16194 28.59020
#
# Velocity S-wave (km/s) = 3.89618 3.97489 3.93573
# Velocity P-wave (km/s) = 8.01509 8.15589 8.08580
#
# Compressibility (1/GPa) = 0.01231311
#
# Stress axis : x y z
#
# Youngs Moduli (GPa) = 102.76341 75.15505 66.34602
#
# Poissons Ratio (x) = 0.29031 0.22224
# Poissons Ratio (y) = 0.39696 0.37721
# Poissons Ratio (z) = 0.34424 0.42729
#
# Static dielectric constant tensor:
#      x y z
#    x 3.621360 0.000000 0.000000 
#    y 0.000000 3.340440 0.000000 
#    z 0.000000 0.000000 3.506250 
# 
# 
# High freq. dielectric constant tensor:
#      x y z
#    x 1.717230 0.000000 0.000000 
#    y 0.000000 1.712820 0.000000 
#    z 0.000000 0.000000 1.710990 
# 
# From -- ./inp_files/19796.got.cif
#   From: 2010.03.12/outbox.cif.g09.slc.cpg/sg59_10_cif.got.tgz:19796.got - 2010.04.16 16:29:54.
