data_PCOD8240506
_publ_section_title
;
Structure prediction by ZEFSAII (Michael W. Deem and Ramdas Pophale) SiO2 
 PCOD8240506
Probable space group: P M M N
;
_chemical_formula_sum "Si O2"
_cell_formula_units_Z 64
_cell_length_a 9.025593
_cell_length_b 14.059302
_cell_length_c 31.187011
_cell_angle_alpha 90.000000
_cell_angle_beta 90.000000
_cell_angle_gamma 90.000000
_cell_volume 3957.430157
_symmetry_space_group_name_H-M "P M M N"
_symmetry_group_IT_number 59
_space_group.IT_coordinate_system_code '2'
_symmetry_cell_setting 'orthorhombic'
loop_
_space_group_symop_operation_xyz
x,y,z
1/2-x,1/2-y,z
1/2+x,-y,-z
-x,1/2+y,-z
-x,-y,-z
1/2+x,1/2+y,-z
1/2-x,y,z
x,1/2-y,z
loop_
_atom_site_type_symbol
_atom_site_label
_atom_site_fract_x
_atom_site_fract_y
_atom_site_fract_z
Si Si1 0.423131 0.138863 0.311294
Si Si2 0.422960 0.968998 0.935574
Si Si3 0.922465 0.360137 0.977562
Si Si4 0.076182 0.402818 0.488053
Si Si5 0.916760 0.137093 0.226821
Si Si6 0.419349 0.851146 0.433711
Si Si7 0.925048 0.859807 0.859235
Si Si8 0.423856 0.454582 0.396747
O O1 0.250000 0.117971 0.305150
O O2 0.452903 0.250000 0.317226
O O3 0.507022 0.096989 0.269855
O O4 0.493226 0.087431 0.353235
O O5 0.250000 0.976688 0.925174
O O6 0.507745 0.926445 0.895387
O O7 0.483921 0.075070 0.944842
O O8 0.454250 0.897355 0.974662
O O9 0.750000 0.370725 0.966090
O O10 0.973448 0.250000 0.974117
O O11 0.250000 0.405717 0.496244
O O12 0.042932 0.384630 0.437386
O O13 0.000000 0.500000 0.500000
O O14 0.003505 0.329741 0.521247
O O15 0.750000 0.097131 0.223413
O O16 0.917345 0.250000 0.228891
O O17 0.009922 0.103310 0.185779
O O18 0.250000 0.877566 0.444799
O O19 0.429693 0.750000 0.408307
O O20 0.487043 0.938487 0.406035
O O21 0.750000 0.872116 0.858173
O O22 0.969940 0.750000 0.867804
O O23 0.250000 0.460582 0.388973
#
# Coordination Sequence:
#
# PCOD8240506 Si02
#       8
#     8   8   8   8   8   8   8   8
#     4   9  16  27  43  61  82 108 137 169 208 258
#     4  10  19  30  46  69  95 123 158 197 235 273
#     4   9  18  32  47  64  92 129 164 197 232 270
#     4   9  16  27  42  59  81 108 139 174 211 250
#     4   9  17  29  44  63  88 114 139 172 217 266
#     4   9  17  29  43  59  82 112 144 178 214 248
#     4  10  19  30  46  68  93 121 152 185 223 270
#     4   8  15  27  42  60  81 107 139 172 207 252
#
# _framework density 16.172111000000001
#
# number of rings (size 3 to 8) (size 9 to 14) (size 15 to 20)
#    0.000    2.875    0.000    2.625    0.000    4.250 
#    0.000    4.375    0.000    1.500    0.000    0.875 
#    0.000    5.000    0.000    0.000    0.000    0.000 
#
# Total GULP energy -792998.518208 kJ/mol
# GULP energy per Si atom -12390.601847 kJ/mol
# Density = 1.613530 g / cm^3
# Si number density = 16.172111 Si / 1000 Ang^3
#
#
#
# Elastic Constant Matrix: (Units=GPa)
#
#
# Indices 1 2 3 4 5 6 
#
# 1 71.7280 32.8273 52.6378 0.0000 0.0000 0.0000
# 2 32.8273 81.2532 47.7835 0.0000 0.0000 0.0000
# 3 52.6378 47.7835 128.8905 0.0000 0.0000 0.0000
# 4 0.0000 0.0000 0.0000 21.1583 0.0000 0.0000
# 5 0.0000 0.0000 0.0000 0.0000 26.3615 0.0000
# 6 0.0000 0.0000 0.0000 0.0000 0.0000 16.7072
#
#
#
# Elastic Compliance Matrix: (Units=1/GPa)
#
#
# Indices 1 2 3 4 5 6 
#
# 1 0.021079 -0.004416 -0.006971 0.000000 0.000000 0.000000
# 2 -0.004416 0.016664 -0.004374 0.000000 0.000000 0.000000
# 3 -0.006971 -0.004374 0.012227 0.000000 0.000000 0.000000
# 4 0.000000 0.000000 0.000000 0.047263 0.000000 0.000000
# 5 0.000000 0.000000 0.000000 0.000000 0.037934 0.000000
# 6 0.000000 0.000000 0.000000 0.000000 0.000000 0.059854
#
#
# Mechanical properties :
#
#
# Convention : Reuss Voigt Hill
#
# Bulk Modulus (GPa) = 54.21162 60.92989 57.57076
# Shear Modulus (GPa) = 21.48757 22.75359 22.12058
#
# Velocity S-wave (km/s) = 3.64906 3.75502 3.70242
# Velocity P-wave (km/s) = 7.16580 7.52050 7.34529
#
# Compressibility (1/GPa) = 0.01844623
#
# Stress axis : x y z
#
# Youngs Moduli (GPa) = 47.44170 60.01011 81.78600
#
# Poissons Ratio (x) = 0.26503 0.57013
# Poissons Ratio (y) = 0.20953 0.35774
# Poissons Ratio (z) = 0.33071 0.26249
#
# Static dielectric constant tensor:
#      x y z
#    x 3.182340 0.000000 0.000000 
#    y 0.000000 3.087240 0.000000 
#    z 0.000000 0.000000 3.231490 
# 
# 
# High freq. dielectric constant tensor:
#      x y z
#    x 1.618980 0.000000 0.000000 
#    y 0.000000 1.598270 0.000000 
#    z 0.000000 0.000000 1.612310 
# 
# From -- ./inp_files/33254.got.cif
#   From: 2010.03.12/outbox.cif.g09.slc.cpg/sg59_17_cif.got.tgz:33254.got - 2010.04.16 16:29:54.
