data_PCOD8240980
_publ_section_title
;
Structure prediction by ZEFSAII (Michael W. Deem and Ramdas Pophale) SiO2 
 PCOD8240980
Probable space group: P M M N
;
_chemical_formula_sum "Si O2"
_cell_formula_units_Z 56
_cell_length_a 21.253360
_cell_length_b 9.151646
_cell_length_c 16.652652
_cell_angle_alpha 90.000000
_cell_angle_beta 90.000000
_cell_angle_gamma 90.000000
_cell_volume 3238.994553
_symmetry_space_group_name_H-M "P M M N"
_symmetry_group_IT_number 59
_space_group.IT_coordinate_system_code '2'
_symmetry_cell_setting 'orthorhombic'
loop_
_space_group_symop_operation_xyz
x,y,z
1/2-x,1/2-y,z
1/2+x,-y,-z
-x,1/2+y,-z
-x,-y,-z
1/2+x,1/2+y,-z
1/2-x,y,z
x,1/2-y,z
loop_
_atom_site_type_symbol
_atom_site_label
_atom_site_fract_x
_atom_site_fract_y
_atom_site_fract_z
Si Si1 0.441998 0.421084 0.045009
Si Si2 0.490203 0.418656 0.219570
Si Si3 0.537611 0.080319 0.620766
Si Si4 0.131935 0.921346 0.801007
Si Si5 0.821434 0.588389 0.347724
Si Si6 0.586823 0.919420 0.479102
Si Si7 0.177504 0.577792 0.974642
O O1 0.443509 0.250000 0.021221
O O2 0.449013 0.441457 0.140211
O O3 0.500000 0.500000 0.000000
O O4 0.373638 0.489612 0.026464
O O5 0.492488 0.250000 0.245648
O O6 0.459292 0.509220 0.291499
O O7 0.560237 0.478027 0.200621
O O8 0.551696 0.250000 0.630827
O O9 0.471919 0.045497 0.578205
O O10 0.589387 0.009735 0.561844
O O11 0.133919 0.750000 0.790681
O O12 0.165820 0.968718 0.882827
O O13 0.171107 0.988365 0.729139
O O14 0.750000 0.598525 0.372163
O O15 0.849335 0.750000 0.328534
O O16 0.854809 0.524629 0.426556
O O17 0.589687 0.750000 0.502550
O O18 0.250000 0.537414 0.997971
O O19 0.165479 0.750000 0.986893
#
# Coordination Sequence:
#
# PCOD8240980 Si02
#       7
#     8   8   8   8   8   8   8
#     4  11  22  37  57  81 110 144 186 230 276 327
#     4  10  20  34  53  77 107 140 172 216 267 317
#     4  10  19  31  51  76  99 129 167 211 257 301
#     4  10  19  33  52  75 107 144 178 209 258 320
#     4  10  20  33  49  73 106 140 174 211 253 305
#     4   9  18  32  48  70 101 134 167 204 251 303
#     4  10  21  38  57  79 111 148 185 226 274 328
#
# _framework density 17.289315999999999
#
# number of rings (size 3 to 8) (size 9 to 14) (size 15 to 20)
#    0.000    2.000    2.857    1.286    0.000    4.000 
#    0.000    0.000    0.000    0.857    0.000    2.000 
#    0.000    0.000    0.000    0.000    0.000    0.000 
#
# Total GULP energy -694316.349855 kJ/mol
# GULP energy per Si atom -12398.506247 kJ/mol
# Density = 1.724996 g / cm^3
# Si number density = 17.289316 Si / 1000 Ang^3
#
#
#
# Elastic Constant Matrix: (Units=GPa)
#
#
# Indices 1 2 3 4 5 6 
#
# 1 90.8130 37.8321 46.5317 0.0000 0.0000 0.0000
# 2 37.8321 60.9747 58.1026 0.0000 0.0000 0.0000
# 3 46.5317 58.1026 108.5456 0.0000 0.0000 0.0000
# 4 0.0000 0.0000 0.0000 30.6568 0.0000 0.0000
# 5 0.0000 0.0000 0.0000 0.0000 24.0128 0.0000
# 6 0.0000 0.0000 0.0000 0.0000 0.0000 21.9870
#
#
#
# Elastic Compliance Matrix: (Units=1/GPa)
#
#
# Indices 1 2 3 4 5 6 
#
# 1 0.015320 -0.006628 -0.003020 0.000000 0.000000 0.000000
# 2 -0.006628 0.036342 -0.016612 0.000000 0.000000 0.000000
# 3 -0.003020 -0.016612 0.019399 0.000000 0.000000 0.000000
# 4 0.000000 0.000000 0.000000 0.032619 0.000000 0.000000
# 5 0.000000 0.000000 0.000000 0.000000 0.041644 0.000000
# 6 0.000000 0.000000 0.000000 0.000000 0.000000 0.045481
#
#
# Mechanical properties :
#
#
# Convention : Reuss Voigt Hill
#
# Bulk Modulus (GPa) = 53.93094 60.58512 57.25803
# Shear Modulus (GPa) = 20.03954 23.18910 21.61432
#
# Velocity S-wave (km/s) = 3.40821 3.66627 3.53959
# Velocity P-wave (km/s) = 6.83731 7.28286 7.06360
#
# Compressibility (1/GPa) = 0.01854223
#
# Stress axis : x y z
#
# Youngs Moduli (GPa) = 65.27389 27.51619 51.54833
#
# Poissons Ratio (x) = 0.18238 0.15565
# Poissons Ratio (y) = 0.43264 0.85632
# Poissons Ratio (z) = 0.19710 0.45710
#
# Static dielectric constant tensor:
#      x y z
#    x 3.179720 0.000000 0.000000 
#    y 0.000000 3.332830 0.000000 
#    z 0.000000 0.000000 3.218810 
# 
# 
# High freq. dielectric constant tensor:
#      x y z
#    x 1.651490 0.000000 0.000000 
#    y 0.000000 1.668550 0.000000 
#    z 0.000000 0.000000 1.665950 
# 
# From -- ./inp_files/20915.got.cif
#   From: 2010.03.12/outbox.cif.g09.slc.cpg/sg59_11_cif.got.tgz:20915.got - 2010.04.16 16:29:54.
