data_PCOD8240021
_publ_section_title
;
Structure prediction by ZEFSAII (Michael W. Deem and Ramdas Pophale) SiO2 
 PCOD8240021
Probable space group: P M M N
;
_chemical_formula_sum "Si O2"
_cell_formula_units_Z 64
_cell_length_a 13.381418
_cell_length_b 19.401925
_cell_length_c 13.142204
_cell_angle_alpha 90.000000
_cell_angle_beta 90.000000
_cell_angle_gamma 90.000000
_cell_volume 3412.048241
_symmetry_space_group_name_H-M "P M M N"
_symmetry_group_IT_number 59
_space_group.IT_coordinate_system_code '2'
_symmetry_cell_setting 'orthorhombic'
loop_
_space_group_symop_operation_xyz
x,y,z
1/2-x,1/2-y,z
1/2+x,-y,-z
-x,1/2+y,-z
-x,-y,-z
1/2+x,1/2+y,-z
1/2-x,y,z
x,1/2-y,z
loop_
_atom_site_type_symbol
_atom_site_label
_atom_site_fract_x
_atom_site_fract_y
_atom_site_fract_z
Si Si1 0.133659 0.968184 0.935128
Si Si2 0.015944 0.324918 0.335863
Si Si3 0.366504 0.673621 0.834022
Si Si4 0.964366 0.389408 0.537727
Si Si5 0.859141 0.551682 0.703965
Si Si6 0.359988 0.018674 0.531416
Si Si7 0.867654 0.330854 0.737936
Si Si8 0.544114 0.049058 0.851917
O O1 0.250000 0.981108 0.910701
O O2 0.096912 0.891010 0.902939
O O3 0.114331 0.974081 0.055099
O O4 0.070747 0.028576 0.877615
O O5 0.062800 0.250000 0.319674
O O6 0.910241 0.332563 0.279105
O O7 0.003747 0.333995 0.456939
O O8 0.092034 0.374643 0.277546
O O9 0.250000 0.666922 0.819950
O O10 0.393783 0.750000 0.881480
O O11 0.897402 0.440093 0.467275
O O12 0.900929 0.352342 0.624696
O O13 0.059300 0.431254 0.586542
O O14 0.750000 0.550878 0.754327
O O15 0.853422 0.540085 0.584956
O O16 0.925033 0.491514 0.750955
O O17 0.250000 0.024926 0.583248
O O18 0.750000 0.349112 0.750953
O O19 0.886543 0.250000 0.754229
O O20 0.934755 0.370791 0.822828
#
# Coordination Sequence:
#
# PCOD8240021 Si02
#       8
#     8   8   8   8   8   8   8   8
#     4  10  21  36  59  87 111 143 182 224 278 333
#     4  10  20  33  48  73 108 143 179 218 264 318
#     4   9  18  33  51  74 108 143 176 217 268 326
#     4  10  19  32  52  77 109 144 183 229 274 318
#     4  10  18  32  54  76 102 138 177 223 270 315
#     4   9  18  31  51  77 105 141 183 228 274 320
#     4  11  23  38  58  83 112 147 187 233 285 338
#     4  11  21  37  59  85 112 140 179 231 279 326
#
# _framework density 18.757061
#
# number of rings (size 3 to 8) (size 9 to 14) (size 15 to 20)
#    0.000    2.000    2.500    1.875    0.000    1.750 
#    0.000    4.375    0.000    2.250    0.000    0.000 
#    0.000    0.000    0.000    0.000    0.000    0.000 
#
# Total GULP energy -793148.126646 kJ/mol
# GULP energy per Si atom -12392.939479 kJ/mol
# Density = 1.871437 g / cm^3
# Si number density = 18.757061 Si / 1000 Ang^3
#
#
#
# Elastic Constant Matrix: (Units=GPa)
#
#
# Indices 1 2 3 4 5 6 
#
# 1 96.3445 47.9565 22.1500 0.0000 0.0000 0.0000
# 2 47.9565 115.0496 23.5677 0.0000 0.0000 0.0000
# 3 22.1500 23.5677 35.5879 0.0000 0.0000 0.0000
# 4 0.0000 0.0000 0.0000 23.1325 0.0000 0.0000
# 5 0.0000 0.0000 0.0000 0.0000 22.8772 0.0000
# 6 0.0000 0.0000 0.0000 0.0000 0.0000 27.8842
#
#
#
# Elastic Compliance Matrix: (Units=1/GPa)
#
#
# Indices 1 2 3 4 5 6 
#
# 1 0.014003 -0.004687 -0.005611 0.000000 0.000000 0.000000
# 2 -0.004687 0.011625 -0.004781 0.000000 0.000000 0.000000
# 3 -0.005611 -0.004781 0.034758 0.000000 0.000000 0.000000
# 4 0.000000 0.000000 0.000000 0.043229 0.000000 0.000000
# 5 0.000000 0.000000 0.000000 0.000000 0.043712 0.000000
# 6 0.000000 0.000000 0.000000 0.000000 0.000000 0.035863
#
#
# Mechanical properties :
#
#
# Convention : Reuss Voigt Hill
#
# Bulk Modulus (GPa) = 33.08349 48.25893 40.67121
# Shear Modulus (GPa) = 22.37895 24.99930 23.68913
#
# Velocity S-wave (km/s) = 3.45787 3.65471 3.55765
# Velocity P-wave (km/s) = 5.79816 6.60253 6.21338
#
# Compressibility (1/GPa) = 0.03022656
#
# Stress axis : x y z
#
# Youngs Moduli (GPa) = 71.41526 86.02025 28.77022
#
# Poissons Ratio (x) = 0.40321 0.16143
# Poissons Ratio (y) = 0.33475 0.13756
# Poissons Ratio (z) = 0.40072 0.41128
#
# Static dielectric constant tensor:
#      x y z
#    x 3.742240 0.000000 0.000000 
#    y 0.000000 3.706100 0.000000 
#    z 0.000000 0.000000 3.240030 
# 
# 
# High freq. dielectric constant tensor:
#      x y z
#    x 1.724060 0.000000 0.000000 
#    y 0.000000 1.730370 0.000000 
#    z 0.000000 0.000000 1.708880 
# 
# From -- ./inp_files/23457.got.cif
#   From: 2010.03.12/outbox.cif.g09.slc.cpg/sg59_12_cif.got.tgz:23457.got - 2010.04.16 16:29:54.
