data_PCOD8240211
_publ_section_title
;
Structure prediction by ZEFSAII (Michael W. Deem and Ramdas Pophale) SiO2 
 PCOD8240211
Probable space group: P M M N
;
_chemical_formula_sum "Si O2"
_cell_formula_units_Z 64
_cell_length_a 8.811378
_cell_length_b 15.393870
_cell_length_c 23.843247
_cell_angle_alpha 90.000000
_cell_angle_beta 90.000000
_cell_angle_gamma 90.000000
_cell_volume 3234.126813
_symmetry_space_group_name_H-M "P M M N"
_symmetry_group_IT_number 59
_space_group.IT_coordinate_system_code '2'
_symmetry_cell_setting 'orthorhombic'
loop_
_space_group_symop_operation_xyz
x,y,z
1/2-x,1/2-y,z
1/2+x,-y,-z
-x,1/2+y,-z
-x,-y,-z
1/2+x,1/2+y,-z
1/2-x,y,z
x,1/2-y,z
loop_
_atom_site_type_symbol
_atom_site_label
_atom_site_fract_x
_atom_site_fract_y
_atom_site_fract_z
Si Si1 0.070707 0.499655 0.439265
Si Si2 0.575630 0.081526 0.755109
Si Si3 0.572281 0.399100 0.242742
Si Si4 0.576068 0.847580 0.868223
Si Si5 0.430048 0.654554 0.362682
Si Si6 0.928123 0.497798 0.060689
Si Si7 0.575575 0.848278 0.642678
Si Si8 0.576637 0.347920 0.874919
O O1 0.250000 0.504574 0.445201
O O2 0.005530 0.582940 0.405639
O O3 0.020662 0.412561 0.406511
O O4 0.000000 0.500000 0.500000
O O5 0.750000 0.050348 0.747676
O O6 0.518188 0.132293 0.700330
O O7 0.557595 0.144427 0.808043
O O8 0.468678 0.999473 0.763914
O O9 0.750000 0.386118 0.234338
O O10 0.486121 0.345628 0.194923
O O11 0.525677 0.362244 0.302844
O O12 0.750000 0.879139 0.867392
O O13 0.562247 0.750000 0.892765
O O14 0.482441 0.912734 0.906681
O O15 0.250000 0.655069 0.365527
O O16 0.494322 0.750000 0.378672
O O17 0.750000 0.492088 0.054107
O O18 0.968443 0.585397 0.093571
O O19 0.000000 0.500000 0.000000
O O20 0.750000 0.868520 0.658577
O O21 0.555507 0.750000 0.620648
O O22 0.750000 0.368063 0.892153
O O23 0.531459 0.250000 0.892226
#
# Coordination Sequence:
#
# PCOD8240211 Si02
#       8
#     8   8   8   8   8   8   8   8
#     4  10  21  37  56  81 111 149 194 241 291 346
#     4  10  18  34  61  88 120 157 194 237 291 356
#     4  12  23  35  58  92 127 158 191 240 301 360
#     4  11  24  43  67  93 123 161 204 251 304 363
#     4   9  17  32  57  86 112 144 190 238 284 341
#     4  12  26  44  66  91 123 164 207 256 305 355
#     4  10  21  39  61  83 111 153 200 241 288 351
#     4  10  21  38  64  96 126 160 202 247 298 359
#
# _framework density 19.788957
#
# number of rings (size 3 to 8) (size 9 to 14) (size 15 to 20)
#    0.000    1.500    2.500    3.375    0.000    6.000 
#    0.000    0.000    0.000    1.875    0.000    0.000 
#    0.000    0.000    0.000    0.000    0.000    0.000 
#
# Total GULP energy -793781.616609 kJ/mol
# GULP energy per Si atom -12402.837760 kJ/mol
# Density = 1.974392 g / cm^3
# Si number density = 19.788957 Si / 1000 Ang^3
#
#
#
# Elastic Constant Matrix: (Units=GPa)
#
#
# Indices 1 2 3 4 5 6 
#
# 1 99.3296 47.8402 49.3183 0.0000 0.0000 0.0000
# 2 47.8402 148.3676 60.2866 0.0000 0.0000 0.0000
# 3 49.3183 60.2866 142.5956 0.0000 0.0000 0.0000
# 4 0.0000 0.0000 0.0000 9.8527 0.0000 0.0000
# 5 0.0000 0.0000 0.0000 0.0000 33.6915 0.0000
# 6 0.0000 0.0000 0.0000 0.0000 0.0000 14.9645
#
#
#
# Elastic Compliance Matrix: (Units=1/GPa)
#
#
# Indices 1 2 3 4 5 6 
#
# 1 0.013099 -0.002877 -0.003314 0.000000 0.000000 0.000000
# 2 -0.002877 0.008770 -0.002713 0.000000 0.000000 0.000000
# 3 -0.003314 -0.002713 0.009306 0.000000 0.000000 0.000000
# 4 0.000000 0.000000 0.000000 0.101495 0.000000 0.000000
# 5 0.000000 0.000000 0.000000 0.000000 0.029681 0.000000
# 6 0.000000 0.000000 0.000000 0.000000 0.000000 0.066825
#
#
# Mechanical properties :
#
#
# Convention : Reuss Voigt Hill
#
# Bulk Modulus (GPa) = 74.81067 78.35369 76.58218
# Shear Modulus (GPa) = 19.88560 27.22492 23.55526
#
# Velocity S-wave (km/s) = 3.17343 3.71315 3.45385
# Velocity P-wave (km/s) = 7.16337 7.61997 7.39519
#
# Compressibility (1/GPa) = 0.01336708
#
# Stress axis : x y z
#
# Youngs Moduli (GPa) = 76.34432 114.02571 107.45881
#
# Poissons Ratio (x) = 0.32805 0.35611
# Poissons Ratio (y) = 0.21964 0.29151
# Poissons Ratio (z) = 0.25300 0.30932
#
# Static dielectric constant tensor:
#      x y z
#    x 3.482620 0.000000 0.000000 
#    y 0.000000 3.845950 0.000000 
#    z 0.000000 0.000000 3.603810 
# 
# 
# High freq. dielectric constant tensor:
#      x y z
#    x 1.751060 0.000000 0.000000 
#    y 0.000000 1.787570 0.000000 
#    z 0.000000 0.000000 1.770330 
# 
# From -- ./inp_files/31441.got.cif
#   From: 2010.03.12/outbox.cif.g09.slc.cpg/sg59_16_cif.got.tgz:31441.got - 2010.04.16 16:29:54.
