data_PCOD8240909
_publ_section_title
;
Structure prediction by ZEFSAII (Michael W. Deem and Ramdas Pophale) SiO2 
 PCOD8240909
Probable space group: P M M N
;
_chemical_formula_sum "Si O2"
_cell_formula_units_Z 64
_cell_length_a 8.760585
_cell_length_b 19.916556
_cell_length_c 20.303169
_cell_angle_alpha 90.000000
_cell_angle_beta 90.000000
_cell_angle_gamma 90.000000
_cell_volume 3542.510769
_symmetry_space_group_name_H-M "P M M N"
_symmetry_group_IT_number 59
_space_group.IT_coordinate_system_code '2'
_symmetry_cell_setting 'orthorhombic'
loop_
_space_group_symop_operation_xyz
x,y,z
1/2-x,1/2-y,z
1/2+x,-y,-z
-x,1/2+y,-z
-x,-y,-z
1/2+x,1/2+y,-z
1/2-x,y,z
x,1/2-y,z
loop_
_atom_site_type_symbol
_atom_site_label
_atom_site_fract_x
_atom_site_fract_y
_atom_site_fract_z
Si Si1 0.567151 0.174136 0.609994
Si Si2 0.432087 0.825965 0.673307
Si Si3 0.929388 0.936873 0.764937
Si Si4 0.416365 0.829330 0.531620
Si Si5 0.925046 0.083119 0.957340
Si Si6 0.571388 0.323262 0.844313
Si Si7 0.068136 0.583900 0.271046
Si Si8 0.575061 0.453970 0.098083
O O1 0.750000 0.173439 0.606969
O O2 0.513200 0.250000 0.628672
O O3 0.499867 0.152021 0.537681
O O4 0.505678 0.120435 0.663132
O O5 0.250000 0.828950 0.670910
O O6 0.485666 0.750000 0.690017
O O7 0.493169 0.875118 0.728571
O O8 0.498752 0.848944 0.600841
O O9 0.750000 0.931024 0.756141
O O10 0.968853 0.931507 0.841975
O O11 0.990920 0.007267 0.734364
O O12 0.250000 0.864138 0.530956
O O13 0.394368 0.750000 0.532330
O O14 0.750000 0.059322 0.945514
O O15 0.958755 0.151981 0.918784
O O16 0.954311 0.094961 0.035188
O O17 0.037269 0.028320 0.926736
O O18 0.750000 0.317265 0.830084
O O19 0.494732 0.250000 0.836159
O O20 0.501681 0.375235 0.791437
O O21 0.250000 0.584037 0.270026
O O22 0.750000 0.451119 0.121555
#
# Coordination Sequence:
#
# PCOD8240909 Si02
#       8
#     8   8   8   8   8   8   8   8
#     4   8  12  20  38  66  97 127 161 199 239 281
#     4   9  18  34  54  73  93 120 159 205 249 296
#     4  11  21  33  49  71 102 131 159 201 246 294
#     4   7  11  22  42  66  91 120 155 198 243 285
#     4   9  17  31  49  72  97 122 163 210 247 285
#     4   9  15  25  44  69  98 129 160 197 240 281
#     4   9  16  25  39  65 100 132 160 195 236 280
#     4  10  19  31  50  71  94 128 167 203 244 293
#
# _framework density 18.066281
#
# number of rings (size 3 to 8) (size 9 to 14) (size 15 to 20)
#    0.000    3.000    1.250    2.625    0.000    2.250 
#    0.000    1.250    0.000    2.625    0.000    0.875 
#    0.000    2.000    0.000    0.000    0.000    0.000 
#
# Total GULP energy -792858.249862 kJ/mol
# GULP energy per Si atom -12388.410154 kJ/mol
# Density = 1.802516 g / cm^3
# Si number density = 18.066281 Si / 1000 Ang^3
#
#
#
# Elastic Constant Matrix: (Units=GPa)
#
#
# Indices 1 2 3 4 5 6 
#
# 1 15.2158 14.3883 12.0861 0.0000 0.0000 0.0000
# 2 14.3883 106.2723 67.5562 0.0000 0.0000 0.0000
# 3 12.0861 67.5562 143.5156 0.0000 0.0000 0.0000
# 4 0.0000 0.0000 0.0000 27.5897 0.0000 0.0000
# 5 0.0000 0.0000 0.0000 0.0000 11.1345 0.0000
# 6 0.0000 0.0000 0.0000 0.0000 0.0000 15.3977
#
#
#
# Elastic Compliance Matrix: (Units=1/GPa)
#
#
# Indices 1 2 3 4 5 6 
#
# 1 0.075862 -0.008861 -0.002217 0.000000 0.000000 0.000000
# 2 -0.008861 0.014463 -0.006062 0.000000 0.000000 0.000000
# 3 -0.002217 -0.006062 0.010008 0.000000 0.000000 0.000000
# 4 0.000000 0.000000 0.000000 0.036245 0.000000 0.000000
# 5 0.000000 0.000000 0.000000 0.000000 0.089811 0.000000
# 6 0.000000 0.000000 0.000000 0.000000 0.000000 0.064945
#
#
# Mechanical properties :
#
#
# Convention : Reuss Voigt Hill
#
# Bulk Modulus (GPa) = 15.13961 50.34052 32.74006
# Shear Modulus (GPa) = 14.38298 22.22258 18.30278
#
# Velocity S-wave (km/s) = 2.82463 3.51102 3.18636
# Velocity P-wave (km/s) = 4.36305 6.66042 5.63016
#
# Compressibility (1/GPa) = 0.06605191
#
# Stress axis : x y z
#
# Youngs Moduli (GPa) = 13.18180 69.14210 99.91957
#
# Poissons Ratio (x) = 0.61270 0.22156
# Poissons Ratio (y) = 0.11681 0.60569
# Poissons Ratio (z) = 0.02923 0.41913
#
# Static dielectric constant tensor:
#      x y z
#    x 2.842980 0.000000 0.000000 
#    y 0.000000 3.260190 0.000000 
#    z 0.000000 0.000000 3.807090 
# 
# 
# High freq. dielectric constant tensor:
#      x y z
#    x 1.644910 0.000000 0.000000 
#    y 0.000000 1.673040 0.000000 
#    z 0.000000 0.000000 1.719370 
# 
# From -- ./inp_files/29709.got.cif
#   From: 2010.03.12/outbox.cif.g09.slc.cpg/sg59_15_cif.got.tgz:29709.got - 2010.04.16 16:29:54.
