data_PCOD8240634
_publ_section_title
;
Structure prediction by ZEFSAII (Michael W. Deem and Ramdas Pophale) SiO2 
 PCOD8240634
Probable space group: P M M N
;
_chemical_formula_sum "Si O2"
_cell_formula_units_Z 64
_cell_length_a 12.645042
_cell_length_b 15.900119
_cell_length_c 17.422059
_cell_angle_alpha 90.000000
_cell_angle_beta 90.000000
_cell_angle_gamma 90.000000
_cell_volume 3502.838634
_symmetry_space_group_name_H-M "P M M N"
_symmetry_group_IT_number 59
_space_group.IT_coordinate_system_code '2'
_symmetry_cell_setting 'orthorhombic'
loop_
_space_group_symop_operation_xyz
x,y,z
1/2-x,1/2-y,z
1/2+x,-y,-z
-x,1/2+y,-z
-x,-y,-z
1/2+x,1/2+y,-z
1/2-x,y,z
x,1/2-y,z
loop_
_atom_site_type_symbol
_atom_site_label
_atom_site_fract_x
_atom_site_fract_y
_atom_site_fract_z
Si Si1 0.128244 0.062997 0.902062
Si Si2 0.632133 0.843567 0.945627
Si Si3 0.373815 0.845444 0.676253
Si Si4 0.024445 0.907837 0.825424
Si Si5 0.129761 0.515572 0.277568
Si Si6 0.870931 0.841873 0.352127
Si Si7 0.481422 0.657141 0.207954
Si Si8 0.477441 0.000380 0.588950
O O1 0.250000 0.080640 0.876639
O O2 0.041860 0.124966 0.866512
O O3 0.097458 0.968310 0.877908
O O4 0.116600 0.081442 0.992731
O O5 0.750000 0.854415 0.909470
O O6 0.623413 0.750000 0.983102
O O7 0.542349 0.847807 0.880763
O O8 0.250000 0.859440 0.666930
O O9 0.405977 0.750000 0.652044
O O10 0.402095 0.856974 0.766256
O O11 0.429196 0.912536 0.619614
O O12 0.940139 0.954624 0.773081
O O13 0.250000 0.484964 0.281115
O O14 0.121786 0.605343 0.234515
O O15 0.084978 0.519493 0.364251
O O16 0.750000 0.847652 0.329111
O O17 0.895940 0.750000 0.390886
O O18 0.932447 0.850840 0.273718
O O19 0.897965 0.920789 0.405168
O O20 0.439813 0.750000 0.192035
O O21 0.500000 0.000000 0.500000
#
# Coordination Sequence:
#
# PCOD8240634 Si02
#       8
#     8   8   8   8   8   8   8   8
#     4  10  19  30  48  75 103 132 171 219 269 319
#     4  10  20  32  48  72 101 134 172 216 268 322
#     4  10  21  37  58  83 108 138 179 222 262 310
#     4  10  19  34  53  72 100 136 176 220 263 308
#     4   9  19  33  49  70  95 129 172 209 246 302
#     4   9  17  30  50  75 100 127 162 203 249 304
#     4   9  17  29  47  71  99 130 163 205 255 304
#     4  10  21  35  54  77 105 135 164 206 259 312
#
# _framework density 18.270896
#
# number of rings (size 3 to 8) (size 9 to 14) (size 15 to 20)
#    0.000    2.375    0.000    3.375    0.000    3.000 
#    0.000    0.000    0.000    4.125    0.000    0.000 
#    0.000    0.000    0.000    0.000    0.000    0.000 
#
# Total GULP energy -793037.172548 kJ/mol
# GULP energy per Si atom -12391.205821 kJ/mol
# Density = 1.822931 g / cm^3
# Si number density = 18.270896 Si / 1000 Ang^3
#
#
#
# Elastic Constant Matrix: (Units=GPa)
#
#
# Indices 1 2 3 4 5 6 
#
# 1 64.6117 17.9383 23.1523 0.0000 0.0000 0.0000
# 2 17.9383 100.3892 27.2059 0.0000 0.0000 0.0000
# 3 23.1523 27.2059 83.0382 0.0000 0.0000 0.0000
# 4 0.0000 0.0000 0.0000 15.0135 0.0000 0.0000
# 5 0.0000 0.0000 0.0000 0.0000 5.2031 0.0000
# 6 0.0000 0.0000 0.0000 0.0000 0.0000 21.6138
#
#
#
# Elastic Compliance Matrix: (Units=1/GPa)
#
#
# Indices 1 2 3 4 5 6 
#
# 1 0.017549 -0.001986 -0.004242 0.000000 0.000000 0.000000
# 2 -0.001986 0.011157 -0.003102 0.000000 0.000000 0.000000
# 3 -0.004242 -0.003102 0.014242 0.000000 0.000000 0.000000
# 4 0.000000 0.000000 0.000000 0.066607 0.000000 0.000000
# 5 0.000000 0.000000 0.000000 0.000000 0.192194 0.000000
# 6 0.000000 0.000000 0.000000 0.000000 0.000000 0.046267
#
#
# Mechanical properties :
#
#
# Convention : Reuss Voigt Hill
#
# Bulk Modulus (GPa) = 41.17367 42.73689 41.95528
# Shear Modulus (GPa) = 13.34153 20.34892 16.84522
#
# Velocity S-wave (km/s) = 2.70516 3.34089 3.03969
# Velocity P-wave (km/s) = 5.68694 6.19060 5.94410
#
# Compressibility (1/GPa) = 0.02428737
#
# Stress axis : x y z
#
# Youngs Moduli (GPa) = 56.98481 89.63272 70.21700
#
# Poissons Ratio (x) = 0.17802 0.29787
# Poissons Ratio (y) = 0.11318 0.21778
# Poissons Ratio (z) = 0.24174 0.27800
#
# Static dielectric constant tensor:
#      x y z
#    x 4.858370 0.000000 0.000000 
#    y 0.000000 3.733650 0.000000 
#    z 0.000000 0.000000 3.203170 
# 
# 
# High freq. dielectric constant tensor:
#      x y z
#    x 1.703920 0.000000 0.000000 
#    y 0.000000 1.715470 0.000000 
#    z 0.000000 0.000000 1.690240 
# 
# From -- ./inp_files/27080.got.cif
#   From: 2010.03.12/outbox.cif.g09.slc.cpg/sg59_14_cif.got.tgz:27080.got - 2010.04.16 16:29:54.
