data_PCOD8240340
_publ_section_title
;
Structure prediction by ZEFSAII (Michael W. Deem and Ramdas Pophale) SiO2 
 PCOD8240340
Probable space group: P M M N
;
_chemical_formula_sum "Si O2"
_cell_formula_units_Z 64
_cell_length_a 18.314279
_cell_length_b 9.099441
_cell_length_c 21.364520
_cell_angle_alpha 90.000000
_cell_angle_beta 90.000000
_cell_angle_gamma 90.000000
_cell_volume 3560.390875
_symmetry_space_group_name_H-M "P M M N"
_symmetry_group_IT_number 59
_space_group.IT_coordinate_system_code '2'
_symmetry_cell_setting 'orthorhombic'
loop_
_space_group_symop_operation_xyz
x,y,z
1/2-x,1/2-y,z
1/2+x,-y,-z
-x,1/2+y,-z
-x,-y,-z
1/2+x,1/2+y,-z
1/2-x,y,z
x,1/2-y,z
loop_
_atom_site_type_symbol
_atom_site_label
_atom_site_fract_x
_atom_site_fract_y
_atom_site_fract_z
Si Si1 0.534475 0.420848 0.558768
Si Si2 0.335290 0.921129 0.134126
Si Si3 0.668089 0.580659 0.233263
Si Si4 0.663090 0.415292 0.110321
Si Si5 0.166602 0.420182 0.382651
Si Si6 0.531324 0.917987 0.310186
Si Si7 0.097761 0.079224 0.251614
Si Si8 0.837004 0.584095 0.989564
O O1 0.500000 0.500000 0.500000
O O2 0.542707 0.250000 0.543776
O O3 0.614852 0.483525 0.573112
O O4 0.479949 0.451055 0.616641
O O5 0.250000 0.951960 0.142785
O O6 0.352748 0.750000 0.128220
O O7 0.376167 0.986126 0.193238
O O8 0.365288 0.999354 0.071737
O O9 0.750000 0.529870 0.251998
O O10 0.668238 0.750000 0.212690
O O11 0.636845 0.490452 0.174439
O O12 0.615986 0.553724 0.292969
O O13 0.750000 0.416490 0.107632
O O14 0.632368 0.250000 0.108037
O O15 0.631146 0.503655 0.051024
O O16 0.250000 0.463055 0.397331
O O17 0.151127 0.250000 0.397412
O O18 0.151270 0.453258 0.309809
O O19 0.508235 0.750000 0.295238
O O20 0.483398 0.027969 0.268862
O O21 0.097227 0.250000 0.233682
O O22 0.750000 0.581992 0.991500
O O23 0.866966 0.750000 0.988067
#
# Coordination Sequence:
#
# PCOD8240340 Si02
#       8
#     8   8   8   8   8   8   8   8
#     4  10  20  35  55  78 106 140 175 208 247 297
#     4  10  19  29  43  66  97 131 166 206 251 295
#     4   9  17  31  52  75  97 123 159 203 248 294
#     4   9  16  26  42  66  95 124 156 198 248 298
#     4   9  18  33  53  77 104 134 171 214 255 295
#     4   9  19  35  53  74 100 130 165 203 244 294
#     4  10  19  31  49  72  99 132 168 205 248 299
#     4   9  16  26  41  62  90 125 165 206 246 291
#
# _framework density 17.975555
#
# number of rings (size 3 to 8) (size 9 to 14) (size 15 to 20)
#    0.000    2.625    0.000    2.250    0.000    6.000 
#    0.000    0.625    0.000    3.000    0.000    0.000 
#    0.000    0.000    0.000    0.000    0.000    0.000 
#
# Total GULP energy -793635.852825 kJ/mol
# GULP energy per Si atom -12400.560200 kJ/mol
# Density = 1.793464 g / cm^3
# Si number density = 17.975555 Si / 1000 Ang^3
#
#
#
# Elastic Constant Matrix: (Units=GPa)
#
#
# Indices 1 2 3 4 5 6 
#
# 1 78.7602 46.4628 60.9892 0.0000 0.0000 0.0000
# 2 46.4628 100.9923 64.0019 0.0000 0.0000 0.0000
# 3 60.9892 64.0019 123.2302 0.0000 0.0000 0.0000
# 4 0.0000 0.0000 0.0000 32.9442 0.0000 0.0000
# 5 0.0000 0.0000 0.0000 0.0000 22.1393 0.0000
# 6 0.0000 0.0000 0.0000 0.0000 0.0000 22.9112
#
#
#
# Elastic Compliance Matrix: (Units=1/GPa)
#
#
# Indices 1 2 3 4 5 6 
#
# 1 0.022052 -0.004813 -0.008414 0.000000 0.000000 0.000000
# 2 -0.004813 0.015810 -0.005829 0.000000 0.000000 0.000000
# 3 -0.008414 -0.005829 0.015307 0.000000 0.000000 0.000000
# 4 0.000000 0.000000 0.000000 0.030354 0.000000 0.000000
# 5 0.000000 0.000000 0.000000 0.000000 0.045169 0.000000
# 6 0.000000 0.000000 0.000000 0.000000 0.000000 0.043647
#
#
# Mechanical properties :
#
#
# Convention : Reuss Voigt Hill
#
# Bulk Modulus (GPa) = 66.41896 71.76562 69.09229
# Shear Modulus (GPa) = 23.20512 24.36753 23.78632
#
# Velocity S-wave (km/s) = 3.59684 3.68583 3.64161
# Velocity P-wave (km/s) = 7.36746 7.62394 7.49680
#
# Compressibility (1/GPa) = 0.01505594
#
# Stress axis : x y z
#
# Youngs Moduli (GPa) = 45.34803 63.25043 65.33025
#
# Poissons Ratio (x) = 0.30441 0.54970
# Poissons Ratio (y) = 0.21825 0.38083
# Poissons Ratio (z) = 0.38157 0.36871
#
# Static dielectric constant tensor:
#      x y z
#    x 3.089830 0.000000 0.000000 
#    y 0.000000 3.483400 0.000000 
#    z 0.000000 0.000000 3.289450 
# 
# 
# High freq. dielectric constant tensor:
#      x y z
#    x 1.663960 0.000000 0.000000 
#    y 0.000000 1.707660 0.000000 
#    z 0.000000 0.000000 1.692070 
# 
# From -- ./inp_files/30845.got.cif
#   From: 2010.03.12/outbox.cif.g09.slc.cpg/sg59_16_cif.got.tgz:30845.got - 2010.04.16 16:29:54.
