data_PCOD8240136
_publ_section_title
;
Structure prediction by ZEFSAII (Michael W. Deem and Ramdas Pophale) SiO2 
 PCOD8240136
Probable space group: P M M N
;
_chemical_formula_sum "Si O2"
_cell_formula_units_Z 48
_cell_length_a 19.134163
_cell_length_b 8.951893
_cell_length_c 14.901223
_cell_angle_alpha 90.000000
_cell_angle_beta 90.000000
_cell_angle_gamma 90.000000
_cell_volume 2552.385483
_symmetry_space_group_name_H-M "P M M N"
_symmetry_group_IT_number 59
_space_group.IT_coordinate_system_code '2'
_symmetry_cell_setting 'orthorhombic'
loop_
_space_group_symop_operation_xyz
x,y,z
1/2-x,1/2-y,z
1/2+x,-y,-z
-x,1/2+y,-z
-x,-y,-z
1/2+x,1/2+y,-z
1/2-x,y,z
x,1/2-y,z
loop_
_atom_site_type_symbol
_atom_site_label
_atom_site_fract_x
_atom_site_fract_y
_atom_site_fract_z
Si Si1 0.078742 0.928206 0.626649
Si Si2 0.673517 0.072635 0.213145
Si Si3 0.446011 0.077548 0.127067
Si Si4 0.403988 0.922335 0.957948
Si Si5 0.060432 0.574391 0.317129
Si Si6 0.171488 0.574434 0.461325
O O1 0.069908 0.750000 0.625339
O O2 0.117364 0.988046 0.716084
O O3 0.124348 0.987793 0.543026
O O4 0.002255 0.000567 0.626226
O O5 0.750000 0.008463 0.236808
O O6 0.673210 0.250000 0.220077
O O7 0.655398 0.025034 0.111493
O O8 0.430939 0.250000 0.146171
O O9 0.524174 0.048193 0.094315
O O10 0.432019 0.988186 0.217494
O O11 0.395293 0.019031 0.048074
O O12 0.397025 0.750000 0.985617
O O13 0.046684 0.750000 0.313042
O O14 0.132740 0.536367 0.368176
O O15 0.250000 0.503961 0.461405
O O16 0.178534 0.750000 0.474881
#
# Coordination Sequence:
#
# PCOD8240136 Si02
#       6
#     8   8   8   8   8   8
#     4  10  18  33  56  81 106 136 176 220 266 316
#     4   9  16  28  50  79 107 135 171 215 262 314
#     4  10  19  33  53  76 101 135 176 217 259 309
#     4   9  17  31  50  76 104 132 169 215 263 310
#     4  11  21  33  53  81 109 139 176 222 268 311
#     4   9  19  35  55  79 106 139 181 224 263 307
#
# _framework density 18.805935999999999
#
# number of rings (size 3 to 8) (size 9 to 14) (size 15 to 20)
#    0.000    2.333    1.667    2.000    0.000    2.667 
#    0.000    1.667    0.000   12.500    0.000    0.000 
#    0.000    0.000    0.000    0.000    0.000    0.000 
#
# Total GULP energy -595076.566315 kJ/mol
# GULP energy per Si atom -12397.428465 kJ/mol
# Density = 1.876313 g / cm^3
# Si number density = 18.805936 Si / 1000 Ang^3
#
#
#
# Elastic Constant Matrix: (Units=GPa)
#
#
# Indices 1 2 3 4 5 6 
#
# 1 94.4077 32.4936 52.3444 0.0000 0.0000 0.0000
# 2 32.4936 48.5620 43.3084 0.0000 0.0000 0.0000
# 3 52.3444 43.3084 131.6652 0.0000 0.0000 0.0000
# 4 0.0000 0.0000 0.0000 25.8733 0.0000 0.0000
# 5 0.0000 0.0000 0.0000 0.0000 18.9202 0.0000
# 6 0.0000 0.0000 0.0000 0.0000 0.0000 18.7974
#
#
#
# Elastic Compliance Matrix: (Units=1/GPa)
#
#
# Indices 1 2 3 4 5 6 
#
# 1 0.014971 -0.006664 -0.003760 0.000000 0.000000 0.000000
# 2 -0.006664 0.032107 -0.007911 0.000000 0.000000 0.000000
# 3 -0.003760 -0.007911 0.011692 0.000000 0.000000 0.000000
# 4 0.000000 0.000000 0.000000 0.038650 0.000000 0.000000
# 5 0.000000 0.000000 0.000000 0.000000 0.052854 0.000000
# 6 0.000000 0.000000 0.000000 0.000000 0.000000 0.053199
#
#
# Mechanical properties :
#
#
# Convention : Reuss Voigt Hill
#
# Bulk Modulus (GPa) = 45.25101 58.99197 52.12149
# Shear Modulus (GPa) = 20.20130 22.48407 21.34269
#
# Velocity S-wave (km/s) = 3.28105 3.46147 3.37247
# Velocity P-wave (km/s) = 6.20226 6.88568 6.55289
#
# Compressibility (1/GPa) = 0.02209895
#
# Stress axis : x y z
#
# Youngs Moduli (GPa) = 66.79769 31.14593 85.52858
#
# Poissons Ratio (x) = 0.20756 0.32156
# Poissons Ratio (y) = 0.44515 0.67666
# Poissons Ratio (z) = 0.25113 0.24641
#
# Static dielectric constant tensor:
#      x y z
#    x 3.545230 0.000000 0.000000 
#    y 0.000000 3.155500 0.000000 
#    z 0.000000 0.000000 3.619220 
# 
# 
# High freq. dielectric constant tensor:
#      x y z
#    x 1.719740 0.000000 0.000000 
#    y 0.000000 1.693870 0.000000 
#    z 0.000000 0.000000 1.744670 
# 
# From -- ./inp_files/23660.got.cif
#   From: 2010.03.12/outbox.cif.g09.slc.cpg/sg59_12_cif.got.tgz:23660.got - 2010.04.16 16:29:54.
