data_PCOD8240717
_publ_section_title
;
Structure prediction by ZEFSAII (Michael W. Deem and Ramdas Pophale) SiO2 
 PCOD8240717
Probable space group: P M M N
;
_chemical_formula_sum "Si O2"
_cell_formula_units_Z 56
_cell_length_a 19.674892
_cell_length_b 9.473214
_cell_length_c 16.310782
_cell_angle_alpha 90.000000
_cell_angle_beta 90.000000
_cell_angle_gamma 90.000000
_cell_volume 3040.076333
_symmetry_space_group_name_H-M "P M M N"
_symmetry_group_IT_number 59
_space_group.IT_coordinate_system_code '2'
_symmetry_cell_setting 'orthorhombic'
loop_
_space_group_symop_operation_xyz
x,y,z
1/2-x,1/2-y,z
1/2+x,-y,-z
-x,1/2+y,-z
-x,-y,-z
1/2+x,1/2+y,-z
1/2-x,y,z
x,1/2-y,z
loop_
_atom_site_type_symbol
_atom_site_label
_atom_site_fract_x
_atom_site_fract_y
_atom_site_fract_z
Si Si1 0.676589 0.415750 0.014147
Si Si2 0.092768 0.415280 0.673096
Si Si3 0.829628 0.408518 0.194433
Si Si4 0.173083 0.915921 0.351201
Si Si5 0.672435 0.587111 0.485895
Si Si6 0.541521 0.416412 0.931935
Si Si7 0.953974 0.415847 0.749282
O O1 0.750000 0.479643 0.987054
O O2 0.685133 0.250000 0.025743
O O3 0.654699 0.472178 0.104001
O O4 0.620906 0.451786 0.946299
O O5 0.104532 0.250000 0.684572
O O6 0.135568 0.489496 0.742241
O O7 0.119980 0.463287 0.584315
O O8 0.013305 0.455754 0.684689
O O9 0.750000 0.408194 0.211481
O O10 0.859008 0.250000 0.204617
O O11 0.250000 0.950356 0.320993
O O12 0.163931 0.750000 0.366933
O O13 0.118579 0.972443 0.284322
O O14 0.156546 0.992972 0.435727
O O15 0.750000 0.563845 0.455493
O O16 0.660291 0.750000 0.509283
O O17 0.525822 0.250000 0.941665
O O18 0.527365 0.474962 0.840055
O O19 0.500000 0.500000 0.000000
O O20 0.947084 0.250000 0.760416
#
# Coordination Sequence:
#
# PCOD8240717 Si02
#       7
#     8   8   8   8   8   8   8
#     4   8  15  28  46  68  92 121 159 199 237 279
#     4  10  19  31  47  68  98 131 160 191 231 285
#     4   9  17  29  45  67  96 126 158 199 239 275
#     4   9  18  34  54  73  95 124 159 200 244 286
#     4   9  18  32  49  69  93 123 158 193 233 284
#     4  10  19  32  51  72  97 128 160 197 239 283
#     4   9  19  33  49  73 100 125 157 199 242 280
#
# _framework density 18.420590000000001
#
# number of rings (size 3 to 8) (size 9 to 14) (size 15 to 20)
#    0.000    2.857    0.000    2.143    0.000    2.571 
#    0.000    5.714    0.000    1.286    0.000    0.000 
#    0.000    0.000    0.000    0.000    0.000    0.000 
#
# Total GULP energy -694064.925129 kJ/mol
# GULP energy per Si atom -12394.016520 kJ/mol
# Density = 1.837866 g / cm^3
# Si number density = 18.420590 Si / 1000 Ang^3
#
#
#
# Elastic Constant Matrix: (Units=GPa)
#
#
# Indices 1 2 3 4 5 6 
#
# 1 99.3488 27.2179 76.7946 0.0000 0.0000 0.0000
# 2 27.2179 26.6383 29.3932 0.0000 0.0000 0.0000
# 3 76.7946 29.3932 116.0263 0.0000 0.0000 0.0000
# 4 0.0000 0.0000 0.0000 23.8955 0.0000 0.0000
# 5 0.0000 0.0000 0.0000 0.0000 33.4682 0.0000
# 6 0.0000 0.0000 0.0000 0.0000 0.0000 17.9726
#
#
#
# Elastic Compliance Matrix: (Units=1/GPa)
#
#
# Indices 1 2 3 4 5 6 
#
# 1 0.022036 -0.008914 -0.012327 0.000000 0.000000 0.000000
# 2 -0.008914 0.055711 -0.008213 0.000000 0.000000 0.000000
# 3 -0.012327 -0.008213 0.018858 0.000000 0.000000 0.000000
# 4 0.000000 0.000000 0.000000 0.041849 0.000000 0.000000
# 5 0.000000 0.000000 0.000000 0.000000 0.029879 0.000000
# 6 0.000000 0.000000 0.000000 0.000000 0.000000 0.055640
#
#
# Mechanical properties :
#
#
# Convention : Reuss Voigt Hill
#
# Bulk Modulus (GPa) = 26.52762 56.53610 41.53186
# Shear Modulus (GPa) = 16.92350 22.30777 19.61563
#
# Velocity S-wave (km/s) = 3.03434 3.48375 3.26678
# Velocity P-wave (km/s) = 5.16804 6.85131 6.06832
#
# Compressibility (1/GPa) = 0.03769656
#
# Stress axis : x y z
#
# Youngs Moduli (GPa) = 45.38020 17.94991 53.02701
#
# Poissons Ratio (x) = 0.16000 0.65366
# Poissons Ratio (y) = 0.40451 0.43554
# Poissons Ratio (z) = 0.55940 0.14743
#
# Static dielectric constant tensor:
#      x y z
#    x 4.306660 0.000000 0.000000 
#    y 0.000000 3.110740 0.000000 
#    z 0.000000 0.000000 3.449750 
# 
# 
# High freq. dielectric constant tensor:
#      x y z
#    x 1.723780 0.000000 0.000000 
#    y 0.000000 1.677190 0.000000 
#    z 0.000000 0.000000 1.712320 
# 
# From -- ./inp_files/24192.got.cif
#   From: 2010.03.12/outbox.cif.g09.slc.cpg/sg59_13_cif.got.tgz:24192.got - 2010.04.16 16:29:54.
