data_PCOD8240270
_publ_section_title
;
Structure prediction by ZEFSAII (Michael W. Deem and Ramdas Pophale) SiO2 
 PCOD8240270
Probable space group: P M M N
;
_chemical_formula_sum "Si O2"
_cell_formula_units_Z 56
_cell_length_a 19.337991
_cell_length_b 14.925308
_cell_length_c 12.307278
_cell_angle_alpha 90.000000
_cell_angle_beta 90.000000
_cell_angle_gamma 90.000000
_cell_volume 3552.193919
_symmetry_space_group_name_H-M "P M M N"
_symmetry_group_IT_number 59
_space_group.IT_coordinate_system_code '2'
_symmetry_cell_setting 'orthorhombic'
loop_
_space_group_symop_operation_xyz
x,y,z
1/2-x,1/2-y,z
1/2+x,-y,-z
-x,1/2+y,-z
-x,-y,-z
1/2+x,1/2+y,-z
1/2-x,y,z
x,1/2-y,z
loop_
_atom_site_type_symbol
_atom_site_label
_atom_site_fract_x
_atom_site_fract_y
_atom_site_fract_z
Si Si1 0.831158 0.993447 0.938876
Si Si2 0.329424 0.004425 0.313756
Si Si3 0.413337 0.355645 0.926514
Si Si4 0.073853 0.651150 0.319023
Si Si5 0.429989 0.651123 0.061642
Si Si6 0.669495 0.852009 0.512494
Si Si7 0.578727 0.643948 0.316369
O O1 0.750000 0.009547 0.961561
O O2 0.857107 0.904860 0.999359
O O3 0.846124 0.977400 0.811838
O O4 0.874686 0.079006 0.983176
O O5 0.250000 0.980490 0.331370
O O6 0.370429 0.919574 0.362023
O O7 0.351134 0.092398 0.380753
O O8 0.398458 0.250000 0.933450
O O9 0.491301 0.376794 0.968400
O O10 0.403582 0.393309 0.803598
O O11 0.089767 0.750000 0.368163
O O12 0.076541 0.657802 0.190057
O O13 0.998203 0.616193 0.354120
O O14 0.413247 0.750000 0.012381
O O15 0.750000 0.858288 0.487026
O O16 0.646202 0.750000 0.534757
O O17 0.631764 0.892675 0.406396
O O18 0.582412 0.750000 0.307132
#
# Coordination Sequence:
#
# PCOD8240270 Si02
#       7
#     8   8   8   8   8   8   8
#     4  10  19  28  41  64  91 114 137 170 209 250
#     4   9  18  29  40  60  87 113 140 162 193 248
#     4   9  17  29  45  64  86 111 138 172 214 254
#     4   8  14  26  44  64  84 104 130 171 214 242
#     4   8  15  29  46  61  81 112 145 174 206 246
#     4   9  17  29  43  57  79 112 142 168 198 236
#     4   8  15  28  45  64  81 101 137 177 208 239
#
# _framework density 15.764904
#
# number of rings (size 3 to 8) (size 9 to 14) (size 15 to 20)
#    0.000    3.286    0.000    2.143    0.000    2.571 
#    0.000    5.714    0.000    0.000    0.000    1.000 
#    0.000    2.286    0.000    0.000    0.000    0.000 
#
# Total GULP energy -694086.533944 kJ/mol
# GULP energy per Si atom -12394.402392 kJ/mol
# Density = 1.572902 g / cm^3
# Si number density = 15.764904 Si / 1000 Ang^3
#
#
#
# Elastic Constant Matrix: (Units=GPa)
#
#
# Indices 1 2 3 4 5 6 
#
# 1 78.1318 51.2768 41.6732 0.0000 0.0000 0.0000
# 2 51.2768 81.2059 38.9773 0.0000 0.0000 0.0000
# 3 41.6732 38.9773 57.2270 0.0000 0.0000 0.0000
# 4 0.0000 0.0000 0.0000 16.2812 0.0000 0.0000
# 5 0.0000 0.0000 0.0000 0.0000 21.1495 0.0000
# 6 0.0000 0.0000 0.0000 0.0000 0.0000 27.2671
#
#
#
# Elastic Compliance Matrix: (Units=1/GPa)
#
#
# Indices 1 2 3 4 5 6 
#
# 1 0.026180 -0.010965 -0.011596 0.000000 0.000000 0.000000
# 2 -0.010965 0.022888 -0.007604 0.000000 0.000000 0.000000
# 3 -0.011596 -0.007604 0.031098 0.000000 0.000000 0.000000
# 4 0.000000 0.000000 0.000000 0.061420 0.000000 0.000000
# 5 0.000000 0.000000 0.000000 0.000000 0.047283 0.000000
# 6 0.000000 0.000000 0.000000 0.000000 0.000000 0.036674
#
#
# Mechanical properties :
#
#
# Convention : Reuss Voigt Hill
#
# Bulk Modulus (GPa) = 50.41579 53.37991 51.89785
# Shear Modulus (GPa) = 17.09480 18.58206 17.83843
#
# Velocity S-wave (km/s) = 3.29653 3.43694 3.36747
# Velocity P-wave (km/s) = 6.82193 7.04866 6.93622
#
# Compressibility (1/GPa) = 0.01983506
#
# Stress axis : x y z
#
# Youngs Moduli (GPa) = 38.19642 43.69071 32.15660
#
# Poissons Ratio (x) = 0.47909 0.37290
# Poissons Ratio (y) = 0.41884 0.24452
# Poissons Ratio (z) = 0.44294 0.33222
#
# Static dielectric constant tensor:
#      x y z
#    x 3.175550 0.000000 0.000000 
#    y 0.000000 3.145890 0.000000 
#    z 0.000000 0.000000 2.867090 
# 
# 
# High freq. dielectric constant tensor:
#      x y z
#    x 1.608910 0.000000 0.000000 
#    y 0.000000 1.595120 0.000000 
#    z 0.000000 0.000000 1.572300 
# 
# From -- ./inp_files/11427.got.cif
#   From: 2010.03.12/outbox.cif.g09.slc.cpg/sg59_6_cif.got.tgz:11427.got - 2010.04.16 16:29:54.
