data_PCOD8240401
_publ_section_title
;
Structure prediction by ZEFSAII (Michael W. Deem and Ramdas Pophale) SiO2 
 PCOD8240401
Probable space group: P M M N
;
_chemical_formula_sum "Si O2"
_cell_formula_units_Z 56
_cell_length_a 9.337867
_cell_length_b 13.775976
_cell_length_c 23.816736
_cell_angle_alpha 90.000000
_cell_angle_beta 90.000000
_cell_angle_gamma 90.000000
_cell_volume 3063.742804
_symmetry_space_group_name_H-M "P M M N"
_symmetry_group_IT_number 59
_space_group.IT_coordinate_system_code '2'
_symmetry_cell_setting 'orthorhombic'
loop_
_space_group_symop_operation_xyz
x,y,z
1/2-x,1/2-y,z
1/2+x,-y,-z
-x,1/2+y,-z
-x,-y,-z
1/2+x,1/2+y,-z
1/2-x,y,z
x,1/2-y,z
loop_
_atom_site_type_symbol
_atom_site_label
_atom_site_fract_x
_atom_site_fract_y
_atom_site_fract_z
Si Si1 0.417011 0.138794 0.030694
Si Si2 0.919096 0.861340 0.651934
Si Si3 0.407901 0.365415 0.470228
Si Si4 0.580212 0.527291 0.301731
Si Si5 0.079799 0.359037 0.807976
Si Si6 0.078699 0.141264 0.589723
Si Si7 0.582612 0.970876 0.082660
O O1 0.250000 0.128948 0.044078
O O2 0.468258 0.250000 0.036127
O O3 0.502194 0.073249 0.075266
O O4 0.451670 0.102472 0.968017
O O5 0.750000 0.881726 0.654278
O O6 0.951454 0.750000 0.665906
O O7 0.983680 0.888966 0.589506
O O8 0.002746 0.923022 0.698877
O O9 0.250000 0.411201 0.466984
O O10 0.394589 0.250000 0.476049
O O11 0.481526 0.401272 0.529266
O O12 0.750000 0.513286 0.300579
O O13 0.526844 0.588699 0.248541
O O14 0.523533 0.579057 0.358108
O O15 0.250000 0.353463 0.809534
O O16 0.016259 0.250000 0.809713
O O17 0.023581 0.419775 0.861214
O O18 0.250000 0.141050 0.587458
O O19 0.021503 0.250000 0.599586
O O20 0.750000 0.994000 0.086921
#
# Coordination Sequence:
#
# PCOD8240401 Si02
#       7
#     8   8   8   8   8   8   8
#     4   9  17  30  49  74 103 131 158 193 237 278
#     4   9  18  33  49  62  82 118 158 190 226 277
#     4   7  11  22  41  62  83 111 147 182 219 272
#     4  10  19  29  46  72  94 114 147 191 233 268
#     4   9  17  31  51  73  97 125 156 188 224 273
#     4   8  13  23  41  66  93 116 141 179 227 277
#     4   9  17  30  50  74  98 128 165 197 227 270
#
# _framework density 18.278296000000001
#
# number of rings (size 3 to 8) (size 9 to 14) (size 15 to 20)
#    0.000    3.286    0.000    2.571    0.000    4.571 
#    0.000    1.429    0.000    8.143    0.000    2.000 
#    0.000    0.000    0.000    0.000    0.000    0.000 
#
# Total GULP energy -693878.962866 kJ/mol
# GULP energy per Si atom -12390.695765 kJ/mol
# Density = 1.823669 g / cm^3
# Si number density = 18.278296 Si / 1000 Ang^3
#
#
#
# Elastic Constant Matrix: (Units=GPa)
#
#
# Indices 1 2 3 4 5 6 
#
# 1 23.6781 37.7612 29.2266 0.0000 0.0000 0.0000
# 2 37.7612 131.7966 80.6934 0.0000 0.0000 0.0000
# 3 29.2266 80.6934 122.2821 0.0000 0.0000 0.0000
# 4 0.0000 0.0000 0.0000 31.4351 0.0000 0.0000
# 5 0.0000 0.0000 0.0000 0.0000 17.7677 0.0000
# 6 0.0000 0.0000 0.0000 0.0000 0.0000 24.1873
#
#
#
# Elastic Compliance Matrix: (Units=1/GPa)
#
#
# Indices 1 2 3 4 5 6 
#
# 1 0.080989 -0.019049 -0.006787 0.000000 0.000000 0.000000
# 2 -0.019049 0.017212 -0.006805 0.000000 0.000000 0.000000
# 3 -0.006787 -0.006805 0.014290 0.000000 0.000000 0.000000
# 4 0.000000 0.000000 0.000000 0.031812 0.000000 0.000000
# 5 0.000000 0.000000 0.000000 0.000000 0.056282 0.000000
# 6 0.000000 0.000000 0.000000 0.000000 0.000000 0.041344
#
#
# Mechanical properties :
#
#
# Convention : Reuss Voigt Hill
#
# Bulk Modulus (GPa) = 21.18215 63.67991 42.43103
# Shear Modulus (GPa) = 15.48244 23.34974 19.41609
#
# Velocity S-wave (km/s) = 2.91355 3.57803 3.26275
# Velocity P-wave (km/s) = 4.78876 7.21002 6.12032
#
# Compressibility (1/GPa) = 0.04720957
#
# Stress axis : x y z
#
# Youngs Moduli (GPa) = 12.34736 58.10033 69.97668
#
# Poissons Ratio (x) = 1.10675 0.47491
# Poissons Ratio (y) = 0.23521 0.47619
# Poissons Ratio (z) = 0.08380 0.39537
#
# Static dielectric constant tensor:
#      x y z
#    x 2.835580 0.000000 0.000000 
#    y 0.000000 3.384350 0.000000 
#    z 0.000000 0.000000 3.531260 
# 
# 
# High freq. dielectric constant tensor:
#      x y z
#    x 1.654440 0.000000 0.000000 
#    y 0.000000 1.710590 0.000000 
#    z 0.000000 0.000000 1.707710 
# 
# From -- ./inp_files/29171.got.cif
#   From: 2010.03.12/outbox.cif.g09.slc.cpg/sg59_15_cif.got.tgz:29171.got - 2010.04.16 16:29:54.
