data_PCOD8240697
_publ_section_title
;
Structure prediction by ZEFSAII (Michael W. Deem and Ramdas Pophale) SiO2 
 PCOD8240697
Probable space group: P M M N
;
_chemical_formula_sum "Si O2"
_cell_formula_units_Z 56
_cell_length_a 18.347724
_cell_length_b 9.020909
_cell_length_c 20.249076
_cell_angle_alpha 90.000000
_cell_angle_beta 90.000000
_cell_angle_gamma 90.000000
_cell_volume 3351.488324
_symmetry_space_group_name_H-M "P M M N"
_symmetry_group_IT_number 59
_space_group.IT_coordinate_system_code '2'
_symmetry_cell_setting 'orthorhombic'
loop_
_space_group_symop_operation_xyz
x,y,z
1/2-x,1/2-y,z
1/2+x,-y,-z
-x,1/2+y,-z
-x,-y,-z
1/2+x,1/2+y,-z
1/2-x,y,z
x,1/2-y,z
loop_
_atom_site_type_symbol
_atom_site_label
_atom_site_fract_x
_atom_site_fract_y
_atom_site_fract_z
Si Si1 0.613447 0.419398 0.120940
Si Si2 0.332224 0.577009 0.025190
Si Si3 0.533965 0.920586 0.937806
Si Si4 0.533488 0.075770 0.563696
Si Si5 0.834256 0.578251 0.247248
Si Si6 0.670162 0.423556 0.490715
Si Si7 0.582980 0.074202 0.363141
O O1 0.634033 0.250000 0.138879
O O2 0.647044 0.461642 0.050066
O O3 0.524958 0.438590 0.121315
O O4 0.649010 0.530421 0.172743
O O5 0.250000 0.523478 0.039456
O O6 0.340973 0.750000 0.038338
O O7 0.386923 0.493732 0.076281
O O8 0.545915 0.750000 0.955222
O O9 0.500000 0.000000 0.000000
O O10 0.516104 0.250000 0.564278
O O11 0.620668 0.046192 0.556066
O O12 0.500000 0.000000 0.500000
O O13 0.497892 0.998106 0.627951
O O14 0.750000 0.548454 0.263517
O O15 0.854135 0.750000 0.256130
O O16 0.883407 0.479400 0.294913
O O17 0.750000 0.497392 0.500563
O O18 0.678978 0.250000 0.480140
O O19 0.633210 0.484987 0.423522
O O20 0.574651 0.250000 0.362170
#
# Coordination Sequence:
#
# PCOD8240697 Si02
#       7
#     8   8   8   8   8   8   8
#     4   9  18  32  47  63  88 123 157 185 217 264
#     4   9  17  29  46  69  95 121 150 186 227 270
#     4   9  17  29  45  65  89 118 152 188 227 270
#     4   9  16  27  44  65  90 118 150 189 228 268
#     4  11  23  34  45  66  93 119 151 190 226 262
#     4   8  14  25  43  67  90 114 146 181 219 263
#     4  10  19  31  47  64  88 124 158 186 219 265
#
# _framework density 16.708993
#
# number of rings (size 3 to 8) (size 9 to 14) (size 15 to 20)
#    0.000    2.714    0.000    4.286    0.000    5.429 
#    0.000    0.000    0.000    8.571    0.000    1.000 
#    0.000    5.714    0.000    0.000    0.000    0.000 
#
# Total GULP energy -693953.247942 kJ/mol
# GULP energy per Si atom -12392.022285 kJ/mol
# Density = 1.667096 g / cm^3
# Si number density = 16.708993 Si / 1000 Ang^3
#
#
#
# Elastic Constant Matrix: (Units=GPa)
#
#
# Indices 1 2 3 4 5 6 
#
# 1 88.9807 32.0317 8.0581 0.0000 0.0000 0.0000
# 2 32.0317 73.1584 16.4011 0.0000 0.0000 0.0000
# 3 8.0581 16.4011 25.4280 0.0000 0.0000 0.0000
# 4 0.0000 0.0000 0.0000 23.8387 0.0000 0.0000
# 5 0.0000 0.0000 0.0000 0.0000 25.0532 0.0000
# 6 0.0000 0.0000 0.0000 0.0000 0.0000 26.2130
#
#
#
# Elastic Compliance Matrix: (Units=1/GPa)
#
#
# Indices 1 2 3 4 5 6 
#
# 1 0.013347 -0.005723 -0.000538 0.000000 0.000000 0.000000
# 2 -0.005723 0.018434 -0.010076 0.000000 0.000000 0.000000
# 3 -0.000538 -0.010076 0.045996 0.000000 0.000000 0.000000
# 4 0.000000 0.000000 0.000000 0.041949 0.000000 0.000000
# 5 0.000000 0.000000 0.000000 0.000000 0.039915 0.000000
# 6 0.000000 0.000000 0.000000 0.000000 0.000000 0.038149
#
#
# Mechanical properties :
#
#
# Convention : Reuss Voigt Hill
#
# Bulk Modulus (GPa) = 22.17181 33.39433 27.78307
# Shear Modulus (GPa) = 20.36660 23.75940 22.06300
#
# Velocity S-wave (km/s) = 3.49506 3.77497 3.63771
# Velocity P-wave (km/s) = 5.43925 6.24738 5.85727
#
# Compressibility (1/GPa) = 0.04510232
#
# Stress axis : x y z
#
# Youngs Moduli (GPa) = 74.92050 54.24806 21.74080
#
# Poissons Ratio (x) = 0.31048 0.01170
# Poissons Ratio (y) = 0.42880 0.21906
# Poissons Ratio (z) = 0.04032 0.54661
#
# Static dielectric constant tensor:
#      x y z
#    x 3.735410 0.000000 0.000000 
#    y 0.000000 3.236910 0.000000 
#    z 0.000000 0.000000 2.686510 
# 
# 
# High freq. dielectric constant tensor:
#      x y z
#    x 1.652930 0.000000 0.000000 
#    y 0.000000 1.644220 0.000000 
#    z 0.000000 0.000000 1.593590 
# 
# From -- ./inp_files/30565.got.cif
#   From: 2010.03.12/outbox.cif.g09.slc.cpg/sg59_16_cif.got.tgz:30565.got - 2010.04.16 16:29:54.
