data_PCOD8240203
_publ_section_title
;
Structure prediction by ZEFSAII (Michael W. Deem and Ramdas Pophale) SiO2 
 PCOD8240203
Probable space group: P M M N
;
_chemical_formula_sum "Si O2"
_cell_formula_units_Z 64
_cell_length_a 25.244861
_cell_length_b 8.509986
_cell_length_c 14.759104
_cell_angle_alpha 90.000000
_cell_angle_beta 90.000000
_cell_angle_gamma 90.000000
_cell_volume 3170.748695
_symmetry_space_group_name_H-M "P M M N"
_symmetry_group_IT_number 59
_space_group.IT_coordinate_system_code '2'
_symmetry_cell_setting 'orthorhombic'
loop_
_space_group_symop_operation_xyz
x,y,z
1/2-x,1/2-y,z
1/2+x,-y,-z
-x,1/2+y,-z
-x,-y,-z
1/2+x,1/2+y,-z
1/2-x,y,z
x,1/2-y,z
loop_
_atom_site_type_symbol
_atom_site_label
_atom_site_fract_x
_atom_site_fract_y
_atom_site_fract_z
Si Si1 0.557844 0.066405 0.022846
Si Si2 0.985032 0.927022 0.716390
Si Si3 0.692041 0.936255 0.320206
Si Si4 0.809637 0.564660 0.709732
Si Si5 0.948125 0.068301 0.543656
Si Si6 0.839412 0.566731 0.513691
Si Si7 0.090175 0.435959 0.786886
Si Si8 0.604688 0.571305 0.852960
O O1 0.552327 0.250000 0.041341
O O2 0.583791 0.984859 0.109553
O O3 0.500000 0.000000 0.000000
O O4 0.600056 0.034142 0.942593
O O5 0.986036 0.750000 0.676822
O O6 0.954209 0.931533 0.810991
O O7 0.044585 0.986264 0.726576
O O8 0.951850 0.040392 0.650913
O O9 0.750000 0.985408 0.281918
O O10 0.686209 0.750000 0.325391
O O11 0.687860 0.003855 0.423258
O O12 0.646223 0.999548 0.252995
O O13 0.750000 0.524047 0.741397
O O14 0.819588 0.750000 0.702952
O O15 0.818950 0.490808 0.608924
O O16 0.851128 0.498619 0.784344
O O17 0.939661 0.250000 0.521487
O O18 0.901081 0.967430 0.501518
O O19 0.000000 0.000000 0.500000
O O20 0.827528 0.750000 0.518184
O O21 0.085235 0.250000 0.778407
O O22 0.620212 0.750000 0.879094
#
# Coordination Sequence:
#
# PCOD8240203 Si02
#       8
#     8   8   8   8   8   8   8   8
#     4  12  24  39  61  87 116 152 196 244 299 355
#     4  11  21  36  58  85 120 155 188 236 294 353
#     4   9  19  36  60  89 118 151 196 247 291 337
#     4   9  17  32  58  89 119 153 195 239 284 340
#     4  12  24  36  52  78 117 160 202 244 295 352
#     4  10  18  34  59  88 118 151 196 244 292 345
#     4  11  22  37  60  90 121 155 196 242 294 353
#     4  10  20  36  58  87 120 152 189 236 290 349
#
# _framework density 20.184507
#
# number of rings (size 3 to 8) (size 9 to 14) (size 15 to 20)
#    0.000    1.500    2.500    4.125    0.000    3.000 
#    0.000    1.250    0.000    9.375    0.000    0.000 
#    0.000    0.000    0.000    0.000    0.000    0.000 
#
# Total GULP energy -793433.956208 kJ/mol
# GULP energy per Si atom -12397.405566 kJ/mol
# Density = 2.013857 g / cm^3
# Si number density = 20.184507 Si / 1000 Ang^3
#
#
#
# Elastic Constant Matrix: (Units=GPa)
#
#
# Indices 1 2 3 4 5 6 
#
# 1 143.1482 10.2935 49.6979 0.0000 0.0000 0.0000
# 2 10.2935 26.4943 8.6021 0.0000 0.0000 0.0000
# 3 49.6979 8.6021 98.1135 0.0000 0.0000 0.0000
# 4 0.0000 0.0000 0.0000 24.0787 0.0000 0.0000
# 5 0.0000 0.0000 0.0000 0.0000 26.4203 0.0000
# 6 0.0000 0.0000 0.0000 0.0000 0.0000 21.2030
#
#
#
# Elastic Compliance Matrix: (Units=1/GPa)
#
#
# Indices 1 2 3 4 5 6 
#
# 1 0.008576 -0.001978 -0.004171 0.000000 0.000000 0.000000
# 2 -0.001978 0.039306 -0.002444 0.000000 0.000000 0.000000
# 3 -0.004171 -0.002444 0.012519 0.000000 0.000000 0.000000
# 4 0.000000 0.000000 0.000000 0.041530 0.000000 0.000000
# 5 0.000000 0.000000 0.000000 0.000000 0.037850 0.000000
# 6 0.000000 0.000000 0.000000 0.000000 0.000000 0.047163
#
#
# Mechanical properties :
#
#
# Convention : Reuss Voigt Hill
#
# Bulk Modulus (GPa) = 23.13982 44.99367 34.06674
# Shear Modulus (GPa) = 22.87962 27.61788 25.24875
#
# Velocity S-wave (km/s) = 3.37044 3.70303 3.54064
# Velocity P-wave (km/s) = 5.16096 6.37360 5.79906
#
# Compressibility (1/GPa) = 0.04321556
#
# Stress axis : x y z
#
# Youngs Moduli (GPa) = 116.60543 25.44143 79.87767
#
# Poissons Ratio (x) = 0.05032 0.33314
# Poissons Ratio (y) = 0.23062 0.19525
# Poissons Ratio (z) = 0.48631 0.06219
#
# Static dielectric constant tensor:
#      x y z
#    x 3.728950 0.000000 0.000000 
#    y 0.000000 3.482020 0.000000 
#    z 0.000000 0.000000 3.893720 
# 
# 
# High freq. dielectric constant tensor:
#      x y z
#    x 1.788870 0.000000 0.000000 
#    y 0.000000 1.755200 0.000000 
#    z 0.000000 0.000000 1.791240 
# 
# From -- ./inp_files/24750.got.cif
#   From: 2010.03.12/outbox.cif.g09.slc.cpg/sg59_13_cif.got.tgz:24750.got - 2010.04.16 16:29:54.
