data_PCOD8240229
_publ_section_title
;
Structure prediction by ZEFSAII (Michael W. Deem and Ramdas Pophale) SiO2 
 PCOD8240229
Probable space group: P M M N
;
_chemical_formula_sum "Si O2"
_cell_formula_units_Z 64
_cell_length_a 28.923234
_cell_length_b 8.599537
_cell_length_c 12.712822
_cell_angle_alpha 90.000000
_cell_angle_beta 90.000000
_cell_angle_gamma 90.000000
_cell_volume 3162.014716
_symmetry_space_group_name_H-M "P M M N"
_symmetry_group_IT_number 59
_space_group.IT_coordinate_system_code '2'
_symmetry_cell_setting 'orthorhombic'
loop_
_space_group_symop_operation_xyz
x,y,z
1/2-x,1/2-y,z
1/2+x,-y,-z
-x,1/2+y,-z
-x,-y,-z
1/2+x,1/2+y,-z
1/2-x,y,z
x,1/2-y,z
loop_
_atom_site_type_symbol
_atom_site_label
_atom_site_fract_x
_atom_site_fract_y
_atom_site_fract_z
Si Si1 0.130716 0.932928 0.386006
Si Si2 0.879785 0.566272 0.837865
Si Si3 0.949901 0.566319 0.489207
Si Si4 0.938604 0.567092 0.252674
Si Si5 0.161407 0.065777 0.786440
Si Si6 0.197132 0.930897 0.570393
Si Si7 0.801141 0.565017 0.995099
Si Si8 0.519722 0.435051 0.891922
O O1 0.135335 0.750000 0.366730
O O2 0.167311 0.995625 0.472352
O O3 0.138698 0.020454 0.276760
O O4 0.079815 0.974965 0.425322
O O5 0.885247 0.750000 0.846850
O O6 0.840683 0.501187 0.917448
O O7 0.928920 0.492097 0.866511
O O8 0.947585 0.750000 0.510129
O O9 0.933183 0.518829 0.373590
O O10 0.000000 0.500000 0.500000
O O11 0.942687 0.750000 0.241849
O O12 0.891444 0.505935 0.198846
O O13 0.984606 0.498611 0.197692
O O14 0.161732 0.250000 0.782505
O O15 0.184266 0.010671 0.679125
O O16 0.189605 0.002624 0.886676
O O17 0.250000 0.967129 0.542867
O O18 0.187218 0.750000 0.584385
O O19 0.750000 0.506383 0.960345
O O20 0.802677 0.750000 0.994620
O O21 0.520309 0.250000 0.896146
O O22 0.500000 0.500000 0.000000
#
# Coordination Sequence:
#
# PCOD8240229 Si02
#       8
#     8   8   8   8   8   8   8   8
#     4  11  23  40  59  83 119 160 203 250 303 364
#     4  11  23  40  62  87 120 159 204 256 308 368
#     4  11  21  36  58  85 117 154 199 246 298 354
#     4   9  19  34  55  82 115 151 190 242 295 348
#     4  10  18  35  62  89 115 147 193 247 304 364
#     4  10  22  39  58  84 121 161 199 248 309 364
#     4   9  19  36  60  89 118 151 194 250 314 371
#     4  11  22  39  61  88 122 161 204 249 302 363
#
# _framework density 20.240261
#
# number of rings (size 3 to 8) (size 9 to 14) (size 15 to 20)
#    0.000    1.750    1.250    3.375    0.000    4.750 
#    0.000    5.625    0.000    2.625    0.000    0.000 
#    0.000    0.000    0.000    0.000    0.000    0.000 
#
# Total GULP energy -793524.286473 kJ/mol
# GULP energy per Si atom -12398.816976 kJ/mol
# Density = 2.019419 g / cm^3
# Si number density = 20.240261 Si / 1000 Ang^3
#
#
#
# Elastic Constant Matrix: (Units=GPa)
#
#
# Indices 1 2 3 4 5 6 
#
# 1 125.8186 21.4564 41.8114 0.0000 0.0000 0.0000
# 2 21.4564 41.9690 24.4163 0.0000 0.0000 0.0000
# 3 41.8114 24.4163 110.3446 0.0000 0.0000 0.0000
# 4 0.0000 0.0000 0.0000 27.2886 0.0000 0.0000
# 5 0.0000 0.0000 0.0000 0.0000 39.3907 0.0000
# 6 0.0000 0.0000 0.0000 0.0000 0.0000 25.5306
#
#
#
# Elastic Compliance Matrix: (Units=1/GPa)
#
#
# Indices 1 2 3 4 5 6 
#
# 1 0.009443 -0.003152 -0.002881 0.000000 0.000000 0.000000
# 2 -0.003152 0.028399 -0.005090 0.000000 0.000000 0.000000
# 3 -0.002881 -0.005090 0.011280 0.000000 0.000000 0.000000
# 4 0.000000 0.000000 0.000000 0.036645 0.000000 0.000000
# 5 0.000000 0.000000 0.000000 0.000000 0.025387 0.000000
# 6 0.000000 0.000000 0.000000 0.000000 0.000000 0.039169
#
#
# Mechanical properties :
#
#
# Convention : Reuss Voigt Hill
#
# Bulk Modulus (GPa) = 37.20484 50.38894 43.79689
# Shear Modulus (GPa) = 27.54414 31.13851 29.34133
#
# Velocity S-wave (km/s) = 3.69298 3.92656 3.81156
# Velocity P-wave (km/s) = 6.05026 6.74586 6.40751
#
# Compressibility (1/GPa) = 0.02687822
#
# Stress axis : x y z
#
# Youngs Moduli (GPa) = 105.90196 35.21193 88.65035
#
# Poissons Ratio (x) = 0.11098 0.25537
# Poissons Ratio (y) = 0.33377 0.45121
# Poissons Ratio (z) = 0.30506 0.17922
#
# Static dielectric constant tensor:
#      x y z
#    x 4.042560 0.000000 0.000000 
#    y 0.000000 3.643020 0.000000 
#    z 0.000000 0.000000 3.538130 
# 
# 
# High freq. dielectric constant tensor:
#      x y z
#    x 1.808190 0.000000 0.000000 
#    y 0.000000 1.764920 0.000000 
#    z 0.000000 0.000000 1.801530 
# 
# From -- ./inp_files/19373.got.cif
#   From: 2010.03.12/outbox.cif.g09.slc.cpg/sg59_10_cif.got.tgz:19373.got - 2010.04.16 16:29:54.
