data_PCOD8240507
_publ_section_title
;
Structure prediction by ZEFSAII (Michael W. Deem and Ramdas Pophale) SiO2 
 PCOD8240507
Probable space group: P M M N
;
_chemical_formula_sum "Si O2"
_cell_formula_units_Z 64
_cell_length_a 13.852247
_cell_length_b 8.888547
_cell_length_c 30.671812
_cell_angle_alpha 90.000000
_cell_angle_beta 90.000000
_cell_angle_gamma 90.000000
_cell_volume 3776.508214
_symmetry_space_group_name_H-M "P M M N"
_symmetry_group_IT_number 59
_space_group.IT_coordinate_system_code '2'
_symmetry_cell_setting 'orthorhombic'
loop_
_space_group_symop_operation_xyz
x,y,z
1/2-x,1/2-y,z
1/2+x,-y,-z
-x,1/2+y,-z
-x,-y,-z
1/2+x,1/2+y,-z
1/2-x,y,z
x,1/2-y,z
loop_
_atom_site_type_symbol
_atom_site_label
_atom_site_fract_x
_atom_site_fract_y
_atom_site_fract_z
Si Si1 0.472062 0.073292 0.934495
Si Si2 0.516079 0.073988 0.546411
Si Si3 0.642135 0.071060 0.240557
Si Si4 0.520770 0.081568 0.318101
Si Si5 0.859191 0.572278 0.980124
Si Si6 0.861309 0.425179 0.142010
Si Si7 0.860683 0.928432 0.617842
Si Si8 0.140455 0.581115 0.599013
O O1 0.485223 0.250000 0.933964
O O2 0.577094 0.000412 0.941850
O O3 0.430147 0.021290 0.888612
O O4 0.399643 0.020961 0.972835
O O5 0.534505 0.250000 0.541101
O O6 0.500000 0.000000 0.500000
O O7 0.607073 0.002239 0.572129
O O8 0.419285 0.042969 0.573197
O O9 0.750000 0.007259 0.250277
O O10 0.645690 0.250000 0.246286
O O11 0.561385 0.001725 0.273932
O O12 0.611790 0.029297 0.191438
O O13 0.489231 0.250000 0.305771
O O14 0.426905 0.007180 0.342040
O O15 0.611343 0.079830 0.350580
O O16 0.750000 0.512625 0.975825
O O17 0.863919 0.750000 0.975063
O O18 0.750000 0.464967 0.132388
O O19 0.880411 0.250000 0.133682
O O20 0.750000 0.970099 0.627516
O O21 0.877053 0.750000 0.613128
O O22 0.250000 0.531570 0.594692
O O23 0.123051 0.750000 0.580062
#
# Coordination Sequence:
#
# PCOD8240507 Si02
#       8
#     8   8   8   8   8   8   8   8
#     4  10  19  30  46  68  93 121 153 191 236 284
#     4  11  22  35  50  68  93 123 155 190 227 270
#     4   8  13  22  40  68  97 123 153 189 229 273
#     4   8  13  24  45  71  95 119 149 187 228 267
#     4   9  18  32  48  66  89 118 154 195 236 278
#     4   9  17  28  43  65  94 128 162 193 228 273
#     4   9  18  33  52  73  96 122 155 196 238 276
#     4   9  17  30  49  72  96 121 148 179 220 269
#
# _framework density 16.946871000000002
#
# number of rings (size 3 to 8) (size 9 to 14) (size 15 to 20)
#    0.000    2.875    0.000    3.750    0.000    4.000 
#    0.000    0.000    0.000    3.750    0.000    7.000 
#    0.000    0.000    0.000    0.000    0.000    0.000 
#
# Total GULP energy -793202.850074 kJ/mol
# GULP energy per Si atom -12393.794532 kJ/mol
# Density = 1.690830 g / cm^3
# Si number density = 16.946871 Si / 1000 Ang^3
#
#
#
# Elastic Constant Matrix: (Units=GPa)
#
#
# Indices 1 2 3 4 5 6 
#
# 1 128.3850 29.1839 60.7499 0.0000 0.0000 0.0000
# 2 29.1839 39.7206 24.7997 0.0000 0.0000 0.0000
# 3 60.7499 24.7997 110.6472 0.0000 0.0000 0.0000
# 4 0.0000 0.0000 0.0000 18.6273 0.0000 0.0000
# 5 0.0000 0.0000 0.0000 0.0000 22.9998 0.0000
# 6 0.0000 0.0000 0.0000 0.0000 0.0000 19.0568
#
#
#
# Elastic Compliance Matrix: (Units=1/GPa)
#
#
# Indices 1 2 3 4 5 6 
#
# 1 0.011372 -0.005182 -0.005082 0.000000 0.000000 0.000000
# 2 -0.005182 0.031634 -0.004245 0.000000 0.000000 0.000000
# 3 -0.005082 -0.004245 0.012779 0.000000 0.000000 0.000000
# 4 0.000000 0.000000 0.000000 0.053685 0.000000 0.000000
# 5 0.000000 0.000000 0.000000 0.000000 0.043479 0.000000
# 6 0.000000 0.000000 0.000000 0.000000 0.000000 0.052475
#
#
# Mechanical properties :
#
#
# Convention : Reuss Voigt Hill
#
# Bulk Modulus (GPa) = 37.36005 56.46885 46.91445
# Shear Modulus (GPa) = 20.54540 23.07141 21.80840
#
# Velocity S-wave (km/s) = 3.48565 3.69371 3.59119
# Velocity P-wave (km/s) = 6.18813 7.18226 6.70364
#
# Compressibility (1/GPa) = 0.02676656
#
# Stress axis : x y z
#
# Youngs Moduli (GPa) = 87.93646 31.61185 78.25059
#
# Poissons Ratio (x) = 0.16382 0.39768
# Poissons Ratio (y) = 0.45570 0.33217
# Poissons Ratio (z) = 0.44690 0.13419
#
# Static dielectric constant tensor:
#      x y z
#    x 3.237000 0.000000 0.000000 
#    y 0.000000 2.991990 0.000000 
#    z 0.000000 0.000000 3.278680 
# 
# 
# High freq. dielectric constant tensor:
#      x y z
#    x 1.648460 0.000000 0.000000 
#    y 0.000000 1.623800 0.000000 
#    z 0.000000 0.000000 1.647660 
# 
# From -- ./inp_files/33351.got.cif
#   From: 2010.03.12/outbox.cif.g09.slc.cpg/sg59_17_cif.got.tgz:33351.got - 2010.04.16 16:29:54.
