data_PCOD8240423
_publ_section_title
;
Structure prediction by ZEFSAII (Michael W. Deem and Ramdas Pophale) SiO2 
 PCOD8240423
Probable space group: P M M N
;
_chemical_formula_sum "Si O2"
_cell_formula_units_Z 48
_cell_length_a 9.044176
_cell_length_b 26.338443
_cell_length_c 11.849630
_cell_angle_alpha 90.000000
_cell_angle_beta 90.000000
_cell_angle_gamma 90.000000
_cell_volume 2822.694604
_symmetry_space_group_name_H-M "P M M N"
_symmetry_group_IT_number 59
_space_group.IT_coordinate_system_code '2'
_symmetry_cell_setting 'orthorhombic'
loop_
_space_group_symop_operation_xyz
x,y,z
1/2-x,1/2-y,z
1/2+x,-y,-z
-x,1/2+y,-z
-x,-y,-z
1/2+x,1/2+y,-z
1/2-x,y,z
x,1/2-y,z
loop_
_atom_site_type_symbol
_atom_site_label
_atom_site_fract_x
_atom_site_fract_y
_atom_site_fract_z
Si Si1 0.917910 0.535414 0.144691
Si Si2 0.074108 0.119093 0.021192
Si Si3 0.081437 0.389036 0.655396
Si Si4 0.075364 0.946779 0.530915
Si Si5 0.073982 0.306752 0.830593
Si Si6 0.074986 0.928464 0.785946
O O1 0.750000 0.527461 0.108854
O O2 0.925903 0.561886 0.265827
O O3 0.991594 0.480172 0.158040
O O4 0.990797 0.570523 0.048456
O O5 0.250000 0.117735 0.032689
O O6 0.000247 0.118166 0.145454
O O7 0.024375 0.168848 0.950398
O O8 0.250000 0.379577 0.615229
O O9 0.018752 0.340124 0.723923
O O10 0.978189 0.400783 0.548803
O O11 0.250000 0.954601 0.520071
O O12 0.029213 0.928067 0.655420
O O13 0.000000 0.000000 0.500000
O O14 0.250000 0.306771 0.826804
O O15 0.008283 0.250000 0.821717
O O16 0.250000 0.924570 0.798186
#
# Coordination Sequence:
#
# PCOD8240423 Si02
#       6
#     8   8   8   8   8   8
#     4   8  14  27  43  62  92 125 151 184 229 272
#     4   9  17  28  46  70  93 118 156 196 229 277
#     4   9  16  30  50  71  97 125 159 199 238 283
#     4  11  21  32  47  67  96 133 168 199 234 281
#     4   8  15  30  54  78  97 120 151 197 254 295
#     4  10  19  30  43  61  95 132 157 185 229 278
#
# _framework density 17.005026000000001
#
# number of rings (size 3 to 8) (size 9 to 14) (size 15 to 20)
#    0.000    2.833    1.667    3.000    0.000    1.333 
#    0.000    3.333    0.000    3.000    0.000    7.000 
#    0.000    0.000    0.000    0.000    0.000    0.000 
#
# Total GULP energy -594768.132593 kJ/mol
# GULP energy per Si atom -12391.002762 kJ/mol
# Density = 1.696632 g / cm^3
# Si number density = 17.005026 Si / 1000 Ang^3
#
#
#
# Elastic Constant Matrix: (Units=GPa)
#
#
# Indices 1 2 3 4 5 6 
#
# 1 37.5563 23.4206 40.1316 0.0000 0.0000 0.0000
# 2 23.4206 103.4844 61.2365 0.0000 0.0000 0.0000
# 3 40.1316 61.2365 124.6893 0.0000 0.0000 0.0000
# 4 0.0000 0.0000 0.0000 15.7812 0.0000 0.0000
# 5 0.0000 0.0000 0.0000 0.0000 29.7920 0.0000
# 6 0.0000 0.0000 0.0000 0.0000 0.0000 14.7951
#
#
#
# Elastic Compliance Matrix: (Units=1/GPa)
#
#
# Indices 1 2 3 4 5 6 
#
# 1 0.040896 -0.002068 -0.012147 0.000000 0.000000 0.000000
# 2 -0.002068 0.013727 -0.006076 0.000000 0.000000 0.000000
# 3 -0.012147 -0.006076 0.014913 0.000000 0.000000 0.000000
# 4 0.000000 0.000000 0.000000 0.063366 0.000000 0.000000
# 5 0.000000 0.000000 0.000000 0.000000 0.033566 0.000000
# 6 0.000000 0.000000 0.000000 0.000000 0.000000 0.067590
#
#
# Mechanical properties :
#
#
# Convention : Reuss Voigt Hill
#
# Bulk Modulus (GPa) = 34.53627 57.25638 45.89632
# Shear Modulus (GPa) = 17.58760 21.46977 19.52868
#
# Velocity S-wave (km/s) = 3.21948 3.55710 3.39249
# Velocity P-wave (km/s) = 5.84582 7.11435 6.51105
#
# Compressibility (1/GPa) = 0.02895507
#
# Stress axis : x y z
#
# Youngs Moduli (GPa) = 24.45215 72.85139 67.05358
#
# Poissons Ratio (x) = 0.15063 0.81451
# Poissons Ratio (y) = 0.05056 0.40741
# Poissons Ratio (z) = 0.29702 0.44263
#
# Static dielectric constant tensor:
#      x y z
#    x 2.824740 0.000000 0.000000 
#    y 0.000000 3.249590 0.000000 
#    z 0.000000 0.000000 3.295630 
# 
# 
# High freq. dielectric constant tensor:
#      x y z
#    x 1.622180 0.000000 0.000000 
#    y 0.000000 1.629150 0.000000 
#    z 0.000000 0.000000 1.659900 
# 
# From -- ./inp_files/14499.got.cif
#   From: 2010.03.12/outbox.cif.g09.slc.cpg/sg59_8_cif.got.tgz:14499.got - 2010.04.16 16:29:54.
