data_PCOD8240470
_publ_section_title
;
Structure prediction by ZEFSAII (Michael W. Deem and Ramdas Pophale) SiO2 
 PCOD8240470
Probable space group: P M M N
;
_chemical_formula_sum "Si O2"
_cell_formula_units_Z 48
_cell_length_a 25.806546
_cell_length_b 9.449393
_cell_length_c 11.707896
_cell_angle_alpha 90.000000
_cell_angle_beta 90.000000
_cell_angle_gamma 90.000000
_cell_volume 2855.042971
_symmetry_space_group_name_H-M "P M M N"
_symmetry_group_IT_number 59
_space_group.IT_coordinate_system_code '2'
_symmetry_cell_setting 'orthorhombic'
loop_
_space_group_symop_operation_xyz
x,y,z
1/2-x,1/2-y,z
1/2+x,-y,-z
-x,1/2+y,-z
-x,-y,-z
1/2+x,1/2+y,-z
1/2-x,y,z
x,1/2-y,z
loop_
_atom_site_type_symbol
_atom_site_label
_atom_site_fract_x
_atom_site_fract_y
_atom_site_fract_z
Si Si1 0.620202 0.590435 0.972701
Si Si2 0.809690 0.583469 0.180810
Si Si3 0.109888 0.586138 0.687008
Si Si4 0.576723 0.088934 0.786854
Si Si5 0.050331 0.586303 0.463860
Si Si6 0.038711 0.091801 0.841414
O O1 0.631255 0.750000 0.933975
O O2 0.619840 0.497551 0.857639
O O3 0.665071 0.538875 0.059676
O O4 0.564668 0.575519 0.034786
O O5 0.750000 0.539527 0.179551
O O6 0.817733 0.750000 0.202160
O O7 0.837780 0.498919 0.282875
O O8 0.117109 0.750000 0.720255
O O9 0.097237 0.567939 0.553260
O O10 0.061115 0.524328 0.755488
O O11 0.595674 0.250000 0.785149
O O12 0.571444 0.030488 0.657849
O O13 0.522389 0.070556 0.852606
O O14 0.033267 0.750000 0.453107
O O15 0.000000 0.500000 0.500000
O O16 0.051063 0.250000 0.793319
#
# Coordination Sequence:
#
# PCOD8240470 Si02
#       6
#     8   8   8   8   8   8
#     4   9  18  30  46  71  96 121 159 202 245 289
#     4   9  19  37  58  75  94 123 158 202 256 305
#     4  10  19  30  48  76 102 126 163 208 246 282
#     4  10  19  30  45  66  98 137 168 194 233 284
#     4  10  20  32  47  69 100 137 172 202 235 281
#     4   9  17  30  46  65  96 135 167 196 233 283
#
# _framework density 16.812356999999999
#
# number of rings (size 3 to 8) (size 9 to 14) (size 15 to 20)
#    0.000    2.500    1.667    2.000    0.000    5.000 
#    0.000    0.000    0.000    1.000    0.000    4.667 
#    0.000    0.000    0.000    0.000    0.000    0.000 
#
# Total GULP energy -595087.721223 kJ/mol
# GULP energy per Si atom -12397.660859 kJ/mol
# Density = 1.677409 g / cm^3
# Si number density = 16.812357 Si / 1000 Ang^3
#
#
#
# Elastic Constant Matrix: (Units=GPa)
#
#
# Indices 1 2 3 4 5 6 
#
# 1 76.4192 39.2049 44.3299 0.0000 0.0000 0.0000
# 2 39.2049 72.9618 51.9307 0.0000 0.0000 0.0000
# 3 44.3299 51.9307 104.2614 0.0000 0.0000 0.0000
# 4 0.0000 0.0000 0.0000 26.9808 0.0000 0.0000
# 5 0.0000 0.0000 0.0000 0.0000 15.5234 0.0000
# 6 0.0000 0.0000 0.0000 0.0000 0.0000 21.5280
#
#
#
# Elastic Compliance Matrix: (Units=1/GPa)
#
#
# Indices 1 2 3 4 5 6 
#
# 1 0.019476 -0.007082 -0.004754 0.000000 0.000000 0.000000
# 2 -0.007082 0.023808 -0.008847 0.000000 0.000000 0.000000
# 3 -0.004754 -0.008847 0.016019 0.000000 0.000000 0.000000
# 4 0.000000 0.000000 0.000000 0.037063 0.000000 0.000000
# 5 0.000000 0.000000 0.000000 0.000000 0.064419 0.000000
# 6 0.000000 0.000000 0.000000 0.000000 0.000000 0.046451
#
#
# Mechanical properties :
#
#
# Convention : Reuss Voigt Hill
#
# Bulk Modulus (GPa) = 55.74759 58.28593 57.01676
# Shear Modulus (GPa) = 19.63997 20.68488 20.16243
#
# Velocity S-wave (km/s) = 3.42158 3.51142 3.46679
# Velocity P-wave (km/s) = 6.98858 7.15429 7.07192
#
# Compressibility (1/GPa) = 0.01793800
#
# Stress axis : x y z
#
# Youngs Moduli (GPa) = 51.34398 42.00211 62.42537
#
# Poissons Ratio (x) = 0.29746 0.29675
# Poissons Ratio (y) = 0.36362 0.55230
# Poissons Ratio (z) = 0.24407 0.37161
#
# Static dielectric constant tensor:
#      x y z
#    x 2.926290 0.000000 0.000000 
#    y 0.000000 3.186080 0.000000 
#    z 0.000000 0.000000 3.131270 
# 
# 
# High freq. dielectric constant tensor:
#      x y z
#    x 1.614640 0.000000 0.000000 
#    y 0.000000 1.651270 0.000000 
#    z 0.000000 0.000000 1.642910 
# 
# From -- ./inp_files/14471.got.cif
#   From: 2010.03.12/outbox.cif.g09.slc.cpg/sg59_8_cif.got.tgz:14471.got - 2010.04.16 16:29:54.
