data_PCOD8240349
_publ_section_title
;
Structure prediction by ZEFSAII (Michael W. Deem and Ramdas Pophale) SiO2 
 PCOD8240349
Probable space group: P M M N
;
_chemical_formula_sum "Si O2"
_cell_formula_units_Z 64
_cell_length_a 8.851583
_cell_length_b 23.435365
_cell_length_c 19.001330
_cell_angle_alpha 90.000000
_cell_angle_beta 90.000000
_cell_angle_gamma 90.000000
_cell_volume 3941.637386
_symmetry_space_group_name_H-M "P M M N"
_symmetry_group_IT_number 59
_space_group.IT_coordinate_system_code '2'
_symmetry_cell_setting 'orthorhombic'
loop_
_space_group_symop_operation_xyz
x,y,z
1/2-x,1/2-y,z
1/2+x,-y,-z
-x,1/2+y,-z
-x,-y,-z
1/2+x,1/2+y,-z
1/2-x,y,z
x,1/2-y,z
loop_
_atom_site_type_symbol
_atom_site_label
_atom_site_fract_x
_atom_site_fract_y
_atom_site_fract_z
Si Si1 0.927790 0.976125 0.895240
Si Si2 0.572035 0.684154 0.103961
Si Si3 0.070619 0.130593 0.750800
Si Si4 0.075190 0.482098 0.388818
Si Si5 0.424901 0.080612 0.526117
Si Si6 0.071514 0.000864 0.752838
Si Si7 0.427736 0.912922 0.018536
Si Si8 0.071769 0.312678 0.609595
O O1 0.750000 0.968101 0.891828
O O2 0.995886 0.926661 0.944029
O O3 0.997343 0.968222 0.818159
O O4 0.973666 0.038308 0.925301
O O5 0.750000 0.673769 0.097143
O O6 0.529118 0.750000 0.093044
O O7 0.513394 0.664188 0.180484
O O8 0.488283 0.647893 0.044375
O O9 0.250000 0.130161 0.747634
O O10 0.010683 0.065834 0.751914
O O11 0.003626 0.161982 0.682073
O O12 0.250000 0.486150 0.368398
O O13 0.043934 0.430477 0.443698
O O14 0.026514 0.540911 0.424982
O O15 0.979672 0.469709 0.318784
O O16 0.250000 0.067634 0.545021
O O17 0.467829 0.145937 0.544133
O O18 0.250000 0.997609 0.760299
O O19 0.250000 0.910071 0.007516
O O20 0.250000 0.307469 0.618575
O O21 0.001700 0.250000 0.595082
#
# Coordination Sequence:
#
# PCOD8240349 Si02
#       8
#     8   8   8   8   8   8   8   8
#     4  10  20  33  50  71  96 124 158 198 244 290
#     4  10  19  31  48  70  97 131 168 200 233 275
#     4   9  16  26  42  66  95 124 157 195 227 268
#     4  10  19  29  44  65  94 124 155 194 239 286
#     4   9  17  30  45  66  91 121 158 197 237 279
#     4  11  19  30  49  70  95 126 160 195 237 288
#     4  10  20  33  49  70  96 127 161 198 241 286
#     4   9  15  25  44  68  91 119 159 200 233 268
#
# _framework density 16.236906999999999
#
# number of rings (size 3 to 8) (size 9 to 14) (size 15 to 20)
#    0.000    2.250    2.500    1.875    0.000    3.250 
#    0.000    0.000    0.000    0.375    0.000    0.875 
#    0.000    5.000    0.000    0.000    0.000    0.000 
#
# Total GULP energy -793622.178101 kJ/mol
# GULP energy per Si atom -12400.346533 kJ/mol
# Density = 1.619995 g / cm^3
# Si number density = 16.236907 Si / 1000 Ang^3
#
#
#
# Elastic Constant Matrix: (Units=GPa)
#
#
# Indices 1 2 3 4 5 6 
#
# 1 48.3930 29.1978 38.7839 0.0000 0.0000 0.0000
# 2 29.1978 95.7746 66.1548 0.0000 0.0000 0.0000
# 3 38.7839 66.1548 128.2053 0.0000 0.0000 0.0000
# 4 0.0000 0.0000 0.0000 25.7725 0.0000 0.0000
# 5 0.0000 0.0000 0.0000 0.0000 26.1332 0.0000
# 6 0.0000 0.0000 0.0000 0.0000 0.0000 18.2928
#
#
#
# Elastic Compliance Matrix: (Units=1/GPa)
#
#
# Indices 1 2 3 4 5 6 
#
# 1 0.028335 -0.004222 -0.006393 0.000000 0.000000 0.000000
# 2 -0.004222 0.016853 -0.007419 0.000000 0.000000 0.000000
# 3 -0.006393 -0.007419 0.013562 0.000000 0.000000 0.000000
# 4 0.000000 0.000000 0.000000 0.038801 0.000000 0.000000
# 5 0.000000 0.000000 0.000000 0.000000 0.038266 0.000000
# 6 0.000000 0.000000 0.000000 0.000000 0.000000 0.054666
#
#
# Mechanical properties :
#
#
# Convention : Reuss Voigt Hill
#
# Bulk Modulus (GPa) = 44.08830 60.07176 52.08003
# Shear Modulus (GPa) = 21.35726 23.25547 22.30636
#
# Velocity S-wave (km/s) = 3.63071 3.78863 3.71051
# Velocity P-wave (km/s) = 6.69240 7.49771 7.10647
#
# Compressibility (1/GPa) = 0.02268175
#
# Stress axis : x y z
#
# Youngs Moduli (GPa) = 35.29165 59.33697 73.73461
#
# Poissons Ratio (x) = 0.25054 0.47139
# Poissons Ratio (y) = 0.14902 0.54703
# Poissons Ratio (z) = 0.22562 0.44021
#
# Static dielectric constant tensor:
#      x y z
#    x 2.891960 0.000000 0.000000 
#    y 0.000000 3.015590 0.000000 
#    z 0.000000 0.000000 3.129410 
# 
# 
# High freq. dielectric constant tensor:
#      x y z
#    x 1.611350 0.000000 0.000000 
#    y 0.000000 1.597800 0.000000 
#    z 0.000000 0.000000 1.622890 
# 
# From -- ./inp_files/26478.got.cif
#   From: 2010.03.12/outbox.cif.g09.slc.cpg/sg59_14_cif.got.tgz:26478.got - 2010.04.16 16:29:54.
