data_PCOD8240170
_publ_section_title
;
Structure prediction by ZEFSAII (Michael W. Deem and Ramdas Pophale) SiO2 
 PCOD8240170
Probable space group: P M M N
;
_chemical_formula_sum "Si O2"
_cell_formula_units_Z 40
_cell_length_a 8.883448
_cell_length_b 9.994762
_cell_length_c 23.876589
_cell_angle_alpha 90.000000
_cell_angle_beta 90.000000
_cell_angle_gamma 90.000000
_cell_volume 2119.953354
_symmetry_space_group_name_H-M "P M M N"
_symmetry_group_IT_number 59
_space_group.IT_coordinate_system_code '2'
_symmetry_cell_setting 'orthorhombic'
loop_
_space_group_symop_operation_xyz
x,y,z
1/2-x,1/2-y,z
1/2+x,-y,-z
-x,1/2+y,-z
-x,-y,-z
1/2+x,1/2+y,-z
1/2-x,y,z
x,1/2-y,z
loop_
_atom_site_type_symbol
_atom_site_label
_atom_site_fract_x
_atom_site_fract_y
_atom_site_fract_z
Si Si1 0.574231 0.403942 0.749699
Si Si2 0.426943 0.096659 0.044913
Si Si3 0.574179 0.096867 0.161938
Si Si4 0.071740 0.250000 0.422330
Si Si5 0.571336 0.250000 0.543390
Si Si6 0.928237 0.474271 0.626739
O O1 0.750000 0.441190 0.754078
O O2 0.546806 0.250000 0.766570
O O3 0.480279 0.499473 0.789596
O O4 0.510989 0.428295 0.687092
O O5 0.250000 0.074156 0.044812
O O6 0.469485 0.250000 0.030474
O O7 0.488500 0.056644 0.105547
O O8 0.500000 0.000000 0.000000
O O9 0.750000 0.076017 0.151494
O O10 0.537483 0.250000 0.178965
O O11 0.250000 0.250000 0.429527
O O12 0.015027 0.377051 0.387062
O O13 0.001878 0.250000 0.483215
O O14 0.750000 0.250000 0.536459
O O15 0.512021 0.121530 0.577576
O O16 0.750000 0.464127 0.628353
#
# Coordination Sequence:
#
# PCOD8240170 Si02
#       6
#     8   8   8   4   4   8
#     4  10  20  36  58  82 107 142 189 235 279 333
#     4  10  21  38  61  89 119 154 194 233 276 327
#     4  10  22  39  58  83 116 151 187 232 282 331
#     4  10  20  32  50  78 104 132 175 220 267 328
#     4  10  18  34  54  72 102 138 171 216 271 328
#     4   9  18  33  53  76 102 135 177 222 270 326
#
# _framework density 18.868341000000001
#
# number of rings (size 3 to 8) (size 9 to 14) (size 15 to 20)
#    0.000    2.200    1.000    1.800    1.400    3.600 
#    0.000    2.000    0.000    0.000    0.000    0.000 
#    0.000    0.000    0.000    0.000    0.000    0.000 
#
# Total GULP energy -496061.535034 kJ/mol
# GULP energy per Si atom -12401.538376 kJ/mol
# Density = 1.882540 g / cm^3
# Si number density = 18.868341 Si / 1000 Ang^3
#
#
#
# Elastic Constant Matrix: (Units=GPa)
#
#
# Indices 1 2 3 4 5 6 
#
# 1 50.1724 32.8813 35.5786 0.0000 0.0000 0.0000
# 2 32.8813 118.9256 57.0419 0.0000 0.0000 0.0000
# 3 35.5786 57.0419 115.6212 0.0000 0.0000 0.0000
# 4 0.0000 0.0000 0.0000 41.9496 0.0000 0.0000
# 5 0.0000 0.0000 0.0000 0.0000 35.8988 0.0000
# 6 0.0000 0.0000 0.0000 0.0000 0.0000 24.5856
#
#
#
# Elastic Compliance Matrix: (Units=1/GPa)
#
#
# Indices 1 2 3 4 5 6 
#
# 1 0.027295 -0.004609 -0.006126 0.000000 0.000000 0.000000
# 2 -0.004609 0.011793 -0.004400 0.000000 0.000000 0.000000
# 3 -0.006126 -0.004400 0.012705 0.000000 0.000000 0.000000
# 4 0.000000 0.000000 0.000000 0.023838 0.000000 0.000000
# 5 0.000000 0.000000 0.000000 0.000000 0.027856 0.000000
# 6 0.000000 0.000000 0.000000 0.000000 0.000000 0.040674
#
#
# Mechanical properties :
#
#
# Convention : Reuss Voigt Hill
#
# Bulk Modulus (GPa) = 46.45816 59.52473 52.99145
# Shear Modulus (GPa) = 27.53220 31.10130 29.31675
#
# Velocity S-wave (km/s) = 3.82406 4.06437 3.94604
# Velocity P-wave (km/s) = 6.64632 7.32403 6.99339
#
# Compressibility (1/GPa) = 0.02152474
#
# Stress axis : x y z
#
# Youngs Moduli (GPa) = 36.63610 84.79361 78.71137
#
# Poissons Ratio (x) = 0.39079 0.48215
# Poissons Ratio (y) = 0.16885 0.34634
# Poissons Ratio (z) = 0.22442 0.37310
#
# Static dielectric constant tensor:
#      x y z
#    x 3.249690 0.000000 0.000000 
#    y 0.000000 3.723720 0.000000 
#    z 0.000000 0.000000 3.448930 
# 
# 
# High freq. dielectric constant tensor:
#      x y z
#    x 1.712310 0.000000 0.000000 
#    y 0.000000 1.745980 0.000000 
#    z 0.000000 0.000000 1.740980 
# 
# From -- ./inp_files/32418.got.cif
#   From: 2010.03.12/outbox.cif.g09.slc.cpg/sg59_17_cif.got.tgz:32418.got - 2010.04.16 16:29:54.
