data_PCOD8240599
_publ_section_title
;
Structure prediction by ZEFSAII (Michael W. Deem and Ramdas Pophale) SiO2 
 PCOD8240599
Probable space group: P M M N
;
_chemical_formula_sum "Si O2"
_cell_formula_units_Z 64
_cell_length_a 29.458081
_cell_length_b 9.038052
_cell_length_c 14.967407
_cell_angle_alpha 90.000000
_cell_angle_beta 90.000000
_cell_angle_gamma 90.000000
_cell_volume 3984.977339
_symmetry_space_group_name_H-M "P M M N"
_symmetry_group_IT_number 59
_space_group.IT_coordinate_system_code '2'
_symmetry_cell_setting 'orthorhombic'
loop_
_space_group_symop_operation_xyz
x,y,z
1/2-x,1/2-y,z
1/2+x,-y,-z
-x,1/2+y,-z
-x,-y,-z
1/2+x,1/2+y,-z
1/2-x,y,z
x,1/2-y,z
loop_
_atom_site_type_symbol
_atom_site_label
_atom_site_fract_x
_atom_site_fract_y
_atom_site_fract_z
Si Si1 0.934632 0.079863 0.446273
Si Si2 0.394649 0.924703 0.043182
Si Si3 0.963743 0.919635 0.614851
Si Si4 0.698490 0.419638 0.222529
Si Si5 0.058408 0.924473 0.858981
Si Si6 0.200742 0.925640 0.980681
Si Si7 0.616019 0.924843 0.295473
Si Si8 0.542865 0.576618 0.818385
O O1 0.919447 0.250000 0.446061
O O2 0.982897 0.057594 0.399073
O O3 0.935508 0.023012 0.548094
O O4 0.898734 0.982927 0.392238
O O5 0.396493 0.750000 0.054408
O O6 0.417116 0.996656 0.129155
O O7 0.421367 0.973032 0.954087
O O8 0.342238 0.982257 0.038260
O O9 0.950264 0.750000 0.596884
O O10 0.952121 0.968932 0.715137
O O11 0.750000 0.433394 0.256534
O O12 0.681526 0.250000 0.229496
O O13 0.694060 0.477305 0.121090
O O14 0.667908 0.524905 0.283413
O O15 0.063548 0.750000 0.841528
O O16 0.005939 0.974031 0.856321
O O17 0.085105 0.006735 0.781586
O O18 0.250000 0.984691 0.016949
O O19 0.201660 0.750000 0.981199
O O20 0.611827 0.750000 0.292468
O O21 0.548803 0.750000 0.831325
#
# Coordination Sequence:
#
# PCOD8240599 Si02
#       8
#     8   8   8   8   8   8   8   8
#     4  10  19  33  52  70  94 125 160 198 239 294
#     4  10  19  30  48  70  95 127 168 208 237 285
#     4   9  18  33  50  70  94 123 159 203 247 283
#     4   9  17  32  53  71  93 129 167 200 241 295
#     4  10  19  34  48  64  95 135 173 203 234 281
#     4   8  14  27  48  70  91 120 159 202 244 282
#     4  12  22  30  47  74 103 131 162 202 244 293
#     4  10  20  33  48  66  98 134 163 201 246 291
#
# _framework density 16.060317999999999
#
# number of rings (size 3 to 8) (size 9 to 14) (size 15 to 20)
#    0.000    2.250    2.500    2.625    0.000    2.250 
#    0.000    0.000    0.000    0.375    0.000    0.875 
#    0.000    3.000    0.000    0.000    0.000    0.000 
#
# Total GULP energy -793545.830220 kJ/mol
# GULP energy per Si atom -12399.153597 kJ/mol
# Density = 1.602376 g / cm^3
# Si number density = 16.060318 Si / 1000 Ang^3
#
#
#
# Elastic Constant Matrix: (Units=GPa)
#
#
# Indices 1 2 3 4 5 6 
#
# 1 111.1216 36.2094 60.6737 0.0000 0.0000 0.0000
# 2 36.2094 54.5434 37.1305 0.0000 0.0000 0.0000
# 3 60.6737 37.1305 97.9687 0.0000 0.0000 0.0000
# 4 0.0000 0.0000 0.0000 25.8712 0.0000 0.0000
# 5 0.0000 0.0000 0.0000 0.0000 19.8193 0.0000
# 6 0.0000 0.0000 0.0000 0.0000 0.0000 21.8358
#
#
#
# Elastic Compliance Matrix: (Units=1/GPa)
#
#
# Indices 1 2 3 4 5 6 
#
# 1 0.014444 -0.004716 -0.007158 0.000000 0.000000 0.000000
# 2 -0.004716 0.026249 -0.007028 0.000000 0.000000 0.000000
# 3 -0.007158 -0.007028 0.017304 0.000000 0.000000 0.000000
# 4 0.000000 0.000000 0.000000 0.038653 0.000000 0.000000
# 5 0.000000 0.000000 0.000000 0.000000 0.050456 0.000000
# 6 0.000000 0.000000 0.000000 0.000000 0.000000 0.045796
#
#
# Mechanical properties :
#
#
# Convention : Reuss Voigt Hill
#
# Bulk Modulus (GPa) = 49.52120 59.07344 54.29732
# Shear Modulus (GPa) = 21.05813 22.14660 21.60237
#
# Velocity S-wave (km/s) = 3.62496 3.71747 3.67151
# Velocity P-wave (km/s) = 6.95859 7.43560 7.20105
#
# Compressibility (1/GPa) = 0.02019337
#
# Stress axis : x y z
#
# Youngs Moduli (GPa) = 69.23102 38.09669 57.78982
#
# Poissons Ratio (x) = 0.17967 0.41367
# Poissons Ratio (y) = 0.32650 0.40613
# Poissons Ratio (z) = 0.49557 0.26773
#
# Static dielectric constant tensor:
#      x y z
#    x 3.227110 0.000000 0.000000 
#    y 0.000000 2.895810 0.000000 
#    z 0.000000 0.000000 2.965310 
# 
# 
# High freq. dielectric constant tensor:
#      x y z
#    x 1.609610 0.000000 0.000000 
#    y 0.000000 1.605020 0.000000 
#    z 0.000000 0.000000 1.600050 
# 
# From -- ./inp_files/25047.got.cif
#   From: 2010.03.12/outbox.cif.g09.slc.cpg/sg59_13_cif.got.tgz:25047.got - 2010.04.16 16:29:54.
