data_PCOD8240221
_publ_section_title
;
Structure prediction by ZEFSAII (Michael W. Deem and Ramdas Pophale) SiO2 
 PCOD8240221
Probable space group: P M M N
;
_chemical_formula_sum "Si O2"
_cell_formula_units_Z 40
_cell_length_a 15.144237
_cell_length_b 13.762535
_cell_length_c 10.025826
_cell_angle_alpha 90.000000
_cell_angle_beta 90.000000
_cell_angle_gamma 90.000000
_cell_volume 2089.613652
_symmetry_space_group_name_H-M "P M M N"
_symmetry_group_IT_number 59
_space_group.IT_coordinate_system_code '2'
_symmetry_cell_setting 'orthorhombic'
loop_
_space_group_symop_operation_xyz
x,y,z
1/2-x,1/2-y,z
1/2+x,-y,-z
-x,1/2+y,-z
-x,-y,-z
1/2+x,1/2+y,-z
1/2-x,y,z
x,1/2-y,z
loop_
_atom_site_type_symbol
_atom_site_label
_atom_site_fract_x
_atom_site_fract_y
_atom_site_fract_z
Si Si1 0.594132 0.513126 0.208112
Si Si2 0.250000 0.358825 0.492472
Si Si3 0.421991 0.861644 0.264649
Si Si4 0.604812 0.011754 0.500612
Si Si5 0.250000 0.143750 0.807453
Si Si6 0.649903 0.140528 0.018647
O O1 0.505082 0.570622 0.234607
O O2 0.631883 0.466911 0.346931
O O3 0.663287 0.587831 0.143477
O O4 0.581998 0.427202 0.100534
O O5 0.250000 0.250000 0.427086
O O6 0.339404 0.417119 0.449652
O O7 0.250000 0.345724 0.649480
O O8 0.451628 0.750000 0.286548
O O9 0.372716 0.899547 0.398740
O O10 0.356653 0.872878 0.140322
O O11 0.500000 0.000000 0.500000
O O12 0.250000 0.250000 0.874667
O O13 0.750000 0.115960 0.061103
O O14 0.624513 0.250000 0.057307
#
# Coordination Sequence:
#
# PCOD8240221 Si02
#       6
#     8   4   8   8   4   8
#     4  10  18  35  56  81 107 141 183 231 271 324
#     4   9  18  34  56  79 112 154 187 225 282 339
#     4  10  21  36  55  80 112 145 181 221 278 337
#     4   9  20  34  56  87 114 143 188 234 282 337
#     4   9  16  28  52  81 106 134 177 229 274 315
#     4  10  21  36  53  76 107 147 185 222 272 326
#
# _framework density 19.142294
#
# number of rings (size 3 to 8) (size 9 to 14) (size 15 to 20)
#    0.000    2.400    1.000    1.200    1.400    5.600 
#    0.000    3.000    0.000    3.600    0.000    0.000 
#    0.000    0.000    0.000    0.000    0.000    0.000 
#
# Total GULP energy -495678.648781 kJ/mol
# GULP energy per Si atom -12391.966220 kJ/mol
# Density = 1.909872 g / cm^3
# Si number density = 19.142294 Si / 1000 Ang^3
#
#
#
# Elastic Constant Matrix: (Units=GPa)
#
#
# Indices 1 2 3 4 5 6 
#
# 1 77.4166 44.1495 5.6076 0.0000 0.0000 0.0000
# 2 44.1495 145.8763 64.7793 0.0000 0.0000 0.0000
# 3 5.6076 64.7793 78.7467 0.0000 0.0000 0.0000
# 4 0.0000 0.0000 0.0000 34.0547 0.0000 0.0000
# 5 0.0000 0.0000 0.0000 0.0000 20.5979 0.0000
# 6 0.0000 0.0000 0.0000 0.0000 0.0000 31.4394
#
#
#
# Elastic Compliance Matrix: (Units=1/GPa)
#
#
# Indices 1 2 3 4 5 6 
#
# 1 0.016629 -0.007101 0.004657 0.000000 0.000000 0.000000
# 2 -0.007101 0.013833 -0.010874 0.000000 0.000000 0.000000
# 3 0.004657 -0.010874 0.021312 0.000000 0.000000 0.000000
# 4 0.000000 0.000000 0.000000 0.029365 0.000000 0.000000
# 5 0.000000 0.000000 0.000000 0.000000 0.048549 0.000000
# 6 0.000000 0.000000 0.000000 0.000000 0.000000 0.031807
#
#
# Mechanical properties :
#
#
# Convention : Reuss Voigt Hill
#
# Bulk Modulus (GPa) = 39.77752 59.01249 49.39501
# Shear Modulus (GPa) = 25.44401 29.71862 27.58131
#
# Velocity S-wave (km/s) = 3.64978 3.94447 3.79998
# Velocity P-wave (km/s) = 6.21178 7.18612 6.71664
#
# Compressibility (1/GPa) = 0.02513983
#
# Stress axis : x y z
#
# Youngs Moduli (GPa) = 60.13432 72.29103 46.92123
#
# Poissons Ratio (x) = 0.51335 -0.21853
# Poissons Ratio (y) = 0.42702 0.51021
# Poissons Ratio (z) = -0.28007 0.78607
#
# Static dielectric constant tensor:
#      x y z
#    x 3.548310 0.000000 0.000000 
#    y 0.000000 3.723230 0.000000 
#    z 0.000000 0.000000 3.680570 
# 
# 
# High freq. dielectric constant tensor:
#      x y z
#    x 1.738700 0.000000 0.000000 
#    y 0.000000 1.742670 0.000000 
#    z 0.000000 0.000000 1.727660 
# 
# From -- ./inp_files/8636.got.cif
#   From: 2010.03.12/outbox.cif.g09.slc.cpg/sg59_5_cif.got.tgz:8636.got - 2010.04.16 16:29:54.
