data_PCOD8240576
_publ_section_title
;
Structure prediction by ZEFSAII (Michael W. Deem and Ramdas Pophale) SiO2 
 PCOD8240576
Probable space group: P M M N
;
_chemical_formula_sum "Si O2"
_cell_formula_units_Z 48
_cell_length_a 19.851327
_cell_length_b 15.681651
_cell_length_c 8.941001
_cell_angle_alpha 90.000000
_cell_angle_beta 90.000000
_cell_angle_gamma 90.000000
_cell_volume 2783.347755
_symmetry_space_group_name_H-M "P M M N"
_symmetry_group_IT_number 59
_space_group.IT_coordinate_system_code '2'
_symmetry_cell_setting 'orthorhombic'
loop_
_space_group_symop_operation_xyz
x,y,z
1/2-x,1/2-y,z
1/2+x,-y,-z
-x,1/2+y,-z
-x,-y,-z
1/2+x,1/2+y,-z
1/2-x,y,z
x,1/2-y,z
loop_
_atom_site_type_symbol
_atom_site_label
_atom_site_fract_x
_atom_site_fract_y
_atom_site_fract_z
Si Si1 0.991294 0.110807 0.096922
Si Si2 0.574484 0.155719 0.799073
Si Si3 0.601501 0.529780 0.107385
Si Si4 0.436448 0.348362 0.651511
Si Si5 0.173294 0.500187 0.168553
Si Si6 0.901611 0.655103 0.683351
O O1 0.028282 0.165179 0.224783
O O2 0.933059 0.054425 0.178481
O O3 0.955942 0.165055 0.966361
O O4 0.050524 0.053809 0.026689
O O5 0.603306 0.250000 0.757790
O O6 0.514129 0.129394 0.686998
O O7 0.631089 0.083619 0.781746
O O8 0.612586 0.599971 0.235241
O O9 0.669539 0.511406 0.013154
O O10 0.421475 0.250000 0.683637
O O11 0.419853 0.374743 0.483621
O O12 0.250000 0.517450 0.213619
O O13 0.149919 0.413985 0.251853
O O14 0.868303 0.750000 0.683118
#
# Coordination Sequence:
#
# PCOD8240576 Si02
#       6
#     8   8   8   8   8   8
#     4   8  14  26  46  70  92 115 144 184 236 280
#     4   9  17  31  51  73  96 119 148 193 244 289
#     4   8  15  28  45  65  90 118 150 189 228 269
#     4   9  17  29  48  75  99 118 148 194 246 287
#     4  10  21  34  47  66  93 129 167 193 222 272
#     4  10  19  30  47  72 100 126 154 193 237 280
#
# _framework density 17.245419999999999
#
# number of rings (size 3 to 8) (size 9 to 14) (size 15 to 20)
#    0.000    3.000    0.000    3.500    0.000    7.333 
#    0.000    0.833    0.000    1.000    0.000    0.000 
#    0.000    6.667    0.000    0.000    0.000    0.000 
#
# Total GULP energy -594646.795100 kJ/mol
# GULP energy per Si atom -12388.474898 kJ/mol
# Density = 1.720617 g / cm^3
# Si number density = 17.245420 Si / 1000 Ang^3
#
#
#
# Elastic Constant Matrix: (Units=GPa)
#
#
# Indices 1 2 3 4 5 6 
#
# 1 65.2022 35.8925 20.7238 0.0000 0.0000 0.0000
# 2 35.8925 81.4286 14.1667 0.0000 0.0000 0.0000
# 3 20.7238 14.1667 61.9675 0.0000 0.0000 0.0000
# 4 0.0000 0.0000 0.0000 23.3558 0.0000 0.0000
# 5 0.0000 0.0000 0.0000 0.0000 12.0461 0.0000
# 6 0.0000 0.0000 0.0000 0.0000 0.0000 14.1607
#
#
#
# Elastic Compliance Matrix: (Units=1/GPa)
#
#
# Indices 1 2 3 4 5 6 
#
# 1 0.021806 -0.008689 -0.005306 0.000000 0.000000 0.000000
# 2 -0.008689 0.016251 -0.000810 0.000000 0.000000 0.000000
# 3 -0.005306 -0.000810 0.018097 0.000000 0.000000 0.000000
# 4 0.000000 0.000000 0.000000 0.042816 0.000000 0.000000
# 5 0.000000 0.000000 0.000000 0.000000 0.083014 0.000000
# 6 0.000000 0.000000 0.000000 0.000000 0.000000 0.070618
#
#
# Mechanical properties :
#
#
# Convention : Reuss Voigt Hill
#
# Bulk Modulus (GPa) = 37.67086 38.90716 38.28901
# Shear Modulus (GPa) = 17.17853 19.10022 18.13937
#
# Velocity S-wave (km/s) = 3.15956 3.33160 3.24672
# Velocity P-wave (km/s) = 5.93311 6.11631 6.02541
#
# Compressibility (1/GPa) = 0.02654572
#
# Stress axis : x y z
#
# Youngs Moduli (GPa) = 45.85795 61.53305 55.25725
#
# Poissons Ratio (x) = 0.53465 0.29322
# Poissons Ratio (y) = 0.39845 0.04473
# Poissons Ratio (z) = 0.24334 0.04981
#
# Static dielectric constant tensor:
#      x y z
#    x 2.912580 0.000000 0.000000 
#    y 0.000000 3.245770 0.000000 
#    z 0.000000 0.000000 3.178380 
# 
# 
# High freq. dielectric constant tensor:
#      x y z
#    x 1.619390 0.000000 0.000000 
#    y 0.000000 1.675480 0.000000 
#    z 0.000000 0.000000 1.652800 
# 
# From -- ./inp_files/11291.got.cif
#   From: 2010.03.12/outbox.cif.g09.slc.cpg/sg59_6_cif.got.tgz:11291.got - 2010.04.16 16:29:54.
