data_PCOD8240581
_publ_section_title
;
Structure prediction by ZEFSAII (Michael W. Deem and Ramdas Pophale) SiO2 
 PCOD8240581
Probable space group: P M M N
;
_chemical_formula_sum "Si O2"
_cell_formula_units_Z 64
_cell_length_a 9.246337
_cell_length_b 13.908244
_cell_length_c 30.214106
_cell_angle_alpha 90.000000
_cell_angle_beta 90.000000
_cell_angle_gamma 90.000000
_cell_volume 3885.543431
_symmetry_space_group_name_H-M "P M M N"
_symmetry_group_IT_number 59
_space_group.IT_coordinate_system_code '2'
_symmetry_cell_setting 'orthorhombic'
loop_
_space_group_symop_operation_xyz
x,y,z
1/2-x,1/2-y,z
1/2+x,-y,-z
-x,1/2+y,-z
-x,-y,-z
1/2+x,1/2+y,-z
1/2-x,y,z
x,1/2-y,z
loop_
_atom_site_type_symbol
_atom_site_label
_atom_site_fract_x
_atom_site_fract_y
_atom_site_fract_z
Si Si1 0.077910 0.358074 0.625515
Si Si2 0.582634 0.641500 0.759379
Si Si3 0.417026 0.979375 0.691577
Si Si4 0.581376 0.360735 0.978774
Si Si5 0.081905 0.647381 0.610017
Si Si6 0.078515 0.487724 0.546074
Si Si7 0.080901 0.975434 0.933466
Si Si8 0.083985 0.359448 0.137479
O O1 0.250000 0.362123 0.627597
O O2 0.017660 0.250000 0.631718
O O3 0.021337 0.425071 0.666231
O O4 0.032393 0.395846 0.576402
O O5 0.750000 0.635781 0.746574
O O6 0.525165 0.750000 0.747742
O O7 0.502500 0.552774 0.735205
O O8 0.558938 0.621939 0.810939
O O9 0.250000 0.995121 0.704295
O O10 0.440553 0.890207 0.659176
O O11 0.750000 0.372016 0.967900
O O12 0.531872 0.250000 0.976289
O O13 0.492299 0.421552 0.942847
O O14 0.545721 0.400235 0.027548
O O15 0.250000 0.656714 0.599886
O O16 0.003041 0.750000 0.605962
O O17 0.016989 0.577710 0.573393
O O18 0.250000 0.488066 0.538367
O O19 0.000000 0.500000 0.500000
O O20 0.250000 0.992869 0.927581
O O21 0.018277 0.932444 0.888434
O O22 0.250000 0.379177 0.124449
O O23 0.042119 0.250000 0.125449
#
# Coordination Sequence:
#
# PCOD8240581 Si02
#       8
#     8   8   8   8   8   8   8   8
#     4   8  15  29  47  65  87 117 150 183 223 268
#     4   9  18  31  46  67  96 125 147 174 222 278
#     4   9  16  27  47  70  86 107 145 187 220 257
#     4   9  18  32  48  67  94 128 162 194 234 284
#     4   8  14  25  40  58  81 107 133 164 206 254
#     4   9  17  28  42  60  82 110 142 174 210 254
#     4  10  19  30  47  72  98 122 155 201 242 273
#     4   9  18  32  48  66  92 127 159 183 220 281
#
# _framework density 16.471312000000001
#
# number of rings (size 3 to 8) (size 9 to 14) (size 15 to 20)
#    0.000    3.125    0.000    3.375    0.000    3.250 
#    0.000    3.750    0.000    2.625    0.000    3.500 
#    0.000    0.000    0.000    0.000    0.000    0.000 
#
# Total GULP energy -793051.552810 kJ/mol
# GULP energy per Si atom -12391.430513 kJ/mol
# Density = 1.643382 g / cm^3
# Si number density = 16.471312 Si / 1000 Ang^3
#
#
#
# Elastic Constant Matrix: (Units=GPa)
#
#
# Indices 1 2 3 4 5 6 
#
# 1 48.0781 37.9963 36.9661 0.0000 0.0000 0.0000
# 2 37.9963 132.3209 48.8522 0.0000 0.0000 0.0000
# 3 36.9661 48.8522 77.0749 0.0000 0.0000 0.0000
# 4 0.0000 0.0000 0.0000 24.0768 0.0000 0.0000
# 5 0.0000 0.0000 0.0000 0.0000 29.6229 0.0000
# 6 0.0000 0.0000 0.0000 0.0000 0.0000 20.4350
#
#
#
# Elastic Compliance Matrix: (Units=1/GPa)
#
#
# Indices 1 2 3 4 5 6 
#
# 1 0.035392 -0.005086 -0.013750 0.000000 0.000000 0.000000
# 2 -0.005086 0.010597 -0.004277 0.000000 0.000000 0.000000
# 3 -0.013750 -0.004277 0.022280 0.000000 0.000000 0.000000
# 4 0.000000 0.000000 0.000000 0.041534 0.000000 0.000000
# 5 0.000000 0.000000 0.000000 0.000000 0.033758 0.000000
# 6 0.000000 0.000000 0.000000 0.000000 0.000000 0.048936
#
#
# Mechanical properties :
#
#
# Convention : Reuss Voigt Hill
#
# Bulk Modulus (GPa) = 45.36992 56.12258 50.74625
# Shear Modulus (GPa) = 20.31933 23.73754 22.02844
#
# Velocity S-wave (km/s) = 3.51610 3.80036 3.66099
# Velocity P-wave (km/s) = 6.63992 7.30780 6.98185
#
# Compressibility (1/GPa) = 0.02204104
#
# Stress axis : x y z
#
# Youngs Moduli (GPa) = 28.25535 94.36576 44.88251
#
# Poissons Ratio (x) = 0.47996 0.61716
# Poissons Ratio (y) = 0.14371 0.19198
# Poissons Ratio (z) = 0.38852 0.40363
#
# Static dielectric constant tensor:
#      x y z
#    x 2.842570 0.000000 0.000000 
#    y 0.000000 3.408350 0.000000 
#    z 0.000000 0.000000 2.998510 
# 
# 
# High freq. dielectric constant tensor:
#      x y z
#    x 1.607580 0.000000 0.000000 
#    y 0.000000 1.632670 0.000000 
#    z 0.000000 0.000000 1.626120 
# 
# From -- ./inp_files/33193.got.cif
#   From: 2010.03.12/outbox.cif.g09.slc.cpg/sg59_17_cif.got.tgz:33193.got - 2010.04.16 16:29:54.
