data_PCOD8240771
_publ_section_title
;
Structure prediction by ZEFSAII (Michael W. Deem and Ramdas Pophale) SiO2 
 PCOD8240771
Probable space group: P M M N
;
_chemical_formula_sum "Si O2"
_cell_formula_units_Z 48
_cell_length_a 14.349692
_cell_length_b 9.079044
_cell_length_c 17.927456
_cell_angle_alpha 90.000000
_cell_angle_beta 90.000000
_cell_angle_gamma 90.000000
_cell_volume 2335.615591
_symmetry_space_group_name_H-M "P M M N"
_symmetry_group_IT_number 59
_space_group.IT_coordinate_system_code '2'
_symmetry_cell_setting 'orthorhombic'
loop_
_space_group_symop_operation_xyz
x,y,z
1/2-x,1/2-y,z
1/2+x,-y,-z
-x,1/2+y,-z
-x,-y,-z
1/2+x,1/2+y,-z
1/2-x,y,z
x,1/2-y,z
loop_
_atom_site_type_symbol
_atom_site_label
_atom_site_fract_x
_atom_site_fract_y
_atom_site_fract_z
Si Si1 0.044315 0.424116 0.241932
Si Si2 0.651437 0.415335 0.186141
Si Si3 0.380468 0.085903 0.955710
Si Si4 0.858471 0.420891 0.462865
Si Si5 0.026492 0.578847 0.389397
Si Si6 0.908118 0.084342 0.904916
O O1 0.063293 0.250000 0.243599
O O2 0.099741 0.495240 0.172732
O O3 0.934678 0.467797 0.236020
O O4 0.074941 0.497805 0.319287
O O5 0.750000 0.421209 0.231888
O O6 0.628812 0.250000 0.158732
O O7 0.669805 0.511810 0.113565
O O8 0.342113 0.250000 0.965552
O O9 0.488955 0.087321 0.937570
O O10 0.350640 0.999882 0.031104
O O11 0.750000 0.473083 0.459448
O O12 0.866058 0.250000 0.440194
O O13 0.924029 0.512270 0.406685
O O14 0.898988 0.447078 0.545294
O O15 0.012476 0.750000 0.371523
O O16 0.870031 0.250000 0.892244
#
# Coordination Sequence:
#
# PCOD8240771 Si02
#       6
#     8   8   8   8   8   8
#     4  10  19  31  48  71 101 135 169 208 255 308
#     4   9  18  31  45  63  91 130 172 209 250 304
#     4   9  16  26  42  64  88 116 154 200 247 295
#     4   9  19  37  59  80 105 140 177 211 254 312
#     4  10  20  34  54  82 111 137 172 218 263 311
#     4   9  16  27  44  65  89 119 157 201 247 295
#
# _framework density 20.551327000000001
#
# number of rings (size 3 to 8) (size 9 to 14) (size 15 to 20)
#    0.000    2.667    0.000    2.000    0.000    6.667 
#    0.000    1.667    0.000    1.000    0.000    2.333 
#    0.000    0.000    0.000    0.000    0.000    0.000 
#
# Total GULP energy -594832.286120 kJ/mol
# GULP energy per Si atom -12392.339294 kJ/mol
# Density = 2.050455 g / cm^3
# Si number density = 20.551327 Si / 1000 Ang^3
#
#
#
# Elastic Constant Matrix: (Units=GPa)
#
#
# Indices 1 2 3 4 5 6 
#
# 1 47.9107 3.4487 -10.1640 0.0000 0.0000 0.0000
# 2 3.4487 120.5769 51.0659 0.0000 0.0000 0.0000
# 3 -10.1640 51.0659 96.5766 0.0000 0.0000 0.0000
# 4 0.0000 0.0000 0.0000 39.9166 0.0000 0.0000
# 5 0.0000 0.0000 0.0000 0.0000 3.2955 0.0000
# 6 0.0000 0.0000 0.0000 0.0000 0.0000 11.0742
#
#
#
# Elastic Compliance Matrix: (Units=1/GPa)
#
#
# Indices 1 2 3 4 5 6 
#
# 1 0.021735 -0.002049 0.003371 0.000000 0.000000 0.000000
# 2 -0.002049 0.010880 -0.005969 0.000000 0.000000 0.000000
# 3 0.003371 -0.005969 0.013865 0.000000 0.000000 0.000000
# 4 0.000000 0.000000 0.000000 0.025052 0.000000 0.000000
# 5 0.000000 0.000000 0.000000 0.000000 0.303447 0.000000
# 6 0.000000 0.000000 0.000000 0.000000 0.000000 0.090300
#
#
# Mechanical properties :
#
#
# Convention : Reuss Voigt Hill
#
# Bulk Modulus (GPa) = 26.89166 39.30727 33.09947
# Shear Modulus (GPa) = 10.26761 25.57148 17.91955
#
# Velocity S-wave (km/s) = 2.23762 3.53125 2.95607
# Velocity P-wave (km/s) = 4.44853 5.98283 5.27180
#
# Compressibility (1/GPa) = 0.03718624
#
# Stress axis : x y z
#
# Youngs Moduli (GPa) = 46.00907 91.91326 72.12318
#
# Poissons Ratio (x) = 0.18836 -0.24313
# Poissons Ratio (y) = 0.09429 0.43047
# Poissons Ratio (z) = -0.15510 0.54858
#
# Static dielectric constant tensor:
#      x y z
#    x 3.470140 0.000000 0.000000 
#    y 0.000000 3.863630 0.000000 
#    z 0.000000 0.000000 3.589680 
# 
# 
# High freq. dielectric constant tensor:
#      x y z
#    x 1.783540 0.000000 0.000000 
#    y 0.000000 1.809300 0.000000 
#    z 0.000000 0.000000 1.794600 
# 
# From -- ./inp_files/27363.got.cif
#   From: 2010.03.12/outbox.cif.g09.slc.cpg/sg59_14_cif.got.tgz:27363.got - 2010.04.16 16:29:54.
