data_PCOD8240312
_publ_section_title
;
Structure prediction by ZEFSAII (Michael W. Deem and Ramdas Pophale) SiO2 
 PCOD8240312
Probable space group: P M M N
;
_chemical_formula_sum "Si O2"
_cell_formula_units_Z 56
_cell_length_a 13.672449
_cell_length_b 9.212301
_cell_length_c 28.958249
_cell_angle_alpha 90.000000
_cell_angle_beta 90.000000
_cell_angle_gamma 90.000000
_cell_volume 3647.428017
_symmetry_space_group_name_H-M "P M M N"
_symmetry_group_IT_number 59
_space_group.IT_coordinate_system_code '2'
_symmetry_cell_setting 'orthorhombic'
loop_
_space_group_symop_operation_xyz
x,y,z
1/2-x,1/2-y,z
1/2+x,-y,-z
-x,1/2+y,-z
-x,-y,-z
1/2+x,1/2+y,-z
1/2-x,y,z
x,1/2-y,z
loop_
_atom_site_type_symbol
_atom_site_label
_atom_site_fract_x
_atom_site_fract_y
_atom_site_fract_z
Si Si1 0.864774 0.918766 0.152833
Si Si2 0.024451 0.920324 0.569804
Si Si3 0.138996 0.580375 0.478226
Si Si4 0.641047 0.422568 0.342817
Si Si5 0.133841 0.588607 0.758325
Si Si6 0.637280 0.081763 0.975380
Si Si7 0.967743 0.080383 0.070026
O O1 0.750000 0.948683 0.145960
O O2 0.890016 0.750000 0.149498
O O3 0.901353 0.976926 0.202504
O O4 0.923503 0.004097 0.114329
O O5 0.004913 0.750000 0.572795
O O6 0.099419 0.959468 0.528908
O O7 0.069701 0.982457 0.617376
O O8 0.921341 0.998171 0.561344
O O9 0.250000 0.526377 0.475303
O O10 0.129801 0.750000 0.468666
O O11 0.750000 0.487864 0.350132
O O12 0.647905 0.250000 0.346260
O O13 0.598196 0.466100 0.292272
O O14 0.250000 0.596607 0.756499
O O15 0.092442 0.750000 0.769324
O O16 0.750000 0.037129 0.969921
O O17 0.619962 0.250000 0.963407
O O18 0.574651 0.985107 0.940184
O O19 0.604991 0.048788 0.027659
O O20 0.979019 0.250000 0.079983
#
# Coordination Sequence:
#
# PCOD8240312 Si02
#       7
#     8   8   8   8   8   8   8
#     4  10  19  29  42  62  89 118 145 174 210 253
#     4   9  16  26  42  62  81 105 140 175 204 239
#     4   9  17  28  40  56  82 113 140 168 204 245
#     4   8  13  23  41  63  84 107 136 169 206 249
#     4   8  14  25  41  60  82 108 137 169 207 252
#     4   9  18  32  47  64  89 118 146 178 214 250
#     4  10  19  30  46  67  89 115 148 180 210 248
#
# _framework density 15.353284
#
# number of rings (size 3 to 8) (size 9 to 14) (size 15 to 20)
#    0.000    3.000    0.000    2.571    0.000    4.286 
#    0.000    0.714    0.000    2.143    0.000    1.000 
#    0.000    5.714    0.000    0.000    0.000    0.000 
#
# Total GULP energy -694265.524120 kJ/mol
# GULP energy per Si atom -12397.598645 kJ/mol
# Density = 1.531834 g / cm^3
# Si number density = 15.353284 Si / 1000 Ang^3
#
#
#
# Elastic Constant Matrix: (Units=GPa)
#
#
# Indices 1 2 3 4 5 6 
#
# 1 98.6388 46.0069 58.5901 0.0000 0.0000 0.0000
# 2 46.0069 61.8097 54.2633 0.0000 0.0000 0.0000
# 3 58.5901 54.2633 125.4393 0.0000 0.0000 0.0000
# 4 0.0000 0.0000 0.0000 22.6962 0.0000 0.0000
# 5 0.0000 0.0000 0.0000 0.0000 24.2168 0.0000
# 6 0.0000 0.0000 0.0000 0.0000 0.0000 23.1806
#
#
#
# Elastic Compliance Matrix: (Units=1/GPa)
#
#
# Indices 1 2 3 4 5 6 
#
# 1 0.016629 -0.008962 -0.003890 0.000000 0.000000 0.000000
# 2 -0.008962 0.030915 -0.009187 0.000000 0.000000 0.000000
# 3 -0.003890 -0.009187 0.013763 0.000000 0.000000 0.000000
# 4 0.000000 0.000000 0.000000 0.044060 0.000000 0.000000
# 5 0.000000 0.000000 0.000000 0.000000 0.041294 0.000000
# 6 0.000000 0.000000 0.000000 0.000000 0.000000 0.043140
#
#
# Mechanical properties :
#
#
# Convention : Reuss Voigt Hill
#
# Bulk Modulus (GPa) = 58.04520 67.06761 62.55640
# Shear Modulus (GPa) = 20.86612 22.48720 21.67666
#
# Velocity S-wave (km/s) = 3.69055 3.83123 3.76155
# Velocity P-wave (km/s) = 7.48657 7.95920 7.72650
#
# Compressibility (1/GPa) = 0.01722795
#
# Stress axis : x y z
#
# Youngs Moduli (GPa) = 60.13679 32.34651 72.65704
#
# Poissons Ratio (x) = 0.28990 0.28264
# Poissons Ratio (y) = 0.53896 0.66753
# Poissons Ratio (z) = 0.23393 0.29718
#
# Static dielectric constant tensor:
#      x y z
#    x 2.822870 0.000000 0.000000 
#    y 0.000000 2.877540 0.000000 
#    z 0.000000 0.000000 3.109850 
# 
# 
# High freq. dielectric constant tensor:
#      x y z
#    x 1.560350 0.000000 0.000000 
#    y 0.000000 1.580210 0.000000 
#    z 0.000000 0.000000 1.586730 
# 
# From -- ./inp_files/33304.got.cif
#   From: 2010.03.12/outbox.cif.g09.slc.cpg/sg59_17_cif.got.tgz:33304.got - 2010.04.16 16:29:54.
