data_PCOD8240108
_publ_section_title
;
Structure prediction by ZEFSAII (Michael W. Deem and Ramdas Pophale) SiO2 
 PCOD8240108
Probable space group: P M M N
;
_chemical_formula_sum "Si O2"
_cell_formula_units_Z 64
_cell_length_a 21.318465
_cell_length_b 9.335108
_cell_length_c 19.054556
_cell_angle_alpha 90.000000
_cell_angle_beta 90.000000
_cell_angle_gamma 90.000000
_cell_volume 3792.050489
_symmetry_space_group_name_H-M "P M M N"
_symmetry_group_IT_number 59
_space_group.IT_coordinate_system_code '2'
_symmetry_cell_setting 'orthorhombic'
loop_
_space_group_symop_operation_xyz
x,y,z
1/2-x,1/2-y,z
1/2+x,-y,-z
-x,1/2+y,-z
-x,-y,-z
1/2+x,1/2+y,-z
1/2-x,y,z
x,1/2-y,z
loop_
_atom_site_type_symbol
_atom_site_label
_atom_site_fract_x
_atom_site_fract_y
_atom_site_fract_z
Si Si1 0.053534 0.415362 0.959852
Si Si2 0.819320 0.919856 0.528743
Si Si3 0.616981 0.910515 0.903427
Si Si4 0.371409 0.088728 0.326694
Si Si5 0.017785 0.584153 0.836566
Si Si6 0.515824 0.088098 0.324968
Si Si7 0.946053 0.921886 0.454862
Si Si8 0.178294 0.911112 0.202557
O O1 0.033898 0.250000 0.949368
O O2 0.065703 0.489100 0.884067
O O3 0.113445 0.426550 0.011871
O O4 0.000000 0.500000 0.000000
O O5 0.750000 0.976633 0.504288
O O6 0.819551 0.750000 0.528818
O O7 0.831416 0.973035 0.608303
O O8 0.876664 0.971895 0.480089
O O9 0.636966 0.750000 0.883487
O O10 0.551821 0.947687 0.864389
O O11 0.669311 0.017679 0.873841
O O12 0.350372 0.250000 0.307266
O O13 0.443733 0.086820 0.348696
O O14 0.363247 0.991168 0.259427
O O15 0.034987 0.750000 0.846690
O O16 0.024154 0.538140 0.755583
O O17 0.542102 0.250000 0.334637
O O18 0.551748 0.975828 0.374519
O O19 0.955271 0.750000 0.459383
O O20 0.000000 0.000000 0.500000
O O21 0.250000 0.919972 0.225394
O O22 0.153928 0.750000 0.198135
#
# Coordination Sequence:
#
# PCOD8240108 Si02
#       8
#     8   8   8   8   8   8   8   8
#     4   9  17  28  44  67  93 119 153 192 231 280
#     4   9  18  33  53  74  95 127 172 212 246 293
#     4   9  17  31  47  64  88 124 164 197 233 282
#     4  10  18  33  53  69  92 130 172 207 240 292
#     4   9  17  30  47  68  96 124 154 195 240 287
#     4  10  19  33  51  74 102 131 166 204 246 301
#     4  11  21  34  52  75 103 133 167 211 259 305
#     4  11  23  33  42  65  99 130 165 209 249 289
#
# _framework density 16.877412
#
# number of rings (size 3 to 8) (size 9 to 14) (size 15 to 20)
#    0.000    2.250    2.500    2.250    0.000    5.000 
#    0.000    0.000    0.000    2.250    0.000    0.875 
#    0.000    3.000    0.000    0.000    0.000    0.000 
#
# Total GULP energy -793206.793155 kJ/mol
# GULP energy per Si atom -12393.856143 kJ/mol
# Density = 1.683900 g / cm^3
# Si number density = 16.877412 Si / 1000 Ang^3
#
#
#
# Elastic Constant Matrix: (Units=GPa)
#
#
# Indices 1 2 3 4 5 6 
#
# 1 64.6506 30.3872 40.6049 0.0000 0.0000 0.0000
# 2 30.3872 85.3416 50.9368 0.0000 0.0000 0.0000
# 3 40.6049 50.9368 112.4541 0.0000 0.0000 0.0000
# 4 0.0000 0.0000 0.0000 33.7754 0.0000 0.0000
# 5 0.0000 0.0000 0.0000 0.0000 21.3117 0.0000
# 6 0.0000 0.0000 0.0000 0.0000 0.0000 18.8079
#
#
#
# Elastic Compliance Matrix: (Units=1/GPa)
#
#
# Indices 1 2 3 4 5 6 
#
# 1 0.020974 -0.004040 -0.005743 0.000000 0.000000 0.000000
# 2 -0.004040 0.016838 -0.006168 0.000000 0.000000 0.000000
# 3 -0.005743 -0.006168 0.013760 0.000000 0.000000 0.000000
# 4 0.000000 0.000000 0.000000 0.029607 0.000000 0.000000
# 5 0.000000 0.000000 0.000000 0.000000 0.046922 0.000000
# 6 0.000000 0.000000 0.000000 0.000000 0.000000 0.053169
#
#
# Mechanical properties :
#
#
# Convention : Reuss Voigt Hill
#
# Bulk Modulus (GPa) = 50.84156 56.25602 53.54879
# Shear Modulus (GPa) = 22.75527 24.14683 23.45105
#
# Velocity S-wave (km/s) = 3.67586 3.78659 3.73163
# Velocity P-wave (km/s) = 6.94301 7.24722 7.09674
#
# Compressibility (1/GPa) = 0.01966895
#
# Stress axis : x y z
#
# Youngs Moduli (GPa) = 47.67836 59.39115 72.67427
#
# Poissons Ratio (x) = 0.23995 0.41738
# Poissons Ratio (y) = 0.19263 0.44824
# Poissons Ratio (z) = 0.27383 0.36631
#
# Static dielectric constant tensor:
#      x y z
#    x 3.019960 0.000000 0.000000 
#    y 0.000000 3.180830 0.000000 
#    z 0.000000 0.000000 3.419290 
# 
# 
# High freq. dielectric constant tensor:
#      x y z
#    x 1.608540 0.000000 0.000000 
#    y 0.000000 1.646150 0.000000 
#    z 0.000000 0.000000 1.653920 
# 
# From -- ./inp_files/31033.got.cif
#   From: 2010.03.12/outbox.cif.g09.slc.cpg/sg59_16_cif.got.tgz:31033.got - 2010.04.16 16:29:54.
