data_PCOD8240518
_publ_section_title
;
Structure prediction by ZEFSAII (Michael W. Deem and Ramdas Pophale) SiO2 
 PCOD8240518
Probable space group: P M M N
;
_chemical_formula_sum "Si O2"
_cell_formula_units_Z 48
_cell_length_a 25.232400
_cell_length_b 9.130584
_cell_length_c 12.633535
_cell_angle_alpha 90.000000
_cell_angle_beta 90.000000
_cell_angle_gamma 90.000000
_cell_volume 2910.596514
_symmetry_space_group_name_H-M "P M M N"
_symmetry_group_IT_number 59
_space_group.IT_coordinate_system_code '2'
_symmetry_cell_setting 'orthorhombic'
loop_
_space_group_symop_operation_xyz
x,y,z
1/2-x,1/2-y,z
1/2+x,-y,-z
-x,1/2+y,-z
-x,-y,-z
1/2+x,1/2+y,-z
1/2-x,y,z
x,1/2-y,z
loop_
_atom_site_type_symbol
_atom_site_label
_atom_site_fract_x
_atom_site_fract_y
_atom_site_fract_z
Si Si1 0.006240 0.421126 0.110769
Si Si2 0.810418 0.423198 0.291772
Si Si3 0.187140 0.088346 0.503624
Si Si4 0.110124 0.580348 0.881102
Si Si5 0.311865 0.420385 0.268669
Si Si6 0.391921 0.575962 0.121215
O O1 0.018964 0.250000 0.095640
O O2 0.055021 0.500257 0.170963
O O3 0.949088 0.442770 0.167817
O O4 0.000000 0.500000 0.000000
O O5 0.750000 0.474862 0.271581
O O6 0.814622 0.250000 0.295935
O O7 0.832544 0.480290 0.404327
O O8 0.846809 0.491333 0.198201
O O9 0.250000 0.094694 0.500786
O O10 0.164425 0.250000 0.527835
O O11 0.168417 0.036525 0.387096
O O12 0.123707 0.750000 0.889553
O O13 0.115336 0.517684 0.000406
O O14 0.250000 0.452547 0.254340
O O15 0.324303 0.250000 0.246328
O O16 0.341479 0.524818 0.186877
O O17 0.398490 0.750000 0.126871
#
# Coordination Sequence:
#
# PCOD8240518 Si02
#       6
#     8   8   8   8   8   8
#     4   9  16  29  47  64  87 120 157 192 224 264
#     4   9  16  27  45  67  90 116 146 179 216 262
#     4   8  15  29  46  63  86 116 149 183 219 261
#     4   8  16  29  44  65  92 121 149 179 221 267
#     4   9  18  32  48  66  91 122 151 181 223 272
#     4  10  19  30  46  69  94 119 151 189 228 270
#
# _framework density 16.491464000000001
#
# number of rings (size 3 to 8) (size 9 to 14) (size 15 to 20)
#    0.000    3.167    0.000    3.000    0.000    1.667 
#    0.000    8.333    0.000    3.000    0.000    0.000 
#    0.000    0.000    0.000    0.000    0.000    0.000 
#
# Total GULP energy -594730.858923 kJ/mol
# GULP energy per Si atom -12390.226228 kJ/mol
# Density = 1.645393 g / cm^3
# Si number density = 16.491464 Si / 1000 Ang^3
#
#
#
# Elastic Constant Matrix: (Units=GPa)
#
#
# Indices 1 2 3 4 5 6 
#
# 1 86.8283 41.6316 55.4134 0.0000 0.0000 0.0000
# 2 41.6316 61.5190 35.5118 0.0000 0.0000 0.0000
# 3 55.4134 35.5118 95.0433 0.0000 0.0000 0.0000
# 4 0.0000 0.0000 0.0000 23.6556 0.0000 0.0000
# 5 0.0000 0.0000 0.0000 0.0000 4.8430 0.0000
# 6 0.0000 0.0000 0.0000 0.0000 0.0000 24.9278
#
#
#
# Elastic Compliance Matrix: (Units=1/GPa)
#
#
# Indices 1 2 3 4 5 6 
#
# 1 0.022005 -0.009544 -0.009264 0.000000 0.000000 0.000000
# 2 -0.009544 0.024865 -0.003726 0.000000 0.000000 0.000000
# 3 -0.009264 -0.003726 0.017315 0.000000 0.000000 0.000000
# 4 0.000000 0.000000 0.000000 0.042273 0.000000 0.000000
# 5 0.000000 0.000000 0.000000 0.000000 0.206486 0.000000
# 6 0.000000 0.000000 0.000000 0.000000 0.000000 0.040116
#
#
# Mechanical properties :
#
#
# Convention : Reuss Voigt Hill
#
# Bulk Modulus (GPa) = 52.30885 56.50045 54.40465
# Shear Modulus (GPa) = 12.36098 18.07419 15.21758
#
# Velocity S-wave (km/s) = 2.74074 3.31414 3.04098
# Velocity P-wave (km/s) = 6.46553 6.99853 6.73731
#
# Compressibility (1/GPa) = 0.01911722
#
# Stress axis : x y z
#
# Youngs Moduli (GPa) = 45.44404 40.21779 57.75445
#
# Poissons Ratio (x) = 0.38384 0.53502
# Poissons Ratio (y) = 0.43372 0.21519
# Poissons Ratio (z) = 0.42098 0.14985
#
# Static dielectric constant tensor:
#      x y z
#    x 13.136720 0.000000 0.000000 
#    y 0.000000 3.096560 0.000000 
#    z 0.000000 0.000000 3.353250 
# 
# 
# High freq. dielectric constant tensor:
#      x y z
#    x 1.623990 0.000000 0.000000 
#    y 0.000000 1.625570 0.000000 
#    z 0.000000 0.000000 1.616000 
# 
# From -- ./inp_files/14466.got.cif
#   From: 2010.03.12/outbox.cif.g09.slc.cpg/sg59_8_cif.got.tgz:14466.got - 2010.04.16 16:29:54.
