data_PCOD8240868
_publ_section_title
;
Structure prediction by ZEFSAII (Michael W. Deem and Ramdas Pophale) SiO2 
 PCOD8240868
Probable space group: P M M N
;
_chemical_formula_sum "Si O2"
_cell_formula_units_Z 64
_cell_length_a 19.079149
_cell_length_b 8.822556
_cell_length_c 19.864625
_cell_angle_alpha 90.000000
_cell_angle_beta 90.000000
_cell_angle_gamma 90.000000
_cell_volume 3343.749961
_symmetry_space_group_name_H-M "P M M N"
_symmetry_group_IT_number 59
_space_group.IT_coordinate_system_code '2'
_symmetry_cell_setting 'orthorhombic'
loop_
_space_group_symop_operation_xyz
x,y,z
1/2-x,1/2-y,z
1/2+x,-y,-z
-x,1/2+y,-z
-x,-y,-z
1/2+x,1/2+y,-z
1/2-x,y,z
x,1/2-y,z
loop_
_atom_site_type_symbol
_atom_site_label
_atom_site_fract_x
_atom_site_fract_y
_atom_site_fract_z
Si Si1 0.943307 0.570168 0.635111
Si Si2 0.669353 0.922354 0.288804
Si Si3 0.670860 0.929848 0.532081
Si Si4 0.094412 0.926791 0.592619
Si Si5 0.671892 0.930250 0.883432
Si Si6 0.584174 0.575859 0.157240
Si Si7 0.171828 0.430151 0.966640
Si Si8 0.052688 0.070103 0.213804
O O1 0.941283 0.750000 0.640363
O O2 0.875689 0.508611 0.594468
O O3 0.943348 0.501382 0.710586
O O4 0.013161 0.520683 0.594650
O O5 0.750000 0.968359 0.292536
O O6 0.657565 0.750000 0.314196
O O7 0.644705 0.940350 0.212504
O O8 0.626442 0.038363 0.334614
O O9 0.750000 0.994317 0.538704
O O10 0.672210 0.750000 0.532362
O O11 0.636598 0.980901 0.462717
O O12 0.101361 0.750000 0.576740
O O13 0.750000 0.990774 0.866648
O O14 0.671888 0.750000 0.880824
O O15 0.618084 0.996540 0.828542
O O16 0.648974 0.982993 0.958449
O O17 0.560362 0.750000 0.149525
O O18 0.616040 0.508564 0.087820
O O19 0.517913 0.476778 0.176955
O O20 0.250000 0.492666 0.951113
O O21 0.173780 0.250000 0.961722
O O22 0.055627 0.250000 0.216585
#
# Coordination Sequence:
#
# PCOD8240868 Si02
#       8
#     8   8   8   8   8   8   8   8
#     4   9  19  35  53  74 102 135 167 201 249 302
#     4  10  20  33  50  73 100 133 173 210 243 286
#     4  10  21  37  56  77 100 128 167 212 251 292
#     4  11  21  35  54  76 104 135 163 198 251 309
#     4   8  15  28  49  76 101 130 171 215 255 294
#     4  10  19  31  49  73 102 135 171 208 250 299
#     4   8  14  27  47  72 102 134 171 214 254 292
#     4  10  19  33  52  75 105 134 166 209 253 299
#
# _framework density 19.140187000000001
#
# number of rings (size 3 to 8) (size 9 to 14) (size 15 to 20)
#    0.000    2.500    1.250    2.250    0.000    4.500 
#    0.000    3.750    0.000    1.500    0.000    1.750 
#    0.000    0.000    0.000    0.000    0.000    0.000 
#
# Total GULP energy -793455.255794 kJ/mol
# GULP energy per Si atom -12397.738372 kJ/mol
# Density = 1.909662 g / cm^3
# Si number density = 19.140187 Si / 1000 Ang^3
#
#
#
# Elastic Constant Matrix: (Units=GPa)
#
#
# Indices 1 2 3 4 5 6 
#
# 1 150.3390 15.9118 76.2596 0.0000 0.0000 0.0000
# 2 15.9118 9.0240 12.3142 0.0000 0.0000 0.0000
# 3 76.2596 12.3142 108.6898 0.0000 0.0000 0.0000
# 4 0.0000 0.0000 0.0000 15.3509 0.0000 0.0000
# 5 0.0000 0.0000 0.0000 0.0000 41.4565 0.0000
# 6 0.0000 0.0000 0.0000 0.0000 0.0000 21.4759
#
#
#
# Elastic Compliance Matrix: (Units=1/GPa)
#
#
# Indices 1 2 3 4 5 6 
#
# 1 0.011123 -0.010603 -0.006603 0.000000 0.000000 0.000000
# 2 -0.010603 0.141189 -0.008557 0.000000 0.000000 0.000000
# 3 -0.006603 -0.008557 0.014803 0.000000 0.000000 0.000000
# 4 0.000000 0.000000 0.000000 0.065143 0.000000 0.000000
# 5 0.000000 0.000000 0.000000 0.000000 0.024122 0.000000
# 6 0.000000 0.000000 0.000000 0.000000 0.000000 0.046564
#
#
# Mechanical properties :
#
#
# Convention : Reuss Voigt Hill
#
# Bulk Modulus (GPa) = 8.65133 53.00266 30.82700
# Shear Modulus (GPa) = 12.72268 26.56114 19.64191
#
# Velocity S-wave (km/s) = 2.58100 3.72925 3.20693
# Velocity P-wave (km/s) = 3.66222 6.80404 5.46383
#
# Compressibility (1/GPa) = 0.11558910
#
# Stress axis : x y z
#
# Youngs Moduli (GPa) = 89.90176 7.08271 67.55432
#
# Poissons Ratio (x) = 0.07510 0.44607
# Poissons Ratio (y) = 0.95320 0.57807
# Poissons Ratio (z) = 0.59363 0.06061
#
# Static dielectric constant tensor:
#      x y z
#    x 3.752080 0.000000 0.000000 
#    y 0.000000 3.025620 0.000000 
#    z 0.000000 0.000000 3.788010 
# 
# 
# High freq. dielectric constant tensor:
#      x y z
#    x 1.753470 0.000000 0.000000 
#    y 0.000000 1.693510 0.000000 
#    z 0.000000 0.000000 1.754640 
# 
# From -- ./inp_files/30813.got.cif
#   From: 2010.03.12/outbox.cif.g09.slc.cpg/sg59_16_cif.got.tgz:30813.got - 2010.04.16 16:29:54.
