data_PCOD8240527
_publ_section_title
;
Structure prediction by ZEFSAII (Michael W. Deem and Ramdas Pophale) SiO2 
 PCOD8240527
Probable space group: P M M N
;
_chemical_formula_sum "Si O2"
_cell_formula_units_Z 56
_cell_length_a 18.086138
_cell_length_b 9.324990
_cell_length_c 18.873680
_cell_angle_alpha 90.000000
_cell_angle_beta 90.000000
_cell_angle_gamma 90.000000
_cell_volume 3183.103810
_symmetry_space_group_name_H-M "P M M N"
_symmetry_group_IT_number 59
_space_group.IT_coordinate_system_code '2'
_symmetry_cell_setting 'orthorhombic'
loop_
_space_group_symop_operation_xyz
x,y,z
1/2-x,1/2-y,z
1/2+x,-y,-z
-x,1/2+y,-z
-x,-y,-z
1/2+x,1/2+y,-z
1/2-x,y,z
x,1/2-y,z
loop_
_atom_site_type_symbol
_atom_site_label
_atom_site_fract_x
_atom_site_fract_y
_atom_site_fract_z
Si Si1 0.408553 0.416204 0.066324
Si Si2 0.535522 0.413558 0.712545
Si Si3 0.165587 0.583247 0.632964
Si Si4 0.032930 0.419506 0.566739
Si Si5 0.418529 0.914166 0.930896
Si Si6 0.592269 0.414756 0.223636
Si Si7 0.333865 0.585135 0.191312
O O1 0.388660 0.250000 0.063548
O O2 0.494644 0.444919 0.080056
O O3 0.360819 0.486893 0.127686
O O4 0.384519 0.485016 0.991205
O O5 0.512539 0.250000 0.723748
O O6 0.524029 0.454596 0.630417
O O7 0.482885 0.501426 0.763670
O O8 0.619516 0.443750 0.736770
O O9 0.250000 0.545869 0.614285
O O10 0.148068 0.750000 0.616999
O O11 0.113547 0.483645 0.584947
O O12 0.153155 0.549121 0.716512
O O13 0.040485 0.250000 0.552031
O O14 0.000000 0.500000 0.500000
O O15 0.405203 0.750000 0.953726
O O16 0.378341 0.950103 0.855705
O O17 0.568890 0.250000 0.226819
O O18 0.250000 0.546169 0.210520
O O19 0.342348 0.750000 0.167236
#
# Coordination Sequence:
#
# PCOD8240527 Si02
#       7
#     8   8   8   8   8   8   8
#     4  10  19  30  46  69  97 130 169 214 259 304
#     4   9  18  32  51  74  99 127 167 210 250 300
#     4   9  18  33  54  80 108 138 170 208 258 313
#     4  10  20  35  56  82 109 139 173 212 253 301
#     4   9  17  29  46  70  98 129 167 213 259 304
#     4   9  16  29  50  74 100 130 168 211 253 299
#     4  10  20  34  51  70  96 131 169 213 263 310
#
# _framework density 17.592891999999999
#
# number of rings (size 3 to 8) (size 9 to 14) (size 15 to 20)
#    0.000    2.571    1.429    0.857    0.000    2.286 
#    0.000    1.429    0.000    5.143    0.000    0.000 
#    0.000    0.000    0.000    0.000    0.000    0.000 
#
# Total GULP energy -694258.386894 kJ/mol
# GULP energy per Si atom -12397.471195 kJ/mol
# Density = 1.755285 g / cm^3
# Si number density = 17.592892 Si / 1000 Ang^3
#
#
#
# Elastic Constant Matrix: (Units=GPa)
#
#
# Indices 1 2 3 4 5 6 
#
# 1 95.9810 51.6685 58.4190 0.0000 0.0000 0.0000
# 2 51.6685 85.4236 63.7287 0.0000 0.0000 0.0000
# 3 58.4190 63.7287 127.2535 0.0000 0.0000 0.0000
# 4 0.0000 0.0000 0.0000 28.0604 0.0000 0.0000
# 5 0.0000 0.0000 0.0000 0.0000 21.3251 0.0000
# 6 0.0000 0.0000 0.0000 0.0000 0.0000 23.3445
#
#
#
# Elastic Compliance Matrix: (Units=1/GPa)
#
#
# Indices 1 2 3 4 5 6 
#
# 1 0.016729 -0.007007 -0.004171 0.000000 0.000000 0.000000
# 2 -0.007007 0.021624 -0.007612 0.000000 0.000000 0.000000
# 3 -0.004171 -0.007612 0.013585 0.000000 0.000000 0.000000
# 4 0.000000 0.000000 0.000000 0.035637 0.000000 0.000000
# 5 0.000000 0.000000 0.000000 0.000000 0.046893 0.000000
# 6 0.000000 0.000000 0.000000 0.000000 0.000000 0.042837
#
#
# Mechanical properties :
#
#
# Convention : Reuss Voigt Hill
#
# Bulk Modulus (GPa) = 69.64913 72.92115 71.28514
# Shear Modulus (GPa) = 22.76117 23.53547 23.14832
#
# Velocity S-wave (km/s) = 3.60080 3.66154 3.63130
# Velocity P-wave (km/s) = 7.54739 7.70811 7.62817
#
# Compressibility (1/GPa) = 0.01435768
#
# Stress axis : x y z
#
# Youngs Moduli (GPa) = 59.77478 46.24549 73.60876
#
# Poissons Ratio (x) = 0.32405 0.30701
# Poissons Ratio (y) = 0.41885 0.56033
# Poissons Ratio (z) = 0.24931 0.35204
#
# Static dielectric constant tensor:
#      x y z
#    x 3.135840 0.000000 0.000000 
#    y 0.000000 3.327270 0.000000 
#    z 0.000000 0.000000 3.381630 
# 
# 
# High freq. dielectric constant tensor:
#      x y z
#    x 1.653720 0.000000 0.000000 
#    y 0.000000 1.683940 0.000000 
#    z 0.000000 0.000000 1.680930 
# 
# From -- ./inp_files/30562.got.cif
#   From: 2010.03.12/outbox.cif.g09.slc.cpg/sg59_16_cif.got.tgz:30562.got - 2010.04.16 16:29:54.
