data_PCOD8240366
_publ_section_title
;
Structure prediction by ZEFSAII (Michael W. Deem and Ramdas Pophale) SiO2 
 PCOD8240366
Probable space group: P M M N
;
_chemical_formula_sum "Si O2"
_cell_formula_units_Z 64
_cell_length_a 13.842541
_cell_length_b 9.390290
_cell_length_c 31.408491
_cell_angle_alpha 90.000000
_cell_angle_beta 90.000000
_cell_angle_gamma 90.000000
_cell_volume 4082.647601
_symmetry_space_group_name_H-M "P M M N"
_symmetry_group_IT_number 59
_space_group.IT_coordinate_system_code '2'
_symmetry_cell_setting 'orthorhombic'
loop_
_space_group_symop_operation_xyz
x,y,z
1/2-x,1/2-y,z
1/2+x,-y,-z
-x,1/2+y,-z
-x,-y,-z
1/2+x,1/2+y,-z
1/2-x,y,z
x,1/2-y,z
loop_
_atom_site_type_symbol
_atom_site_label
_atom_site_fract_x
_atom_site_fract_y
_atom_site_fract_z
Si Si1 0.861996 0.914780 0.477919
Si Si2 0.857561 0.084898 0.060315
Si Si3 0.026758 0.416346 0.436132
Si Si4 0.635984 0.588056 0.979121
Si Si5 0.638135 0.417158 0.634966
Si Si6 0.137017 0.084523 0.190702
Si Si7 0.635409 0.406899 0.730277
Si Si8 0.457853 0.415820 0.106167
O O1 0.750000 0.959423 0.474953
O O2 0.876865 0.750000 0.465420
O O3 0.898224 0.942988 0.525716
O O4 0.923248 0.012032 0.445759
O O5 0.750000 0.032029 0.072644
O O6 0.857438 0.250000 0.047891
O O7 0.927154 0.056950 0.100831
O O8 0.900147 0.002806 0.019452
O O9 0.009838 0.250000 0.427654
O O10 0.071019 0.488395 0.394693
O O11 0.750000 0.580477 0.976215
O O12 0.599120 0.750000 0.985050
O O13 0.594816 0.520334 0.935498
O O14 0.750000 0.457332 0.627393
O O15 0.622108 0.250000 0.625919
O O16 0.605341 0.456805 0.683015
O O17 0.250000 0.054424 0.184004
O O18 0.114740 0.250000 0.195943
O O19 0.080975 0.016263 0.150092
O O20 0.095617 0.012077 0.233460
O O21 0.750000 0.401404 0.731984
O O22 0.593081 0.250000 0.739424
O O23 0.431330 0.250000 0.108234
#
# Coordination Sequence:
#
# PCOD8240366 Si02
#       8
#     8   8   8   8   8   8   8   8
#     4   9  18  32  46  61  88 125 158 186 220 263
#     4   9  17  28  40  54  74 100 129 160 191 223
#     4  10  19  29  44  68  93 116 149 192 228 257
#     4   9  16  26  40  56  75 100 127 155 189 228
#     4   9  17  29  45  64  88 119 149 175 210 260
#     4   9  16  26  41  60  80 102 129 160 195 239
#     4   8  15  28  43  60  85 113 136 162 202 250
#     4   9  16  26  40  57  77 101 128 157 191 234
#
# _framework density 15.676102
#
# number of rings (size 3 to 8) (size 9 to 14) (size 15 to 20)
#    0.000    3.000    0.000    2.250    0.000    3.500 
#    0.000    2.500    0.000    3.000    0.000    0.875 
#    0.000    3.000    0.000    0.000    0.000    0.000 
#
# Total GULP energy -793321.787565 kJ/mol
# GULP energy per Si atom -12395.652931 kJ/mol
# Density = 1.564042 g / cm^3
# Si number density = 15.676102 Si / 1000 Ang^3
#
#
#
# Elastic Constant Matrix: (Units=GPa)
#
#
# Indices 1 2 3 4 5 6 
#
# 1 73.9721 39.0185 56.2728 0.0000 0.0000 0.0000
# 2 39.0185 61.5603 58.3298 0.0000 0.0000 0.0000
# 3 56.2728 58.3298 127.2714 0.0000 0.0000 0.0000
# 4 0.0000 0.0000 0.0000 25.4216 0.0000 0.0000
# 5 0.0000 0.0000 0.0000 0.0000 23.9864 0.0000
# 6 0.0000 0.0000 0.0000 0.0000 0.0000 17.4319
#
#
#
# Elastic Compliance Matrix: (Units=1/GPa)
#
#
# Indices 1 2 3 4 5 6 
#
# 1 0.022693 -0.008619 -0.006083 0.000000 0.000000 0.000000
# 2 -0.008619 0.031987 -0.010849 0.000000 0.000000 0.000000
# 3 -0.006083 -0.010849 0.015519 0.000000 0.000000 0.000000
# 4 0.000000 0.000000 0.000000 0.039337 0.000000 0.000000
# 5 0.000000 0.000000 0.000000 0.000000 0.041690 0.000000
# 6 0.000000 0.000000 0.000000 0.000000 0.000000 0.057366
#
#
# Mechanical properties :
#
#
# Convention : Reuss Voigt Hill
#
# Bulk Modulus (GPa) = 52.36719 63.33843 57.85281
# Shear Modulus (GPa) = 18.79273 20.64681 19.71977
#
# Velocity S-wave (km/s) = 3.46615 3.63311 3.55061
# Velocity P-wave (km/s) = 7.03542 7.62178 7.33446
#
# Compressibility (1/GPa) = 0.01909593
#
# Stress axis : x y z
#
# Youngs Moduli (GPa) = 44.06685 31.26274 64.43649
#
# Poissons Ratio (x) = 0.26946 0.39199
# Poissons Ratio (y) = 0.37982 0.69907
# Poissons Ratio (z) = 0.26807 0.33917
#
# Static dielectric constant tensor:
#      x y z
#    x 2.908020 0.000000 0.000000 
#    y 0.000000 2.996240 0.000000 
#    z 0.000000 0.000000 3.073850 
# 
# 
# High freq. dielectric constant tensor:
#      x y z
#    x 1.582170 0.000000 0.000000 
#    y 0.000000 1.590770 0.000000 
#    z 0.000000 0.000000 1.592790 
# 
# From -- ./inp_files/33327.got.cif
#   From: 2010.03.12/outbox.cif.g09.slc.cpg/sg59_17_cif.got.tgz:33327.got - 2010.04.16 16:29:54.
