data_PCOD8240110
_publ_section_title
;
Structure prediction by ZEFSAII (Michael W. Deem and Ramdas Pophale) SiO2 
 PCOD8240110
Probable space group: P M M N
;
_chemical_formula_sum "Si O2"
_cell_formula_units_Z 64
_cell_length_a 15.536601
_cell_length_b 24.558438
_cell_length_c 9.122053
_cell_angle_alpha 90.000000
_cell_angle_beta 90.000000
_cell_angle_gamma 90.000000
_cell_volume 3480.561761
_symmetry_space_group_name_H-M "P M M N"
_symmetry_group_IT_number 59
_space_group.IT_coordinate_system_code '2'
_symmetry_cell_setting 'orthorhombic'
loop_
_space_group_symop_operation_xyz
x,y,z
1/2-x,1/2-y,z
1/2+x,-y,-z
-x,1/2+y,-z
-x,-y,-z
1/2+x,1/2+y,-z
1/2-x,y,z
x,1/2-y,z
loop_
_atom_site_type_symbol
_atom_site_label
_atom_site_fract_x
_atom_site_fract_y
_atom_site_fract_z
Si Si1 0.934601 0.539859 0.074393
Si Si2 0.651577 0.006527 0.541947
Si Si3 0.071708 0.389042 0.450882
Si Si4 0.153180 0.549770 0.779988
Si Si5 0.490876 0.122693 0.140586
Si Si6 0.948633 0.406777 0.694569
Si Si7 0.653545 0.811570 0.328336
Si Si8 0.009424 0.811559 0.129207
O O1 0.850317 0.505169 0.119293
O O2 0.972907 0.562967 0.225292
O O3 0.921859 0.587491 0.955228
O O4 0.000000 0.500000 0.000000
O O5 0.750000 0.990212 0.558458
O O6 0.630943 0.033264 0.385782
O O7 0.629107 0.050927 0.668533
O O8 0.597138 0.952097 0.566743
O O9 0.055145 0.362461 0.292106
O O10 0.141972 0.352821 0.535496
O O11 0.981851 0.385983 0.537538
O O12 0.250000 0.573859 0.792458
O O13 0.082811 0.593122 0.834328
O O14 0.507835 0.177104 0.045302
O O15 0.923109 0.353639 0.792573
O O16 0.750000 0.820753 0.265254
O O17 0.642578 0.750000 0.387552
O O18 0.585220 0.822490 0.198893
O O19 0.040703 0.750000 0.155820
#
# Coordination Sequence:
#
# PCOD8240110 Si02
#       8
#     8   8   8   8   8   8   8   8
#     4   9  17  31  47  71 101 141 176 202 249 312
#     4  11  20  30  50  81 111 142 180 220 266 320
#     4  11  19  32  53  80 110 143 178 219 262 318
#     4  10  19  32  51  75 105 142 180 215 259 316
#     4  10  20  34  52  77 106 137 176 223 269 312
#     4  10  18  33  53  73 105 142 175 222 266 317
#     4   9  19  37  58  79 105 140 182 223 267 318
#     4   9  20  38  59  79  99 137 186 223 268 330
#
# _framework density 18.387837000000001
#
# number of rings (size 3 to 8) (size 9 to 14) (size 15 to 20)
#    0.000    2.125    2.500    2.250    0.000    0.500 
#    0.000   11.875    0.000    3.000    0.000    1.750 
#    0.000    0.000    0.000    0.000    0.000    0.000 
#
# Total GULP energy -793030.673837 kJ/mol
# GULP energy per Si atom -12391.104279 kJ/mol
# Density = 1.834599 g / cm^3
# Si number density = 18.387837 Si / 1000 Ang^3
#
#
#
# Elastic Constant Matrix: (Units=GPa)
#
#
# Indices 1 2 3 4 5 6 
#
# 1 45.5093 21.2902 22.2523 0.0000 0.0000 0.0000
# 2 21.2902 99.8308 34.6230 0.0000 0.0000 0.0000
# 3 22.2523 34.6230 107.7766 0.0000 0.0000 0.0000
# 4 0.0000 0.0000 0.0000 28.4013 0.0000 0.0000
# 5 0.0000 0.0000 0.0000 0.0000 19.3045 0.0000
# 6 0.0000 0.0000 0.0000 0.0000 0.0000 21.0855
#
#
#
# Elastic Compliance Matrix: (Units=1/GPa)
#
#
# Indices 1 2 3 4 5 6 
#
# 1 0.025866 -0.004124 -0.004016 0.000000 0.000000 0.000000
# 2 -0.004124 0.011930 -0.002981 0.000000 0.000000 0.000000
# 3 -0.004016 -0.002981 0.011065 0.000000 0.000000 0.000000
# 4 0.000000 0.000000 0.000000 0.035210 0.000000 0.000000
# 5 0.000000 0.000000 0.000000 0.000000 0.051802 0.000000
# 6 0.000000 0.000000 0.000000 0.000000 0.000000 0.047426
#
#
# Mechanical properties :
#
#
# Convention : Reuss Voigt Hill
#
# Bulk Modulus (GPa) = 37.56489 45.49421 41.52955
# Shear Modulus (GPa) = 23.31941 25.42166 24.37054
#
# Velocity S-wave (km/s) = 3.56504 3.72227 3.64450
# Velocity P-wave (km/s) = 6.11715 6.57791 6.35171
#
# Compressibility (1/GPa) = 0.02662060
#
# Stress axis : x y z
#
# Youngs Moduli (GPa) = 38.66052 83.82036 90.37273
#
# Poissons Ratio (x) = 0.34564 0.36292
# Poissons Ratio (y) = 0.15942 0.26942
# Poissons Ratio (z) = 0.15525 0.24989
#
# Static dielectric constant tensor:
#      x y z
#    x 3.101960 0.000000 0.000000 
#    y 0.000000 3.524260 0.000000 
#    z 0.000000 0.000000 3.577020 
# 
# 
# High freq. dielectric constant tensor:
#      x y z
#    x 1.675790 0.000000 0.000000 
#    y 0.000000 1.706190 0.000000 
#    z 0.000000 0.000000 1.720120 
# 
# From -- ./inp_files/10820.got.cif
#   From: 2010.03.12/outbox.cif.g09.slc.cpg/sg59_6_cif.got.tgz:10820.got - 2010.04.16 16:29:54.
