data_PCOD8240904
_publ_section_title
;
Structure prediction by ZEFSAII (Michael W. Deem and Ramdas Pophale) SiO2 
 PCOD8240904
Probable space group: P M M N
;
_chemical_formula_sum "Si O2"
_cell_formula_units_Z 64
_cell_length_a 8.983818
_cell_length_b 22.603233
_cell_length_c 17.747707
_cell_angle_alpha 90.000000
_cell_angle_beta 90.000000
_cell_angle_gamma 90.000000
_cell_volume 3603.908510
_symmetry_space_group_name_H-M "P M M N"
_symmetry_group_IT_number 59
_space_group.IT_coordinate_system_code '2'
_symmetry_cell_setting 'orthorhombic'
loop_
_space_group_symop_operation_xyz
x,y,z
1/2-x,1/2-y,z
1/2+x,-y,-z
-x,1/2+y,-z
-x,-y,-z
1/2+x,1/2+y,-z
1/2-x,y,z
x,1/2-y,z
loop_
_atom_site_type_symbol
_atom_site_label
_atom_site_fract_x
_atom_site_fract_y
_atom_site_fract_z
Si Si1 0.920779 0.509788 0.078783
Si Si2 0.074573 0.953478 0.672886
Si Si3 0.574228 0.419196 0.651236
Si Si4 0.573359 0.683966 0.929963
Si Si5 0.572749 0.582962 0.818926
Si Si6 0.919295 0.852988 0.092451
Si Si7 0.924196 0.315854 0.759324
Si Si8 0.920386 0.060523 0.489820
O O1 0.750000 0.488226 0.073132
O O2 0.929237 0.577288 0.103221
O O3 0.009917 0.475741 0.142816
O O4 0.000000 0.500000 0.000000
O O5 0.250000 0.957841 0.690039
O O6 0.040964 0.916883 0.594731
O O7 0.993570 0.913672 0.735307
O O8 0.009782 0.020142 0.671753
O O9 0.750000 0.429348 0.664332
O O10 0.511412 0.365562 0.702374
O O11 0.541735 0.399354 0.563388
O O12 0.750000 0.679437 0.933053
O O13 0.519205 0.750000 0.909802
O O14 0.514388 0.639799 0.865544
O O15 0.510256 0.665023 0.011657
O O16 0.750000 0.579731 0.816113
O O17 0.750000 0.830588 0.096981
O O18 0.008598 0.821104 0.157881
O O19 0.750000 0.325356 0.767272
O O20 0.960800 0.250000 0.727929
O O21 0.750000 0.043707 0.491494
O O22 0.000000 0.000000 0.500000
#
# Coordination Sequence:
#
# PCOD8240904 Si02
#       8
#     8   8   8   8   8   8   8   8
#     4  11  21  34  52  76 103 130 162 203 252 302
#     4  10  19  31  49  77 106 129 159 205 254 302
#     4   9  17  32  52  72  98 134 166 199 245 300
#     4   9  18  34  53  69  88 122 170 213 242 281
#     4  11  21  34  51  74 101 132 168 204 248 297
#     4  10  20  35  53  72  95 128 168 204 243 295
#     4  10  21  34  48  71 101 131 167 210 251 292
#     4   8  15  28  48  72  98 126 158 193 237 293
#
# _framework density 17.758497999999999
#
# number of rings (size 3 to 8) (size 9 to 14) (size 15 to 20)
#    0.000    2.250    1.250    2.250    0.000    4.750 
#    0.000    0.000    0.000    3.000    0.000    1.750 
#    0.000    0.000    0.000    0.000    0.000    0.000 
#
# Total GULP energy -793122.195175 kJ/mol
# GULP energy per Si atom -12392.534300 kJ/mol
# Density = 1.771808 g / cm^3
# Si number density = 17.758498 Si / 1000 Ang^3
#
#
#
# Elastic Constant Matrix: (Units=GPa)
#
#
# Indices 1 2 3 4 5 6 
#
# 1 49.1167 24.5044 38.9701 0.0000 0.0000 0.0000
# 2 24.5044 88.2992 57.9833 0.0000 0.0000 0.0000
# 3 38.9701 57.9833 156.6838 0.0000 0.0000 0.0000
# 4 0.0000 0.0000 0.0000 16.3524 0.0000 0.0000
# 5 0.0000 0.0000 0.0000 0.0000 28.6334 0.0000
# 6 0.0000 0.0000 0.0000 0.0000 0.0000 17.1170
#
#
#
# Elastic Compliance Matrix: (Units=1/GPa)
#
#
# Indices 1 2 3 4 5 6 
#
# 1 0.026383 -0.003980 -0.005089 0.000000 0.000000 0.000000
# 2 -0.003980 0.015561 -0.004769 0.000000 0.000000 0.000000
# 3 -0.005089 -0.004769 0.009413 0.000000 0.000000 0.000000
# 4 0.000000 0.000000 0.000000 0.061153 0.000000 0.000000
# 5 0.000000 0.000000 0.000000 0.000000 0.034924 0.000000
# 6 0.000000 0.000000 0.000000 0.000000 0.000000 0.058421
#
#
# Mechanical properties :
#
#
# Convention : Reuss Voigt Hill
#
# Bulk Modulus (GPa) = 42.22712 59.66838 50.94775
# Shear Modulus (GPa) = 20.71037 23.93003 22.32020
#
# Velocity S-wave (km/s) = 3.41871 3.67485 3.54909
# Velocity P-wave (km/s) = 6.27802 7.18880 6.74879
#
# Compressibility (1/GPa) = 0.02368146
#
# Stress axis : x y z
#
# Youngs Moduli (GPa) = 37.90312 64.26284 106.23826
#
# Poissons Ratio (x) = 0.25575 0.54066
# Poissons Ratio (y) = 0.15085 0.50663
# Poissons Ratio (z) = 0.19289 0.30646
#
# Static dielectric constant tensor:
#      x y z
#    x 3.245430 0.000000 0.000000 
#    y 0.000000 3.273750 0.000000 
#    z 0.000000 0.000000 4.194290 
# 
# 
# High freq. dielectric constant tensor:
#      x y z
#    x 1.679060 0.000000 0.000000 
#    y 0.000000 1.660460 0.000000 
#    z 0.000000 0.000000 1.701550 
# 
# From -- ./inp_files/26219.got.cif
#   From: 2010.03.12/outbox.cif.g09.slc.cpg/sg59_14_cif.got.tgz:26219.got - 2010.04.16 16:29:54.
