data_PCOD8240992
_publ_section_title
;
Structure prediction by ZEFSAII (Michael W. Deem and Ramdas Pophale) SiO2 
 PCOD8240992
Probable space group: P M M N
;
_chemical_formula_sum "Si O2"
_cell_formula_units_Z 64
_cell_length_a 8.904558
_cell_length_b 27.894488
_cell_length_c 14.009156
_cell_angle_alpha 90.000000
_cell_angle_beta 90.000000
_cell_angle_gamma 90.000000
_cell_volume 3479.707449
_symmetry_space_group_name_H-M "P M M N"
_symmetry_group_IT_number 59
_space_group.IT_coordinate_system_code '2'
_symmetry_cell_setting 'orthorhombic'
loop_
_space_group_symop_operation_xyz
x,y,z
1/2-x,1/2-y,z
1/2+x,-y,-z
-x,1/2+y,-z
-x,-y,-z
1/2+x,1/2+y,-z
1/2-x,y,z
x,1/2-y,z
loop_
_atom_site_type_symbol
_atom_site_label
_atom_site_fract_x
_atom_site_fract_y
_atom_site_fract_z
Si Si1 0.587170 0.693579 0.628617
Si Si2 0.427429 0.986932 0.399802
Si Si3 0.073504 0.100404 0.080443
Si Si4 0.928059 0.802660 0.833089
Si Si5 0.575702 0.573022 0.129235
Si Si6 0.429226 0.195560 0.576003
Si Si7 0.575450 0.472068 0.219238
Si Si8 0.426196 0.886910 0.307954
O O1 0.750000 0.667850 0.630733
O O2 0.611746 0.750000 0.621988
O O3 0.501554 0.682231 0.728731
O O4 0.506044 0.678821 0.528909
O O5 0.250000 0.993248 0.406219
O O6 0.473475 0.932671 0.371971
O O7 0.500000 0.000000 0.500000
O O8 0.489708 0.022990 0.319541
O O9 0.250000 0.090855 0.093285
O O10 0.032242 0.156961 0.089254
O O11 0.986339 0.073699 0.164115
O O12 0.017261 0.082834 0.977562
O O13 0.750000 0.799158 0.818372
O O14 0.988884 0.750000 0.865780
O O15 0.750000 0.586627 0.140089
O O16 0.545366 0.517627 0.151805
O O17 0.481183 0.606235 0.199899
O O18 0.250000 0.191494 0.575831
O O19 0.478805 0.250000 0.600018
O O20 0.497187 0.161009 0.654707
O O21 0.750000 0.465298 0.241824
O O22 0.250000 0.879618 0.307934
#
# Coordination Sequence:
#
# PCOD8240992 Si02
#       8
#     8   8   8   8   8   8   8   8
#     4   7  11  22  41  65  92 121 153 189 231 281
#     4  10  21  37  55  77 106 138 171 207 252 309
#     4  10  19  31  51  78 102 128 170 218 257 299
#     4   8  14  26  45  71 102 130 157 196 247 298
#     4   9  19  35  52  71  99 134 171 212 259 310
#     4   9  17  30  50  75 101 133 175 215 249 296
#     4  10  20  34  52  74 102 136 171 210 257 306
#     4  10  21  35  52  74 101 133 168 210 260 310
#
# _framework density 18.39235
#
# number of rings (size 3 to 8) (size 9 to 14) (size 15 to 20)
#    0.000    2.875    0.000    3.000    0.000    3.750 
#    0.000    1.875    0.000    2.625    0.000    1.750 
#    0.000    0.000    0.000    0.000    0.000    0.000 
#
# Total GULP energy -793145.530773 kJ/mol
# GULP energy per Si atom -12392.898918 kJ/mol
# Density = 1.835049 g / cm^3
# Si number density = 18.392350 Si / 1000 Ang^3
#
#
#
# Elastic Constant Matrix: (Units=GPa)
#
#
# Indices 1 2 3 4 5 6 
#
# 1 46.8900 30.7414 37.7522 0.0000 0.0000 0.0000
# 2 30.7414 90.3292 60.7039 0.0000 0.0000 0.0000
# 3 37.7522 60.7039 126.4449 0.0000 0.0000 0.0000
# 4 0.0000 0.0000 0.0000 27.9875 0.0000 0.0000
# 5 0.0000 0.0000 0.0000 0.0000 22.4368 0.0000
# 6 0.0000 0.0000 0.0000 0.0000 0.0000 20.6910
#
#
#
# Elastic Compliance Matrix: (Units=1/GPa)
#
#
# Indices 1 2 3 4 5 6 
#
# 1 0.030288 -0.006246 -0.006044 0.000000 0.000000 0.000000
# 2 -0.006246 0.017631 -0.006600 0.000000 0.000000 0.000000
# 3 -0.006044 -0.006600 0.012882 0.000000 0.000000 0.000000
# 4 0.000000 0.000000 0.000000 0.035730 0.000000 0.000000
# 5 0.000000 0.000000 0.000000 0.000000 0.044570 0.000000
# 6 0.000000 0.000000 0.000000 0.000000 0.000000 0.048330
#
#
# Mechanical properties :
#
#
# Convention : Reuss Voigt Hill
#
# Bulk Modulus (GPa) = 43.43854 58.00657 50.72256
# Shear Modulus (GPa) = 21.28707 23.18751 22.23729
#
# Velocity S-wave (km/s) = 3.40573 3.55451 3.48091
# Velocity P-wave (km/s) = 6.25574 6.96081 6.61767
#
# Compressibility (1/GPa) = 0.02302103
#
# Stress axis : x y z
#
# Youngs Moduli (GPa) = 33.01668 56.71696 77.62957
#
# Poissons Ratio (x) = 0.35423 0.46923
# Poissons Ratio (y) = 0.20621 0.51234
# Poissons Ratio (z) = 0.19957 0.37432
#
# Static dielectric constant tensor:
#      x y z
#    x 3.099820 0.000000 0.000000 
#    y 0.000000 3.349960 0.000000 
#    z 0.000000 0.000000 3.582210 
# 
# 
# High freq. dielectric constant tensor:
#      x y z
#    x 1.682660 0.000000 0.000000 
#    y 0.000000 1.703740 0.000000 
#    z 0.000000 0.000000 1.718230 
# 
# From -- ./inp_files/14941.got.cif
#   From: 2010.03.12/outbox.cif.g09.slc.cpg/sg59_8_cif.got.tgz:14941.got - 2010.04.16 16:29:54.
