data_PCOD8240156
_publ_section_title
;
Structure prediction by ZEFSAII (Michael W. Deem and Ramdas Pophale) SiO2 
 PCOD8240156
Probable space group: P M M N
;
_chemical_formula_sum "Si O2"
_cell_formula_units_Z 64
_cell_length_a 15.328552
_cell_length_b 8.819746
_cell_length_c 23.833344
_cell_angle_alpha 90.000000
_cell_angle_beta 90.000000
_cell_angle_gamma 90.000000
_cell_volume 3222.123564
_symmetry_space_group_name_H-M "P M M N"
_symmetry_group_IT_number 59
_space_group.IT_coordinate_system_code '2'
_symmetry_cell_setting 'orthorhombic'
loop_
_space_group_symop_operation_xyz
x,y,z
1/2-x,1/2-y,z
1/2+x,-y,-z
-x,1/2+y,-z
-x,-y,-z
1/2+x,1/2+y,-z
1/2-x,y,z
x,1/2-y,z
loop_
_atom_site_type_symbol
_atom_site_label
_atom_site_fract_x
_atom_site_fract_y
_atom_site_fract_z
Si Si1 0.497643 0.927714 0.939372
Si Si2 0.900106 0.427420 0.242389
Si Si3 0.151994 0.423195 0.867998
Si Si4 0.917670 0.076072 0.755014
Si Si5 0.503030 0.929487 0.439139
Si Si6 0.845851 0.429645 0.636718
Si Si7 0.348130 0.577200 0.124983
Si Si8 0.350161 0.925507 0.633316
O O1 0.492059 0.750000 0.946477
O O2 0.412248 0.980958 0.906475
O O3 0.585231 0.967642 0.906075
O O4 0.500000 0.000000 0.000000
O O5 0.885161 0.250000 0.233091
O O6 0.846228 0.516290 0.195454
O O7 0.865271 0.479631 0.302978
O O8 0.001145 0.466385 0.235728
O O9 0.250000 0.436005 0.892332
O O10 0.119191 0.250000 0.867920
O O11 0.949911 0.250000 0.747807
O O12 0.866303 0.019946 0.700182
O O13 0.854466 0.059087 0.808011
O O14 0.499336 0.750000 0.444021
O O15 0.419662 0.994384 0.404903
O O16 0.500000 0.000000 0.500000
O O17 0.591667 0.975428 0.408173
O O18 0.750000 0.493842 0.620062
O O19 0.844882 0.250000 0.632797
O O20 0.250000 0.533133 0.107023
O O21 0.369450 0.750000 0.107617
O O22 0.250000 0.952248 0.616491
O O23 0.376584 0.750000 0.626790
#
# Coordination Sequence:
#
# PCOD8240156 Si02
#       8
#     8   8   8   8   8   8   8   8
#     4  12  26  44  66  90 121 162 206 256 305 357
#     4  11  21  35  60  92 127 162 196 242 304 367
#     4  11  24  42  65  93 125 161 203 252 304 362
#     4  10  18  33  60  90 122 156 195 242 295 359
#     4  11  23  39  60  86 116 155 203 253 303 358
#     4   9  18  34  58  87 116 151 196 242 292 353
#     4  10  21  38  63  94 127 162 199 244 300 361
#     4  10  22  40  61  86 120 160 200 246 302 362
#
# _framework density 19.862677999999999
#
# number of rings (size 3 to 8) (size 9 to 14) (size 15 to 20)
#    0.000    1.500    2.500    3.000    0.000    5.000 
#    0.000    1.250    0.000    3.750    0.000    0.000 
#    0.000    0.000    0.000    0.000    0.000    0.000 
#
# Total GULP energy -793804.864983 kJ/mol
# GULP energy per Si atom -12403.201015 kJ/mol
# Density = 1.981747 g / cm^3
# Si number density = 19.862678 Si / 1000 Ang^3
#
#
#
# Elastic Constant Matrix: (Units=GPa)
#
#
# Indices 1 2 3 4 5 6 
#
# 1 131.4135 44.2515 56.2050 0.0000 0.0000 0.0000
# 2 44.2515 97.6955 54.1284 0.0000 0.0000 0.0000
# 3 56.2050 54.1284 143.7499 0.0000 0.0000 0.0000
# 4 0.0000 0.0000 0.0000 33.7190 0.0000 0.0000
# 5 0.0000 0.0000 0.0000 0.0000 7.4018 0.0000
# 6 0.0000 0.0000 0.0000 0.0000 0.0000 19.8152
#
#
#
# Elastic Compliance Matrix: (Units=1/GPa)
#
#
# Indices 1 2 3 4 5 6 
#
# 1 0.009752 -0.002912 -0.002716 0.000000 0.000000 0.000000
# 2 -0.002912 0.013804 -0.004059 0.000000 0.000000 0.000000
# 3 -0.002716 -0.004059 0.009547 0.000000 0.000000 0.000000
# 4 0.000000 0.000000 0.000000 0.029657 0.000000 0.000000
# 5 0.000000 0.000000 0.000000 0.000000 0.135103 0.000000
# 6 0.000000 0.000000 0.000000 0.000000 0.000000 0.050466
#
#
# Mechanical properties :
#
#
# Convention : Reuss Voigt Hill
#
# Bulk Modulus (GPa) = 72.84622 75.78095 74.31359
# Shear Modulus (GPa) = 18.36341 26.73879 22.55110
#
# Velocity S-wave (km/s) = 3.04389 3.67302 3.37315
# Velocity P-wave (km/s) = 7.00773 7.49822 7.25712
#
# Compressibility (1/GPa) = 0.01372755
#
# Stress axis : x y z
#
# Youngs Moduli (GPa) = 102.54331 72.44288 104.74409
#
# Poissons Ratio (x) = 0.21097 0.28452
# Poissons Ratio (y) = 0.29862 0.42518
# Poissons Ratio (z) = 0.27855 0.29406
#
# Static dielectric constant tensor:
#      x y z
#    x 3.786420 0.000000 0.000000 
#    y 0.000000 3.527040 0.000000 
#    z 0.000000 0.000000 3.684520 
# 
# 
# High freq. dielectric constant tensor:
#      x y z
#    x 1.786440 0.000000 0.000000 
#    y 0.000000 1.761170 0.000000 
#    z 0.000000 0.000000 1.776720 
# 
# From -- ./inp_files/32191.got.cif
#   From: 2010.03.12/outbox.cif.g09.slc.cpg/sg59_17_cif.got.tgz:32191.got - 2010.04.16 16:29:54.
