data_PCOD8240121
_publ_section_title
;
Structure prediction by ZEFSAII (Michael W. Deem and Ramdas Pophale) SiO2 
 PCOD8240121
Probable space group: P M M N
;
_chemical_formula_sum "Si O2"
_cell_formula_units_Z 56
_cell_length_a 19.625107
_cell_length_b 8.959437
_cell_length_c 17.565424
_cell_angle_alpha 90.000000
_cell_angle_beta 90.000000
_cell_angle_gamma 90.000000
_cell_volume 3088.526917
_symmetry_space_group_name_H-M "P M M N"
_symmetry_group_IT_number 59
_space_group.IT_coordinate_system_code '2'
_symmetry_cell_setting 'orthorhombic'
loop_
_space_group_symop_operation_xyz
x,y,z
1/2-x,1/2-y,z
1/2+x,-y,-z
-x,1/2+y,-z
-x,-y,-z
1/2+x,1/2+y,-z
1/2-x,y,z
x,1/2-y,z
loop_
_atom_site_type_symbol
_atom_site_label
_atom_site_fract_x
_atom_site_fract_y
_atom_site_fract_z
Si Si1 0.430040 0.072911 0.682175
Si Si2 0.054160 0.423479 0.106723
Si Si3 0.921492 0.074099 0.740919
Si Si4 0.675503 0.925320 0.192554
Si Si5 0.326624 0.927174 0.393833
Si Si6 0.070618 0.572495 0.524154
Si Si7 0.918102 0.922654 0.060469
O O1 0.426159 0.250000 0.668566
O O2 0.505520 0.024788 0.707618
O O3 0.377655 0.013270 0.745700
O O4 0.408263 0.986681 0.606484
O O5 0.052186 0.250000 0.124881
O O6 0.092044 0.503075 0.176549
O O7 0.977555 0.479924 0.097014
O O8 0.094870 0.458878 0.028381
O O9 0.918790 0.250000 0.750952
O O10 0.863256 0.016058 0.683320
O O11 0.750000 0.999616 0.203486
O O12 0.681227 0.750000 0.204208
O O13 0.650099 0.961389 0.107019
O O14 0.250000 0.993908 0.398171
O O15 0.323785 0.750000 0.392772
O O16 0.370192 0.980524 0.466456
O O17 0.062279 0.750000 0.523538
O O18 0.000000 0.500000 0.500000
O O19 0.939482 0.750000 0.071376
#
# Coordination Sequence:
#
# PCOD8240121 Si02
#       7
#     8   8   8   8   8   8   8
#     4  10  19  33  53  79 104 131 174 215 254 304
#     4  10  19  29  49  79 105 130 170 220 261 299
#     4  10  18  33  55  76 102 135 170 213 256 304
#     4   9  17  31  52  74 101 139 176 209 252 311
#     4   9  19  36  56  76 100 137 179 211 250 310
#     4  11  21  35  56  81 107 136 172 215 259 307
#     4   9  17  32  50  72 102 136 175 212 254 307
#
# _framework density 18.131623000000001
#
# number of rings (size 3 to 8) (size 9 to 14) (size 15 to 20)
#    0.000    2.286    2.857    0.857    0.000    1.714 
#    0.000    0.714    0.000    5.571    0.000    0.000 
#    0.000    0.000    0.000    0.000    0.000    0.000 
#
# Total GULP energy -694301.584471 kJ/mol
# GULP energy per Si atom -12398.242580 kJ/mol
# Density = 1.809035 g / cm^3
# Si number density = 18.131623 Si / 1000 Ang^3
#
#
#
# Elastic Constant Matrix: (Units=GPa)
#
#
# Indices 1 2 3 4 5 6 
#
# 1 147.1592 25.2661 81.8269 0.0000 0.0000 0.0000
# 2 25.2661 34.3525 37.9754 0.0000 0.0000 0.0000
# 3 81.8269 37.9754 168.3025 0.0000 0.0000 0.0000
# 4 0.0000 0.0000 0.0000 33.6602 0.0000 0.0000
# 5 0.0000 0.0000 0.0000 0.0000 27.1725 0.0000
# 6 0.0000 0.0000 0.0000 0.0000 0.0000 12.8165
#
#
#
# Elastic Compliance Matrix: (Units=1/GPa)
#
#
# Indices 1 2 3 4 5 6 
#
# 1 0.009471 -0.002499 -0.004041 0.000000 0.000000 0.000000
# 2 -0.002499 0.039443 -0.007685 0.000000 0.000000 0.000000
# 3 -0.004041 -0.007685 0.009640 0.000000 0.000000 0.000000
# 4 0.000000 0.000000 0.000000 0.029709 0.000000 0.000000
# 5 0.000000 0.000000 0.000000 0.000000 0.036802 0.000000
# 6 0.000000 0.000000 0.000000 0.000000 0.000000 0.078024
#
#
# Mechanical properties :
#
#
# Convention : Reuss Voigt Hill
#
# Bulk Modulus (GPa) = 33.21678 71.10568 52.16123
# Shear Modulus (GPa) = 20.69751 28.37957 24.53854
#
# Velocity S-wave (km/s) = 3.38230 3.96055 3.68279
# Velocity P-wave (km/s) = 5.79766 7.75991 6.84941
#
# Compressibility (1/GPa) = 0.03010527
#
# Stress axis : x y z
#
# Youngs Moduli (GPa) = 105.58093 25.35283 103.73008
#
# Poissons Ratio (x) = 0.06336 0.41918
# Poissons Ratio (y) = 0.26384 0.79716
# Poissons Ratio (z) = 0.42666 0.19483
#
# Static dielectric constant tensor:
#      x y z
#    x 3.474950 0.000000 0.000000 
#    y 0.000000 3.091610 0.000000 
#    z 0.000000 0.000000 3.642970 
# 
# 
# High freq. dielectric constant tensor:
#      x y z
#    x 1.686240 0.000000 0.000000 
#    y 0.000000 1.672670 0.000000 
#    z 0.000000 0.000000 1.720310 
# 
# From -- ./inp_files/28111.got.cif
#   From: 2010.03.12/outbox.cif.g09.slc.cpg/sg59_15_cif.got.tgz:28111.got - 2010.04.16 16:29:54.
