data_PCOD8240299
_publ_section_title
;
Structure prediction by ZEFSAII (Michael W. Deem and Ramdas Pophale) SiO2 
 PCOD8240299
Probable space group: P M M N
;
_chemical_formula_sum "Si O2"
_cell_formula_units_Z 64
_cell_length_a 9.190740
_cell_length_b 30.399059
_cell_length_c 15.051812
_cell_angle_alpha 90.000000
_cell_angle_beta 90.000000
_cell_angle_gamma 90.000000
_cell_volume 4205.323459
_symmetry_space_group_name_H-M "P M M N"
_symmetry_group_IT_number 59
_space_group.IT_coordinate_system_code '2'
_symmetry_cell_setting 'orthorhombic'
loop_
_space_group_symop_operation_xyz
x,y,z
1/2-x,1/2-y,z
1/2+x,-y,-z
-x,1/2+y,-z
-x,-y,-z
1/2+x,1/2+y,-z
1/2-x,y,z
x,1/2-y,z
loop_
_atom_site_type_symbol
_atom_site_label
_atom_site_fract_x
_atom_site_fract_y
_atom_site_fract_z
Si Si1 0.414778 0.052748 0.915191
Si Si2 0.086134 0.701463 0.392039
Si Si3 0.420977 0.946851 0.261250
Si Si4 0.921505 0.883435 0.392547
Si Si5 0.081322 0.381463 0.402951
Si Si6 0.914072 0.051927 0.085450
Si Si7 0.918402 0.951157 0.741246
Si Si8 0.586391 0.297805 0.396929
O O1 0.250000 0.071141 0.910883
O O2 0.504667 0.069203 0.829940
O O3 0.413337 0.000430 0.918974
O O4 0.494562 0.071387 0.002868
O O5 0.250000 0.690651 0.359413
O O6 0.038831 0.750000 0.356628
O O7 0.081527 0.701854 0.497462
O O8 0.976029 0.664113 0.356533
O O9 0.250000 0.936629 0.256348
O O10 0.494231 0.921745 0.342385
O O11 0.452397 0.998104 0.278381
O O12 0.750000 0.887409 0.375941
O O13 0.965062 0.889808 0.495513
O O14 0.250000 0.371726 0.397465
O O15 0.036439 0.424115 0.346285
O O16 0.007614 0.338225 0.360091
O O17 0.750000 0.070434 0.081264
O O18 0.988542 0.067367 0.176665
O O19 0.750000 0.944671 0.766061
O O20 0.750000 0.304321 0.362512
O O21 0.527109 0.250000 0.363653
#
# Coordination Sequence:
#
# PCOD8240299 Si02
#       8
#     8   8   8   8   8   8   8   8
#     4   9  16  27  43  61  81 104 131 168 213 254
#     4   8  14  26  43  60  78 102 133 169 210 254
#     4  10  19  30  43  58  80 112 147 179 209 244
#     4  10  19  29  41  59  84 112 143 178 212 247
#     4   9  18  30  42  58  82 112 145 178 210 246
#     4   9  16  26  42  63  82 102 132 169 210 254
#     4   9  18  31  43  57  81 113 146 178 210 243
#     4   8  14  25  41  60  80 102 131 169 212 254
#
# _framework density 15.218805
#
# number of rings (size 3 to 8) (size 9 to 14) (size 15 to 20)
#    0.000    3.000    0.000    2.250    0.000    5.500 
#    0.000    2.500    0.000    0.000    0.000    0.000 
#    0.000    1.000    0.000    7.250    0.000    6.500 
#
# Total GULP energy -793318.074513 kJ/mol
# GULP energy per Si atom -12395.594914 kJ/mol
# Density = 1.518417 g / cm^3
# Si number density = 15.218805 Si / 1000 Ang^3
#
#
#
# Elastic Constant Matrix: (Units=GPa)
#
#
# Indices 1 2 3 4 5 6 
#
# 1 97.7261 47.7301 53.4157 0.0000 0.0000 0.0000
# 2 47.7301 75.0527 46.3040 0.0000 0.0000 0.0000
# 3 53.4157 46.3040 79.7254 0.0000 0.0000 0.0000
# 4 0.0000 0.0000 0.0000 1.2084 0.0000 0.0000
# 5 0.0000 0.0000 0.0000 0.0000 24.5380 0.0000
# 6 0.0000 0.0000 0.0000 0.0000 0.0000 24.4518
#
#
#
# Elastic Compliance Matrix: (Units=1/GPa)
#
#
# Indices 1 2 3 4 5 6 
#
# 1 0.017812 -0.006179 -0.008345 0.000000 0.000000 0.000000
# 2 -0.006179 0.022908 -0.009165 0.000000 0.000000 0.000000
# 3 -0.008345 -0.009165 0.023457 0.000000 0.000000 0.000000
# 4 0.000000 0.000000 0.000000 0.827550 0.000000 0.000000
# 5 0.000000 0.000000 0.000000 0.000000 0.040753 0.000000
# 6 0.000000 0.000000 0.000000 0.000000 0.000000 0.040897
#
#
# Mechanical properties :
#
#
# Convention : Reuss Voigt Hill
#
# Bulk Modulus (GPa) = 59.52772 60.82264 60.17518
# Shear Modulus (GPa) = 4.87161 17.04326 10.95743
#
# Velocity S-wave (km/s) = 1.79109 3.35009 2.68618
# Velocity P-wave (km/s) = 6.59370 7.41730 7.01759
#
# Compressibility (1/GPa) = 0.01679890
#
# Stress axis : x y z
#
# Youngs Moduli (GPa) = 56.14230 43.65333 42.63088
#
# Poissons Ratio (x) = 0.26973 0.35576
# Poissons Ratio (y) = 0.34690 0.39070
# Poissons Ratio (z) = 0.46852 0.40008
#
# Static dielectric constant tensor:
#      x y z
#    x 3.083600 0.000000 0.000000 
#    y 0.000000 2.948110 0.000000 
#    z 0.000000 0.000000 2.792380 
# 
# 
# High freq. dielectric constant tensor:
#      x y z
#    x 1.594740 0.000000 0.000000 
#    y 0.000000 1.555480 0.000000 
#    z 0.000000 0.000000 1.554120 
# 
# From -- ./inp_files/21872.got.cif
#   From: 2010.03.12/outbox.cif.g09.slc.cpg/sg59_11_cif.got.tgz:21872.got - 2010.04.16 16:29:54.
