data_PCOD8240097
_publ_section_title
;
Structure prediction by ZEFSAII (Michael W. Deem and Ramdas Pophale) SiO2 
 PCOD8240097
Probable space group: P M M N
;
_chemical_formula_sum "Si O2"
_cell_formula_units_Z 64
_cell_length_a 15.170836
_cell_length_b 8.902021
_cell_length_c 23.843600
_cell_angle_alpha 90.000000
_cell_angle_beta 90.000000
_cell_angle_gamma 90.000000
_cell_volume 3220.104424
_symmetry_space_group_name_H-M "P M M N"
_symmetry_group_IT_number 59
_space_group.IT_coordinate_system_code '2'
_symmetry_cell_setting 'orthorhombic'
loop_
_space_group_symop_operation_xyz
x,y,z
1/2-x,1/2-y,z
1/2+x,-y,-z
-x,1/2+y,-z
-x,-y,-z
1/2+x,1/2+y,-z
1/2-x,y,z
x,1/2-y,z
loop_
_atom_site_type_symbol
_atom_site_label
_atom_site_fract_x
_atom_site_fract_y
_atom_site_fract_z
Si Si1 0.648037 0.574393 0.872364
Si Si2 0.650858 0.921257 0.384440
Si Si3 0.012920 0.927103 0.692366
Si Si4 0.851857 0.072864 0.107827
Si Si5 0.491299 0.427600 0.810527
Si Si6 0.345926 0.071616 0.375526
Si Si7 0.093002 0.424938 0.494275
Si Si8 0.645861 0.084779 0.983352
O O1 0.750000 0.527860 0.862135
O O2 0.634321 0.750000 0.864383
O O3 0.587029 0.490485 0.827780
O O4 0.616616 0.531169 0.935233
O O5 0.750000 0.942101 0.362272
O O6 0.618391 0.750000 0.374353
O O7 0.650446 0.959285 0.450627
O O8 0.589739 0.037187 0.351595
O O9 0.011148 0.750000 0.704331
O O10 0.920716 0.987322 0.666749
O O11 0.032272 0.015442 0.748981
O O12 0.750000 0.025798 0.117515
O O13 0.863516 0.250000 0.117953
O O14 0.884872 0.030244 0.044883
O O15 0.913273 0.981647 0.149418
O O16 0.495293 0.250000 0.811447
O O17 0.250000 0.015451 0.354306
O O18 0.349337 0.250000 0.376594
O O19 0.359817 0.009745 0.438717
O O20 0.077108 0.250000 0.486138
O O21 0.000000 0.500000 0.500000
O O22 0.750000 0.098314 0.986048
O O23 0.606491 0.250000 0.969305
#
# Coordination Sequence:
#
# PCOD8240097 Si02
#       8
#     8   8   8   8   8   8   8   8
#     4  10  21  38  61  88 118 153 194 239 286 342
#     4  10  21  37  59  86 117 153 190 231 283 343
#     4  11  23  40  60  82 110 147 193 245 291 338
#     4   9  19  38  63  89 118 152 191 238 291 347
#     4  12  26  41  59  83 114 154 198 245 294 348
#     4   9  18  34  58  86 113 145 185 227 277 337
#     4  10  18  32  57  87 119 151 184 225 278 337
#     4   8  15  31  57  88 120 151 184 229 288 348
#
# _framework density 19.875132000000001
#
# number of rings (size 3 to 8) (size 9 to 14) (size 15 to 20)
#    0.000    2.125    1.250    3.000    0.000    4.750 
#    0.000    2.500    0.000    3.750    0.000    0.000 
#    0.000    0.000    0.000    0.000    0.000    0.000 
#
# Total GULP energy -793517.797848 kJ/mol
# GULP energy per Si atom -12398.715591 kJ/mol
# Density = 1.982990 g / cm^3
# Si number density = 19.875132 Si / 1000 Ang^3
#
#
#
# Elastic Constant Matrix: (Units=GPa)
#
#
# Indices 1 2 3 4 5 6 
#
# 1 86.9240 28.6673 13.8459 0.0000 0.0000 0.0000
# 2 28.6673 72.6945 30.1097 0.0000 0.0000 0.0000
# 3 13.8459 30.1097 73.0144 0.0000 0.0000 0.0000
# 4 0.0000 0.0000 0.0000 24.4268 0.0000 0.0000
# 5 0.0000 0.0000 0.0000 0.0000 16.3743 0.0000
# 6 0.0000 0.0000 0.0000 0.0000 0.0000 27.7784
#
#
#
# Elastic Compliance Matrix: (Units=1/GPa)
#
#
# Indices 1 2 3 4 5 6 
#
# 1 0.013235 -0.005041 -0.000431 0.000000 0.000000 0.000000
# 2 -0.005041 0.018510 -0.006677 0.000000 0.000000 0.000000
# 3 -0.000431 -0.006677 0.016531 0.000000 0.000000 0.000000
# 4 0.000000 0.000000 0.000000 0.040939 0.000000 0.000000
# 5 0.000000 0.000000 0.000000 0.000000 0.061071 0.000000
# 6 0.000000 0.000000 0.000000 0.000000 0.000000 0.035999
#
#
# Mechanical properties :
#
#
# Convention : Reuss Voigt Hill
#
# Bulk Modulus (GPa) = 41.70468 41.98653 41.84560
# Shear Modulus (GPa) = 22.87528 24.38322 23.62925
#
# Velocity S-wave (km/s) = 3.39625 3.50640 3.45176
# Velocity P-wave (km/s) = 6.03392 6.12896 6.08163
#
# Compressibility (1/GPa) = 0.02397813
#
# Stress axis : x y z
#
# Youngs Moduli (GPa) = 75.55470 54.02567 60.49165
#
# Poissons Ratio (x) = 0.27234 0.02608
# Poissons Ratio (y) = 0.38086 0.40391
# Poissons Ratio (z) = 0.03257 0.36074
#
# Static dielectric constant tensor:
#      x y z
#    x 3.803030 0.000000 0.000000 
#    y 0.000000 3.462730 0.000000 
#    z 0.000000 0.000000 3.788270 
# 
# 
# High freq. dielectric constant tensor:
#      x y z
#    x 1.777460 0.000000 0.000000 
#    y 0.000000 1.756250 0.000000 
#    z 0.000000 0.000000 1.778230 
# 
# From -- ./inp_files/32262.got.cif
#   From: 2010.03.12/outbox.cif.g09.slc.cpg/sg59_17_cif.got.tgz:32262.got - 2010.04.16 16:29:54.
