data_PCOD8240464
_publ_section_title
;
Structure prediction by ZEFSAII (Michael W. Deem and Ramdas Pophale) SiO2 
 PCOD8240464
Probable space group: P M M N
;
_chemical_formula_sum "Si O2"
_cell_formula_units_Z 64
_cell_length_a 9.009550
_cell_length_b 17.733341
_cell_length_c 23.268999
_cell_angle_alpha 90.000000
_cell_angle_beta 90.000000
_cell_angle_gamma 90.000000
_cell_volume 3717.674530
_symmetry_space_group_name_H-M "P M M N"
_symmetry_group_IT_number 59
_space_group.IT_coordinate_system_code '2'
_symmetry_cell_setting 'orthorhombic'
loop_
_space_group_symop_operation_xyz
x,y,z
1/2-x,1/2-y,z
1/2+x,-y,-z
-x,1/2+y,-z
-x,-y,-z
1/2+x,1/2+y,-z
1/2-x,y,z
x,1/2-y,z
loop_
_atom_site_type_symbol
_atom_site_label
_atom_site_fract_x
_atom_site_fract_y
_atom_site_fract_z
Si Si1 0.421158 0.585655 0.433571
Si Si2 0.924136 0.166409 0.453940
Si Si3 0.920542 0.330730 0.679471
Si Si4 0.576801 0.044185 0.365948
Si Si5 0.572509 0.021511 0.738706
Si Si6 0.922829 0.930858 0.969618
Si Si7 0.075042 0.835871 0.055140
Si Si8 0.422226 0.527217 0.133594
O O1 0.250000 0.559194 0.438957
O O2 0.488502 0.616475 0.493449
O O3 0.435924 0.653317 0.388032
O O4 0.517591 0.515667 0.412177
O O5 0.750000 0.173509 0.465349
O O6 0.996226 0.250000 0.452375
O O7 0.955722 0.126307 0.392996
O O8 0.750000 0.325229 0.697414
O O9 0.998254 0.250000 0.692931
O O10 0.990383 0.397747 0.717149
O O11 0.750000 0.029844 0.356365
O O12 0.495238 0.041011 0.304111
O O13 0.750000 0.015090 0.734700
O O14 0.509207 0.012647 0.803390
O O15 0.750000 0.928146 0.984917
O O16 0.947719 0.949300 0.901978
O O17 0.999489 0.854367 0.993001
O O18 0.000000 0.000000 0.000000
O O19 0.250000 0.844944 0.046828
O O20 0.033747 0.750000 0.073265
O O21 0.013847 0.896804 0.102146
O O22 0.250000 0.544145 0.141789
#
# Coordination Sequence:
#
# PCOD8240464 Si02
#       8
#     8   8   8   8   8   8   8   8
#     4   9  16  28  47  66  85 113 147 180 215 265
#     4   9  17  29  47  69  88 109 143 186 227 268
#     4   8  13  21  37  62  85 105 136 177 213 247
#     4  10  19  30  45  66  92 118 144 181 228 271
#     4   9  17  30  47  64  85 117 156 191 219 254
#     4   9  16  28  46  67  92 122 155 187 222 265
#     4   9  17  29  46  71 101 124 144 181 232 278
#     4   8  15  28  46  67  88 116 155 192 221 253
#
# _framework density 17.215063000000001
#
# number of rings (size 3 to 8) (size 9 to 14) (size 15 to 20)
#    0.000    3.125    0.000    3.000    0.000    2.250 
#    0.000    6.250    0.000   13.125    0.000    3.500 
#    0.000    0.000    0.000    0.000    0.000    0.000 
#
# Total GULP energy -792890.940011 kJ/mol
# GULP energy per Si atom -12388.920938 kJ/mol
# Density = 1.717588 g / cm^3
# Si number density = 17.215063 Si / 1000 Ang^3
#
#
#
# Elastic Constant Matrix: (Units=GPa)
#
#
# Indices 1 2 3 4 5 6 
#
# 1 38.6322 22.0667 29.5885 0.0000 0.0000 0.0000
# 2 22.0667 68.6406 51.3611 0.0000 0.0000 0.0000
# 3 29.5885 51.3611 136.0070 0.0000 0.0000 0.0000
# 4 0.0000 0.0000 0.0000 15.1068 0.0000 0.0000
# 5 0.0000 0.0000 0.0000 0.0000 20.5464 0.0000
# 6 0.0000 0.0000 0.0000 0.0000 0.0000 18.9562
#
#
#
# Elastic Compliance Matrix: (Units=1/GPa)
#
#
# Indices 1 2 3 4 5 6 
#
# 1 0.033573 -0.007426 -0.004499 0.000000 0.000000 0.000000
# 2 -0.007426 0.021949 -0.006673 0.000000 0.000000 0.000000
# 3 -0.004499 -0.006673 0.010851 0.000000 0.000000 0.000000
# 4 0.000000 0.000000 0.000000 0.066196 0.000000 0.000000
# 5 0.000000 0.000000 0.000000 0.000000 0.048670 0.000000
# 6 0.000000 0.000000 0.000000 0.000000 0.000000 0.052753
#
#
# Mechanical properties :
#
#
# Convention : Reuss Voigt Hill
#
# Bulk Modulus (GPa) = 34.27483 49.92359 42.09921
# Shear Modulus (GPa) = 17.79888 20.27279 19.03584
#
# Velocity S-wave (km/s) = 3.21894 3.43537 3.32891
# Velocity P-wave (km/s) = 5.81106 6.69317 6.26766
#
# Compressibility (1/GPa) = 0.02917593
#
# Stress axis : x y z
#
# Youngs Moduli (GPa) = 29.78566 45.55923 92.15333
#
# Poissons Ratio (x) = 0.33834 0.41464
# Poissons Ratio (y) = 0.22120 0.61496
# Poissons Ratio (z) = 0.13402 0.30403
#
# Static dielectric constant tensor:
#      x y z
#    x 2.955850 0.000000 0.000000 
#    y 0.000000 3.344170 0.000000 
#    z 0.000000 0.000000 3.498160 
# 
# 
# High freq. dielectric constant tensor:
#      x y z
#    x 1.628410 0.000000 0.000000 
#    y 0.000000 1.649860 0.000000 
#    z 0.000000 0.000000 1.659700 
# 
# From -- ./inp_files/31775.got.cif
#   From: 2010.03.12/outbox.cif.g09.slc.cpg/sg59_16_cif.got.tgz:31775.got - 2010.04.16 16:29:54.
