data_PCOD8240026
_publ_section_title
;
Structure prediction by ZEFSAII (Michael W. Deem and Ramdas Pophale) SiO2 
 PCOD8240026
Probable space group: P M M N
;
_chemical_formula_sum "Si O2"
_cell_formula_units_Z 56
_cell_length_a 19.197418
_cell_length_b 16.875026
_cell_length_c 8.725817
_cell_angle_alpha 90.000000
_cell_angle_beta 90.000000
_cell_angle_gamma 90.000000
_cell_volume 2826.788869
_symmetry_space_group_name_H-M "P M M N"
_symmetry_group_IT_number 59
_space_group.IT_coordinate_system_code '2'
_symmetry_cell_setting 'orthorhombic'
loop_
_space_group_symop_operation_xyz
x,y,z
1/2-x,1/2-y,z
1/2+x,-y,-z
-x,1/2+y,-z
-x,-y,-z
1/2+x,1/2+y,-z
1/2-x,y,z
x,1/2-y,z
loop_
_atom_site_type_symbol
_atom_site_label
_atom_site_fract_x
_atom_site_fract_y
_atom_site_fract_z
Si Si1 0.454705 0.082041 0.644653
Si Si2 0.536055 0.572122 0.693269
Si Si3 0.671606 0.122352 0.349162
Si Si4 0.825467 0.960898 0.197232
Si Si5 0.060789 0.663227 0.884654
Si Si6 0.396992 0.659151 0.330723
Si Si7 0.382249 0.539383 0.093825
O O1 0.429693 0.096276 0.469272
O O2 0.389389 0.098873 0.761078
O O3 0.521195 0.136036 0.685029
O O4 0.473035 0.989374 0.664623
O O5 0.502879 0.650574 0.767119
O O6 0.590993 0.535150 0.810046
O O7 0.750000 0.156363 0.362954
O O8 0.634598 0.162789 0.203719
O O9 0.627621 0.144147 0.498229
O O10 0.673488 0.027726 0.328865
O O11 0.750000 0.917057 0.201087
O O12 0.829948 0.002966 0.030298
O O13 0.052024 0.750000 0.962026
O O14 0.057589 0.591223 0.007510
O O15 0.386649 0.750000 0.283544
O O16 0.350951 0.603866 0.215003
#
# Coordination Sequence:
#
# PCOD8240026 Si02
#       7
#     8   8   8   8   8   8   8
#     4  10  18  34  56  78 101 138 186 230 275 313
#     4  10  18  32  54  77 101 136 176 230 269 311
#     4  10  20  35  53  74 107 149 185 216 263 324
#     4  10  20  36  56  78 103 142 187 229 271 327
#     4  11  20  32  49  76 106 139 177 215 264 323
#     4  11  22  34  53  82 114 143 182 228 273 323
#     4  10  21  34  50  75 107 141 175 217 272 319
#
# _framework density 19.810465000000001
#
# number of rings (size 3 to 8) (size 9 to 14) (size 15 to 20)
#    0.000    1.714    4.286    3.000    2.000    1.714 
#    0.000    0.714    0.000    3.000    0.000    0.000 
#    0.000    1.143    0.000    0.000    0.000    0.000 
#
# Total GULP energy -693867.778680 kJ/mol
# GULP energy per Si atom -12390.496048 kJ/mol
# Density = 1.976538 g / cm^3
# Si number density = 19.810465 Si / 1000 Ang^3
#
#
#
# Elastic Constant Matrix: (Units=GPa)
#
#
# Indices 1 2 3 4 5 6 
#
# 1 86.9676 14.2973 23.9320 0.0000 0.0000 0.0000
# 2 14.2973 31.7993 7.3144 0.0000 0.0000 0.0000
# 3 23.9320 7.3144 90.6101 0.0000 0.0000 0.0000
# 4 0.0000 0.0000 0.0000 10.0101 0.0000 0.0000
# 5 0.0000 0.0000 0.0000 0.0000 16.0630 0.0000
# 6 0.0000 0.0000 0.0000 0.0000 0.0000 13.1769
#
#
#
# Elastic Compliance Matrix: (Units=1/GPa)
#
#
# Indices 1 2 3 4 5 6 
#
# 1 0.013202 -0.005231 -0.003065 0.000000 0.000000 0.000000
# 2 -0.005231 0.034115 -0.001372 0.000000 0.000000 0.000000
# 3 -0.003065 -0.001372 0.011957 0.000000 0.000000 0.000000
# 4 0.000000 0.000000 0.000000 0.099899 0.000000 0.000000
# 5 0.000000 0.000000 0.000000 0.000000 0.062255 0.000000
# 6 0.000000 0.000000 0.000000 0.000000 0.000000 0.075890
#
#
# Mechanical properties :
#
#
# Convention : Reuss Voigt Hill
#
# Bulk Modulus (GPa) = 25.03906 33.38494 29.21200
# Shear Modulus (GPa) = 15.15311 18.77223 16.96267
#
# Velocity S-wave (km/s) = 2.76869 3.08164 2.92935
# Velocity P-wave (km/s) = 4.78410 5.43606 5.12047
#
# Compressibility (1/GPa) = 0.03993759
#
# Stress axis : x y z
#
# Youngs Moduli (GPa) = 75.74735 29.31292 83.63649
#
# Poissons Ratio (x) = 0.15333 0.25631
# Poissons Ratio (y) = 0.39621 0.11478
# Poissons Ratio (z) = 0.23214 0.04023
#
# Static dielectric constant tensor:
#      x y z
#    x 3.413200 0.000000 0.000000 
#    y 0.000000 3.320250 0.000000 
#    z 0.000000 0.000000 3.938980 
# 
# 
# High freq. dielectric constant tensor:
#      x y z
#    x 1.737150 0.000000 0.000000 
#    y 0.000000 1.729590 0.000000 
#    z 0.000000 0.000000 1.792460 
# 
# From -- ./inp_files/11543.got.cif
#   From: 2010.03.12/outbox.cif.g09.slc.cpg/sg59_6_cif.got.tgz:11543.got - 2010.04.16 16:29:54.
