data_PCOD8240498
_publ_section_title
;
Structure prediction by ZEFSAII (Michael W. Deem and Ramdas Pophale) SiO2 
 PCOD8240498
Probable space group: P M M N
;
_chemical_formula_sum "Si O2"
_cell_formula_units_Z 64
_cell_length_a 19.530407
_cell_length_b 9.634442
_cell_length_c 19.923258
_cell_angle_alpha 90.000000
_cell_angle_beta 90.000000
_cell_angle_gamma 90.000000
_cell_volume 3748.851344
_symmetry_space_group_name_H-M "P M M N"
_symmetry_group_IT_number 59
_space_group.IT_coordinate_system_code '2'
_symmetry_cell_setting 'orthorhombic'
loop_
_space_group_symop_operation_xyz
x,y,z
1/2-x,1/2-y,z
1/2+x,-y,-z
-x,1/2+y,-z
-x,-y,-z
1/2+x,1/2+y,-z
1/2-x,y,z
x,1/2-y,z
loop_
_atom_site_type_symbol
_atom_site_label
_atom_site_fract_x
_atom_site_fract_y
_atom_site_fract_z
Si Si1 0.828118 0.595334 0.632728
Si Si2 0.929714 0.912940 0.905381
Si Si3 0.032658 0.089620 0.726150
Si Si4 0.408745 0.405125 0.243093
Si Si5 0.566423 0.904913 0.419206
Si Si6 0.438145 0.411721 0.875164
Si Si7 0.827249 0.913197 0.019984
Si Si8 0.409951 0.594060 0.463821
O O1 0.750000 0.569774 0.616873
O O2 0.851169 0.750000 0.609308
O O3 0.839989 0.581300 0.713008
O O4 0.869387 0.478842 0.594964
O O5 0.946212 0.750000 0.917072
O O6 0.893283 0.942358 0.834037
O O7 0.875460 0.970083 0.959890
O O8 0.000942 0.997896 0.908194
O O9 0.011797 0.250000 0.722485
O O10 0.076108 0.051585 0.659293
O O11 0.072302 0.055998 0.795798
O O12 0.963242 0.005138 0.723097
O O13 0.439534 0.250000 0.246483
O O14 0.596529 0.750000 0.430257
O O15 0.487975 0.907069 0.441367
O O16 0.605441 0.014349 0.466192
O O17 0.456563 0.250000 0.887019
O O18 0.366090 0.449959 0.910455
O O19 0.750000 0.978825 0.019346
O O20 0.819489 0.750000 0.011127
O O21 0.382896 0.750000 0.473400
#
# Coordination Sequence:
#
# PCOD8240498 Si02
#       8
#     8   8   8   8   8   8   8   8
#     4  10  20  32  45  62  90 126 157 187 224 270
#     4   9  17  29  47  70  95 124 157 197 239 279
#     4   9  16  28  46  68  93 118 146 186 235 278
#     4   9  17  28  43  65  91 118 152 189 224 269
#     4   9  17  29  46  67  92 117 144 187 235 277
#     4   9  17  29  48  71  94 124 159 197 239 281
#     4   9  17  29  46  69  96 125 159 197 236 281
#     4  10  19  30  46  68  90 117 152 188 228 272
#
# _framework density 17.071895000000001
#
# number of rings (size 3 to 8) (size 9 to 14) (size 15 to 20)
#    0.000    2.750    1.250    0.750    0.000    1.750 
#    0.000    2.500    0.000    2.250    0.000    7.000 
#    0.000    0.000    0.000    0.000    0.000    0.000 
#
# Total GULP energy -793116.288527 kJ/mol
# GULP energy per Si atom -12392.442008 kJ/mol
# Density = 1.703304 g / cm^3
# Si number density = 17.071895 Si / 1000 Ang^3
#
#
#
# Elastic Constant Matrix: (Units=GPa)
#
#
# Indices 1 2 3 4 5 6 
#
# 1 50.0381 17.9689 27.3899 0.0000 0.0000 0.0000
# 2 17.9689 55.5785 27.6234 0.0000 0.0000 0.0000
# 3 27.3899 27.6234 104.0854 0.0000 0.0000 0.0000
# 4 0.0000 0.0000 0.0000 20.4088 0.0000 0.0000
# 5 0.0000 0.0000 0.0000 0.0000 7.7012 0.0000
# 6 0.0000 0.0000 0.0000 0.0000 0.0000 13.0132
#
#
#
# Elastic Compliance Matrix: (Units=1/GPa)
#
#
# Indices 1 2 3 4 5 6 
#
# 1 0.024717 -0.005482 -0.005050 0.000000 0.000000 0.000000
# 2 -0.005482 0.021942 -0.004381 0.000000 0.000000 0.000000
# 3 -0.005050 -0.004381 0.012099 0.000000 0.000000 0.000000
# 4 0.000000 0.000000 0.000000 0.048998 0.000000 0.000000
# 5 0.000000 0.000000 0.000000 0.000000 0.129850 0.000000
# 6 0.000000 0.000000 0.000000 0.000000 0.000000 0.076845
#
#
# Mechanical properties :
#
#
# Convention : Reuss Voigt Hill
#
# Bulk Modulus (GPa) = 34.56081 39.51847 37.03964
# Shear Modulus (GPa) = 14.12747 17.33929 15.73338
#
# Velocity S-wave (km/s) = 2.87980 3.19040 3.03907
# Velocity P-wave (km/s) = 5.59874 6.06383 5.83592
#
# Compressibility (1/GPa) = 0.02893451
#
# Stress axis : x y z
#
# Youngs Moduli (GPa) = 40.45756 45.57451 82.65214
#
# Poissons Ratio (x) = 0.24982 0.41736
# Poissons Ratio (y) = 0.22177 0.36208
# Poissons Ratio (z) = 0.20429 0.19965
#
# Static dielectric constant tensor:
#      x y z
#    x 2.941760 0.000000 0.000000 
#    y 0.000000 3.232550 0.000000 
#    z 0.000000 0.000000 3.484700 
# 
# 
# High freq. dielectric constant tensor:
#      x y z
#    x 1.614400 0.000000 0.000000 
#    y 0.000000 1.649440 0.000000 
#    z 0.000000 0.000000 1.675620 
# 
# From -- ./inp_files/30645.got.cif
#   From: 2010.03.12/outbox.cif.g09.slc.cpg/sg59_16_cif.got.tgz:30645.got - 2010.04.16 16:29:54.
