data_PCOD8240251
_publ_section_title
;
Structure prediction by ZEFSAII (Michael W. Deem and Ramdas Pophale) SiO2 
 PCOD8240251
Probable space group: P M M N
;
_chemical_formula_sum "Si O2"
_cell_formula_units_Z 64
_cell_length_a 9.486242
_cell_length_b 24.766461
_cell_length_c 18.363390
_cell_angle_alpha 90.000000
_cell_angle_beta 90.000000
_cell_angle_gamma 90.000000
_cell_volume 4314.306646
_symmetry_space_group_name_H-M "P M M N"
_symmetry_group_IT_number 59
_space_group.IT_coordinate_system_code '2'
_symmetry_cell_setting 'orthorhombic'
loop_
_space_group_symop_operation_xyz
x,y,z
1/2-x,1/2-y,z
1/2+x,-y,-z
-x,1/2+y,-z
-x,-y,-z
1/2+x,1/2+y,-z
1/2-x,y,z
x,1/2-y,z
loop_
_atom_site_type_symbol
_atom_site_label
_atom_site_fract_x
_atom_site_fract_y
_atom_site_fract_z
Si Si1 0.084822 0.496847 0.387127
Si Si2 0.908490 0.187230 0.718652
Si Si3 0.094584 0.544189 0.908011
Si Si4 0.413864 0.501529 0.755578
Si Si5 0.588453 0.810262 0.422480
Si Si6 0.413692 0.384579 0.818561
Si Si7 0.911057 0.922519 0.480126
Si Si8 0.094595 0.424879 0.971098
O O1 0.250000 0.508433 0.375459
O O2 0.058405 0.445690 0.439821
O O3 0.012413 0.481353 0.311200
O O4 0.013312 0.550151 0.421003
O O5 0.750000 0.163985 0.711592
O O6 0.904938 0.250000 0.734906
O O7 0.991007 0.174382 0.644954
O O8 0.987779 0.161206 0.786370
O O9 0.250000 0.569814 0.906044
O O10 0.038765 0.537413 0.825312
O O11 0.100719 0.486636 0.946714
O O12 0.998445 0.583823 0.956464
O O13 0.250000 0.512151 0.736931
O O14 0.438206 0.438958 0.773077
O O15 0.750000 0.811121 0.395458
O O16 0.551506 0.750000 0.453567
O O17 0.563340 0.857498 0.482199
O O18 0.250000 0.367755 0.814639
O O19 0.462810 0.390896 0.902472
O O20 0.750000 0.935539 0.456815
O O21 0.250000 0.404789 0.992084
#
# Coordination Sequence:
#
# PCOD8240251 Si02
#       8
#     8   8   8   8   8   8   8   8
#     4  10  19  28  40  59  81 107 136 163 197 241
#     4  10  20  30  39  56  81 103 127 165 204 232
#     4   8  14  24  37  53  75 102 127 152 185 223
#     4   9  17  28  40  56  80 107 134 163 193 229
#     4   9  17  30  47  61  74 100 135 166 200 241
#     4   9  17  28  41  56  76 105 137 164 192 230
#     4   9  18  31  43  57  80 105 131 166 202 239
#     4   8  14  24  37  54  75  98 126 158 187 215
#
# _framework density 14.834365
#
# number of rings (size 3 to 8) (size 9 to 14) (size 15 to 20)
#    0.000    3.000    0.000    3.000    0.000    6.250 
#    0.000    2.500    0.000    0.000    0.000    0.000 
#    0.000    1.000    0.000    9.000    0.000    4.750 
#
# Total GULP energy -793216.505157 kJ/mol
# GULP energy per Si atom -12394.007893 kJ/mol
# Density = 1.480060 g / cm^3
# Si number density = 14.834365 Si / 1000 Ang^3
#
#
#
# Elastic Constant Matrix: (Units=GPa)
#
#
# Indices 1 2 3 4 5 6 
#
# 1 79.0646 30.7635 56.7193 0.0000 0.0000 0.0000
# 2 30.7635 58.1506 37.2080 0.0000 0.0000 0.0000
# 3 56.7193 37.2080 102.9344 0.0000 0.0000 0.0000
# 4 0.0000 0.0000 0.0000 21.1072 0.0000 0.0000
# 5 0.0000 0.0000 0.0000 0.0000 28.8803 0.0000
# 6 0.0000 0.0000 0.0000 0.0000 0.0000 17.6856
#
#
#
# Elastic Compliance Matrix: (Units=1/GPa)
#
#
# Indices 1 2 3 4 5 6 
#
# 1 0.022000 -0.005050 -0.010297 0.000000 0.000000 0.000000
# 2 -0.005050 0.023530 -0.005723 0.000000 0.000000 0.000000
# 3 -0.010297 -0.005723 0.017457 0.000000 0.000000 0.000000
# 4 0.000000 0.000000 0.000000 0.047377 0.000000 0.000000
# 5 0.000000 0.000000 0.000000 0.000000 0.034626 0.000000
# 6 0.000000 0.000000 0.000000 0.000000 0.000000 0.056543
#
#
# Mechanical properties :
#
#
# Convention : Reuss Voigt Hill
#
# Bulk Modulus (GPa) = 47.96685 54.39235 51.17960
# Shear Modulus (GPa) = 19.95040 21.23188 20.59114
#
# Velocity S-wave (km/s) = 3.67124 3.78731 3.72972
# Velocity P-wave (km/s) = 7.09759 7.47469 7.28858
#
# Compressibility (1/GPa) = 0.02084773
#
# Stress axis : x y z
#
# Youngs Moduli (GPa) = 45.45550 42.49872 57.28241
#
# Poissons Ratio (x) = 0.21462 0.58983
# Poissons Ratio (y) = 0.22955 0.32782
# Poissons Ratio (z) = 0.46805 0.24321
#
# Static dielectric constant tensor:
#      x y z
#    x 3.105790 0.000000 0.000000 
#    y 0.000000 2.659070 0.000000 
#    z 0.000000 0.000000 2.873240 
# 
# 
# High freq. dielectric constant tensor:
#      x y z
#    x 1.576020 0.000000 0.000000 
#    y 0.000000 1.527900 0.000000 
#    z 0.000000 0.000000 1.557070 
# 
# From -- ./inp_files/26591.got.cif
#   From: 2010.03.12/outbox.cif.g09.slc.cpg/sg59_14_cif.got.tgz:26591.got - 2010.04.16 16:29:54.
