data_PCOD8240874
_publ_section_title
;
Structure prediction by ZEFSAII (Michael W. Deem and Ramdas Pophale) SiO2 
 PCOD8240874
Probable space group: P M M N
;
_chemical_formula_sum "Si O2"
_cell_formula_units_Z 64
_cell_length_a 13.768384
_cell_length_b 9.391944
_cell_length_c 30.393811
_cell_angle_alpha 90.000000
_cell_angle_beta 90.000000
_cell_angle_gamma 90.000000
_cell_volume 3930.281190
_symmetry_space_group_name_H-M "P M M N"
_symmetry_group_IT_number 59
_space_group.IT_coordinate_system_code '2'
_symmetry_cell_setting 'orthorhombic'
loop_
_space_group_symop_operation_xyz
x,y,z
1/2-x,1/2-y,z
1/2+x,-y,-z
-x,1/2+y,-z
-x,-y,-z
1/2+x,1/2+y,-z
1/2-x,y,z
x,1/2-y,z
loop_
_atom_site_type_symbol
_atom_site_label
_atom_site_fract_x
_atom_site_fract_y
_atom_site_fract_z
Si Si1 0.451585 0.083864 0.937139
Si Si2 0.515248 0.092288 0.542740
Si Si3 0.639403 0.083844 0.239185
Si Si4 0.517422 0.082341 0.323817
Si Si5 0.858778 0.414442 0.986331
Si Si6 0.861827 0.585459 0.153168
Si Si7 0.862588 0.081797 0.625484
Si Si8 0.140802 0.407853 0.612204
O O1 0.428974 0.250000 0.942607
O O2 0.428485 0.034829 0.887553
O O3 0.379952 0.003705 0.970112
O O4 0.564171 0.047113 0.947897
O O5 0.547875 0.250000 0.527925
O O6 0.594318 0.032307 0.578104
O O7 0.410927 0.094896 0.565408
O O8 0.500000 0.000000 0.500000
O O9 0.750000 0.038862 0.253087
O O10 0.636932 0.250000 0.229044
O O11 0.559974 0.043581 0.275967
O O12 0.605768 0.003126 0.195505
O O13 0.499721 0.250000 0.329144
O O14 0.417059 0.999415 0.334517
O O15 0.598789 0.031319 0.357575
O O16 0.750000 0.449292 0.969226
O O17 0.868903 0.250000 0.999536
O O18 0.750000 0.555767 0.140856
O O19 0.879295 0.750000 0.164264
O O20 0.750000 0.041226 0.627614
O O21 0.881110 0.250000 0.631455
O O22 0.250000 0.449263 0.602266
O O23 0.130561 0.250000 0.634325
#
# Coordination Sequence:
#
# PCOD8240874 Si02
#       8
#     8   8   8   8   8   8   8   8
#     4   9  17  29  44  63  89 119 150 188 230 268
#     4   9  18  31  46  67  94 122 152 186 224 266
#     4   9  18  31  46  67  96 125 148 176 222 276
#     4  10  19  31  49  73  97 118 146 188 232 272
#     4   9  17  28  43  64  88 116 151 188 227 271
#     4   9  17  28  43  64  88 116 152 189 223 264
#     4   9  19  36  54  70  92 124 159 193 229 270
#     4   9  18  32  48  66  91 123 153 181 219 267
#
# _framework density 16.283822000000001
#
# number of rings (size 3 to 8) (size 9 to 14) (size 15 to 20)
#    0.000    2.875    0.000    1.875    0.000    5.750 
#    0.000    2.500    0.000    0.750    0.000    1.750 
#    0.000    0.000    0.000    0.000    0.000    0.000 
#
# Total GULP energy -793308.116231 kJ/mol
# GULP energy per Si atom -12395.439316 kJ/mol
# Density = 1.624676 g / cm^3
# Si number density = 16.283822 Si / 1000 Ang^3
#
#
#
# Elastic Constant Matrix: (Units=GPa)
#
#
# Indices 1 2 3 4 5 6 
#
# 1 129.0042 39.4876 63.1678 0.0000 0.0000 0.0000
# 2 39.4876 52.9155 54.8750 0.0000 0.0000 0.0000
# 3 63.1678 54.8750 123.8081 0.0000 0.0000 0.0000
# 4 0.0000 0.0000 0.0000 31.3858 0.0000 0.0000
# 5 0.0000 0.0000 0.0000 0.0000 18.2222 0.0000
# 6 0.0000 0.0000 0.0000 0.0000 0.0000 22.6043
#
#
#
# Elastic Compliance Matrix: (Units=1/GPa)
#
#
# Indices 1 2 3 4 5 6 
#
# 1 0.010851 -0.004360 -0.003604 0.000000 0.000000 0.000000
# 2 -0.004360 0.036725 -0.014053 0.000000 0.000000 0.000000
# 3 -0.003604 -0.014053 0.016144 0.000000 0.000000 0.000000
# 4 0.000000 0.000000 0.000000 0.031861 0.000000 0.000000
# 5 0.000000 0.000000 0.000000 0.000000 0.054878 0.000000
# 6 0.000000 0.000000 0.000000 0.000000 0.000000 0.044239
#
#
# Mechanical properties :
#
#
# Convention : Reuss Voigt Hill
#
# Bulk Modulus (GPa) = 50.79581 68.97652 59.88616
# Shear Modulus (GPa) = 20.38361 24.32230 22.35296
#
# Velocity S-wave (km/s) = 3.54188 3.86897 3.70903
# Velocity P-wave (km/s) = 6.92736 7.89996 7.42959
#
# Compressibility (1/GPa) = 0.01968666
#
# Stress axis : x y z
#
# Youngs Moduli (GPa) = 92.15846 27.22926 61.94167
#
# Poissons Ratio (x) = 0.11873 0.22321
# Poissons Ratio (y) = 0.40184 0.87046
# Poissons Ratio (z) = 0.33210 0.38265
#
# Static dielectric constant tensor:
#      x y z
#    x 3.250090 0.000000 0.000000 
#    y 0.000000 3.107360 0.000000 
#    z 0.000000 0.000000 2.963370 
# 
# 
# High freq. dielectric constant tensor:
#      x y z
#    x 1.622400 0.000000 0.000000 
#    y 0.000000 1.627340 0.000000 
#    z 0.000000 0.000000 1.610670 
# 
# From -- ./inp_files/33196.got.cif
#   From: 2010.03.12/outbox.cif.g09.slc.cpg/sg59_17_cif.got.tgz:33196.got - 2010.04.16 16:29:54.
