data_PCOD8240088
_publ_section_title
;
Structure prediction by ZEFSAII (Michael W. Deem and Ramdas Pophale) SiO2 
 PCOD8240088
Probable space group: P M M N
;
_chemical_formula_sum "Si O2"
_cell_formula_units_Z 64
_cell_length_a 9.311230
_cell_length_b 15.270828
_cell_length_c 23.988259
_cell_angle_alpha 90.000000
_cell_angle_beta 90.000000
_cell_angle_gamma 90.000000
_cell_volume 3410.895148
_symmetry_space_group_name_H-M "P M M N"
_symmetry_group_IT_number 59
_space_group.IT_coordinate_system_code '2'
_symmetry_cell_setting 'orthorhombic'
loop_
_space_group_symop_operation_xyz
x,y,z
1/2-x,1/2-y,z
1/2+x,-y,-z
-x,1/2+y,-z
-x,-y,-z
1/2+x,1/2+y,-z
1/2-x,y,z
x,1/2-y,z
loop_
_atom_site_type_symbol
_atom_site_label
_atom_site_fract_x
_atom_site_fract_y
_atom_site_fract_z
Si Si1 0.418847 0.492860 0.196072
Si Si2 0.079776 0.154853 0.620716
Si Si3 0.583115 0.349359 0.881456
Si Si4 0.078582 0.988586 0.688560
Si Si5 0.408780 0.353842 0.986730
Si Si6 0.079122 0.347796 0.108675
Si Si7 0.916198 0.910923 0.496954
Si Si8 0.913562 0.650562 0.617927
O O1 0.250000 0.483033 0.209254
O O2 0.454156 0.588090 0.170383
O O3 0.510773 0.480971 0.251026
O O4 0.473356 0.416815 0.154519
O O5 0.250000 0.153785 0.622883
O O6 0.021647 0.250000 0.640866
O O7 0.027948 0.141365 0.557123
O O8 0.021065 0.078710 0.660931
O O9 0.750000 0.352319 0.895076
O O10 0.533329 0.250000 0.866795
O O11 0.507859 0.388060 0.936629
O O12 0.250000 0.985034 0.692586
O O13 0.025585 0.908525 0.651006
O O14 0.250000 0.394462 0.978726
O O15 0.399536 0.250000 0.984189
O O16 0.474799 0.379341 0.047314
O O17 0.250000 0.344946 0.105991
O O18 0.020752 0.250000 0.123329
O O19 0.750000 0.934529 0.489943
O O20 0.944766 0.853856 0.551949
O O21 0.000000 0.000000 0.500000
O O22 0.750000 0.620073 0.630551
O O23 0.936283 0.750000 0.637651
#
# Coordination Sequence:
#
# PCOD8240088 Si02
#       8
#     8   8   8   8   8   8   8   8
#     4  10  21  36  53  72  98 137 180 217 255 311
#     4   9  18  34  56  80 107 141 177 213 261 319
#     4   9  18  32  49  72 104 138 168 204 257 315
#     4  11  23  38  55  78 107 139 178 230 279 312
#     4   8  14  27  49  75 100 126 161 207 255 305
#     4   8  15  30  52  75  97 125 165 211 256 304
#     4  10  18  32  57  85 113 142 173 213 262 315
#     4  10  21  37  59  84 109 143 183 217 257 319
#
# _framework density 18.763404000000001
#
# number of rings (size 3 to 8) (size 9 to 14) (size 15 to 20)
#    0.000    2.625    1.250    1.500    0.000    3.750 
#    0.000    1.875    0.000    4.500    0.000    0.000 
#    0.000    0.000    0.000    0.000    0.000    0.000 
#
# Total GULP energy -793359.355076 kJ/mol
# GULP energy per Si atom -12396.239923 kJ/mol
# Density = 1.872070 g / cm^3
# Si number density = 18.763404 Si / 1000 Ang^3
#
#
#
# Elastic Constant Matrix: (Units=GPa)
#
#
# Indices 1 2 3 4 5 6 
#
# 1 39.8762 17.4357 24.2407 0.0000 0.0000 0.0000
# 2 17.4357 79.9265 10.6497 0.0000 0.0000 0.0000
# 3 24.2407 10.6497 73.2970 0.0000 0.0000 0.0000
# 4 0.0000 0.0000 0.0000 7.6819 0.0000 0.0000
# 5 0.0000 0.0000 0.0000 0.0000 25.0668 0.0000
# 6 0.0000 0.0000 0.0000 0.0000 0.0000 20.3606
#
#
#
# Elastic Compliance Matrix: (Units=1/GPa)
#
#
# Indices 1 2 3 4 5 6 
#
# 1 0.034026 -0.006040 -0.010375 0.000000 0.000000 0.000000
# 2 -0.006040 0.013831 -0.000012 0.000000 0.000000 0.000000
# 3 -0.010375 -0.000012 0.017076 0.000000 0.000000 0.000000
# 4 0.000000 0.000000 0.000000 0.130176 0.000000 0.000000
# 5 0.000000 0.000000 0.000000 0.000000 0.039893 0.000000
# 6 0.000000 0.000000 0.000000 0.000000 0.000000 0.049114
#
#
# Mechanical properties :
#
#
# Convention : Reuss Voigt Hill
#
# Bulk Modulus (GPa) = 31.17423 33.08355 32.12889
# Shear Modulus (GPa) = 15.25953 20.00677 17.63315
#
# Velocity S-wave (km/s) = 2.85487 3.26891 3.06888
# Velocity P-wave (km/s) = 5.24571 5.64960 5.45140
#
# Compressibility (1/GPa) = 0.03207778
#
# Stress axis : x y z
#
# Youngs Moduli (GPa) = 29.38949 72.30282 58.56109
#
# Poissons Ratio (x) = 0.43672 0.60759
# Poissons Ratio (y) = 0.17752 0.00070
# Poissons Ratio (z) = 0.30493 0.00086
#
# Static dielectric constant tensor:
#      x y z
#    x 3.258980 0.000000 0.000000 
#    y 0.000000 4.175870 0.000000 
#    z 0.000000 0.000000 3.622240 
# 
# 
# High freq. dielectric constant tensor:
#      x y z
#    x 1.696150 0.000000 0.000000 
#    y 0.000000 1.731990 0.000000 
#    z 0.000000 0.000000 1.730890 
# 
# From -- ./inp_files/31528.got.cif
#   From: 2010.03.12/outbox.cif.g09.slc.cpg/sg59_16_cif.got.tgz:31528.got - 2010.04.16 16:29:54.
