data_PCOD8240529
_publ_section_title
;
Structure prediction by ZEFSAII (Michael W. Deem and Ramdas Pophale) SiO2 
 PCOD8240529
Probable space group: P M M N
;
_chemical_formula_sum "Si O2"
_cell_formula_units_Z 64
_cell_length_a 13.804898
_cell_length_b 19.511754
_cell_length_c 13.102032
_cell_angle_alpha 90.000000
_cell_angle_beta 90.000000
_cell_angle_gamma 90.000000
_cell_volume 3529.134171
_symmetry_space_group_name_H-M "P M M N"
_symmetry_group_IT_number 59
_space_group.IT_coordinate_system_code '2'
_symmetry_cell_setting 'orthorhombic'
loop_
_space_group_symop_operation_xyz
x,y,z
1/2-x,1/2-y,z
1/2+x,-y,-z
-x,1/2+y,-z
-x,-y,-z
1/2+x,1/2+y,-z
1/2-x,y,z
x,1/2-y,z
loop_
_atom_site_type_symbol
_atom_site_label
_atom_site_fract_x
_atom_site_fract_y
_atom_site_fract_z
Si Si1 0.144883 0.825446 0.648818
Si Si2 0.963884 0.567035 0.374477
Si Si3 0.859480 0.047500 0.488925
Si Si4 0.954714 0.630887 0.726280
Si Si5 0.364573 0.472221 0.003542
Si Si6 0.500732 0.990446 0.172829
Si Si7 0.635928 0.669789 0.514435
Si Si8 0.636573 0.675253 0.927075
O O1 0.250000 0.839585 0.701610
O O2 0.143487 0.750000 0.599698
O O3 0.127413 0.877363 0.557179
O O4 0.058262 0.830760 0.729924
O O5 0.885562 0.508860 0.403686
O O6 0.922616 0.638646 0.418200
O O7 0.068681 0.544256 0.416060
O O8 0.977975 0.572416 0.251094
O O9 0.750000 0.034479 0.527195
O O10 0.977883 0.552946 0.752442
O O11 0.902697 0.633193 0.616611
O O12 0.885882 0.667484 0.807451
O O13 0.250000 0.479095 0.009759
O O14 0.402867 0.500878 0.895908
O O15 0.409957 0.518221 0.095269
O O16 0.402083 0.392405 0.013511
O O17 0.750000 0.655654 0.502194
O O18 0.612738 0.750000 0.519864
O O19 0.750000 0.676735 0.941172
O O20 0.595112 0.750000 0.965410
#
# Coordination Sequence:
#
# PCOD8240529 Si02
#       8
#     8   8   8   8   8   8   8   8
#     4  10  19  30  46  70 102 139 177 216 259 307
#     4  11  20  35  53  75 106 145 181 220 262 315
#     4  10  20  33  49  75 107 143 182 218 256 309
#     4  11  18  32  53  75 109 142 175 221 268 319
#     4   9  20  37  55  76 107 137 170 232 287 325
#     4  10  21  35  53  79 102 136 185 224 271 329
#     4  11  23  36  52  80 117 152 182 216 264 323
#     4   9  17  30  52  80 104 134 175 215 269 337
#
# _framework density 18.134758999999999
#
# number of rings (size 3 to 8) (size 9 to 14) (size 15 to 20)
#    0.000    1.875    2.500    2.625    0.000    3.500 
#    0.000    0.625    0.000    1.500    0.000    0.000 
#    0.000   11.000    0.000    0.000    0.000    0.000 
#
# Total GULP energy -793087.394456 kJ/mol
# GULP energy per Si atom -12391.990538 kJ/mol
# Density = 1.809348 g / cm^3
# Si number density = 18.134759 Si / 1000 Ang^3
#
#
#
# Elastic Constant Matrix: (Units=GPa)
#
#
# Indices 1 2 3 4 5 6 
#
# 1 93.6278 21.9250 36.3166 0.0000 0.0000 0.0000
# 2 21.9250 70.0122 36.6376 0.0000 0.0000 0.0000
# 3 36.3166 36.6376 102.0448 0.0000 0.0000 0.0000
# 4 0.0000 0.0000 0.0000 13.9883 0.0000 0.0000
# 5 0.0000 0.0000 0.0000 0.0000 17.8034 0.0000
# 6 0.0000 0.0000 0.0000 0.0000 0.0000 25.7440
#
#
#
# Elastic Compliance Matrix: (Units=1/GPa)
#
#
# Indices 1 2 3 4 5 6 
#
# 1 0.012608 -0.001970 -0.003780 0.000000 0.000000 0.000000
# 2 -0.001970 0.017896 -0.005724 0.000000 0.000000 0.000000
# 3 -0.003780 -0.005724 0.013200 0.000000 0.000000 0.000000
# 4 0.000000 0.000000 0.000000 0.071488 0.000000 0.000000
# 5 0.000000 0.000000 0.000000 0.000000 0.056169 0.000000
# 6 0.000000 0.000000 0.000000 0.000000 0.000000 0.038844
#
#
# Mechanical properties :
#
#
# Convention : Reuss Voigt Hill
#
# Bulk Modulus (GPa) = 48.17977 50.60479 49.39228
# Shear Modulus (GPa) = 20.82714 22.89418 21.86066
#
# Velocity S-wave (km/s) = 3.39258 3.55695 3.47573
# Velocity P-wave (km/s) = 6.47854 6.69587 6.58810
#
# Compressibility (1/GPa) = 0.02075560
#
# Stress axis : x y z
#
# Youngs Moduli (GPa) = 79.31443 55.87965 75.75874
#
# Poissons Ratio (x) = 0.11011 0.28634
# Poissons Ratio (y) = 0.15629 0.43363
# Poissons Ratio (z) = 0.29978 0.31985
#
# Static dielectric constant tensor:
#      x y z
#    x 3.586670 0.000000 0.000000 
#    y 0.000000 3.618750 0.000000 
#    z 0.000000 0.000000 3.185170 
# 
# 
# High freq. dielectric constant tensor:
#      x y z
#    x 1.714560 0.000000 0.000000 
#    y 0.000000 1.699330 0.000000 
#    z 0.000000 0.000000 1.672750 
# 
# From -- ./inp_files/17233.got.cif
#   From: 2010.03.12/outbox.cif.g09.slc.cpg/sg59_9_cif.got.tgz:17233.got - 2010.04.16 16:29:54.
