data_PCOD8240101
_publ_section_title
;
Structure prediction by ZEFSAII (Michael W. Deem and Ramdas Pophale) SiO2 
 PCOD8240101
Probable space group: P M M N
;
_chemical_formula_sum "Si O2"
_cell_formula_units_Z 40
_cell_length_a 11.018095
_cell_length_b 9.071587
_cell_length_c 20.003006
_cell_angle_alpha 90.000000
_cell_angle_beta 90.000000
_cell_angle_gamma 90.000000
_cell_volume 1999.332602
_symmetry_space_group_name_H-M "P M M N"
_symmetry_group_IT_number 59
_space_group.IT_coordinate_system_code '2'
_symmetry_cell_setting 'orthorhombic'
loop_
_space_group_symop_operation_xyz
x,y,z
1/2-x,1/2-y,z
1/2+x,-y,-z
-x,1/2+y,-z
-x,-y,-z
1/2+x,1/2+y,-z
1/2-x,y,z
x,1/2-y,z
loop_
_atom_site_type_symbol
_atom_site_label
_atom_site_fract_x
_atom_site_fract_y
_atom_site_fract_z
Si Si1 0.250000 0.079610 0.648156
Si Si2 0.389279 0.414356 0.315523
Si Si3 0.389552 0.425396 0.040462
Si Si4 0.508380 0.922622 0.429378
Si Si5 0.990622 0.923745 0.821130
Si Si6 0.750000 0.422565 0.210974
O O1 0.250000 0.250000 0.667345
O O2 0.135606 0.035698 0.603755
O O3 0.250000 0.991641 0.716249
O O4 0.250000 0.401896 0.297993
O O5 0.442656 0.250000 0.329516
O O6 0.405112 0.516106 0.380288
O O7 0.450288 0.490732 0.250283
O O8 0.250000 0.471243 0.019653
O O9 0.404836 0.250000 0.033523
O O10 0.409904 0.479684 0.116916
O O11 0.500000 0.500000 0.000000
O O12 0.490370 0.750000 0.439770
O O13 0.500000 0.000000 0.500000
O O14 0.973576 0.750000 0.815727
O O15 0.131742 0.969544 0.831912
O O16 0.750000 0.250000 0.223945
#
# Coordination Sequence:
#
# PCOD8240101 Si02
#       6
#     4   8   8   8   8   4
#     4  10  22  40  58  80 114 147 182 235 292 341
#     4  10  20  36  59  84 110 143 185 235 289 344
#     4  10  22  40  62  90 125 164 205 249 299 356
#     4  11  24  40  57  80 111 149 189 234 286 341
#     4   9  18  34  59  88 115 148 194 243 289 344
#     4  10  18  32  60  90 110 143 196 243 288 349
#
# _framework density 20.006674
#
# number of rings (size 3 to 8) (size 9 to 14) (size 15 to 20)
#    0.000    2.000    2.000    1.200    2.800    4.000 
#    0.000    2.000    0.000    2.400    0.000    0.000 
#    0.000    0.000    0.000    0.000    0.000    0.000 
#
# Total GULP energy -495775.886225 kJ/mol
# GULP energy per Si atom -12394.397156 kJ/mol
# Density = 1.996114 g / cm^3
# Si number density = 20.006674 Si / 1000 Ang^3
#
#
#
# Elastic Constant Matrix: (Units=GPa)
#
#
# Indices 1 2 3 4 5 6 
#
# 1 130.8889 33.0061 47.6106 0.0000 0.0000 0.0000
# 2 33.0061 48.7912 32.6383 0.0000 0.0000 0.0000
# 3 47.6106 32.6383 120.2293 0.0000 0.0000 0.0000
# 4 0.0000 0.0000 0.0000 28.9648 0.0000 0.0000
# 5 0.0000 0.0000 0.0000 0.0000 18.5777 0.0000
# 6 0.0000 0.0000 0.0000 0.0000 0.0000 27.3590
#
#
#
# Elastic Compliance Matrix: (Units=1/GPa)
#
#
# Indices 1 2 3 4 5 6 
#
# 1 0.009810 -0.004934 -0.002545 0.000000 0.000000 0.000000
# 2 -0.004934 0.027524 -0.005518 0.000000 0.000000 0.000000
# 3 -0.002545 -0.005518 0.010823 0.000000 0.000000 0.000000
# 4 0.000000 0.000000 0.000000 0.034525 0.000000 0.000000
# 5 0.000000 0.000000 0.000000 0.000000 0.053828 0.000000
# 6 0.000000 0.000000 0.000000 0.000000 0.000000 0.036551
#
#
# Mechanical properties :
#
#
# Convention : Reuss Voigt Hill
#
# Bulk Modulus (GPa) = 45.11966 58.49105 51.80535
# Shear Modulus (GPa) = 24.21966 27.42392 25.82179
#
# Velocity S-wave (km/s) = 3.48311 3.70636 3.59647
# Velocity P-wave (km/s) = 6.22715 6.90039 6.57240
#
# Compressibility (1/GPa) = 0.02216329
#
# Stress axis : x y z
#
# Youngs Moduli (GPa) = 101.93614 36.33154 92.39171
#
# Poissons Ratio (x) = 0.17924 0.23518
# Poissons Ratio (y) = 0.50290 0.50984
# Poissons Ratio (z) = 0.25948 0.20049
#
# Static dielectric constant tensor:
#      x y z
#    x 3.926940 0.000000 0.000000 
#    y 0.000000 3.401510 0.000000 
#    z 0.000000 0.000000 3.759800 
# 
# 
# High freq. dielectric constant tensor:
#      x y z
#    x 1.797140 0.000000 0.000000 
#    y 0.000000 1.748540 0.000000 
#    z 0.000000 0.000000 1.784980 
# 
# From -- ./inp_files/29924.got.cif
#   From: 2010.03.12/outbox.cif.g09.slc.cpg/sg59_15_cif.got.tgz:29924.got - 2010.04.16 16:29:54.
