data_PCOD8240008
_publ_section_title
;
Structure prediction by ZEFSAII (Michael W. Deem and Ramdas Pophale) SiO2 
 PCOD8240008
Probable space group: P M M N
;
_chemical_formula_sum "Si O2"
_cell_formula_units_Z 64
_cell_length_a 14.437551
_cell_length_b 23.006573
_cell_length_c 10.381643
_cell_angle_alpha 90.000000
_cell_angle_beta 90.000000
_cell_angle_gamma 90.000000
_cell_volume 3448.351704
_symmetry_space_group_name_H-M "P M M N"
_symmetry_group_IT_number 59
_space_group.IT_coordinate_system_code '2'
_symmetry_cell_setting 'orthorhombic'
loop_
_space_group_symop_operation_xyz
x,y,z
1/2-x,1/2-y,z
1/2+x,-y,-z
-x,1/2+y,-z
-x,-y,-z
1/2+x,1/2+y,-z
1/2-x,y,z
x,1/2-y,z
loop_
_atom_site_type_symbol
_atom_site_label
_atom_site_fract_x
_atom_site_fract_y
_atom_site_fract_z
Si Si1 0.977755 0.183229 0.718645
Si Si2 0.139970 0.979529 0.630844
Si Si3 0.359834 0.984630 0.119872
Si Si4 0.360208 0.918428 0.371453
Si Si5 0.854716 0.602460 0.277711
Si Si6 0.522586 0.184293 0.018456
Si Si7 0.860075 0.412072 0.120631
Si Si8 0.354143 0.105461 0.019493
O O1 0.975806 0.250000 0.670959
O O2 0.903598 0.145981 0.637197
O O3 0.080548 0.157770 0.694206
O O4 0.950405 0.179122 0.868443
O O5 0.250000 0.979490 0.636638
O O6 0.103909 0.951226 0.498772
O O7 0.101849 0.941230 0.749105
O O8 0.107425 0.046667 0.642639
O O9 0.250000 0.980296 0.114314
O O10 0.397436 0.957218 0.252298
O O11 0.389162 0.051951 0.108062
O O12 0.400494 0.948600 0.999864
O O13 0.250000 0.911553 0.370730
O O14 0.750000 0.619457 0.318615
O O15 0.857119 0.584071 0.128152
O O16 0.522006 0.250000 0.065827
O O17 0.598208 0.152200 0.106389
O O18 0.419937 0.159886 0.044134
O O19 0.750000 0.407477 0.119931
O O20 0.250000 0.124547 0.056823
#
# Coordination Sequence:
#
# PCOD8240008 Si02
#       8
#     8   8   8   8   8   8   8   8
#     4  10  21  34  49  73 103 138 179 210 243 302
#     4   9  18  33  54  79 105 133 166 208 262 313
#     4   9  16  29  51  78 102 127 163 203 254 308
#     4  10  20  34  52  78 109 136 166 210 257 304
#     4   9  17  32  53  76 103 132 166 213 261 303
#     4  10  21  33  48  74 102 136 180 212 246 300
#     4  10  18  32  53  76 103 133 166 207 253 302
#     4   9  17  31  52  76 103 133 166 211 261 307
#
# _framework density 18.559591999999999
#
# number of rings (size 3 to 8) (size 9 to 14) (size 15 to 20)
#    0.000    2.500    2.500    0.000    0.000    3.000 
#    0.000    4.375    0.000    2.250    0.000    0.000 
#    0.000    7.000    0.000    0.000    0.000    0.000 
#
# Total GULP energy -793596.161868 kJ/mol
# GULP energy per Si atom -12399.940029 kJ/mol
# Density = 1.851735 g / cm^3
# Si number density = 18.559592 Si / 1000 Ang^3
#
#
#
# Elastic Constant Matrix: (Units=GPa)
#
#
# Indices 1 2 3 4 5 6 
#
# 1 34.1471 13.7077 15.1156 0.0000 0.0000 0.0000
# 2 13.7077 111.3268 41.4613 0.0000 0.0000 0.0000
# 3 15.1156 41.4613 95.6255 0.0000 0.0000 0.0000
# 4 0.0000 0.0000 0.0000 23.3320 0.0000 0.0000
# 5 0.0000 0.0000 0.0000 0.0000 14.3460 0.0000
# 6 0.0000 0.0000 0.0000 0.0000 0.0000 31.5580
#
#
#
# Elastic Compliance Matrix: (Units=1/GPa)
#
#
# Indices 1 2 3 4 5 6 
#
# 1 0.032042 -0.002456 -0.004000 0.000000 0.000000 0.000000
# 2 -0.002456 0.010901 -0.004338 0.000000 0.000000 0.000000
# 3 -0.004000 -0.004338 0.012971 0.000000 0.000000 0.000000
# 4 0.000000 0.000000 0.000000 0.042860 0.000000 0.000000
# 5 0.000000 0.000000 0.000000 0.000000 0.069706 0.000000
# 6 0.000000 0.000000 0.000000 0.000000 0.000000 0.031688
#
#
# Mechanical properties :
#
#
# Convention : Reuss Voigt Hill
#
# Bulk Modulus (GPa) = 29.13313 42.40763 35.77038
# Shear Modulus (GPa) = 21.44127 25.23485 23.33806
#
# Velocity S-wave (km/s) = 3.40261 3.69137 3.54992
# Velocity P-wave (km/s) = 5.58284 6.40838 6.00980
#
# Compressibility (1/GPa) = 0.03432519
#
# Stress axis : x y z
#
# Youngs Moduli (GPa) = 31.20947 91.73854 77.09696
#
# Poissons Ratio (x) = 0.22527 0.30840
# Poissons Ratio (y) = 0.07664 0.33445
# Poissons Ratio (z) = 0.12484 0.39797
#
# Static dielectric constant tensor:
#      x y z
#    x 3.300030 0.000000 0.000000 
#    y 0.000000 3.354380 0.000000 
#    z 0.000000 0.000000 3.382480 
# 
# 
# High freq. dielectric constant tensor:
#      x y z
#    x 1.720180 0.000000 0.000000 
#    y 0.000000 1.711590 0.000000 
#    z 0.000000 0.000000 1.691440 
# 
# From -- ./inp_files/9589.got.cif
#   From: 2010.03.12/outbox.cif.g09.slc.cpg/sg59_5_cif.got.tgz:9589.got - 2010.04.16 16:29:54.
