data_PCOD8240964
_publ_section_title
;
Structure prediction by ZEFSAII (Michael W. Deem and Ramdas Pophale) SiO2 
 PCOD8240964
Probable space group: P M M N
;
_chemical_formula_sum "Si O2"
_cell_formula_units_Z 64
_cell_length_a 20.008052
_cell_length_b 8.935148
_cell_length_c 19.972912
_cell_angle_alpha 90.000000
_cell_angle_beta 90.000000
_cell_angle_gamma 90.000000
_cell_volume 3570.655462
_symmetry_space_group_name_H-M "P M M N"
_symmetry_group_IT_number 59
_space_group.IT_coordinate_system_code '2'
_symmetry_cell_setting 'orthorhombic'
loop_
_space_group_symop_operation_xyz
x,y,z
1/2-x,1/2-y,z
1/2+x,-y,-z
-x,1/2+y,-z
-x,-y,-z
1/2+x,1/2+y,-z
1/2-x,y,z
x,1/2-y,z
loop_
_atom_site_type_symbol
_atom_site_label
_atom_site_fract_x
_atom_site_fract_y
_atom_site_fract_z
Si Si1 0.581482 0.079329 0.341841
Si Si2 0.673227 0.074325 0.586428
Si Si3 0.434565 0.925923 0.029499
Si Si4 0.822769 0.074039 0.068474
Si Si5 0.173818 0.424940 0.552597
Si Si6 0.590799 0.078952 0.191449
Si Si7 0.070778 0.074027 0.313473
Si Si8 0.045236 0.923963 0.179001
O O1 0.588791 0.250000 0.366799
O O2 0.613365 0.059713 0.268225
O O3 0.503378 0.032124 0.339995
O O4 0.622419 0.971389 0.390016
O O5 0.750000 0.034041 0.603412
O O6 0.661279 0.250000 0.584645
O O7 0.652748 0.009251 0.514702
O O8 0.626412 0.003812 0.642147
O O9 0.442952 0.750000 0.018367
O O10 0.421562 0.963077 0.107499
O O11 0.372049 0.991731 0.987891
O O12 0.500000 0.000000 0.000000
O O13 0.750000 0.998859 0.059964
O O14 0.817172 0.250000 0.058025
O O15 0.847771 0.038309 0.143517
O O16 0.250000 0.466690 0.573218
O O17 0.166523 0.250000 0.539230
O O18 0.565552 0.250000 0.179916
O O19 0.532257 0.965416 0.173205
O O20 0.081985 0.250000 0.315202
O O21 0.080765 0.018412 0.237386
O O22 0.052436 0.750000 0.196642
#
# Coordination Sequence:
#
# PCOD8240964 Si02
#       8
#     8   8   8   8   8   8   8   8
#     4   9  19  33  51  78 107 138 177 219 267 314
#     4  10  21  38  60  83 107 138 177 222 270 320
#     4  10  19  31  52  77 101 136 179 220 266 318
#     4   9  17  30  49  74 103 135 175 221 265 313
#     4  10  21  36  54  77 106 143 183 219 262 320
#     4   9  17  31  51  73  99 134 175 215 261 316
#     4  10  21  37  57  81 109 141 177 222 269 320
#     4  10  19  31  50  78 106 134 174 220 267 317
#
# _framework density 17.92388
#
# number of rings (size 3 to 8) (size 9 to 14) (size 15 to 20)
#    0.000    2.375    1.250    2.250    0.000    5.500 
#    0.000    1.875    0.000    3.750    0.000    0.000 
#    0.000    0.000    0.000    0.000    0.000    0.000 
#
# Total GULP energy -793549.183510 kJ/mol
# GULP energy per Si atom -12399.205992 kJ/mol
# Density = 1.788308 g / cm^3
# Si number density = 17.923880 Si / 1000 Ang^3
#
#
#
# Elastic Constant Matrix: (Units=GPa)
#
#
# Indices 1 2 3 4 5 6 
#
# 1 111.1059 37.4097 84.8899 0.0000 0.0000 0.0000
# 2 37.4097 61.1557 51.0030 0.0000 0.0000 0.0000
# 3 84.8899 51.0030 141.5381 0.0000 0.0000 0.0000
# 4 0.0000 0.0000 0.0000 28.2010 0.0000 0.0000
# 5 0.0000 0.0000 0.0000 0.0000 28.4976 0.0000
# 6 0.0000 0.0000 0.0000 0.0000 0.0000 26.2730
#
#
#
# Elastic Compliance Matrix: (Units=1/GPa)
#
#
# Indices 1 2 3 4 5 6 
#
# 1 0.016919 -0.002697 -0.009176 0.000000 0.000000 0.000000
# 2 -0.002697 0.023807 -0.006961 0.000000 0.000000 0.000000
# 3 -0.009176 -0.006961 0.015077 0.000000 0.000000 0.000000
# 4 0.000000 0.000000 0.000000 0.035460 0.000000 0.000000
# 5 0.000000 0.000000 0.000000 0.000000 0.035091 0.000000
# 6 0.000000 0.000000 0.000000 0.000000 0.000000 0.038062
#
#
# Mechanical properties :
#
#
# Convention : Reuss Voigt Hill
#
# Bulk Modulus (GPa) = 55.14149 73.37832 64.25991
# Shear Modulus (GPa) = 24.02361 25.96080 24.99221
#
# Velocity S-wave (km/s) = 3.66500 3.80990 3.73815
# Velocity P-wave (km/s) = 6.98145 7.77056 7.38655
#
# Compressibility (1/GPa) = 0.01813516
#
# Stress axis : x y z
#
# Youngs Moduli (GPa) = 59.10454 42.00414 66.32678
#
# Poissons Ratio (x) = 0.11330 0.60859
# Poissons Ratio (y) = 0.15943 0.46171
# Poissons Ratio (z) = 0.54232 0.29239
#
# Static dielectric constant tensor:
#      x y z
#    x 3.378840 0.000000 0.000000 
#    y 0.000000 3.251250 0.000000 
#    z 0.000000 0.000000 3.486710 
# 
# 
# High freq. dielectric constant tensor:
#      x y z
#    x 1.679870 0.000000 0.000000 
#    y 0.000000 1.687170 0.000000 
#    z 0.000000 0.000000 1.703920 
# 
# From -- ./inp_files/28253.got.cif
#   From: 2010.03.12/outbox.cif.g09.slc.cpg/sg59_15_cif.got.tgz:28253.got - 2010.04.16 16:29:54.
