data_PCOD8240060
_publ_section_title
;
Structure prediction by ZEFSAII (Michael W. Deem and Ramdas Pophale) SiO2 
 PCOD8240060
Probable space group: P M M N
;
_chemical_formula_sum "Si O2"
_cell_formula_units_Z 64
_cell_length_a 22.737713
_cell_length_b 8.720664
_cell_length_c 17.434971
_cell_angle_alpha 90.000000
_cell_angle_beta 90.000000
_cell_angle_gamma 90.000000
_cell_volume 3457.144749
_symmetry_space_group_name_H-M "P M M N"
_symmetry_group_IT_number 59
_space_group.IT_coordinate_system_code '2'
_symmetry_cell_setting 'orthorhombic'
loop_
_space_group_symop_operation_xyz
x,y,z
1/2-x,1/2-y,z
1/2+x,-y,-z
-x,1/2+y,-z
-x,-y,-z
1/2+x,1/2+y,-z
1/2-x,y,z
x,1/2-y,z
loop_
_atom_site_type_symbol
_atom_site_label
_atom_site_fract_x
_atom_site_fract_y
_atom_site_fract_z
Si Si1 0.020774 0.922121 0.576878
Si Si2 0.411374 0.424506 0.313333
Si Si3 0.064181 0.067358 0.012541
Si Si4 0.816238 0.927571 0.242405
Si Si5 0.956404 0.430497 0.835068
Si Si6 0.859966 0.571600 0.405776
Si Si7 0.184529 0.432589 0.432305
Si Si8 0.915898 0.431115 0.140774
O O1 0.037684 0.750000 0.555837
O O2 0.970921 0.930292 0.639770
O O3 0.076812 0.002917 0.613543
O O4 0.000000 0.000000 0.500000
O O5 0.397766 0.250000 0.287399
O O6 0.418653 0.532929 0.240189
O O7 0.358982 0.492479 0.365983
O O8 0.065196 0.250000 0.012209
O O9 0.082738 0.002711 0.095646
O O10 0.102909 0.002814 0.941902
O O11 0.000000 0.000000 0.000000
O O12 0.750000 0.966229 0.214443
O O13 0.831598 0.750000 0.226672
O O14 0.818216 0.962558 0.333454
O O15 0.863321 0.031880 0.198919
O O16 0.963045 0.250000 0.846786
O O17 0.021972 0.501488 0.829758
O O18 0.868801 0.750000 0.418981
O O19 0.833513 0.500146 0.484218
O O20 0.250000 0.490026 0.412519
O O21 0.181407 0.250000 0.435783
O O22 0.923397 0.250000 0.133417
#
# Coordination Sequence:
#
# PCOD8240060 Si02
#       8
#     8   8   8   8   8   8   8   8
#     4  11  21  33  50  74 104 137 173 220 273 324
#     4  10  20  34  51  76 106 137 176 222 269 320
#     4  10  18  32  55  82 111 139 169 209 257 316
#     4  10  21  36  55  80 110 145 187 230 270 320
#     4  11  21  34  54  82 112 142 176 218 271 330
#     4  10  19  34  54  78 104 137 179 224 268 318
#     4   9  17  32  54  75  97 132 178 223 265 311
#     4  11  21  35  55  80 112 146 179 218 266 321
#
# _framework density 18.512385999999999
#
# number of rings (size 3 to 8) (size 9 to 14) (size 15 to 20)
#    0.000    1.750    1.250    6.375    0.000    5.250 
#    0.000    0.000    0.000    3.000    0.000    1.750 
#    0.000    0.000    0.000    0.000    0.000    0.000 
#
# Total GULP energy -793493.157248 kJ/mol
# GULP energy per Si atom -12398.330582 kJ/mol
# Density = 1.847025 g / cm^3
# Si number density = 18.512386 Si / 1000 Ang^3
#
#
#
# Elastic Constant Matrix: (Units=GPa)
#
#
# Indices 1 2 3 4 5 6 
#
# 1 97.0164 28.5271 44.5383 0.0000 0.0000 0.0000
# 2 28.5271 102.3182 55.8553 0.0000 0.0000 0.0000
# 3 44.5383 55.8553 126.1652 0.0000 0.0000 0.0000
# 4 0.0000 0.0000 0.0000 29.4765 0.0000 0.0000
# 5 0.0000 0.0000 0.0000 0.0000 19.5429 0.0000
# 6 0.0000 0.0000 0.0000 0.0000 0.0000 20.2413
#
#
#
# Elastic Compliance Matrix: (Units=1/GPa)
#
#
# Indices 1 2 3 4 5 6 
#
# 1 0.012454 -0.001414 -0.003771 0.000000 0.000000 0.000000
# 2 -0.001414 0.013049 -0.005278 0.000000 0.000000 0.000000
# 3 -0.003771 -0.005278 0.011594 0.000000 0.000000 0.000000
# 4 0.000000 0.000000 0.000000 0.033925 0.000000 0.000000
# 5 0.000000 0.000000 0.000000 0.000000 0.051170 0.000000
# 6 0.000000 0.000000 0.000000 0.000000 0.000000 0.049404
#
#
# Mechanical properties :
#
#
# Convention : Reuss Voigt Hill
#
# Bulk Modulus (GPa) = 61.83454 64.81570 63.32512
# Shear Modulus (GPa) = 25.26389 26.95741 26.11065
#
# Velocity S-wave (km/s) = 3.69820 3.82014 3.75966
# Velocity P-wave (km/s) = 7.19095 7.38553 7.28889
#
# Compressibility (1/GPa) = 0.01617219
#
# Stress axis : x y z
#
# Youngs Moduli (GPa) = 80.29347 76.63560 86.25363
#
# Poissons Ratio (x) = 0.10836 0.32522
# Poissons Ratio (y) = 0.11354 0.45522
# Poissons Ratio (z) = 0.30275 0.40446
#
# Static dielectric constant tensor:
#      x y z
#    x 3.271380 0.000000 0.000000 
#    y 0.000000 3.302360 0.000000 
#    z 0.000000 0.000000 3.601900 
# 
# 
# High freq. dielectric constant tensor:
#      x y z
#    x 1.692120 0.000000 0.000000 
#    y 0.000000 1.710560 0.000000 
#    z 0.000000 0.000000 1.728200 
# 
# From -- ./inp_files/28400.got.cif
#   From: 2010.03.12/outbox.cif.g09.slc.cpg/sg59_15_cif.got.tgz:28400.got - 2010.04.16 16:29:54.
