data_PCOD8240152
_publ_section_title
;
Structure prediction by ZEFSAII (Michael W. Deem and Ramdas Pophale) SiO2 
 PCOD8240152
Probable space group: P M M N
;
_chemical_formula_sum "Si O2"
_cell_formula_units_Z 64
_cell_length_a 30.627629
_cell_length_b 8.976836
_cell_length_c 12.019211
_cell_angle_alpha 90.000000
_cell_angle_beta 90.000000
_cell_angle_gamma 90.000000
_cell_volume 3304.552288
_symmetry_space_group_name_H-M "P M M N"
_symmetry_group_IT_number 59
_space_group.IT_coordinate_system_code '2'
_symmetry_cell_setting 'orthorhombic'
loop_
_space_group_symop_operation_xyz
x,y,z
1/2-x,1/2-y,z
1/2+x,-y,-z
-x,1/2+y,-z
-x,-y,-z
1/2+x,1/2+y,-z
1/2-x,y,z
x,1/2-y,z
loop_
_atom_site_type_symbol
_atom_site_label
_atom_site_fract_x
_atom_site_fract_y
_atom_site_fract_z
Si Si1 0.200673 0.919951 0.783923
Si Si2 0.947743 0.425520 0.754866
Si Si3 0.455077 0.426148 0.787097
Si Si4 0.424304 0.419150 0.020999
Si Si5 0.377252 0.073087 0.394542
Si Si6 0.373727 0.073094 0.647992
Si Si7 0.677163 0.919008 0.998631
Si Si8 0.701479 0.926962 0.755255
O O1 0.250000 0.933430 0.738684
O O2 0.184604 0.750000 0.784166
O O3 0.170216 0.014363 0.703149
O O4 0.199829 0.980185 0.909337
O O5 0.941711 0.250000 0.743067
O O6 0.920602 0.506478 0.659655
O O7 0.998158 0.474446 0.738335
O O8 0.931778 0.472435 0.876432
O O9 0.449997 0.250000 0.788811
O O10 0.451471 0.480980 0.915162
O O11 0.416476 0.492803 0.710403
O O12 0.437578 0.250000 0.054119
O O13 0.374363 0.423469 0.983594
O O14 0.380261 0.250000 0.384773
O O15 0.375153 0.018185 0.521056
O O16 0.334134 0.010782 0.331794
O O17 0.372556 0.250000 0.654839
O O18 0.694524 0.750000 0.010627
O O19 0.689981 0.985588 0.878343
O O20 0.750000 0.981802 0.720618
O O21 0.698954 0.750000 0.755450
#
# Coordination Sequence:
#
# PCOD8240152 Si02
#       8
#     8   8   8   8   8   8   8   8
#     4  11  24  39  56  84 122 152 178 224 282 338
#     4  11  22  35  55  82 116 150 182 224 285 352
#     4   9  19  36  56  82 112 145 185 237 286 327
#     4  10  18  34  59  82 111 145 185 234 280 327
#     4  10  21  38  59  82 109 143 188 239 281 322
#     4  10  21  40  63  81 104 146 199 242 274 321
#     4  10  18  33  60  84 108 147 188 227 272 327
#     4   9  17  31  53  82 111 137 173 225 278 322
#
# _framework density 19.367224
#
# number of rings (size 3 to 8) (size 9 to 14) (size 15 to 20)
#    0.000    2.000    2.500    1.500    0.000    3.500 
#    0.000    3.125    0.000    0.375    0.000    0.000 
#    0.000    0.000    0.000    0.000    0.000    0.000 
#
# Total GULP energy -793668.642523 kJ/mol
# GULP energy per Si atom -12401.072539 kJ/mol
# Density = 1.932314 g / cm^3
# Si number density = 19.367224 Si / 1000 Ang^3
#
#
#
# Elastic Constant Matrix: (Units=GPa)
#
#
# Indices 1 2 3 4 5 6 
#
# 1 109.8444 18.9584 51.0217 0.0000 0.0000 0.0000
# 2 18.9584 22.8416 25.5791 0.0000 0.0000 0.0000
# 3 51.0217 25.5791 134.5884 0.0000 0.0000 0.0000
# 4 0.0000 0.0000 0.0000 15.9223 0.0000 0.0000
# 5 0.0000 0.0000 0.0000 0.0000 16.4925 0.0000
# 6 0.0000 0.0000 0.0000 0.0000 0.0000 26.2436
#
#
#
# Elastic Compliance Matrix: (Units=1/GPa)
#
#
# Indices 1 2 3 4 5 6 
#
# 1 0.011664 -0.006008 -0.003280 0.000000 0.000000 0.000000
# 2 -0.006008 0.058711 -0.008881 0.000000 0.000000 0.000000
# 3 -0.003280 -0.008881 0.010361 0.000000 0.000000 0.000000
# 4 0.000000 0.000000 0.000000 0.062805 0.000000 0.000000
# 5 0.000000 0.000000 0.000000 0.000000 0.060634 0.000000
# 6 0.000000 0.000000 0.000000 0.000000 0.000000 0.038105
#
#
# Mechanical properties :
#
#
# Convention : Reuss Voigt Hill
#
# Bulk Modulus (GPa) = 22.52289 50.93254 36.72772
# Shear Modulus (GPa) = 17.04055 23.17936 20.10995
#
# Velocity S-wave (km/s) = 2.96947 3.46328 3.22584
# Velocity P-wave (km/s) = 4.83856 6.50752 5.73409
#
# Compressibility (1/GPa) = 0.04439928
#
# Stress axis : x y z
#
# Youngs Moduli (GPa) = 85.73178 17.03245 96.51304
#
# Poissons Ratio (x) = 0.10233 0.31656
# Poissons Ratio (y) = 0.51510 0.85710
# Poissons Ratio (z) = 0.28120 0.15126
#
# Static dielectric constant tensor:
#      x y z
#    x 3.760810 0.000000 0.000000 
#    y 0.000000 3.222920 0.000000 
#    z 0.000000 0.000000 3.606620 
# 
# 
# High freq. dielectric constant tensor:
#      x y z
#    x 1.768870 0.000000 0.000000 
#    y 0.000000 1.718660 0.000000 
#    z 0.000000 0.000000 1.753980 
# 
# From -- ./inp_files/19346.got.cif
#   From: 2010.03.12/outbox.cif.g09.slc.cpg/sg59_10_cif.got.tgz:19346.got - 2010.04.16 16:29:54.
