data_PCOD8240499
_publ_section_title
;
Structure prediction by ZEFSAII (Michael W. Deem and Ramdas Pophale) SiO2 
 PCOD8240499
Probable space group: P M M N
;
_chemical_formula_sum "Si O2"
_cell_formula_units_Z 64
_cell_length_a 17.413823
_cell_length_b 9.421186
_cell_length_c 23.122128
_cell_angle_alpha 90.000000
_cell_angle_beta 90.000000
_cell_angle_gamma 90.000000
_cell_volume 3793.390087
_symmetry_space_group_name_H-M "P M M N"
_symmetry_group_IT_number 59
_space_group.IT_coordinate_system_code '2'
_symmetry_cell_setting 'orthorhombic'
loop_
_space_group_symop_operation_xyz
x,y,z
1/2-x,1/2-y,z
1/2+x,-y,-z
-x,1/2+y,-z
-x,-y,-z
1/2+x,1/2+y,-z
1/2-x,y,z
x,1/2-y,z
loop_
_atom_site_type_symbol
_atom_site_label
_atom_site_fract_x
_atom_site_fract_y
_atom_site_fract_z
Si Si1 0.897191 0.416006 0.566245
Si Si2 0.982146 0.584502 0.734475
Si Si3 0.834353 0.589299 0.665257
Si Si4 0.468892 0.083896 0.136036
Si Si5 0.338519 0.414358 0.538888
Si Si6 0.336984 0.916334 0.068660
Si Si7 0.437909 0.589302 0.968339
Si Si8 0.951460 0.588610 0.363991
O O1 0.879923 0.250000 0.560321
O O2 0.836942 0.485316 0.610518
O O3 0.887316 0.488734 0.504294
O O4 0.982198 0.448124 0.589754
O O5 0.000851 0.750000 0.731218
O O6 0.043766 0.507277 0.693354
O O7 0.896194 0.547054 0.713507
O O8 0.987573 0.527218 0.799876
O O9 0.750000 0.575284 0.693642
O O10 0.849261 0.750000 0.643317
O O11 0.446338 0.250000 0.137822
O O12 0.549108 0.058255 0.100119
O O13 0.395990 0.001236 0.109370
O O14 0.250000 0.460662 0.538580
O O15 0.348810 0.250000 0.520921
O O16 0.370973 0.438933 0.603650
O O17 0.250000 0.970072 0.079145
O O18 0.344089 0.750000 0.083666
O O19 0.356163 0.942578 0.999592
O O20 0.460645 0.750000 0.980552
O O21 0.500000 0.500000 0.000000
O O22 0.959576 0.750000 0.342987
#
# Coordination Sequence:
#
# PCOD8240499 Si02
#       8
#     8   8   8   8   8   8   8   8
#     4  10  19  30  46  68  91 113 141 179 222 268
#     4   9  18  31  47  66  87 115 152 188 220 257
#     4   9  17  29  43  59  84 118 149 176 212 262
#     4   9  17  29  46  67  89 117 153 189 222 259
#     4  10  20  33  49  68  89 114 145 181 223 272
#     4   9  17  28  43  66  95 123 149 180 221 267
#     4   8  14  26  43  62  86 115 146 178 213 254
#     4   9  19  34  49  66  89 118 150 183 221 264
#
# _framework density 16.871452000000001
#
# number of rings (size 3 to 8) (size 9 to 14) (size 15 to 20)
#    0.000    2.875    0.000    1.125    0.000    4.250 
#    0.000    1.250    0.000    0.750    0.000    1.750 
#    0.000    0.000    0.000    0.000    0.000    0.000 
#
# Total GULP energy -793034.064440 kJ/mol
# GULP energy per Si atom -12391.157257 kJ/mol
# Density = 1.683305 g / cm^3
# Si number density = 16.871452 Si / 1000 Ang^3
#
#
#
# Elastic Constant Matrix: (Units=GPa)
#
#
# Indices 1 2 3 4 5 6 
#
# 1 45.2047 24.6859 39.9071 0.0000 0.0000 0.0000
# 2 24.6859 54.6598 46.8117 0.0000 0.0000 0.0000
# 3 39.9071 46.8117 128.0082 0.0000 0.0000 0.0000
# 4 0.0000 0.0000 0.0000 23.5500 0.0000 0.0000
# 5 0.0000 0.0000 0.0000 0.0000 17.0562 0.0000
# 6 0.0000 0.0000 0.0000 0.0000 0.0000 18.0357
#
#
#
# Elastic Compliance Matrix: (Units=1/GPa)
#
#
# Indices 1 2 3 4 5 6 
#
# 1 0.033277 -0.008946 -0.007103 0.000000 0.000000 0.000000
# 2 -0.008946 0.029042 -0.007832 0.000000 0.000000 0.000000
# 3 -0.007103 -0.007832 0.012890 0.000000 0.000000 0.000000
# 4 0.000000 0.000000 0.000000 0.042463 0.000000 0.000000
# 5 0.000000 0.000000 0.000000 0.000000 0.058630 0.000000
# 6 0.000000 0.000000 0.000000 0.000000 0.000000 0.055445
#
#
# Mechanical properties :
#
#
# Convention : Reuss Voigt Hill
#
# Bulk Modulus (GPa) = 36.43100 50.07576 43.25338
# Shear Modulus (GPa) = 17.32148 19.49293 18.40720
#
# Velocity S-wave (km/s) = 3.20765 3.40277 3.30665
# Velocity P-wave (km/s) = 5.94633 6.72188 6.34597
#
# Compressibility (1/GPa) = 0.02744915
#
# Stress axis : x y z
#
# Youngs Moduli (GPa) = 30.05043 34.43242 77.57753
#
# Poissons Ratio (x) = 0.30803 0.55102
# Poissons Ratio (y) = 0.26883 0.60756
# Poissons Ratio (z) = 0.21344 0.26966
#
# Static dielectric constant tensor:
#      x y z
#    x 3.262280 0.000000 0.000000 
#    y 0.000000 3.156470 0.000000 
#    z 0.000000 0.000000 3.340550 
# 
# 
# High freq. dielectric constant tensor:
#      x y z
#    x 1.630410 0.000000 0.000000 
#    y 0.000000 1.651110 0.000000 
#    z 0.000000 0.000000 1.640910 
# 
# From -- ./inp_files/30692.got.cif
#   From: 2010.03.12/outbox.cif.g09.slc.cpg/sg59_16_cif.got.tgz:30692.got - 2010.04.16 16:29:54.
