data_PCOD8240741
_publ_section_title
;
Structure prediction by ZEFSAII (Michael W. Deem and Ramdas Pophale) SiO2 
 PCOD8240741
Probable space group: P M M N
;
_chemical_formula_sum "Si O2"
_cell_formula_units_Z 56
_cell_length_a 9.012573
_cell_length_b 19.162540
_cell_length_c 18.257244
_cell_angle_alpha 90.000000
_cell_angle_beta 90.000000
_cell_angle_gamma 90.000000
_cell_volume 3153.095245
_symmetry_space_group_name_H-M "P M M N"
_symmetry_group_IT_number 59
_space_group.IT_coordinate_system_code '2'
_symmetry_cell_setting 'orthorhombic'
loop_
_space_group_symop_operation_xyz
x,y,z
1/2-x,1/2-y,z
1/2+x,-y,-z
-x,1/2+y,-z
-x,-y,-z
1/2+x,1/2+y,-z
1/2-x,y,z
x,1/2-y,z
loop_
_atom_site_type_symbol
_atom_site_label
_atom_site_fract_x
_atom_site_fract_y
_atom_site_fract_z
Si Si1 0.426168 0.586904 0.146344
Si Si2 0.923516 0.574100 0.004390
Si Si3 0.915896 0.166928 0.580911
Si Si4 0.585008 0.666960 0.559350
Si Si5 0.919478 0.667320 0.274526
Si Si6 0.572646 0.827994 0.720482
Si Si7 0.422703 0.071353 0.156211
O O1 0.250000 0.590659 0.139269
O O2 0.497858 0.616464 0.070359
O O3 0.479770 0.635198 0.211591
O O4 0.485184 0.507744 0.159397
O O5 0.750000 0.566306 0.021637
O O6 0.948635 0.607668 0.923580
O O7 0.000000 0.500000 0.000000
O O8 0.750000 0.137506 0.591650
O O9 0.914472 0.250000 0.578380
O O10 0.980013 0.136804 0.504552
O O11 0.017911 0.140833 0.647666
O O12 0.750000 0.636341 0.547211
O O13 0.592392 0.750000 0.555334
O O14 0.522877 0.645496 0.639629
O O15 0.750000 0.642217 0.266943
O O16 0.931949 0.750000 0.268248
O O17 0.750000 0.826196 0.723530
O O18 0.511221 0.750000 0.735737
O O19 0.503363 0.880155 0.781289
O O20 0.250000 0.065945 0.173160
#
# Coordination Sequence:
#
# PCOD8240741 Si02
#       7
#     8   8   8   8   8   8   8
#     4  10  19  31  48  68  92 122 154 190 233 281
#     4   9  16  28  46  67  91 120 158 199 233 270
#     4   9  16  26  42  64  90 119 148 179 219 267
#     4   8  13  22  39  63  88 115 148 183 217 255
#     4  10  20  33  49  69  92 116 147 190 234 276
#     4   8  13  23  42  68  95 120 148 185 226 264
#     4   8  15  27  44  67  92 120 155 192 228 265
#
# _framework density 17.760327
#
# number of rings (size 3 to 8) (size 9 to 14) (size 15 to 20)
#    0.000    3.143    0.000    3.429    0.000    2.571 
#    0.000    0.714    0.000    8.571    0.000    0.000 
#    0.000    0.000    0.000    0.000    0.000    0.000 
#
# Total GULP energy -693914.195685 kJ/mol
# GULP energy per Si atom -12391.324923 kJ/mol
# Density = 1.771990 g / cm^3
# Si number density = 17.760327 Si / 1000 Ang^3
#
#
#
# Elastic Constant Matrix: (Units=GPa)
#
#
# Indices 1 2 3 4 5 6 
#
# 1 85.3169 18.4437 55.2487 0.0000 0.0000 0.0000
# 2 18.4437 24.3949 33.0168 0.0000 0.0000 0.0000
# 3 55.2487 33.0168 160.8764 0.0000 0.0000 0.0000
# 4 0.0000 0.0000 0.0000 10.2615 0.0000 0.0000
# 5 0.0000 0.0000 0.0000 0.0000 25.2635 0.0000
# 6 0.0000 0.0000 0.0000 0.0000 0.0000 13.7267
#
#
#
# Elastic Compliance Matrix: (Units=1/GPa)
#
#
# Indices 1 2 3 4 5 6 
#
# 1 0.015753 -0.006353 -0.004106 0.000000 0.000000 0.000000
# 2 -0.006353 0.059319 -0.009992 0.000000 0.000000 0.000000
# 3 -0.004106 -0.009992 0.009677 0.000000 0.000000 0.000000
# 4 0.000000 0.000000 0.000000 0.097452 0.000000 0.000000
# 5 0.000000 0.000000 0.000000 0.000000 0.039583 0.000000
# 6 0.000000 0.000000 0.000000 0.000000 0.000000 0.072850
#
#
# Mechanical properties :
#
#
# Convention : Reuss Voigt Hill
#
# Bulk Modulus (GPa) = 22.80676 53.77850 38.29263
# Shear Modulus (GPa) = 14.27946 20.77561 17.52753
#
# Velocity S-wave (km/s) = 2.83858 3.42391 3.14489
# Velocity P-wave (km/s) = 4.85929 6.78062 5.89870
#
# Compressibility (1/GPa) = 0.04384664
#
# Stress axis : x y z
#
# Youngs Moduli (GPa) = 63.47807 16.85791 103.33865
#
# Poissons Ratio (x) = 0.10709 0.42434
# Poissons Ratio (y) = 0.40326 1.03261
# Poissons Ratio (z) = 0.26066 0.16845
#
# Static dielectric constant tensor:
#      x y z
#    x 3.268960 0.000000 0.000000 
#    y 0.000000 2.922780 0.000000 
#    z 0.000000 0.000000 3.829100 
# 
# 
# High freq. dielectric constant tensor:
#      x y z
#    x 1.669500 0.000000 0.000000 
#    y 0.000000 1.626830 0.000000 
#    z 0.000000 0.000000 1.710500 
# 
# From -- ./inp_files/26101.got.cif
#   From: 2010.03.12/outbox.cif.g09.slc.cpg/sg59_14_cif.got.tgz:26101.got - 2010.04.16 16:29:54.
