data_PCOD8240769
_publ_section_title
;
Structure prediction by ZEFSAII (Michael W. Deem and Ramdas Pophale) SiO2 
 PCOD8240769
Probable space group: P M M N
;
_chemical_formula_sum "Si O2"
_cell_formula_units_Z 48
_cell_length_a 28.104455
_cell_length_b 9.083355
_cell_length_c 10.394474
_cell_angle_alpha 90.000000
_cell_angle_beta 90.000000
_cell_angle_gamma 90.000000
_cell_volume 2653.529823
_symmetry_space_group_name_H-M "P M M N"
_symmetry_group_IT_number 59
_space_group.IT_coordinate_system_code '2'
_symmetry_cell_setting 'orthorhombic'
loop_
_space_group_symop_operation_xyz
x,y,z
1/2-x,1/2-y,z
1/2+x,-y,-z
-x,1/2+y,-z
-x,-y,-z
1/2+x,1/2+y,-z
1/2-x,y,z
x,1/2-y,z
loop_
_atom_site_type_symbol
_atom_site_label
_atom_site_fract_x
_atom_site_fract_y
_atom_site_fract_z
Si Si1 0.804067 0.077664 0.641350
Si Si2 0.949949 0.576367 0.492845
Si Si3 0.051026 0.425064 0.007295
Si Si4 0.895723 0.576689 0.242457
Si Si5 0.390826 0.077280 0.257471
Si Si6 0.696868 0.579138 0.373645
O O1 0.750000 0.042695 0.684759
O O2 0.813739 0.250000 0.635404
O O3 0.839865 0.004442 0.743993
O O4 0.814006 0.012683 0.500687
O O5 0.957506 0.750000 0.489706
O O6 0.924584 0.516059 0.364784
O O7 0.918761 0.529532 0.614921
O O8 0.000000 0.500000 0.500000
O O9 0.044082 0.250000 0.002137
O O10 0.082896 0.487674 0.889282
O O11 0.077917 0.474478 0.136398
O O12 0.000000 0.500000 0.000000
O O13 0.901133 0.750000 0.236401
O O14 0.840137 0.532801 0.261396
O O15 0.380730 0.250000 0.251653
O O16 0.750000 0.548938 0.321157
O O17 0.689507 0.750000 0.411269
#
# Coordination Sequence:
#
# PCOD8240769 Si02
#       6
#     8   8   8   8   8   8
#     4  10  20  33  52  80 109 135 169 215 265 313
#     4  10  19  31  48  71 100 130 168 214 256 299
#     4  10  21  36  54  75 105 141 177 215 257 308
#     4   9  17  32  51  74 103 133 166 209 256 301
#     4  10  20  35  53  76 105 138 177 216 256 308
#     4   9  16  30  54  78 102 134 168 205 257 314
#
# _framework density 18.089112
#
# number of rings (size 3 to 8) (size 9 to 14) (size 15 to 20)
#    0.000    2.333    1.667    1.500    0.000    2.333 
#    0.000    1.667    0.000    3.000    0.000    2.333 
#    0.000    0.000    0.000    0.000    0.000    0.000 
#
# Total GULP energy -595139.909360 kJ/mol
# GULP energy per Si atom -12398.748112 kJ/mol
# Density = 1.804794 g / cm^3
# Si number density = 18.089112 Si / 1000 Ang^3
#
#
#
# Elastic Constant Matrix: (Units=GPa)
#
#
# Indices 1 2 3 4 5 6 
#
# 1 168.8461 48.7601 75.7856 0.0000 0.0000 0.0000
# 2 48.7601 40.6604 32.1678 0.0000 0.0000 0.0000
# 3 75.7856 32.1678 126.4958 0.0000 0.0000 0.0000
# 4 0.0000 0.0000 0.0000 10.8809 0.0000 0.0000
# 5 0.0000 0.0000 0.0000 0.0000 34.4794 0.0000
# 6 0.0000 0.0000 0.0000 0.0000 0.0000 33.2823
#
#
#
# Elastic Compliance Matrix: (Units=1/GPa)
#
#
# Indices 1 2 3 4 5 6 
#
# 1 0.010344 -0.009391 -0.003809 0.000000 0.000000 0.000000
# 2 -0.009391 0.039314 -0.004371 0.000000 0.000000 0.000000
# 3 -0.003809 -0.004371 0.011299 0.000000 0.000000 0.000000
# 4 0.000000 0.000000 0.000000 0.091904 0.000000 0.000000
# 5 0.000000 0.000000 0.000000 0.000000 0.029003 0.000000
# 6 0.000000 0.000000 0.000000 0.000000 0.000000 0.030046
#
#
# Mechanical properties :
#
#
# Convention : Reuss Voigt Hill
#
# Bulk Modulus (GPa) = 38.73813 72.15881 55.44847
# Shear Modulus (GPa) = 19.55732 27.68112 23.61922
#
# Velocity S-wave (km/s) = 3.29167 3.91610 3.61739
# Velocity P-wave (km/s) = 5.99237 7.77336 6.94023
#
# Compressibility (1/GPa) = 0.02581436
#
# Stress axis : x y z
#
# Youngs Moduli (GPa) = 96.67044 25.43606 88.50229
#
# Poissons Ratio (x) = 0.23888 0.33713
# Poissons Ratio (y) = 0.90787 0.38685
# Poissons Ratio (z) = 0.36824 0.11118
#
# Static dielectric constant tensor:
#      x y z
#    x 3.584000 0.000000 0.000000 
#    y 0.000000 3.128710 0.000000 
#    z 0.000000 0.000000 3.376620 
# 
# 
# High freq. dielectric constant tensor:
#      x y z
#    x 1.719110 0.000000 0.000000 
#    y 0.000000 1.677160 0.000000 
#    z 0.000000 0.000000 1.686690 
# 
# From -- ./inp_files/12978.got.cif
#   From: 2010.03.12/outbox.cif.g09.slc.cpg/sg59_7_cif.got.tgz:12978.got - 2010.04.16 16:29:54.
