data_PCOD8240585
_publ_section_title
;
Structure prediction by ZEFSAII (Michael W. Deem and Ramdas Pophale) SiO2 
 PCOD8240585
Probable space group: P M M N
;
_chemical_formula_sum "Si O2"
_cell_formula_units_Z 48
_cell_length_a 37.421308
_cell_length_b 8.866463
_cell_length_c 7.657902
_cell_angle_alpha 90.000000
_cell_angle_beta 90.000000
_cell_angle_gamma 90.000000
_cell_volume 2540.850859
_symmetry_space_group_name_H-M "P M M N"
_symmetry_group_IT_number 59
_space_group.IT_coordinate_system_code '2'
_symmetry_cell_setting 'orthorhombic'
loop_
_space_group_symop_operation_xyz
x,y,z
1/2-x,1/2-y,z
1/2+x,-y,-z
-x,1/2+y,-z
-x,-y,-z
1/2+x,1/2+y,-z
1/2-x,y,z
x,1/2-y,z
loop_
_atom_site_type_symbol
_atom_site_label
_atom_site_fract_x
_atom_site_fract_y
_atom_site_fract_z
Si Si1 0.083963 0.572153 0.520122
Si Si2 0.963520 0.073855 0.806200
Si Si3 0.289824 0.070860 0.778883
Si Si4 0.710227 0.570897 0.832973
Si Si5 0.045357 0.073289 0.837671
Si Si6 0.659911 0.929886 0.526967
O O1 0.086917 0.750000 0.537006
O O2 0.055756 0.524226 0.371431
O O3 0.072141 0.506390 0.705152
O O4 0.121590 0.504708 0.465271
O O5 0.958946 0.250000 0.845713
O O6 0.004984 0.029774 0.785380
O O7 0.946121 0.983601 0.967175
O O8 0.250000 0.011105 0.731739
O O9 0.289180 0.250000 0.770717
O O10 0.318842 0.009247 0.642561
O O11 0.300748 0.015844 0.972962
O O12 0.750000 0.510736 0.786186
O O13 0.710948 0.750000 0.825783
O O14 0.681478 0.509819 0.695447
O O15 0.052433 0.250000 0.828945
O O16 0.655932 0.750000 0.525567
#
# Coordination Sequence:
#
# PCOD8240585 Si02
#       6
#     8   8   8   8   8   8
#     4  11  23  37  52  74 110 149 177 207 257 318
#     4   9  20  38  58  80 106 138 174 214 264 318
#     4   8  14  26  46  72  99 126 161 210 263 306
#     4   8  14  26  46  71  96 123 160 210 262 303
#     4  10  20  36  60  84 103 130 175 226 266 305
#     4  10  19  30  47  73 101 130 169 213 255 301
#
# _framework density 18.891309
#
# number of rings (size 3 to 8) (size 9 to 14) (size 15 to 20)
#    0.000    2.667    0.000    3.000    0.000    5.333 
#    0.000    1.667    0.000    2.000    0.000    2.333 
#    0.000    0.000    0.000    0.000    0.000    0.000 
#
# Total GULP energy -595162.267402 kJ/mol
# GULP energy per Si atom -12399.213904 kJ/mol
# Density = 1.884831 g / cm^3
# Si number density = 18.891309 Si / 1000 Ang^3
#
#
#
# Elastic Constant Matrix: (Units=GPa)
#
#
# Indices 1 2 3 4 5 6 
#
# 1 66.0057 19.3849 28.3553 0.0000 0.0000 0.0000
# 2 19.3849 38.4237 24.4318 0.0000 0.0000 0.0000
# 3 28.3553 24.4318 91.8971 0.0000 0.0000 0.0000
# 4 0.0000 0.0000 0.0000 19.8607 0.0000 0.0000
# 5 0.0000 0.0000 0.0000 0.0000 21.6555 0.0000
# 6 0.0000 0.0000 0.0000 0.0000 0.0000 17.6253
#
#
#
# Elastic Compliance Matrix: (Units=1/GPa)
#
#
# Indices 1 2 3 4 5 6 
#
# 1 0.018917 -0.007019 -0.003971 0.000000 0.000000 0.000000
# 2 -0.007019 0.033924 -0.006853 0.000000 0.000000 0.000000
# 3 -0.003971 -0.006853 0.013929 0.000000 0.000000 0.000000
# 4 0.000000 0.000000 0.000000 0.050351 0.000000 0.000000
# 5 0.000000 0.000000 0.000000 0.000000 0.046178 0.000000
# 6 0.000000 0.000000 0.000000 0.000000 0.000000 0.056737
#
#
# Mechanical properties :
#
#
# Convention : Reuss Voigt Hill
#
# Bulk Modulus (GPa) = 32.17068 37.85226 35.01147
# Shear Modulus (GPa) = 18.79105 20.10527 19.44816
#
# Velocity S-wave (km/s) = 3.15730 3.26584 3.21203
# Velocity P-wave (km/s) = 5.50978 5.85673 5.68590
#
# Compressibility (1/GPa) = 0.03108421
#
# Stress axis : x y z
#
# Youngs Moduli (GPa) = 52.86120 29.47728 71.79238
#
# Poissons Ratio (x) = 0.20690 0.28509
# Poissons Ratio (y) = 0.37103 0.49202
# Poissons Ratio (z) = 0.20991 0.20202
#
# Static dielectric constant tensor:
#      x y z
#    x 3.505540 0.000000 0.000000 
#    y 0.000000 3.064940 0.000000 
#    z 0.000000 0.000000 3.771630 
# 
# 
# High freq. dielectric constant tensor:
#      x y z
#    x 1.732070 0.000000 0.000000 
#    y 0.000000 1.694910 0.000000 
#    z 0.000000 0.000000 1.749110 
# 
# From -- ./inp_files/12962.got.cif
#   From: 2010.03.12/outbox.cif.g09.slc.cpg/sg59_7_cif.got.tgz:12962.got - 2010.04.16 16:29:54.
