data_PCOD8240822
_publ_section_title
;
Structure prediction by ZEFSAII (Michael W. Deem and Ramdas Pophale) SiO2 
 PCOD8240822
Probable space group: P M M N
;
_chemical_formula_sum "Si O2"
_cell_formula_units_Z 64
_cell_length_a 29.479141
_cell_length_b 8.849286
_cell_length_c 14.875377
_cell_angle_alpha 90.000000
_cell_angle_beta 90.000000
_cell_angle_gamma 90.000000
_cell_volume 3880.529925
_symmetry_space_group_name_H-M "P M M N"
_symmetry_group_IT_number 59
_space_group.IT_coordinate_system_code '2'
_symmetry_cell_setting 'orthorhombic'
loop_
_space_group_symop_operation_xyz
x,y,z
1/2-x,1/2-y,z
1/2+x,-y,-z
-x,1/2+y,-z
-x,-y,-z
1/2+x,1/2+y,-z
1/2-x,y,z
x,1/2-y,z
loop_
_atom_site_type_symbol
_atom_site_label
_atom_site_fract_x
_atom_site_fract_y
_atom_site_fract_z
Si Si1 0.389772 0.071080 0.036208
Si Si2 0.033144 0.425627 0.377866
Si Si3 0.437139 0.571807 0.866449
Si Si4 0.111580 0.424978 0.703546
Si Si5 0.036832 0.070925 0.176448
Si Si6 0.066467 0.575713 0.547636
Si Si7 0.300360 0.421107 0.805358
Si Si8 0.698967 0.072988 0.009075
O O1 0.388739 0.250000 0.035573
O O2 0.421581 0.009204 0.116590
O O3 0.338740 0.009607 0.052135
O O4 0.409185 0.015935 0.941556
O O5 0.045741 0.250000 0.384759
O O6 0.041235 0.492132 0.277893
O O7 0.065547 0.516795 0.445453
O O8 0.981184 0.453740 0.403629
O O9 0.431274 0.750000 0.881028
O O10 0.418728 0.526739 0.769070
O O11 0.489766 0.520790 0.870344
O O12 0.097685 0.250000 0.713516
O O13 0.104123 0.481438 0.602048
O O14 0.164560 0.451124 0.725269
O O15 0.037185 0.250000 0.182677
O O16 0.080176 0.750000 0.547295
O O17 0.250000 0.448991 0.766336
O O18 0.305481 0.250000 0.842634
O O19 0.310546 0.533373 0.887230
O O20 0.750000 0.020675 0.981480
O O21 0.693238 0.250000 0.996016
#
# Coordination Sequence:
#
# PCOD8240822 Si02
#       8
#     8   8   8   8   8   8   8   8
#     4  11  21  33  49  71  97 130 168 202 242 292
#     4   9  17  33  50  67  93 125 161 201 240 280
#     4  11  20  33  48  67  99 135 168 202 236 279
#     4  11  20  30  48  73  98 129 165 198 238 292
#     4   9  19  34  50  68  96 133 168 203 243 283
#     4  10  19  31  49  71  96 125 157 197 242 287
#     4   9  18  32  49  69  95 125 159 201 243 285
#     4  10  20  33  49  69  94 125 161 201 247 292
#
# _framework density 16.492591999999998
#
# number of rings (size 3 to 8) (size 9 to 14) (size 15 to 20)
#    0.000    2.000    2.500    2.250    0.000    1.750 
#    0.000    3.125    0.000    0.000    0.000    0.875 
#    0.000    3.000    0.000    0.000    0.000    0.000 
#
# Total GULP energy -793611.651842 kJ/mol
# GULP energy per Si atom -12400.182060 kJ/mol
# Density = 1.645505 g / cm^3
# Si number density = 16.492592 Si / 1000 Ang^3
#
#
#
# Elastic Constant Matrix: (Units=GPa)
#
#
# Indices 1 2 3 4 5 6 
#
# 1 113.4749 36.6893 41.1252 0.0000 0.0000 0.0000
# 2 36.6893 55.3395 17.8268 0.0000 0.0000 0.0000
# 3 41.1252 17.8268 65.7150 0.0000 0.0000 0.0000
# 4 0.0000 0.0000 0.0000 21.4163 0.0000 0.0000
# 5 0.0000 0.0000 0.0000 0.0000 22.6820 0.0000
# 6 0.0000 0.0000 0.0000 0.0000 0.0000 22.2610
#
#
#
# Elastic Compliance Matrix: (Units=1/GPa)
#
#
# Indices 1 2 3 4 5 6 
#
# 1 0.013364 -0.006756 -0.006530 0.000000 0.000000 0.000000
# 2 -0.006756 0.023216 -0.002070 0.000000 0.000000 0.000000
# 3 -0.006530 -0.002070 0.019866 0.000000 0.000000 0.000000
# 4 0.000000 0.000000 0.000000 0.046693 0.000000 0.000000
# 5 0.000000 0.000000 0.000000 0.000000 0.044088 0.000000
# 6 0.000000 0.000000 0.000000 0.000000 0.000000 0.044922
#
#
# Mechanical properties :
#
#
# Convention : Reuss Voigt Hill
#
# Bulk Modulus (GPa) = 38.86118 47.31243 43.08680
# Shear Modulus (GPa) = 21.60396 22.53106 22.06751
#
# Velocity S-wave (km/s) = 3.62321 3.70013 3.66187
# Velocity P-wave (km/s) = 6.41229 6.85595 6.63783
#
# Compressibility (1/GPa) = 0.02573262
#
# Stress axis : x y z
#
# Youngs Moduli (GPa) = 74.82947 43.07303 50.33850
#
# Poissons Ratio (x) = 0.29101 0.32873
# Poissons Ratio (y) = 0.50557 0.10419
# Poissons Ratio (z) = 0.48866 0.08915
#
# Static dielectric constant tensor:
#      x y z
#    x 3.272560 0.000000 0.000000 
#    y 0.000000 3.075780 0.000000 
#    z 0.000000 0.000000 3.064120 
# 
# 
# High freq. dielectric constant tensor:
#      x y z
#    x 1.625850 0.000000 0.000000 
#    y 0.000000 1.636640 0.000000 
#    z 0.000000 0.000000 1.611270 
# 
# From -- ./inp_files/21929.got.cif
#   From: 2010.03.12/outbox.cif.g09.slc.cpg/sg59_11_cif.got.tgz:21929.got - 2010.04.16 16:29:54.
