data_PCOD8240447
_publ_section_title
;
Structure prediction by ZEFSAII (Michael W. Deem and Ramdas Pophale) SiO2 
 PCOD8240447
Probable space group: P M M N
;
_chemical_formula_sum "Si O2"
_cell_formula_units_Z 64
_cell_length_a 9.282947
_cell_length_b 13.808918
_cell_length_c 31.329402
_cell_angle_alpha 90.000000
_cell_angle_beta 90.000000
_cell_angle_gamma 90.000000
_cell_volume 4016.036275
_symmetry_space_group_name_H-M "P M M N"
_symmetry_group_IT_number 59
_space_group.IT_coordinate_system_code '2'
_symmetry_cell_setting 'orthorhombic'
loop_
_space_group_symop_operation_xyz
x,y,z
1/2-x,1/2-y,z
1/2+x,-y,-z
-x,1/2+y,-z
-x,-y,-z
1/2+x,1/2+y,-z
1/2-x,y,z
x,1/2-y,z
loop_
_atom_site_type_symbol
_atom_site_label
_atom_site_fract_x
_atom_site_fract_y
_atom_site_fract_z
Si Si1 0.418840 0.136965 0.314983
Si Si2 0.918158 0.950961 0.939151
Si Si3 0.917101 0.141712 0.985433
Si Si4 0.913340 0.364200 0.479361
Si Si5 0.912639 0.135025 0.231747
Si Si6 0.584259 0.857615 0.439258
Si Si7 0.917245 0.862581 0.850603
Si Si8 0.583263 0.457574 0.391605
O O1 0.250000 0.116930 0.310069
O O2 0.450700 0.250000 0.322961
O O3 0.497763 0.098594 0.272512
O O4 0.480882 0.075968 0.353919
O O5 0.750000 0.930666 0.944921
O O6 0.966318 0.925702 0.891248
O O7 0.958088 0.063267 0.948956
O O8 0.997602 0.879303 0.971371
O O9 0.750000 0.133135 0.997033
O O10 0.955355 0.250000 0.968937
O O11 0.750000 0.398214 0.486610
O O12 0.928752 0.250000 0.476405
O O13 0.970334 0.406356 0.434844
O O14 0.004250 0.402598 0.519598
O O15 0.750000 0.093910 0.233873
O O16 0.912126 0.250000 0.231245
O O17 0.990021 0.097397 0.188951
O O18 0.750000 0.853865 0.452452
O O19 0.526649 0.750000 0.427426
O O20 0.562239 0.926960 0.398343
O O21 0.750000 0.878155 0.839523
O O22 0.948967 0.750000 0.860143
O O23 0.750000 0.431320 0.381306
#
# Coordination Sequence:
#
# PCOD8240447 Si02
#       8
#     8   8   8   8   8   8   8   8
#     4  10  20  32  46  66  91 115 139 170 209 255
#     4   9  17  28  42  61  85 116 152 185 220 261
#     4   9  17  28  41  59  86 118 151 188 225 258
#     4   9  17  28  42  61  85 113 144 177 212 249
#     4   9  17  29  45  64  87 114 139 166 207 258
#     4   9  18  31  45  62  85 113 146 182 215 246
#     4   9  16  26  41  61  85 112 142 176 212 252
#     4  10  19  30  45  64  87 116 146 175 210 252
#
# _framework density 15.936111
#
# number of rings (size 3 to 8) (size 9 to 14) (size 15 to 20)
#    0.000    2.750    0.000    1.875    0.000    5.000 
#    0.000    2.500    0.000    0.000    0.000    0.875 
#    0.000    3.000    0.000    0.000    0.000    0.000 
#
# Total GULP energy -793497.489070 kJ/mol
# GULP energy per Si atom -12398.398267 kJ/mol
# Density = 1.589984 g / cm^3
# Si number density = 15.936111 Si / 1000 Ang^3
#
#
#
# Elastic Constant Matrix: (Units=GPa)
#
#
# Indices 1 2 3 4 5 6 
#
# 1 72.8438 31.3446 64.4511 0.0000 0.0000 0.0000
# 2 31.3446 60.4529 52.0592 0.0000 0.0000 0.0000
# 3 64.4511 52.0592 131.6256 0.0000 0.0000 0.0000
# 4 0.0000 0.0000 0.0000 21.5065 0.0000 0.0000
# 5 0.0000 0.0000 0.0000 0.0000 32.1226 0.0000
# 6 0.0000 0.0000 0.0000 0.0000 0.0000 16.8630
#
#
#
# Elastic Compliance Matrix: (Units=1/GPa)
#
#
# Indices 1 2 3 4 5 6 
#
# 1 0.024737 -0.003632 -0.010676 0.000000 0.000000 0.000000
# 2 -0.003632 0.025619 -0.008354 0.000000 0.000000 0.000000
# 3 -0.010676 -0.008354 0.016129 0.000000 0.000000 0.000000
# 4 0.000000 0.000000 0.000000 0.046497 0.000000 0.000000
# 5 0.000000 0.000000 0.000000 0.000000 0.031131 0.000000
# 6 0.000000 0.000000 0.000000 0.000000 0.000000 0.059302
#
#
# Mechanical properties :
#
#
# Convention : Reuss Voigt Hill
#
# Bulk Modulus (GPa) = 47.25807 62.29246 54.77527
# Shear Modulus (GPa) = 19.54705 21.90292 20.72499
#
# Velocity S-wave (km/s) = 3.50607 3.71134 3.61016
# Velocity P-wave (km/s) = 6.79037 7.58545 7.19890
#
# Compressibility (1/GPa) = 0.02116041
#
# Stress axis : x y z
#
# Youngs Moduli (GPa) = 40.42543 39.03309 62.00044
#
# Poissons Ratio (x) = 0.14178 0.66191
# Poissons Ratio (y) = 0.14684 0.51795
# Poissons Ratio (z) = 0.43158 0.32608
#
# Static dielectric constant tensor:
#      x y z
#    x 3.103810 0.000000 0.000000 
#    y 0.000000 3.042890 0.000000 
#    z 0.000000 0.000000 2.995340 
# 
# 
# High freq. dielectric constant tensor:
#      x y z
#    x 1.615810 0.000000 0.000000 
#    y 0.000000 1.591250 0.000000 
#    z 0.000000 0.000000 1.600120 
# 
# From -- ./inp_files/33215.got.cif
#   From: 2010.03.12/outbox.cif.g09.slc.cpg/sg59_17_cif.got.tgz:33215.got - 2010.04.16 16:29:54.
