data_PCOD8240418
_publ_section_title
;
Structure prediction by ZEFSAII (Michael W. Deem and Ramdas Pophale) SiO2 
 PCOD8240418
Probable space group: P M M N
;
_chemical_formula_sum "Si O2"
_cell_formula_units_Z 64
_cell_length_a 9.005078
_cell_length_b 25.336824
_cell_length_c 18.427934
_cell_angle_alpha 90.000000
_cell_angle_beta 90.000000
_cell_angle_gamma 90.000000
_cell_volume 4204.518829
_symmetry_space_group_name_H-M "P M M N"
_symmetry_group_IT_number 59
_space_group.IT_coordinate_system_code '2'
_symmetry_cell_setting 'orthorhombic'
loop_
_space_group_symop_operation_xyz
x,y,z
1/2-x,1/2-y,z
1/2+x,-y,-z
-x,1/2+y,-z
-x,-y,-z
1/2+x,1/2+y,-z
1/2-x,y,z
x,1/2-y,z
loop_
_atom_site_type_symbol
_atom_site_label
_atom_site_fract_x
_atom_site_fract_y
_atom_site_fract_z
Si Si1 0.924002 0.004233 0.613970
Si Si2 0.423602 0.101642 0.182717
Si Si3 0.424575 0.691990 0.560660
Si Si4 0.916444 0.041364 0.900024
Si Si5 0.576733 0.420518 0.482917
Si Si6 0.418199 0.309349 0.291779
Si Si7 0.573760 0.502553 0.235137
Si Si8 0.584819 0.925988 0.969529
O O1 0.750000 0.996757 0.629033
O O2 0.985133 0.949666 0.580402
O O3 0.957160 0.052789 0.559937
O O4 0.007161 0.019461 0.687645
O O5 0.250000 0.085048 0.189757
O O6 0.462730 0.155079 0.223789
O O7 0.463056 0.111596 0.097650
O O8 0.523683 0.056620 0.218039
O O9 0.250000 0.697032 0.560563
O O10 0.490555 0.750000 0.535685
O O11 0.472303 0.641518 0.511545
O O12 0.475197 0.678223 0.641543
O O13 0.750000 0.058724 0.880254
O O14 0.013671 0.042522 0.826718
O O15 0.922252 0.984079 0.935450
O O16 0.979622 0.081673 0.960757
O O17 0.750000 0.425527 0.462561
O O18 0.250000 0.320626 0.317384
O O19 0.437847 0.250000 0.264096
O O20 0.750000 0.506221 0.237544
O O21 0.750000 0.913111 0.996889
#
# Coordination Sequence:
#
# PCOD8240418 Si02
#       8
#     8   8   8   8   8   8   8   8
#     4  10  19  30  43  59  82 110 138 169 204 243
#     4   9  17  28  41  57  79 108 139 169 200 235
#     4   9  17  29  44  61  81 105 134 169 206 242
#     4   9  16  26  39  55  77 103 130 160 193 228
#     4   9  18  31  45  61  81 107 138 169 203 245
#     4   9  17  28  41  58  80 106 136 168 200 233
#     4  11  20  28  40  58  80 106 137 168 199 239
#     4   8  14  24  37  54  76 102 131 160 191 226
#
# _framework density 15.221717
#
# number of rings (size 3 to 8) (size 9 to 14) (size 15 to 20)
#    0.000    2.750    0.000    3.375    0.000    6.500 
#    0.000    0.000    0.000    0.000    0.000    0.000 
#    0.000    1.000    0.000    1.750    0.000    2.750 
#
# Total GULP energy -793188.573454 kJ/mol
# GULP energy per Si atom -12393.571460 kJ/mol
# Density = 1.518707 g / cm^3
# Si number density = 15.221717 Si / 1000 Ang^3
#
#
#
# Elastic Constant Matrix: (Units=GPa)
#
#
# Indices 1 2 3 4 5 6 
#
# 1 69.4085 25.4700 44.0661 0.0000 0.0000 0.0000
# 2 25.4700 79.5077 42.7833 0.0000 0.0000 0.0000
# 3 44.0661 42.7833 99.8804 0.0000 0.0000 0.0000
# 4 0.0000 0.0000 0.0000 19.5975 0.0000 0.0000
# 5 0.0000 0.0000 0.0000 0.0000 26.7512 0.0000
# 6 0.0000 0.0000 0.0000 0.0000 0.0000 14.2524
#
#
#
# Elastic Compliance Matrix: (Units=1/GPa)
#
#
# Indices 1 2 3 4 5 6 
#
# 1 0.020302 -0.002188 -0.008020 0.000000 0.000000 0.000000
# 2 -0.002188 0.016581 -0.006137 0.000000 0.000000 0.000000
# 3 -0.008020 -0.006137 0.016179 0.000000 0.000000 0.000000
# 4 0.000000 0.000000 0.000000 0.051027 0.000000 0.000000
# 5 0.000000 0.000000 0.000000 0.000000 0.037382 0.000000
# 6 0.000000 0.000000 0.000000 0.000000 0.000000 0.070163
#
#
# Mechanical properties :
#
#
# Convention : Reuss Voigt Hill
#
# Bulk Modulus (GPa) = 49.08705 52.60395 50.84550
# Shear Modulus (GPa) = 19.91131 21.21870 20.56501
#
# Velocity S-wave (km/s) = 3.62067 3.73765 3.67962
# Velocity P-wave (km/s) = 7.05670 7.29796 7.17834
#
# Compressibility (1/GPa) = 0.02037197
#
# Stress axis : x y z
#
# Youngs Moduli (GPa) = 49.25625 60.31132 61.80910
#
# Poissons Ratio (x) = 0.13198 0.49569
# Poissons Ratio (y) = 0.10779 0.37931
# Poissons Ratio (z) = 0.39502 0.37012
#
# Static dielectric constant tensor:
#      x y z
#    x 3.005540 0.000000 0.000000 
#    y 0.000000 2.894280 0.000000 
#    z 0.000000 0.000000 3.042700 
# 
# 
# High freq. dielectric constant tensor:
#      x y z
#    x 1.589050 0.000000 0.000000 
#    y 0.000000 1.543700 0.000000 
#    z 0.000000 0.000000 1.576990 
# 
# From -- ./inp_files/26629.got.cif
#   From: 2010.03.12/outbox.cif.g09.slc.cpg/sg59_14_cif.got.tgz:26629.got - 2010.04.16 16:29:54.
