data_PCOD8240416
_publ_section_title
;
Structure prediction by ZEFSAII (Michael W. Deem and Ramdas Pophale) SiO2 
 PCOD8240416
Probable space group: P M M N
;
_chemical_formula_sum "Si O2"
_cell_formula_units_Z 64
_cell_length_a 8.961301
_cell_length_b 14.677717
_cell_length_c 24.888378
_cell_angle_alpha 90.000000
_cell_angle_beta 90.000000
_cell_angle_gamma 90.000000
_cell_volume 3273.604198
_symmetry_space_group_name_H-M "P M M N"
_symmetry_group_IT_number 59
_space_group.IT_coordinate_system_code '2'
_symmetry_cell_setting 'orthorhombic'
loop_
_space_group_symop_operation_xyz
x,y,z
1/2-x,1/2-y,z
1/2+x,-y,-z
-x,1/2+y,-z
-x,-y,-z
1/2+x,1/2+y,-z
1/2-x,y,z
x,1/2-y,z
loop_
_atom_site_type_symbol
_atom_site_label
_atom_site_fract_x
_atom_site_fract_y
_atom_site_fract_z
Si Si1 0.577759 0.455699 0.745954
Si Si2 0.074595 0.854289 0.584326
Si Si3 0.076257 0.508265 0.057094
Si Si4 0.917914 0.351011 0.111367
Si Si5 0.072699 0.850924 0.463812
Si Si6 0.072112 0.977643 0.369811
Si Si7 0.571981 0.354517 0.851261
Si Si8 0.917842 0.848065 0.781451
O O1 0.750000 0.430904 0.750308
O O2 0.518768 0.429110 0.686321
O O3 0.503941 0.402276 0.796806
O O4 0.549581 0.564537 0.745172
O O5 0.250000 0.868686 0.590661
O O6 0.031212 0.750000 0.597361
O O7 0.022261 0.879727 0.523622
O O8 0.990396 0.920056 0.625623
O O9 0.250000 0.521758 0.047512
O O10 0.015681 0.590166 0.095813
O O11 0.043155 0.412806 0.084815
O O12 0.000000 0.500000 0.000000
O O13 0.750000 0.389981 0.103564
O O14 0.927704 0.250000 0.085817
O O15 0.955569 0.346952 0.173720
O O16 0.250000 0.850482 0.460843
O O17 0.011828 0.750000 0.450898
O O18 0.006286 0.918867 0.419139
O O19 0.250000 0.983536 0.370406
O O20 0.750000 0.358504 0.849982
O O21 0.515082 0.250000 0.854339
O O22 0.750000 0.857725 0.806148
O O23 0.929223 0.750000 0.750254
#
# Coordination Sequence:
#
# PCOD8240416 Si02
#       8
#     8   8   8   8   8   8   8   8
#     4   9  17  30  48  76 107 135 168 209 262 317
#     4   9  18  33  50  67  97 142 180 211 260 324
#     4  11  22  37  58  84 113 144 178 218 265 315
#     4  10  20  34  54  80 107 135 172 218 263 308
#     4   8  15  29  48  71 100 134 172 216 267 318
#     4  10  19  29  49  79 105 129 168 223 268 306
#     4   9  18  34  56  80 107 140 175 211 255 309
#     4   9  16  29  50  72  97 132 169 206 256 317
#
# _framework density 19.550317
#
# number of rings (size 3 to 8) (size 9 to 14) (size 15 to 20)
#    0.000    2.625    1.250    1.875    0.000    2.500 
#    0.000    5.625    0.000    3.750    0.000    0.000 
#    0.000    0.000    0.000    0.000    0.000    0.000 
#
# Total GULP energy -792855.779004 kJ/mol
# GULP energy per Si atom -12388.371547 kJ/mol
# Density = 1.950582 g / cm^3
# Si number density = 19.550317 Si / 1000 Ang^3
#
#
#
# Elastic Constant Matrix: (Units=GPa)
#
#
# Indices 1 2 3 4 5 6 
#
# 1 26.0929 20.5206 19.5762 0.0000 0.0000 0.0000
# 2 20.5206 106.7463 57.5675 0.0000 0.0000 0.0000
# 3 19.5762 57.5675 122.6943 0.0000 0.0000 0.0000
# 4 0.0000 0.0000 0.0000 16.8462 0.0000 0.0000
# 5 0.0000 0.0000 0.0000 0.0000 18.7787 0.0000
# 6 0.0000 0.0000 0.0000 0.0000 0.0000 21.8498
#
#
#
# Elastic Compliance Matrix: (Units=1/GPa)
#
#
# Indices 1 2 3 4 5 6 
#
# 1 0.046821 -0.006656 -0.004347 0.000000 0.000000 0.000000
# 2 -0.006656 0.013488 -0.005266 0.000000 0.000000 0.000000
# 3 -0.004347 -0.005266 0.011315 0.000000 0.000000 0.000000
# 4 0.000000 0.000000 0.000000 0.059361 0.000000 0.000000
# 5 0.000000 0.000000 0.000000 0.000000 0.053252 0.000000
# 6 0.000000 0.000000 0.000000 0.000000 0.000000 0.045767
#
#
# Mechanical properties :
#
#
# Convention : Reuss Voigt Hill
#
# Bulk Modulus (GPa) = 25.58611 50.09578 37.84095
# Shear Modulus (GPa) = 18.14416 22.01954 20.08185
#
# Velocity S-wave (km/s) = 3.04974 3.35968 3.20845
# Velocity P-wave (km/s) = 5.05143 6.38197 5.75528
#
# Compressibility (1/GPa) = 0.03908370
#
# Stress axis : x y z
#
# Youngs Moduli (GPa) = 21.35798 74.14183 88.37906
#
# Poissons Ratio (x) = 0.49350 0.38421
# Poissons Ratio (y) = 0.14216 0.46543
# Poissons Ratio (z) = 0.09285 0.39045
#
# Static dielectric constant tensor:
#      x y z
#    x 3.094740 0.000000 0.000000 
#    y 0.000000 5.203190 0.000000 
#    z 0.000000 0.000000 4.266660 
# 
# 
# High freq. dielectric constant tensor:
#      x y z
#    x 1.713490 0.000000 0.000000 
#    y 0.000000 1.767210 0.000000 
#    z 0.000000 0.000000 1.758450 
# 
# From -- ./inp_files/31674.got.cif
#   From: 2010.03.12/outbox.cif.g09.slc.cpg/sg59_16_cif.got.tgz:31674.got - 2010.04.16 16:29:54.
