data_PCOD8240912
_publ_section_title
;
Structure prediction by ZEFSAII (Michael W. Deem and Ramdas Pophale) SiO2 
 PCOD8240912
Probable space group: P M M N
;
_chemical_formula_sum "Si O2"
_cell_formula_units_Z 56
_cell_length_a 19.861976
_cell_length_b 8.972584
_cell_length_c 17.429870
_cell_angle_alpha 90.000000
_cell_angle_beta 90.000000
_cell_angle_gamma 90.000000
_cell_volume 3106.233746
_symmetry_space_group_name_H-M "P M M N"
_symmetry_group_IT_number 59
_space_group.IT_coordinate_system_code '2'
_symmetry_cell_setting 'orthorhombic'
loop_
_space_group_symop_operation_xyz
x,y,z
1/2-x,1/2-y,z
1/2+x,-y,-z
-x,1/2+y,-z
-x,-y,-z
1/2+x,1/2+y,-z
1/2-x,y,z
x,1/2-y,z
loop_
_atom_site_type_symbol
_atom_site_label
_atom_site_fract_x
_atom_site_fract_y
_atom_site_fract_z
Si Si1 0.454050 0.578131 0.113379
Si Si2 0.824889 0.427116 0.450843
Si Si3 0.171936 0.922539 0.376388
Si Si4 0.582490 0.420574 0.051489
Si Si5 0.676613 0.075918 0.182699
Si Si6 0.918018 0.427607 0.315875
Si Si7 0.564606 0.573681 0.729308
O O1 0.455066 0.750000 0.137805
O O2 0.528323 0.529928 0.088605
O O3 0.426277 0.484274 0.184293
O O4 0.406185 0.550162 0.039090
O O5 0.750000 0.485746 0.427537
O O6 0.823159 0.250000 0.448024
O O7 0.842631 0.478492 0.536984
O O8 0.882016 0.489556 0.393084
O O9 0.250000 0.947588 0.355674
O O10 0.152375 0.750000 0.366995
O O11 0.127257 0.019825 0.320056
O O12 0.558111 0.250000 0.065102
O O13 0.652037 0.451992 0.095689
O O14 0.750000 0.000485 0.192240
O O15 0.682886 0.250000 0.199923
O O16 0.623982 0.008161 0.243705
O O17 0.918249 0.250000 0.315976
O O18 0.994646 0.486332 0.308271
O O19 0.564587 0.750000 0.732169
#
# Coordination Sequence:
#
# PCOD8240912 Si02
#       7
#     8   8   8   8   8   8   8
#     4  10  19  31  50  72  99 135 172 210 256 304
#     4   8  14  27  48  73 101 133 168 206 250 300
#     4   9  19  36  55  74  98 129 168 213 257 306
#     4   9  17  31  49  73 100 129 172 215 252 299
#     4   9  15  25  45  73 104 133 163 205 251 294
#     4   9  16  26  44  74 106 132 164 204 247 297
#     4  11  21  33  51  76 106 133 166 214 257 303
#
# _framework density 18.028262999999999
#
# number of rings (size 3 to 8) (size 9 to 14) (size 15 to 20)
#    0.000    2.714    1.429    2.143    0.000    3.143 
#    0.000    0.714    0.000    3.857    0.000    0.000 
#    0.000    0.000    0.000    0.000    0.000    0.000 
#
# Total GULP energy -694108.634073 kJ/mol
# GULP energy per Si atom -12394.797037 kJ/mol
# Density = 1.798723 g / cm^3
# Si number density = 18.028263 Si / 1000 Ang^3
#
#
#
# Elastic Constant Matrix: (Units=GPa)
#
#
# Indices 1 2 3 4 5 6 
#
# 1 101.1508 29.2101 70.1117 0.0000 0.0000 0.0000
# 2 29.2101 41.3145 35.7849 0.0000 0.0000 0.0000
# 3 70.1117 35.7849 140.9636 0.0000 0.0000 0.0000
# 4 0.0000 0.0000 0.0000 18.6653 0.0000 0.0000
# 5 0.0000 0.0000 0.0000 0.0000 28.1740 0.0000
# 6 0.0000 0.0000 0.0000 0.0000 0.0000 19.3387
#
#
#
# Elastic Compliance Matrix: (Units=1/GPa)
#
#
# Indices 1 2 3 4 5 6 
#
# 1 0.016067 -0.005689 -0.006547 0.000000 0.000000 0.000000
# 2 -0.005689 0.033041 -0.005558 0.000000 0.000000 0.000000
# 3 -0.006547 -0.005558 0.011761 0.000000 0.000000 0.000000
# 4 0.000000 0.000000 0.000000 0.053575 0.000000 0.000000
# 5 0.000000 0.000000 0.000000 0.000000 0.035494 0.000000
# 6 0.000000 0.000000 0.000000 0.000000 0.000000 0.051710
#
#
# Mechanical properties :
#
#
# Convention : Reuss Voigt Hill
#
# Bulk Modulus (GPa) = 39.55545 61.51581 50.53563
# Shear Modulus (GPa) = 20.35298 23.12375 21.73837
#
# Velocity S-wave (km/s) = 3.36363 3.58528 3.47622
# Velocity P-wave (km/s) = 6.08882 7.16484 6.64863
#
# Compressibility (1/GPa) = 0.02528097
#
# Stress axis : x y z
#
# Youngs Moduli (GPa) = 62.23866 30.26539 85.02327
#
# Poissons Ratio (x) = 0.17217 0.55667
# Poissons Ratio (y) = 0.35406 0.47259
# Poissons Ratio (z) = 0.40749 0.16822
#
# Static dielectric constant tensor:
#      x y z
#    x 3.397720 0.000000 0.000000 
#    y 0.000000 2.935630 0.000000 
#    z 0.000000 0.000000 3.589800 
# 
# 
# High freq. dielectric constant tensor:
#      x y z
#    x 1.687200 0.000000 0.000000 
#    y 0.000000 1.654260 0.000000 
#    z 0.000000 0.000000 1.709610 
# 
# From -- ./inp_files/28051.got.cif
#   From: 2010.03.12/outbox.cif.g09.slc.cpg/sg59_15_cif.got.tgz:28051.got - 2010.04.16 16:29:54.
