data_PCOD8240454
_publ_section_title
;
Structure prediction by ZEFSAII (Michael W. Deem and Ramdas Pophale) SiO2 
 PCOD8240454
Probable space group: P M M N
;
_chemical_formula_sum "Si O2"
_cell_formula_units_Z 56
_cell_length_a 9.121617
_cell_length_b 13.582101
_cell_length_c 28.971593
_cell_angle_alpha 90.000000
_cell_angle_beta 90.000000
_cell_angle_gamma 90.000000
_cell_volume 3589.311614
_symmetry_space_group_name_H-M "P M M N"
_symmetry_group_IT_number 59
_space_group.IT_coordinate_system_code '2'
_symmetry_cell_setting 'orthorhombic'
loop_
_space_group_symop_operation_xyz
x,y,z
1/2-x,1/2-y,z
1/2+x,-y,-z
-x,1/2+y,-z
-x,-y,-z
1/2+x,1/2+y,-z
1/2-x,y,z
x,1/2-y,z
loop_
_atom_site_type_symbol
_atom_site_label
_atom_site_fract_x
_atom_site_fract_y
_atom_site_fract_z
Si Si1 0.918993 0.863453 0.975416
Si Si2 0.079446 0.635236 0.336576
Si Si3 0.577785 0.364520 0.844991
Si Si4 0.077899 0.949377 0.432512
Si Si5 0.084654 0.366996 0.753723
Si Si6 0.419665 0.140641 0.484022
Si Si7 0.079539 0.465447 0.929259
O O1 0.750000 0.884672 0.962919
O O2 0.960295 0.750000 0.968512
O O3 0.949545 0.891881 0.028354
O O4 0.022259 0.925773 0.941640
O O5 0.250000 0.616786 0.326734
O O6 0.047681 0.750000 0.345284
O O7 0.022661 0.575059 0.381104
O O8 0.990667 0.593247 0.292872
O O9 0.750000 0.383187 0.842246
O O10 0.540651 0.250000 0.852735
O O11 0.506133 0.404490 0.797811
O O12 0.510848 0.426108 0.886383
O O13 0.250000 0.931188 0.435397
O O14 0.006122 0.874969 0.468653
O O15 0.033274 0.061786 0.444966
O O16 0.250000 0.407762 0.756717
O O17 0.082172 0.250000 0.752735
O O18 0.250000 0.127155 0.496172
O O19 0.453494 0.250000 0.464896
O O20 0.250000 0.471202 0.916259
#
# Coordination Sequence:
#
# PCOD8240454 Si02
#       7
#     8   8   8   8   8   8   8
#     4   9  18  32  47  64  90 122 153 185 219 257
#     4   9  16  26  40  58  81 108 137 169 206 251
#     4  10  19  30  45  65  90 119 148 178 215 261
#     4   9  17  28  42  60  82 111 144 173 207 252
#     4   9  17  28  42  61  85 111 138 171 213 258
#     4   9  17  28  41  59  84 111 140 176 212 245
#     4  10  19  30  46  68  92 118 150 185 221 260
#
# _framework density 15.601879
#
# number of rings (size 3 to 8) (size 9 to 14) (size 15 to 20)
#    0.000    2.714    0.000    2.143    0.000    5.429 
#    0.000    1.429    0.000    0.000    0.000    1.000 
#    0.000    5.714    0.000    0.000    0.000    0.000 
#
# Total GULP energy -694402.148822 kJ/mol
# GULP energy per Si atom -12400.038372 kJ/mol
# Density = 1.556637 g / cm^3
# Si number density = 15.601879 Si / 1000 Ang^3
#
#
#
# Elastic Constant Matrix: (Units=GPa)
#
#
# Indices 1 2 3 4 5 6 
#
# 1 71.4257 33.7479 57.8472 0.0000 0.0000 0.0000
# 2 33.7479 72.6934 46.9784 0.0000 0.0000 0.0000
# 3 57.8472 46.9784 129.3179 0.0000 0.0000 0.0000
# 4 0.0000 0.0000 0.0000 20.9559 0.0000 0.0000
# 5 0.0000 0.0000 0.0000 0.0000 30.5581 0.0000
# 6 0.0000 0.0000 0.0000 0.0000 0.0000 19.7625
#
#
#
# Elastic Compliance Matrix: (Units=1/GPa)
#
#
# Indices 1 2 3 4 5 6 
#
# 1 0.023455 -0.005369 -0.008542 0.000000 0.000000 0.000000
# 2 -0.005369 0.019206 -0.004575 0.000000 0.000000 0.000000
# 3 -0.008542 -0.004575 0.013216 0.000000 0.000000 0.000000
# 4 0.000000 0.000000 0.000000 0.047719 0.000000 0.000000
# 5 0.000000 0.000000 0.000000 0.000000 0.032725 0.000000
# 6 0.000000 0.000000 0.000000 0.000000 0.000000 0.050601
#
#
# Mechanical properties :
#
#
# Convention : Reuss Voigt Hill
#
# Bulk Modulus (GPa) = 52.89644 61.17602 57.03623
# Shear Modulus (GPa) = 21.72070 23.24621 22.48346
#
# Velocity S-wave (km/s) = 3.73525 3.86419 3.80027
# Velocity P-wave (km/s) = 7.25122 7.69448 7.47614
#
# Compressibility (1/GPa) = 0.01890486
#
# Stress axis : x y z
#
# Youngs Moduli (GPa) = 42.63448 52.06758 75.66634
#
# Poissons Ratio (x) = 0.27955 0.64632
# Poissons Ratio (y) = 0.22890 0.34620
# Poissons Ratio (z) = 0.36417 0.23823
#
# Static dielectric constant tensor:
#      x y z
#    x 3.062760 0.000000 0.000000 
#    y 0.000000 2.862430 0.000000 
#    z 0.000000 0.000000 3.010050 
# 
# 
# High freq. dielectric constant tensor:
#      x y z
#    x 1.607300 0.000000 0.000000 
#    y 0.000000 1.568330 0.000000 
#    z 0.000000 0.000000 1.594290 
# 
# From -- ./inp_files/33183.got.cif
#   From: 2010.03.12/outbox.cif.g09.slc.cpg/sg59_17_cif.got.tgz:33183.got - 2010.04.16 16:29:54.
