data_PCOD8240642
_publ_section_title
;
Structure prediction by ZEFSAII (Michael W. Deem and Ramdas Pophale) SiO2 
 PCOD8240642
Probable space group: P M M N
;
_chemical_formula_sum "Si O2"
_cell_formula_units_Z 40
_cell_length_a 21.296803
_cell_length_b 8.803842
_cell_length_c 11.227340
_cell_angle_alpha 90.000000
_cell_angle_beta 90.000000
_cell_angle_gamma 90.000000
_cell_volume 2105.055391
_symmetry_space_group_name_H-M "P M M N"
_symmetry_group_IT_number 59
_space_group.IT_coordinate_system_code '2'
_symmetry_cell_setting 'orthorhombic'
loop_
_space_group_symop_operation_xyz
x,y,z
1/2-x,1/2-y,z
1/2+x,-y,-z
-x,1/2+y,-z
-x,-y,-z
1/2+x,1/2+y,-z
1/2-x,y,z
x,1/2-y,z
loop_
_atom_site_type_symbol
_atom_site_label
_atom_site_fract_x
_atom_site_fract_y
_atom_site_fract_z
Si Si1 0.591321 0.418931 0.037178
Si Si2 0.821177 0.071359 0.623385
Si Si3 0.498134 0.919586 0.187508
Si Si4 0.946814 0.929436 0.583251
Si Si5 0.678122 0.582433 0.870291
O O1 0.613674 0.250000 0.072702
O O2 0.563781 0.498926 0.155508
O O3 0.540694 0.409692 0.932858
O O4 0.649095 0.517793 0.991210
O O5 0.750000 0.019799 0.585163
O O6 0.829030 0.250000 0.606528
O O7 0.876315 0.988206 0.547745
O O8 0.832912 0.031957 0.761314
O O9 0.510453 0.750000 0.238790
O O10 0.460639 0.020758 0.281872
O O11 0.948391 0.750000 0.570060
O O12 0.000000 0.000000 0.500000
O O13 0.750000 0.599756 0.900634
O O14 0.650028 0.750000 0.838841
#
# Coordination Sequence:
#
# PCOD8240642 Si02
#       5
#     8   8   8   8   8
#     4  10  19  31  51  76 107 142 175 216 265 321
#     4  10  20  35  55  80 111 144 181 227 279 332
#     4  10  20  34  52  76 107 140 177 218 267 321
#     4  12  24  38  58  82 113 147 188 234 279 331
#     4  10  19  30  48  76 109 144 180 220 269 324
#
# _framework density 19.001877
#
# number of rings (size 3 to 8) (size 9 to 14) (size 15 to 20)
#    0.000    1.600    2.000    4.200    0.000    4.000 
#    0.000    0.000    0.000    1.200    0.000    0.000 
#    0.000    0.000    0.000    0.000    0.000    0.000 
#
# Total GULP energy -495861.326174 kJ/mol
# GULP energy per Si atom -12396.533154 kJ/mol
# Density = 1.895863 g / cm^3
# Si number density = 19.001877 Si / 1000 Ang^3
#
#
#
# Elastic Constant Matrix: (Units=GPa)
#
#
# Indices 1 2 3 4 5 6 
#
# 1 122.9509 61.2468 33.0505 0.0000 0.0000 0.0000
# 2 61.2468 148.8227 23.4596 0.0000 0.0000 0.0000
# 3 33.0505 23.4596 26.8737 0.0000 0.0000 0.0000
# 4 0.0000 0.0000 0.0000 25.3257 0.0000 0.0000
# 5 0.0000 0.0000 0.0000 0.0000 33.4858 0.0000
# 6 0.0000 0.0000 0.0000 0.0000 0.0000 33.3232
#
#
#
# Elastic Compliance Matrix: (Units=1/GPa)
#
#
# Indices 1 2 3 4 5 6 
#
# 1 0.013490 -0.003405 -0.013619 0.000000 0.000000 0.000000
# 2 -0.003405 0.008651 -0.003364 0.000000 0.000000 0.000000
# 3 -0.013619 -0.003364 0.056897 0.000000 0.000000 0.000000
# 4 0.000000 0.000000 0.000000 0.039486 0.000000 0.000000
# 5 0.000000 0.000000 0.000000 0.000000 0.029863 0.000000
# 6 0.000000 0.000000 0.000000 0.000000 0.000000 0.030009
#
#
# Mechanical properties :
#
#
# Convention : Reuss Voigt Hill
#
# Bulk Modulus (GPa) = 26.13542 59.35122 42.74332
# Shear Modulus (GPa) = 21.55858 30.48629 26.02244
#
# Velocity S-wave (km/s) = 3.37196 4.00982 3.70465
# Velocity P-wave (km/s) = 5.37998 7.26226 6.39080
#
# Compressibility (1/GPa) = 0.03826226
#
# Stress axis : x y z
#
# Youngs Moduli (GPa) = 74.12699 115.59264 17.57572
#
# Poissons Ratio (x) = 0.39360 0.23936
# Poissons Ratio (y) = 0.25241 0.05913
# Poissons Ratio (z) = 1.00950 0.38888
#
# Static dielectric constant tensor:
#      x y z
#    x 3.737260 0.000000 0.000000 
#    y 0.000000 3.855580 0.000000 
#    z 0.000000 0.000000 3.104660 
# 
# 
# High freq. dielectric constant tensor:
#      x y z
#    x 1.741410 0.000000 0.000000 
#    y 0.000000 1.760770 0.000000 
#    z 0.000000 0.000000 1.684830 
# 
# From -- ./inp_files/18144.got.cif
#   From: 2010.03.12/outbox.cif.g09.slc.cpg/sg59_10_cif.got.tgz:18144.got - 2010.04.16 16:29:54.
