data_PCOD8240188
_publ_section_title
;
Structure prediction by ZEFSAII (Michael W. Deem and Ramdas Pophale) SiO2 
 PCOD8240188
Probable space group: P M M N
;
_chemical_formula_sum "Si O2"
_cell_formula_units_Z 48
_cell_length_a 16.716648
_cell_length_b 18.321046
_cell_length_c 8.719803
_cell_angle_alpha 90.000000
_cell_angle_beta 90.000000
_cell_angle_gamma 90.000000
_cell_volume 2670.583345
_symmetry_space_group_name_H-M "P M M N"
_symmetry_group_IT_number 59
_space_group.IT_coordinate_system_code '2'
_symmetry_cell_setting 'orthorhombic'
loop_
_space_group_symop_operation_xyz
x,y,z
1/2-x,1/2-y,z
1/2+x,-y,-z
-x,1/2+y,-z
-x,-y,-z
1/2+x,1/2+y,-z
1/2-x,y,z
x,1/2-y,z
loop_
_atom_site_type_symbol
_atom_site_label
_atom_site_fract_x
_atom_site_fract_y
_atom_site_fract_z
Si Si1 0.085960 0.428247 0.100063
Si Si2 0.160285 0.168498 0.357631
Si Si3 0.031949 0.387181 0.571511
Si Si4 0.842479 0.070113 0.036693
Si Si5 0.523332 0.335144 0.890103
Si Si6 0.942235 0.458220 0.308621
O O1 0.139394 0.386990 0.223325
O O2 0.141374 0.487986 0.020184
O O3 0.012903 0.469400 0.183780
O O4 0.051878 0.371277 0.976463
O O5 0.250000 0.152281 0.414340
O O6 0.152330 0.250000 0.291212
O O7 0.102796 0.161869 0.504341
O O8 0.965233 0.400456 0.440027
O O9 0.988399 0.345472 0.708702
O O10 0.073797 0.463159 0.618381
O O11 0.750000 0.090261 0.016778
O O12 0.893003 0.128983 0.940766
O O13 0.865383 0.072786 0.217767
O O14 0.526440 0.250000 0.931412
#
# Coordination Sequence:
#
# PCOD8240188 Si02
#       6
#     8   8   8   8   8   8
#     4  10  18  37  57  79 103 143 188 224 265 324
#     4  10  21  34  49  77 115 147 176 218 278 334
#     4  10  18  34  57  78 109 146 183 227 267 328
#     4  11  21  36  57  84 113 142 184 234 282 324
#     4  11  21  36  59  83 108 143 187 230 274 327
#     4   9  18  34  57  78 106 137 186 226 263 326
#
# _framework density 17.973600000000001
#
# number of rings (size 3 to 8) (size 9 to 14) (size 15 to 20)
#    0.000    1.833    3.333    2.500    0.000    1.000 
#    0.000    1.667    0.000    3.000    0.000    0.000 
#    0.000    0.000    0.000    0.000    0.000    0.000 
#
# Total GULP energy -595315.780296 kJ/mol
# GULP energy per Si atom -12402.412089 kJ/mol
# Density = 1.793269 g / cm^3
# Si number density = 17.973600 Si / 1000 Ang^3
#
#
#
# Elastic Constant Matrix: (Units=GPa)
#
#
# Indices 1 2 3 4 5 6 
#
# 1 102.2546 43.8367 43.1830 0.0000 0.0000 0.0000
# 2 43.8367 94.2575 31.5458 0.0000 0.0000 0.0000
# 3 43.1830 31.5458 108.1021 0.0000 0.0000 0.0000
# 4 0.0000 0.0000 0.0000 18.6417 0.0000 0.0000
# 5 0.0000 0.0000 0.0000 0.0000 18.5421 0.0000
# 6 0.0000 0.0000 0.0000 0.0000 0.0000 23.0447
#
#
#
# Elastic Compliance Matrix: (Units=1/GPa)
#
#
# Indices 1 2 3 4 5 6 
#
# 1 0.013599 -0.004994 -0.003975 0.000000 0.000000 0.000000
# 2 -0.004994 0.013592 -0.001971 0.000000 0.000000 0.000000
# 3 -0.003975 -0.001971 0.011414 0.000000 0.000000 0.000000
# 4 0.000000 0.000000 0.000000 0.053643 0.000000 0.000000
# 5 0.000000 0.000000 0.000000 0.000000 0.053931 0.000000
# 6 0.000000 0.000000 0.000000 0.000000 0.000000 0.043394
#
#
# Mechanical properties :
#
#
# Convention : Reuss Voigt Hill
#
# Bulk Modulus (GPa) = 59.79610 60.19392 59.99501
# Shear Modulus (GPa) = 23.03845 24.44895 23.74370
#
# Velocity S-wave (km/s) = 3.58410 3.69219 3.63854
# Velocity P-wave (km/s) = 7.10414 7.19300 7.14870
#
# Compressibility (1/GPa) = 0.01672350
#
# Stress axis : x y z
#
# Youngs Moduli (GPa) = 73.53331 73.57439 87.61466
#
# Poissons Ratio (x) = 0.36745 0.34827
# Poissons Ratio (y) = 0.36725 0.17271
# Poissons Ratio (z) = 0.29230 0.14503
#
# Static dielectric constant tensor:
#      x y z
#    x 3.170800 0.000000 0.000000 
#    y 0.000000 3.255730 0.000000 
#    z 0.000000 0.000000 3.484850 
# 
# 
# High freq. dielectric constant tensor:
#      x y z
#    x 1.674730 0.000000 0.000000 
#    y 0.000000 1.694530 0.000000 
#    z 0.000000 0.000000 1.705520 
# 
# From -- ./inp_files/8977.got.cif
#   From: 2010.03.12/outbox.cif.g09.slc.cpg/sg59_5_cif.got.tgz:8977.got - 2010.04.16 16:29:54.
