data_PCOD8240475
_publ_section_title
;
Structure prediction by ZEFSAII (Michael W. Deem and Ramdas Pophale) SiO2 
 PCOD8240475
Probable space group: P M M N
;
_chemical_formula_sum "Si O2"
_cell_formula_units_Z 64
_cell_length_a 18.917528
_cell_length_b 9.161504
_cell_length_c 19.701206
_cell_angle_alpha 90.000000
_cell_angle_beta 90.000000
_cell_angle_gamma 90.000000
_cell_volume 3414.475282
_symmetry_space_group_name_H-M "P M M N"
_symmetry_group_IT_number 59
_space_group.IT_coordinate_system_code '2'
_symmetry_cell_setting 'orthorhombic'
loop_
_space_group_symop_operation_xyz
x,y,z
1/2-x,1/2-y,z
1/2+x,-y,-z
-x,1/2+y,-z
-x,-y,-z
1/2+x,1/2+y,-z
1/2-x,y,z
x,1/2-y,z
loop_
_atom_site_type_symbol
_atom_site_label
_atom_site_fract_x
_atom_site_fract_y
_atom_site_fract_z
Si Si1 0.594373 0.414839 0.044748
Si Si2 0.581416 0.079355 0.419056
Si Si3 0.069165 0.415395 0.083912
Si Si4 0.169429 0.419040 0.467643
Si Si5 0.171710 0.913261 0.705803
Si Si6 0.936729 0.917841 0.645884
Si Si7 0.958968 0.419525 0.784941
Si Si8 0.119783 0.082103 0.825841
O O1 0.622730 0.250000 0.038908
O O2 0.512194 0.416308 0.062864
O O3 0.635145 0.498687 0.104245
O O4 0.611100 0.496537 0.974159
O O5 0.593686 0.250000 0.431204
O O6 0.620020 0.024229 0.351138
O O7 0.498919 0.040270 0.407867
O O8 0.615909 0.998157 0.481988
O O9 0.097777 0.250000 0.088661
O O10 0.082588 0.494536 0.155856
O O11 0.250000 0.480997 0.470032
O O12 0.169628 0.250000 0.487710
O O13 0.138099 0.440767 0.391916
O O14 0.250000 0.911050 0.674455
O O15 0.147886 0.750000 0.727886
O O16 0.172672 0.018175 0.770429
O O17 0.947360 0.750000 0.669008
O O18 0.937308 0.018691 0.711895
O O19 0.938052 0.250000 0.788492
O O20 0.041614 0.443363 0.796928
O O21 0.136342 0.250000 0.839086
#
# Coordination Sequence:
#
# PCOD8240475 Si02
#       8
#     8   8   8   8   8   8   8   8
#     4   9  16  26  42  64  94 132 170 209 252 300
#     4  10  20  35  56  78 101 133 174 215 257 309
#     4   9  16  26  42  66  98 133 168 206 252 304
#     4  10  22  38  55  78 107 136 168 210 261 314
#     4  10  20  33  49  70  98 133 173 215 261 313
#     4  10  20  35  55  77 103 137 173 212 259 312
#     4  10  19  30  47  73 103 132 167 212 258 305
#     4  10  19  30  45  67  97 132 170 213 259 307
#
# _framework density 18.743729999999999
#
# number of rings (size 3 to 8) (size 9 to 14) (size 15 to 20)
#    0.000    2.250    1.250    2.250    0.000    6.500 
#    0.000    0.000    0.000    0.000    0.000    0.875 
#    0.000    5.000    0.000    0.000    0.000    0.000 
#
# Total GULP energy -793552.022888 kJ/mol
# GULP energy per Si atom -12399.250358 kJ/mol
# Density = 1.870107 g / cm^3
# Si number density = 18.743730 Si / 1000 Ang^3
#
#
#
# Elastic Constant Matrix: (Units=GPa)
#
#
# Indices 1 2 3 4 5 6 
#
# 1 48.2508 19.8447 29.4833 0.0000 0.0000 0.0000
# 2 19.8447 113.9679 65.9496 0.0000 0.0000 0.0000
# 3 29.4833 65.9496 119.0103 0.0000 0.0000 0.0000
# 4 0.0000 0.0000 0.0000 40.6916 0.0000 0.0000
# 5 0.0000 0.0000 0.0000 0.0000 10.3093 0.0000
# 6 0.0000 0.0000 0.0000 0.0000 0.0000 14.4815
#
#
#
# Elastic Compliance Matrix: (Units=1/GPa)
#
#
# Indices 1 2 3 4 5 6 
#
# 1 0.024517 -0.001110 -0.005458 0.000000 0.000000 0.000000
# 2 -0.001110 0.012967 -0.006910 0.000000 0.000000 0.000000
# 3 -0.005458 -0.006910 0.013584 0.000000 0.000000 0.000000
# 4 0.000000 0.000000 0.000000 0.024575 0.000000 0.000000
# 5 0.000000 0.000000 0.000000 0.000000 0.097000 0.000000
# 6 0.000000 0.000000 0.000000 0.000000 0.000000 0.069054
#
#
# Mechanical properties :
#
#
# Convention : Reuss Voigt Hill
#
# Bulk Modulus (GPa) = 41.47744 56.86490 49.17117
# Shear Modulus (GPa) = 18.07067 24.15991 21.11529
#
# Velocity S-wave (km/s) = 3.10835 3.59410 3.36002
# Velocity P-wave (km/s) = 5.92108 6.90126 6.42988
#
# Compressibility (1/GPa) = 0.02410949
#
# Stress axis : x y z
#
# Youngs Moduli (GPa) = 40.78791 77.12167 73.61470
#
# Poissons Ratio (x) = 0.08564 0.40182
# Poissons Ratio (y) = 0.04529 0.50870
# Poissons Ratio (z) = 0.22264 0.53293
#
# Static dielectric constant tensor:
#      x y z
#    x 3.101400 0.000000 0.000000 
#    y 0.000000 3.479930 0.000000 
#    z 0.000000 0.000000 3.437560 
# 
# 
# High freq. dielectric constant tensor:
#      x y z
#    x 1.683420 0.000000 0.000000 
#    y 0.000000 1.732420 0.000000 
#    z 0.000000 0.000000 1.732730 
# 
# From -- ./inp_files/30660.got.cif
#   From: 2010.03.12/outbox.cif.g09.slc.cpg/sg59_16_cif.got.tgz:30660.got - 2010.04.16 16:29:54.
