data_PCOD8240361
_publ_section_title
;
Structure prediction by ZEFSAII (Michael W. Deem and Ramdas Pophale) SiO2 
 PCOD8240361
Probable space group: P M M N
;
_chemical_formula_sum "Si O2"
_cell_formula_units_Z 64
_cell_length_a 13.742016
_cell_length_b 8.943947
_cell_length_c 31.502319
_cell_angle_alpha 90.000000
_cell_angle_beta 90.000000
_cell_angle_gamma 90.000000
_cell_volume 3871.882701
_symmetry_space_group_name_H-M "P M M N"
_symmetry_group_IT_number 59
_space_group.IT_coordinate_system_code '2'
_symmetry_cell_setting 'orthorhombic'
loop_
_space_group_symop_operation_xyz
x,y,z
1/2-x,1/2-y,z
1/2+x,-y,-z
-x,1/2+y,-z
-x,-y,-z
1/2+x,1/2+y,-z
1/2-x,y,z
x,1/2-y,z
loop_
_atom_site_type_symbol
_atom_site_label
_atom_site_fract_x
_atom_site_fract_y
_atom_site_fract_z
Si Si1 0.861663 0.926248 0.143417
Si Si2 0.532372 0.573009 0.398233
Si Si3 0.859715 0.578403 0.986481
Si Si4 0.134785 0.579883 0.523747
Si Si5 0.134394 0.581739 0.771475
Si Si6 0.547196 0.423502 0.064113
Si Si7 0.861605 0.573772 0.562374
Si Si8 0.861494 0.924786 0.312659
O O1 0.750000 0.976612 0.135164
O O2 0.869789 0.750000 0.145973
O O3 0.902634 0.992450 0.187404
O O4 0.930274 0.985163 0.106262
O O5 0.531398 0.750000 0.404196
O O6 0.598155 0.500286 0.434314
O O7 0.423574 0.505693 0.400645
O O8 0.575667 0.525814 0.353000
O O9 0.750000 0.547061 0.970252
O O10 0.871955 0.750000 0.001404
O O11 0.934969 0.543317 0.948506
O O12 0.881242 0.474169 0.026578
O O13 0.250000 0.576795 0.525067
O O14 0.095447 0.750000 0.521586
O O15 0.098358 0.489581 0.482379
O O16 0.250000 0.575448 0.770196
O O17 0.094823 0.750000 0.774314
O O18 0.094136 0.507274 0.728446
O O19 0.565750 0.250000 0.073033
O O20 0.750000 0.529781 0.570010
O O21 0.877665 0.750000 0.563119
O O22 0.750000 0.971974 0.321272
O O23 0.869194 0.750000 0.303793
#
# Coordination Sequence:
#
# PCOD8240361 Si02
#       8
#     8   8   8   8   8   8   8   8
#     4  10  19  30  45  65  92 125 155 184 223 271
#     4  11  21  32  49  71  95 123 154 187 224 270
#     4   9  18  32  46  61  88 125 158 189 231 278
#     4  10  20  33  49  69  94 123 154 188 225 267
#     4   9  17  29  46  68  93 120 150 185 222 261
#     4  10  19  29  44  67  91 117 155 198 232 266
#     4  10  21  36  51  66  88 119 155 195 234 270
#     4   9  18  32  48  68  96 126 151 176 215 270
#
# _framework density 16.529426000000001
#
# number of rings (size 3 to 8) (size 9 to 14) (size 15 to 20)
#    0.000    2.250    0.000    3.375    0.000    7.500 
#    0.000    1.250    0.000    0.000    0.000    0.875 
#    0.000    5.000    0.000    0.000    0.000    0.000 
#
# Total GULP energy -793706.096103 kJ/mol
# GULP energy per Si atom -12401.657752 kJ/mol
# Density = 1.649180 g / cm^3
# Si number density = 16.529426 Si / 1000 Ang^3
#
#
#
# Elastic Constant Matrix: (Units=GPa)
#
#
# Indices 1 2 3 4 5 6 
#
# 1 70.1540 33.3832 52.3308 0.0000 0.0000 0.0000
# 2 33.3832 87.7066 61.4657 0.0000 0.0000 0.0000
# 3 52.3308 61.4657 134.8598 0.0000 0.0000 0.0000
# 4 0.0000 0.0000 0.0000 33.3430 0.0000 0.0000
# 5 0.0000 0.0000 0.0000 0.0000 22.2732 0.0000
# 6 0.0000 0.0000 0.0000 0.0000 0.0000 23.0298
#
#
#
# Elastic Compliance Matrix: (Units=1/GPa)
#
#
# Indices 1 2 3 4 5 6 
#
# 1 0.020693 -0.003304 -0.006524 0.000000 0.000000 0.000000
# 2 -0.003304 0.017280 -0.006594 0.000000 0.000000 0.000000
# 3 -0.006524 -0.006594 0.012952 0.000000 0.000000 0.000000
# 4 0.000000 0.000000 0.000000 0.029991 0.000000 0.000000
# 5 0.000000 0.000000 0.000000 0.000000 0.044897 0.000000
# 6 0.000000 0.000000 0.000000 0.000000 0.000000 0.043422
#
#
# Mechanical properties :
#
#
# Convention : Reuss Voigt Hill
#
# Bulk Modulus (GPa) = 55.30473 65.23109 60.26791
# Shear Modulus (GPa) = 24.02620 25.43190 24.72905
#
# Velocity S-wave (km/s) = 3.81667 3.92673 3.87209
# Velocity P-wave (km/s) = 7.27692 7.75295 7.51871
#
# Compressibility (1/GPa) = 0.01808164
#
# Stress axis : x y z
#
# Youngs Moduli (GPa) = 48.32547 57.86933 77.20963
#
# Poissons Ratio (x) = 0.19123 0.50369
# Poissons Ratio (y) = 0.15969 0.50910
# Poissons Ratio (z) = 0.31526 0.38157
#
# Static dielectric constant tensor:
#      x y z
#    x 3.061920 0.000000 0.000000 
#    y 0.000000 3.262700 0.000000 
#    z 0.000000 0.000000 3.101070 
# 
# 
# High freq. dielectric constant tensor:
#      x y z
#    x 1.613870 0.000000 0.000000 
#    y 0.000000 1.652130 0.000000 
#    z 0.000000 0.000000 1.626280 
# 
# From -- ./inp_files/33321.got.cif
#   From: 2010.03.12/outbox.cif.g09.slc.cpg/sg59_17_cif.got.tgz:33321.got - 2010.04.16 16:29:54.
