data_PCOD8240213
_publ_section_title
;
Structure prediction by ZEFSAII (Michael W. Deem and Ramdas Pophale) SiO2 
 PCOD8240213
Probable space group: P M M N
;
_chemical_formula_sum "Si O2"
_cell_formula_units_Z 44
_cell_length_a 11.438639
_cell_length_b 13.675156
_cell_length_c 14.633059
_cell_angle_alpha 90.000000
_cell_angle_beta 90.000000
_cell_angle_gamma 90.000000
_cell_volume 2288.978782
_symmetry_space_group_name_H-M "P M M N"
_symmetry_group_IT_number 59
_space_group.IT_coordinate_system_code '2'
_symmetry_cell_setting 'orthorhombic'
loop_
_space_group_symop_operation_xyz
x,y,z
1/2-x,1/2-y,z
1/2+x,-y,-z
-x,1/2+y,-z
-x,-y,-z
1/2+x,1/2+y,-z
1/2-x,y,z
x,1/2-y,z
loop_
_atom_site_type_symbol
_atom_site_label
_atom_site_fract_x
_atom_site_fract_y
_atom_site_fract_z
Si Si1 0.250000 0.132320 0.173174
Si Si2 0.250000 0.534921 0.314245
Si Si3 0.946255 0.500819 0.901089
Si Si4 0.616816 0.141108 0.410485
Si Si5 0.613755 0.525196 0.270337
Si Si6 0.458279 0.861835 0.395416
Si Si7 0.250000 0.860372 0.133033
O O1 0.250000 0.250000 0.186366
O O2 0.250000 0.074076 0.270351
O O3 0.132787 0.097599 0.119302
O O4 0.133869 0.553192 0.371294
O O5 0.250000 0.621701 0.240568
O O6 0.866173 0.406193 0.907755
O O7 0.044345 0.483244 0.824205
O O8 0.000000 0.500000 0.000000
O O9 0.750000 0.123193 0.445888
O O10 0.603180 0.250000 0.371413
O O11 0.586085 0.072658 0.326264
O O12 0.526563 0.125628 0.495088
O O13 0.750000 0.538819 0.247505
O O14 0.573892 0.615683 0.335474
O O15 0.417933 0.750000 0.375075
O O16 0.250000 0.750000 0.103865
#
# Coordination Sequence:
#
# PCOD8240213 Si02
#       7
#     4   4   8   8   8   8   4
#     4  10  22  42  66  91 122 156 202 257 314 364
#     4  10  18  34  62  90 111 149 201 256 300 342
#     4  10  23  41  64  87 120 157 201 249 306 368
#     4   9  19  35  58  86 117 159 209 251 301 369
#     4  11  23  37  56  86 126 164 198 252 312 371
#     4  11  19  35  61  88 118 159 209 254 297 355
#     4  10  20  38  64  89 109 143 205 257 294 346
#
# _framework density 19.222546000000001
#
# number of rings (size 3 to 8) (size 9 to 14) (size 15 to 20)
#    0.000    2.000    4.545    1.364    2.545    1.818 
#    0.000    0.000    0.000    0.000    0.000    0.000 
#    0.000    0.000    0.000    0.000    0.000    0.000 
#
# Total GULP energy -545172.897755 kJ/mol
# GULP energy per Si atom -12390.293131 kJ/mol
# Density = 1.917879 g / cm^3
# Si number density = 19.222546 Si / 1000 Ang^3
#
#
#
# Elastic Constant Matrix: (Units=GPa)
#
#
# Indices 1 2 3 4 5 6 
#
# 1 118.8740 47.7497 58.2312 0.0000 0.0000 0.0000
# 2 47.7497 144.1150 49.9439 0.0000 0.0000 0.0000
# 3 58.2312 49.9439 123.7932 0.0000 0.0000 0.0000
# 4 0.0000 0.0000 0.0000 11.7003 0.0000 0.0000
# 5 0.0000 0.0000 0.0000 0.0000 85.4052 0.0000
# 6 0.0000 0.0000 0.0000 0.0000 0.0000 20.2633
#
#
#
# Elastic Compliance Matrix: (Units=1/GPa)
#
#
# Indices 1 2 3 4 5 6 
#
# 1 0.011529 -0.002256 -0.004513 0.000000 0.000000 0.000000
# 2 -0.002256 0.008508 -0.002371 0.000000 0.000000 0.000000
# 3 -0.004513 -0.002371 0.011158 0.000000 0.000000 0.000000
# 4 0.000000 0.000000 0.000000 0.085468 0.000000 0.000000
# 5 0.000000 0.000000 0.000000 0.000000 0.011709 0.000000
# 6 0.000000 0.000000 0.000000 0.000000 0.000000 0.049350
#
#
# Mechanical properties :
#
#
# Convention : Reuss Voigt Hill
#
# Bulk Modulus (GPa) = 77.43447 77.62576 77.53011
# Shear Modulus (GPa) = 24.96158 38.86425 31.91291
#
# Velocity S-wave (km/s) = 3.60746 4.50133 4.07895
# Velocity P-wave (km/s) = 7.59752 8.21500 7.91229
#
# Compressibility (1/GPa) = 0.01291415
#
# Stress axis : x y z
#
# Youngs Moduli (GPa) = 86.73622 117.53371 89.62464
#
# Poissons Ratio (x) = 0.26515 0.40448
# Poissons Ratio (y) = 0.19567 0.21254
# Poissons Ratio (z) = 0.39145 0.27872
#
# Static dielectric constant tensor:
#      x y z
#    x 3.592350 0.000000 0.000000 
#    y 0.000000 2.612390 0.000000 
#    z 0.000000 0.000000 3.378960 
# 
# 
# High freq. dielectric constant tensor:
#      x y z
#    x 1.745260 0.000000 0.000000 
#    y 0.000000 1.741060 0.000000 
#    z 0.000000 0.000000 1.741390 
# 
# From -- ./inp_files/22338.got.cif
#   From: 2010.03.12/outbox.cif.g09.slc.cpg/sg59_12_cif.got.tgz:22338.got - 2010.04.16 16:29:54.
