data_PCOD8240523
_publ_section_title
;
Structure prediction by ZEFSAII (Michael W. Deem and Ramdas Pophale) SiO2 
 PCOD8240523
Probable space group: P M M N
;
_chemical_formula_sum "Si O2"
_cell_formula_units_Z 48
_cell_length_a 9.137772
_cell_length_b 25.025672
_cell_length_c 12.586614
_cell_angle_alpha 90.000000
_cell_angle_beta 90.000000
_cell_angle_gamma 90.000000
_cell_volume 2878.292854
_symmetry_space_group_name_H-M "P M M N"
_symmetry_group_IT_number 59
_space_group.IT_coordinate_system_code '2'
_symmetry_cell_setting 'orthorhombic'
loop_
_space_group_symop_operation_xyz
x,y,z
1/2-x,1/2-y,z
1/2+x,-y,-z
-x,1/2+y,-z
-x,-y,-z
1/2+x,1/2+y,-z
1/2-x,y,z
x,1/2-y,z
loop_
_atom_site_type_symbol
_atom_site_label
_atom_site_fract_x
_atom_site_fract_y
_atom_site_fract_z
Si Si1 0.416461 0.503502 0.607480
Si Si2 0.579347 0.688274 0.193128
Si Si3 0.579210 0.887668 0.382033
Si Si4 0.422230 0.619111 0.606549
Si Si5 0.917417 0.813379 0.777083
Si Si6 0.415026 0.813531 0.984171
O O1 0.500000 0.500000 0.500000
O O2 0.250000 0.506865 0.572938
O O3 0.446112 0.447555 0.669405
O O4 0.455925 0.560638 0.661892
O O5 0.750000 0.679942 0.169453
O O6 0.542716 0.750000 0.216262
O O7 0.527014 0.654829 0.294848
O O8 0.492268 0.666164 0.091357
O O9 0.750000 0.879238 0.410931
O O10 0.483008 0.878888 0.486758
O O11 0.250000 0.631949 0.604639
O O12 0.503707 0.663766 0.673809
O O13 0.750000 0.832566 0.780288
O O14 0.928503 0.750000 0.770094
O O15 0.997020 0.835497 0.882573
O O16 0.250000 0.835917 0.979904
O O17 0.416610 0.750000 0.982535
#
# Coordination Sequence:
#
# PCOD8240523 Si02
#       6
#     8   8   8   8   8   8
#     4   8  15  28  45  64  87 119 157 192 225 263
#     4   9  17  29  46  68  93 121 152 185 222 266
#     4   9  17  30  47  67  94 127 159 189 223 268
#     4  10  19  30  46  69  95 121 152 192 234 272
#     4  10  20  33  49  68  91 120 152 185 225 276
#     4   9  17  30  48  68  90 117 150 187 225 266
#
# _framework density 16.676552999999998
#
# number of rings (size 3 to 8) (size 9 to 14) (size 15 to 20)
#    0.000    2.833    0.000    1.500    0.000    5.000 
#    0.000    1.667    0.000    1.000    0.000    0.000 
#    0.000    0.000    0.000    0.000    0.000    0.000 
#
# Total GULP energy -594739.135640 kJ/mol
# GULP energy per Si atom -12390.398659 kJ/mol
# Density = 1.663860 g / cm^3
# Si number density = 16.676553 Si / 1000 Ang^3
#
#
#
# Elastic Constant Matrix: (Units=GPa)
#
#
# Indices 1 2 3 4 5 6 
#
# 1 96.6184 36.1214 55.6959 0.0000 0.0000 0.0000
# 2 36.1214 47.7216 39.4326 0.0000 0.0000 0.0000
# 3 55.6959 39.4326 99.3655 0.0000 0.0000 0.0000
# 4 0.0000 0.0000 0.0000 3.3104 0.0000 0.0000
# 5 0.0000 0.0000 0.0000 0.0000 26.4040 0.0000
# 6 0.0000 0.0000 0.0000 0.0000 0.0000 16.1217
#
#
#
# Elastic Compliance Matrix: (Units=1/GPa)
#
#
# Indices 1 2 3 4 5 6 
#
# 1 0.016871 -0.007374 -0.006530 0.000000 0.000000 0.000000
# 2 -0.007374 0.034402 -0.009519 0.000000 0.000000 0.000000
# 3 -0.006530 -0.009519 0.017502 0.000000 0.000000 0.000000
# 4 0.000000 0.000000 0.000000 0.302082 0.000000 0.000000
# 5 0.000000 0.000000 0.000000 0.000000 0.037873 0.000000
# 6 0.000000 0.000000 0.000000 0.000000 0.000000 0.062028
#
#
# Mechanical properties :
#
#
# Convention : Reuss Voigt Hill
#
# Bulk Modulus (GPa) = 45.60307 56.24503 50.92405
# Shear Modulus (GPa) = 9.52536 16.66424 13.09480
#
# Velocity S-wave (km/s) = 2.39254 3.16454 2.80522
# Velocity P-wave (km/s) = 5.91923 6.86678 6.41054
#
# Compressibility (1/GPa) = 0.02192835
#
# Stress axis : x y z
#
# Youngs Moduli (GPa) = 59.27248 29.06802 57.13759
#
# Poissons Ratio (x) = 0.21436 0.37312
# Poissons Ratio (y) = 0.43709 0.54388
# Poissons Ratio (z) = 0.38706 0.27669
#
# Static dielectric constant tensor:
#      x y z
#    x 3.277060 0.000000 0.000000 
#    y 0.000000 3.525580 0.000000 
#    z 0.000000 0.000000 2.957830 
# 
# 
# High freq. dielectric constant tensor:
#      x y z
#    x 1.654090 0.000000 0.000000 
#    y 0.000000 1.631020 0.000000 
#    z 0.000000 0.000000 1.619380 
# 
# From -- ./inp_files/14347.got.cif
#   From: 2010.03.12/outbox.cif.g09.slc.cpg/sg59_8_cif.got.tgz:14347.got - 2010.04.16 16:29:54.
