data_PCOD8240848
_publ_section_title
;
Structure prediction by ZEFSAII (Michael W. Deem and Ramdas Pophale) SiO2 
 PCOD8240848
Probable space group: P M M N
;
_chemical_formula_sum "Si O2"
_cell_formula_units_Z 64
_cell_length_a 8.642024
_cell_length_b 23.139493
_cell_length_c 18.913981
_cell_angle_alpha 90.000000
_cell_angle_beta 90.000000
_cell_angle_gamma 90.000000
_cell_volume 3782.267627
_symmetry_space_group_name_H-M "P M M N"
_symmetry_group_IT_number 59
_space_group.IT_coordinate_system_code '2'
_symmetry_cell_setting 'orthorhombic'
loop_
_space_group_symop_operation_xyz
x,y,z
1/2-x,1/2-y,z
1/2+x,-y,-z
-x,1/2+y,-z
-x,-y,-z
1/2+x,1/2+y,-z
1/2-x,y,z
x,1/2-y,z
loop_
_atom_site_type_symbol
_atom_site_label
_atom_site_fract_x
_atom_site_fract_y
_atom_site_fract_z
Si Si1 0.429899 0.409139 0.520538
Si Si2 0.572335 0.420410 0.970980
Si Si3 0.929500 0.498510 0.746496
Si Si4 0.429169 0.816693 0.386759
Si Si5 0.570729 0.626384 0.251631
Si Si6 0.572582 0.184937 0.879265
Si Si7 0.428166 0.522088 0.888566
Si Si8 0.429779 0.975293 0.602141
O O1 0.250000 0.394103 0.522805
O O2 0.525929 0.352837 0.543526
O O3 0.476923 0.426996 0.441365
O O4 0.472765 0.460848 0.574356
O O5 0.750000 0.439480 0.957524
O O6 0.543436 0.354306 0.948536
O O7 0.463158 0.460049 0.923147
O O8 0.532418 0.427963 0.054068
O O9 0.750000 0.504557 0.729521
O O10 0.970998 0.431430 0.754666
O O11 0.969661 0.532150 0.818835
O O12 0.023765 0.528864 0.683734
O O13 0.250000 0.826041 0.368196
O O14 0.466426 0.750000 0.402224
O O15 0.531460 0.838186 0.321651
O O16 0.750000 0.608799 0.253823
O O17 0.537202 0.666691 0.184760
O O18 0.750000 0.179448 0.853394
O O19 0.531832 0.250000 0.901847
O O20 0.250000 0.523054 0.865640
O O21 0.250000 0.962435 0.592114
#
# Coordination Sequence:
#
# PCOD8240848 Si02
#       8
#     8   8   8   8   8   8   8   8
#     4  10  20  34  53  76 102 134 169 209 254 299
#     4   9  18  32  49  70  97 131 166 204 249 298
#     4  12  22  33  51  74 102 135 168 206 255 307
#     4  11  23  37  53  73 101 140 179 213 250 293
#     4  12  23  34  48  71 101 136 175 212 248 292
#     4  10  20  34  51  71  98 134 172 207 245 293
#     4  10  19  31  49  72  98 128 165 207 252 300
#     4  10  20  34  53  76 103 132 165 208 255 306
#
# _framework density 16.921066
#
# number of rings (size 3 to 8) (size 9 to 14) (size 15 to 20)
#    0.000    1.500    2.500    4.125    0.000    4.250 
#    0.000    0.000    0.000    0.000    0.000    0.875 
#    0.000    5.000    0.000    0.000    0.000    0.000 
#
# Total GULP energy -793866.562411 kJ/mol
# GULP energy per Si atom -12404.165038 kJ/mol
# Density = 1.688255 g / cm^3
# Si number density = 16.921066 Si / 1000 Ang^3
#
#
#
# Elastic Constant Matrix: (Units=GPa)
#
#
# Indices 1 2 3 4 5 6 
#
# 1 51.4222 16.2515 16.8942 0.0000 0.0000 0.0000
# 2 16.2515 75.2455 45.2622 0.0000 0.0000 0.0000
# 3 16.8942 45.2622 104.1376 0.0000 0.0000 0.0000
# 4 0.0000 0.0000 0.0000 21.5289 0.0000 0.0000
# 5 0.0000 0.0000 0.0000 0.0000 28.2978 0.0000
# 6 0.0000 0.0000 0.0000 0.0000 0.0000 20.7911
#
#
#
# Elastic Compliance Matrix: (Units=1/GPa)
#
#
# Indices 1 2 3 4 5 6 
#
# 1 0.021163 -0.003392 -0.001959 0.000000 0.000000 0.000000
# 2 -0.003392 0.018538 -0.007507 0.000000 0.000000 0.000000
# 3 -0.001959 -0.007507 0.013183 0.000000 0.000000 0.000000
# 4 0.000000 0.000000 0.000000 0.046449 0.000000 0.000000
# 5 0.000000 0.000000 0.000000 0.000000 0.035338 0.000000
# 6 0.000000 0.000000 0.000000 0.000000 0.000000 0.048098
#
#
# Mechanical properties :
#
#
# Convention : Reuss Voigt Hill
#
# Bulk Modulus (GPa) = 36.80858 43.06902 39.93880
# Shear Modulus (GPa) = 22.98412 24.28339 23.63376
#
# Velocity S-wave (km/s) = 3.68953 3.79238 3.74131
# Velocity P-wave (km/s) = 6.32064 6.68463 6.50518
#
# Compressibility (1/GPa) = 0.02716758
#
# Stress axis : x y z
#
# Youngs Moduli (GPa) = 47.25338 53.94253 75.85358
#
# Poissons Ratio (x) = 0.18300 0.14857
# Poissons Ratio (y) = 0.16031 0.56944
# Poissons Ratio (z) = 0.09255 0.40495
#
# Static dielectric constant tensor:
#      x y z
#    x 3.249030 0.000000 0.000000 
#    y 0.000000 3.024470 0.000000 
#    z 0.000000 0.000000 3.227620 
# 
# 
# High freq. dielectric constant tensor:
#      x y z
#    x 1.665050 0.000000 0.000000 
#    y 0.000000 1.619650 0.000000 
#    z 0.000000 0.000000 1.648880 
# 
# From -- ./inp_files/26497.got.cif
#   From: 2010.03.12/outbox.cif.g09.slc.cpg/sg59_14_cif.got.tgz:26497.got - 2010.04.16 16:29:54.
