data_PCOD8240710
_publ_section_title
;
Structure prediction by ZEFSAII (Michael W. Deem and Ramdas Pophale) SiO2 
 PCOD8240710
Probable space group: P M M N
;
_chemical_formula_sum "Si O2"
_cell_formula_units_Z 56
_cell_length_a 8.974909
_cell_length_b 19.022385
_cell_length_c 18.407552
_cell_angle_alpha 90.000000
_cell_angle_beta 90.000000
_cell_angle_gamma 90.000000
_cell_volume 3142.614117
_symmetry_space_group_name_H-M "P M M N"
_symmetry_group_IT_number 59
_space_group.IT_coordinate_system_code '2'
_symmetry_cell_setting 'orthorhombic'
loop_
_space_group_symop_operation_xyz
x,y,z
1/2-x,1/2-y,z
1/2+x,-y,-z
-x,1/2+y,-z
-x,-y,-z
1/2+x,1/2+y,-z
1/2-x,y,z
x,1/2-y,z
loop_
_atom_site_type_symbol
_atom_site_label
_atom_site_fract_x
_atom_site_fract_y
_atom_site_fract_z
Si Si1 0.073290 0.330439 0.857555
Si Si2 0.079715 0.420113 0.418052
Si Si3 0.918086 0.333607 0.003168
Si Si4 0.920329 0.666675 0.853128
Si Si5 0.922401 0.926674 0.269657
Si Si6 0.074160 0.913125 0.724042
Si Si7 0.421592 0.435626 0.572895
O O1 0.250000 0.336496 0.865377
O O2 0.025371 0.250000 0.843726
O O3 0.005031 0.376110 0.790933
O O4 0.001041 0.360763 0.931122
O O5 0.250000 0.411547 0.393127
O O6 0.055448 0.387625 0.500070
O O7 0.977740 0.385215 0.355706
O O8 0.039943 0.501685 0.427930
O O9 0.750000 0.362732 0.003809
O O10 0.920975 0.250000 0.004544
O O11 0.002836 0.362968 0.073910
O O12 0.750000 0.641951 0.853590
O O13 0.934305 0.750000 0.848827
O O14 0.002544 0.635640 0.784042
O O15 0.750000 0.929502 0.250695
O O16 0.949036 0.894333 0.350868
O O17 0.983635 0.006665 0.265660
O O18 0.250000 0.906613 0.729133
O O19 0.250000 0.464844 0.573738
#
# Coordination Sequence:
#
# PCOD8240710 Si02
#       7
#     8   8   8   8   8   8   8
#     4   9  16  28  48  70  91 118 153 190 226 264
#     4   9  15  24  41  64  89 118 155 195 232 270
#     4   9  17  30  48  69  92 118 150 185 221 266
#     4  10  20  34  52  72  92 114 146 188 229 271
#     4   8  15  28  45  67  94 122 153 191 231 268
#     4  10  19  31  47  67  94 124 153 187 230 279
#     4   8  14  25  41  61  88 121 155 193 233 272
#
# _framework density 17.819558000000001
#
# number of rings (size 3 to 8) (size 9 to 14) (size 15 to 20)
#    0.000    3.000    0.000    2.571    0.000    3.143 
#    0.000    4.286    0.000    0.857    0.000    4.000 
#    0.000    0.000    0.000    0.000    0.000    0.000 
#
# Total GULP energy -693822.521471 kJ/mol
# GULP energy per Si atom -12389.687883 kJ/mol
# Density = 1.777900 g / cm^3
# Si number density = 17.819558 Si / 1000 Ang^3
#
#
#
# Elastic Constant Matrix: (Units=GPa)
#
#
# Indices 1 2 3 4 5 6 
#
# 1 79.2042 19.5007 55.9133 0.0000 0.0000 0.0000
# 2 19.5007 17.1351 27.5776 0.0000 0.0000 0.0000
# 3 55.9133 27.5776 176.5022 0.0000 0.0000 0.0000
# 4 0.0000 0.0000 0.0000 16.5388 0.0000 0.0000
# 5 0.0000 0.0000 0.0000 0.0000 27.5224 0.0000
# 6 0.0000 0.0000 0.0000 0.0000 0.0000 14.3985
#
#
#
# Elastic Compliance Matrix: (Units=1/GPa)
#
#
# Indices 1 2 3 4 5 6 
#
# 1 0.019063 -0.015999 -0.003539 0.000000 0.000000 0.000000
# 2 -0.015999 0.091392 -0.009211 0.000000 0.000000 0.000000
# 3 -0.003539 -0.009211 0.008226 0.000000 0.000000 0.000000
# 4 0.000000 0.000000 0.000000 0.060464 0.000000 0.000000
# 5 0.000000 0.000000 0.000000 0.000000 0.036334 0.000000
# 6 0.000000 0.000000 0.000000 0.000000 0.000000 0.069452
#
#
# Mechanical properties :
#
#
# Convention : Reuss Voigt Hill
#
# Bulk Modulus (GPa) = 16.34455 53.20275 34.77365
# Shear Modulus (GPa) = 13.78080 23.01526 18.39803
#
# Velocity S-wave (km/s) = 2.78394 3.59775 3.21668
# Velocity P-wave (km/s) = 4.41881 6.86874 5.77518
#
# Compressibility (1/GPa) = 0.06118249
#
# Stress axis : x y z
#
# Youngs Moduli (GPa) = 52.45742 10.94186 121.56524
#
# Poissons Ratio (x) = 0.17506 0.43024
# Poissons Ratio (y) = 0.83926 1.11978
# Poissons Ratio (z) = 0.18566 0.10079
#
# Static dielectric constant tensor:
#      x y z
#    x 3.280990 0.000000 0.000000 
#    y 0.000000 2.862650 0.000000 
#    z 0.000000 0.000000 3.853780 
# 
# 
# High freq. dielectric constant tensor:
#      x y z
#    x 1.685030 0.000000 0.000000 
#    y 0.000000 1.620330 0.000000 
#    z 0.000000 0.000000 1.719460 
# 
# From -- ./inp_files/26026.got.cif
#   From: 2010.03.12/outbox.cif.g09.slc.cpg/sg59_14_cif.got.tgz:26026.got - 2010.04.16 16:29:54.
