data_PCOD8240117
_publ_section_title
;
Structure prediction by ZEFSAII (Michael W. Deem and Ramdas Pophale) SiO2 
 PCOD8240117
Probable space group: P M M N
;
_chemical_formula_sum "Si O2"
_cell_formula_units_Z 48
_cell_length_a 30.465413
_cell_length_b 8.874958
_cell_length_c 9.273152
_cell_angle_alpha 90.000000
_cell_angle_beta 90.000000
_cell_angle_gamma 90.000000
_cell_volume 2507.267983
_symmetry_space_group_name_H-M "P M M N"
_symmetry_group_IT_number 59
_space_group.IT_coordinate_system_code '2'
_symmetry_cell_setting 'orthorhombic'
loop_
_space_group_symop_operation_xyz
x,y,z
1/2-x,1/2-y,z
1/2+x,-y,-z
-x,1/2+y,-z
-x,-y,-z
1/2+x,1/2+y,-z
1/2-x,y,z
x,1/2-y,z
loop_
_atom_site_type_symbol
_atom_site_label
_atom_site_fract_x
_atom_site_fract_y
_atom_site_fract_z
Si Si1 0.171382 0.086076 0.006951
Si Si2 0.453386 0.926952 0.975847
Si Si3 0.656239 0.571316 0.518802
Si Si4 0.750000 0.071941 0.487763
Si Si5 0.750000 0.928520 0.184663
Si Si6 0.603566 0.914531 0.239072
Si Si7 0.617236 0.075663 0.783693
O O1 0.183626 0.250000 0.075806
O O2 0.161843 0.963994 0.130064
O O3 0.209480 0.021181 0.909878
O O4 0.130324 0.109717 0.905360
O O5 0.458283 0.750000 0.968523
O O6 0.435510 0.977331 0.816977
O O7 0.423676 0.971625 0.115202
O O8 0.500000 0.000000 0.000000
O O9 0.663046 0.750000 0.518923
O O10 0.704190 0.497011 0.549764
O O11 0.634496 0.518352 0.366359
O O12 0.620079 0.521209 0.637240
O O13 0.750000 0.250000 0.516590
O O14 0.750000 0.034532 0.320710
O O15 0.750000 0.750000 0.226853
O O16 0.585077 0.750000 0.288548
O O17 0.616256 0.250000 0.742524
#
# Coordination Sequence:
#
# PCOD8240117 Si02
#       7
#     8   8   8   4   4   8   8
#     4   9  17  32  54  77 105 144 188 233 276 330
#     4  10  21  38  62  88 116 147 185 234 288 347
#     4  11  22  39  60  83 115 158 199 235 281 343
#     4  12  24  35  54  83 118 156 194 240 286 329
#     4  10  18  33  54  79 108 142 194 240 276 329
#     4   9  18  34  58  83 109 144 189 234 279 335
#     4  10  22  38  55  82 117 148 183 236 293 339
#
# _framework density 19.144345000000001
#
# number of rings (size 3 to 8) (size 9 to 14) (size 15 to 20)
#    0.000    2.000    1.667    2.250    0.000    4.667 
#    0.000    3.333    0.000    0.000    0.000    0.000 
#    0.000    0.000    0.000    0.000    0.000    0.000 
#
# Total GULP energy -594649.647208 kJ/mol
# GULP energy per Si atom -12388.534317 kJ/mol
# Density = 1.910077 g / cm^3
# Si number density = 19.144345 Si / 1000 Ang^3
#
#
#
# Elastic Constant Matrix: (Units=GPa)
#
#
# Indices 1 2 3 4 5 6 
#
# 1 99.5636 51.7897 37.9148 0.0000 0.0000 0.0000
# 2 51.7897 82.8685 42.7783 0.0000 0.0000 0.0000
# 3 37.9148 42.7783 87.0526 0.0000 0.0000 0.0000
# 4 0.0000 0.0000 0.0000 32.3861 0.0000 0.0000
# 5 0.0000 0.0000 0.0000 0.0000 28.3722 0.0000
# 6 0.0000 0.0000 0.0000 0.0000 0.0000 27.3544
#
#
#
# Elastic Compliance Matrix: (Units=1/GPa)
#
#
# Indices 1 2 3 4 5 6 
#
# 1 0.015320 -0.008214 -0.002636 0.000000 0.000000 0.000000
# 2 -0.008214 0.020573 -0.006532 0.000000 0.000000 0.000000
# 3 -0.002636 -0.006532 0.015845 0.000000 0.000000 0.000000
# 4 0.000000 0.000000 0.000000 0.030877 0.000000 0.000000
# 5 0.000000 0.000000 0.000000 0.000000 0.035246 0.000000
# 6 0.000000 0.000000 0.000000 0.000000 0.000000 0.036557
#
#
# Mechanical properties :
#
#
# Convention : Reuss Voigt Hill
#
# Bulk Modulus (GPa) = 58.91348 59.38337 59.14842
# Shear Modulus (GPa) = 25.66196 26.75601 26.20898
#
# Velocity S-wave (km/s) = 3.66518 3.74250 3.70404
# Velocity P-wave (km/s) = 6.98223 7.05416 7.01828
#
# Compressibility (1/GPa) = 0.01697404
#
# Stress axis : x y z
#
# Youngs Moduli (GPa) = 65.27309 48.60837 63.10946
#
# Poissons Ratio (x) = 0.39925 0.16638
# Poissons Ratio (y) = 0.53613 0.41224
# Poissons Ratio (z) = 0.17208 0.31752
#
# Static dielectric constant tensor:
#      x y z
#    x 3.470990 0.000000 0.000000 
#    y 0.000000 3.708370 0.000000 
#    z 0.000000 0.000000 3.506760 
# 
# 
# High freq. dielectric constant tensor:
#      x y z
#    x 1.731510 0.000000 0.000000 
#    y 0.000000 1.742450 0.000000 
#    z 0.000000 0.000000 1.739150 
# 
# From -- ./inp_files/6404.got.cif
#   From: 2010.03.12/outbox.cif.g09.slc.cpg/sg59_4_cif.got.tgz:6404.got - 2010.04.16 16:29:54.
