data_PCOD8240628
_publ_section_title
;
Structure prediction by ZEFSAII (Michael W. Deem and Ramdas Pophale) SiO2 
 PCOD8240628
Probable space group: P M M N
;
_chemical_formula_sum "Si O2"
_cell_formula_units_Z 56
_cell_length_a 13.918892
_cell_length_b 8.913876
_cell_length_c 26.012901
_cell_angle_alpha 90.000000
_cell_angle_beta 90.000000
_cell_angle_gamma 90.000000
_cell_volume 3227.453855
_symmetry_space_group_name_H-M "P M M N"
_symmetry_group_IT_number 59
_space_group.IT_coordinate_system_code '2'
_symmetry_cell_setting 'orthorhombic'
loop_
_space_group_symop_operation_xyz
x,y,z
1/2-x,1/2-y,z
1/2+x,-y,-z
-x,1/2+y,-z
-x,-y,-z
1/2+x,1/2+y,-z
1/2-x,y,z
x,1/2-y,z
loop_
_atom_site_type_symbol
_atom_site_label
_atom_site_fract_x
_atom_site_fract_y
_atom_site_fract_z
Si Si1 0.526252 0.573124 0.630165
Si Si2 0.359096 0.422443 0.983669
Si Si3 0.362164 0.422865 0.580889
Si Si4 0.360169 0.425168 0.171597
Si Si5 0.356410 0.071604 0.466908
Si Si6 0.140140 0.926354 0.278525
Si Si7 0.955141 0.076263 0.922637
O O1 0.535411 0.750000 0.635909
O O2 0.415973 0.522458 0.623766
O O3 0.577489 0.509557 0.578716
O O4 0.571248 0.499117 0.679914
O O5 0.250000 0.456857 0.965344
O O6 0.369162 0.250000 0.001918
O O7 0.433171 0.454173 0.937104
O O8 0.385064 0.527861 0.031311
O O9 0.250000 0.445650 0.590121
O O10 0.391441 0.250000 0.587973
O O11 0.391080 0.480916 0.523507
O O12 0.250000 0.461319 0.156136
O O13 0.375464 0.250000 0.180735
O O14 0.389435 0.510393 0.223273
O O15 0.431433 0.480197 0.127394
O O16 0.250000 0.008024 0.456434
O O17 0.353786 0.250000 0.466589
O O18 0.250000 0.969911 0.291478
O O19 0.124509 0.750000 0.278112
O O20 0.936181 0.250000 0.910866
#
# Coordination Sequence:
#
# PCOD8240628 Si02
#       7
#     8   8   8   8   8   8   8
#     4  11  20  30  49  74 100 128 157 196 245 294
#     4   9  18  32  48  69 101 138 171 202 239 284
#     4   9  18  33  50  67  92 128 167 203 238 281
#     4  10  20  34  52  73  99 130 161 196 242 293
#     4   8  15  28  46  69  97 128 159 191 233 288
#     4  10  21  36  53  74  99 126 159 199 241 289
#     4  10  19  30  48  74 101 131 168 207 244 285
#
# _framework density 17.351139
#
# number of rings (size 3 to 8) (size 9 to 14) (size 15 to 20)
#    0.000    2.429    0.000    3.857    0.000    5.143 
#    0.000    0.714    0.000    2.571    0.000    2.000 
#    0.000    0.000    0.000    0.000    0.000    0.000 
#
# Total GULP energy -694381.311187 kJ/mol
# GULP energy per Si atom -12399.666271 kJ/mol
# Density = 1.731165 g / cm^3
# Si number density = 17.351139 Si / 1000 Ang^3
#
#
#
# Elastic Constant Matrix: (Units=GPa)
#
#
# Indices 1 2 3 4 5 6 
#
# 1 92.8525 35.0020 58.7828 0.0000 0.0000 0.0000
# 2 35.0020 62.2040 41.9994 0.0000 0.0000 0.0000
# 3 58.7828 41.9994 102.5851 0.0000 0.0000 0.0000
# 4 0.0000 0.0000 0.0000 30.1451 0.0000 0.0000
# 5 0.0000 0.0000 0.0000 0.0000 27.8130 0.0000
# 6 0.0000 0.0000 0.0000 0.0000 0.0000 23.9862
#
#
#
# Elastic Compliance Matrix: (Units=1/GPa)
#
#
# Indices 1 2 3 4 5 6 
#
# 1 0.017695 -0.004299 -0.008379 0.000000 0.000000 0.000000
# 2 -0.004299 0.023262 -0.007060 0.000000 0.000000 0.000000
# 3 -0.008379 -0.007060 0.017440 0.000000 0.000000 0.000000
# 4 0.000000 0.000000 0.000000 0.033173 0.000000 0.000000
# 5 0.000000 0.000000 0.000000 0.000000 0.035954 0.000000
# 6 0.000000 0.000000 0.000000 0.000000 0.000000 0.041691
#
#
# Mechanical properties :
#
#
# Convention : Reuss Voigt Hill
#
# Bulk Modulus (GPa) = 52.85523 58.80111 55.82817
# Shear Modulus (GPa) = 23.25575 24.51268 23.88421
#
# Velocity S-wave (km/s) = 3.66498 3.76272 3.71418
# Velocity P-wave (km/s) = 6.95972 7.26911 7.11610
#
# Compressibility (1/GPa) = 0.01891961
#
# Stress axis : x y z
#
# Youngs Moduli (GPa) = 56.51208 42.98786 57.33906
#
# Poissons Ratio (x) = 0.18482 0.48047
# Poissons Ratio (y) = 0.24297 0.40483
# Poissons Ratio (z) = 0.47354 0.30351
#
# Static dielectric constant tensor:
#      x y z
#    x 3.258130 0.000000 0.000000 
#    y 0.000000 3.164930 0.000000 
#    z 0.000000 0.000000 3.155530 
# 
# 
# High freq. dielectric constant tensor:
#      x y z
#    x 1.665340 0.000000 0.000000 
#    y 0.000000 1.669250 0.000000 
#    z 0.000000 0.000000 1.656220 
# 
# From -- ./inp_files/30291.got.cif
#   From: 2010.03.12/outbox.cif.g09.slc.cpg/sg59_16_cif.got.tgz:30291.got - 2010.04.16 16:29:54.
