data_PCOD8240889
_publ_section_title
;
Structure prediction by ZEFSAII (Michael W. Deem and Ramdas Pophale) SiO2 
 PCOD8240889
Probable space group: P M M N
;
_chemical_formula_sum "Si O2"
_cell_formula_units_Z 48
_cell_length_a 12.567239
_cell_length_b 27.116080
_cell_length_c 7.538557
_cell_angle_alpha 90.000000
_cell_angle_beta 90.000000
_cell_angle_gamma 90.000000
_cell_volume 2568.946169
_symmetry_space_group_name_H-M "P M M N"
_symmetry_group_IT_number 59
_space_group.IT_coordinate_system_code '2'
_symmetry_cell_setting 'orthorhombic'
loop_
_space_group_symop_operation_xyz
x,y,z
1/2-x,1/2-y,z
1/2+x,-y,-z
-x,1/2+y,-z
-x,-y,-z
1/2+x,1/2+y,-z
1/2-x,y,z
x,1/2-y,z
loop_
_atom_site_type_symbol
_atom_site_label
_atom_site_fract_x
_atom_site_fract_y
_atom_site_fract_z
Si Si1 0.014244 0.306078 0.955581
Si Si2 0.629511 0.902969 0.997322
Si Si3 0.125677 0.045176 0.362233
Si Si4 0.490040 0.943995 0.295235
Si Si5 0.873529 0.153397 0.658856
Si Si6 0.630282 0.306982 0.285130
O O1 0.057918 0.250000 0.969936
O O2 0.942749 0.321520 0.121867
O O3 0.110189 0.345249 0.956258
O O4 0.943333 0.310211 0.779509
O O5 0.750000 0.915385 0.048969
O O6 0.609928 0.913515 0.789218
O O7 0.555055 0.938658 0.112954
O O8 0.250000 0.034681 0.398628
O O9 0.071264 0.064122 0.541939
O O10 0.067558 0.996073 0.296131
O O11 0.397611 0.903254 0.298350
O O12 0.750000 0.165326 0.692336
O O13 0.906024 0.162303 0.455622
O O14 0.750000 0.320936 0.229720
O O15 0.620659 0.250000 0.335351
#
# Coordination Sequence:
#
# PCOD8240889 Si02
#       6
#     8   8   8   8   8   8
#     4  10  20  33  50  72  98 130 169 210 250 295
#     4  10  21  36  53  73  99 132 168 207 251 296
#     4  10  20  35  55  77 102 133 167 204 249 300
#     4  10  20  34  53  77 103 131 166 206 248 298
#     4  10  19  31  49  74 103 133 165 204 251 301
#     4   9  17  29  46  69  97 128 161 198 244 298
#
# _framework density 18.684702999999999
#
# number of rings (size 3 to 8) (size 9 to 14) (size 15 to 20)
#    0.000    2.167    0.000    3.500    0.000    2.000 
#    0.000    0.000    0.000   16.000    0.000    4.667 
#    0.000    0.000    0.000    0.000    0.000    0.000 
#
# Total GULP energy -595274.989392 kJ/mol
# GULP energy per Si atom -12401.562279 kJ/mol
# Density = 1.864218 g / cm^3
# Si number density = 18.684703 Si / 1000 Ang^3
#
#
#
# Elastic Constant Matrix: (Units=GPa)
#
#
# Indices 1 2 3 4 5 6 
#
# 1 63.3028 13.3171 23.1806 0.0000 0.0000 0.0000
# 2 13.3171 61.5312 9.0058 0.0000 0.0000 0.0000
# 3 23.1806 9.0058 64.2353 0.0000 0.0000 0.0000
# 4 0.0000 0.0000 0.0000 27.1646 0.0000 0.0000
# 5 0.0000 0.0000 0.0000 0.0000 2.7467 0.0000
# 6 0.0000 0.0000 0.0000 0.0000 0.0000 -14.5274
#
#
#
# Elastic Compliance Matrix: (Units=1/GPa)
#
#
# Indices 1 2 3 4 5 6 
#
# 1 0.018777 -0.003137 -0.006336 0.000000 0.000000 0.000000
# 2 -0.003137 0.017116 -0.001268 0.000000 0.000000 0.000000
# 3 -0.006336 -0.001268 0.018032 0.000000 0.000000 0.000000
# 4 0.000000 0.000000 0.000000 0.036813 0.000000 0.000000
# 5 0.000000 0.000000 0.000000 0.000000 0.364078 0.000000
# 6 0.000000 0.000000 0.000000 0.000000 0.000000 -0.068836
#
#
# Mechanical properties :
#
#
# Convention : Reuss Voigt Hill
#
# Bulk Modulus (GPa) = 30.82219 31.11960 30.97089
# Shear Modulus (GPa) = 11.95381 12.64783 12.30082
#
# Velocity S-wave (km/s) = 2.53210 2.60457 2.56859
# Velocity P-wave (km/s) = 5.00804 5.07310 5.04067
#
# Compressibility (1/GPa) = 0.03244416
#
# Stress axis : x y z
#
# Youngs Moduli (GPa) = 53.25604 58.42376 55.45654
#
# Poissons Ratio (x) = 0.18325 0.35139
# Poissons Ratio (y) = 0.16704 0.07031
# Poissons Ratio (z) = 0.33745 0.07407
#
# Static dielectric constant tensor:
#      x y z
#    x 4.303050 0.000000 0.000000 
#    y 0.000000 3.299290 0.000000 
#    z 0.000000 0.000000 3.495850 
# 
# 
# High freq. dielectric constant tensor:
#      x y z
#    x 1.718000 0.000000 0.000000 
#    y 0.000000 1.721730 0.000000 
#    z 0.000000 0.000000 1.736560 
# 
# From -- ./inp_files/2139.got.cif
#   From: 2010.03.12/outbox.cif.g09.slc.cpg/sg59_2_cif.got.tgz:2139.got - 2010.04.16 16:29:54.
