data_PCOD8240426
_publ_section_title
;
Structure prediction by ZEFSAII (Michael W. Deem and Ramdas Pophale) SiO2 
 PCOD8240426
Probable space group: P M M N
;
_chemical_formula_sum "Si O2"
_cell_formula_units_Z 64
_cell_length_a 9.244286
_cell_length_b 30.025358
_cell_length_c 15.146886
_cell_angle_alpha 90.000000
_cell_angle_beta 90.000000
_cell_angle_gamma 90.000000
_cell_volume 4204.215067
_symmetry_space_group_name_H-M "P M M N"
_symmetry_group_IT_number 59
_space_group.IT_coordinate_system_code '2'
_symmetry_cell_setting 'orthorhombic'
loop_
_space_group_symop_operation_xyz
x,y,z
1/2-x,1/2-y,z
1/2+x,-y,-z
-x,1/2+y,-z
-x,-y,-z
1/2+x,1/2+y,-z
1/2-x,y,z
x,1/2-y,z
loop_
_atom_site_type_symbol
_atom_site_label
_atom_site_fract_x
_atom_site_fract_y
_atom_site_fract_z
Si Si1 0.920116 0.369220 0.417439
Si Si2 0.583243 0.199258 0.264453
Si Si3 0.421392 0.363447 0.599605
Si Si4 0.582726 0.302178 0.733655
Si Si5 0.588080 0.803101 0.904938
Si Si6 0.088417 0.044004 0.398930
Si Si7 0.589846 0.197120 0.931353
Si Si8 0.090310 0.461988 0.608449
O O1 0.750000 0.377070 0.433626
O O2 0.951051 0.329142 0.350764
O O3 0.996304 0.355370 0.508050
O O4 0.988781 0.413792 0.375551
O O5 0.750000 0.196277 0.237370
O O6 0.537920 0.250000 0.285727
O O7 0.494922 0.179732 0.181653
O O8 0.250000 0.358655 0.582938
O O9 0.475482 0.327379 0.668731
O O10 0.458476 0.412561 0.638383
O O11 0.750000 0.314662 0.715022
O O12 0.558647 0.250000 0.718847
O O13 0.538454 0.316389 0.833145
O O14 0.750000 0.821699 0.900892
O O15 0.584053 0.750000 0.907644
O O16 0.515993 0.822714 0.994079
O O17 0.250000 0.050753 0.360490
O O18 0.094960 0.037904 0.503103
O O19 0.019950 0.999360 0.355615
O O20 0.750000 0.177965 0.949136
O O21 0.594971 0.250000 0.937449
O O22 0.250000 0.473131 0.645411
#
# Coordination Sequence:
#
# PCOD8240426 Si02
#       8
#     8   8   8   8   8   8   8   8
#     4  10  19  30  44  60  82 114 147 178 211 248
#     4   9  18  31  44  58  79 111 148 178 204 241
#     4  10  20  31  43  61  85 113 144 179 215 248
#     4   9  18  31  45  61  83 114 149 179 207 244
#     4   9  16  25  40  62  83 103 130 169 216 255
#     4   9  16  26  42  62  81 102 132 172 215 254
#     4   8  14  26  43  60  79 105 136 170 208 249
#     4   8  15  27  41  58  80 105 134 168 210 257
#
# _framework density 15.222818
#
# number of rings (size 3 to 8) (size 9 to 14) (size 15 to 20)
#    0.000    3.000    0.000    3.000    0.000    7.250 
#    0.000    2.500    0.000    0.000    0.000    0.000 
#    0.000    1.000    0.000    3.250    0.000    4.250 
#
# Total GULP energy -793320.572414 kJ/mol
# GULP energy per Si atom -12395.633944 kJ/mol
# Density = 1.518817 g / cm^3
# Si number density = 15.222818 Si / 1000 Ang^3
#
#
#
# Elastic Constant Matrix: (Units=GPa)
#
#
# Indices 1 2 3 4 5 6 
#
# 1 110.6764 48.4976 59.7094 0.0000 0.0000 0.0000
# 2 48.4976 65.5370 40.8244 0.0000 0.0000 0.0000
# 3 59.7094 40.8244 79.7674 0.0000 0.0000 0.0000
# 4 0.0000 0.0000 0.0000 -0.1406 0.0000 0.0000
# 5 0.0000 0.0000 0.0000 0.0000 15.4713 0.0000
# 6 0.0000 0.0000 0.0000 0.0000 0.0000 22.8944
#
#
#
# Elastic Compliance Matrix: (Units=1/GPa)
#
#
# Indices 1 2 3 4 5 6 
#
# 1 0.017015 -0.006837 -0.009237 0.000000 0.000000 0.000000
# 2 -0.006837 0.025147 -0.007752 0.000000 0.000000 0.000000
# 3 -0.009237 -0.007752 0.023418 0.000000 0.000000 0.000000
# 4 0.000000 0.000000 0.000000 -7.111844 0.000000 0.000000
# 5 0.000000 0.000000 0.000000 0.000000 0.064636 0.000000
# 6 0.000000 0.000000 0.000000 0.000000 0.000000 0.043679
#
#
# Mechanical properties :
#
#
# Convention : Reuss Voigt Hill
#
# Bulk Modulus (GPa) = 55.78071 61.56039 58.67055
# Shear Modulus (GPa) = -0.72629 14.77496 7.02434
#
# Velocity S-wave (km/s) = -0.69148 3.11879 2.15043
# Velocity P-wave (km/s) = 6.00707 7.31413 6.69258
#
# Compressibility (1/GPa) = 0.01792734
#
# Stress axis : x y z
#
# Youngs Moduli (GPa) = 58.77307 39.76619 42.70136
#
# Poissons Ratio (x) = 0.27188 0.39444
# Poissons Ratio (y) = 0.40182 0.33104
# Poissons Ratio (z) = 0.54289 0.30828
#
# Static dielectric constant tensor:
#      x y z
#    x 3.137980 0.000000 0.000000 
#    y 0.000000 2.825980 0.000000 
#    z 0.000000 0.000000 2.745130 
# 
# 
# High freq. dielectric constant tensor:
#      x y z
#    x 1.596680 0.000000 0.000000 
#    y 0.000000 1.554140 0.000000 
#    z 0.000000 0.000000 1.553160 
# 
# From -- ./inp_files/21954.got.cif
#   From: 2010.03.12/outbox.cif.g09.slc.cpg/sg59_11_cif.got.tgz:21954.got - 2010.04.16 16:29:54.
