data_PCOD8240236
_publ_section_title
;
Structure prediction by ZEFSAII (Michael W. Deem and Ramdas Pophale) SiO2 
 PCOD8240236
Probable space group: P M M N
;
_chemical_formula_sum "Si O2"
_cell_formula_units_Z 40
_cell_length_a 14.070971
_cell_length_b 14.464580
_cell_length_c 9.292467
_cell_angle_alpha 90.000000
_cell_angle_beta 90.000000
_cell_angle_gamma 90.000000
_cell_volume 1891.302180
_symmetry_space_group_name_H-M "P M M N"
_symmetry_group_IT_number 59
_space_group.IT_coordinate_system_code '2'
_symmetry_cell_setting 'orthorhombic'
loop_
_space_group_symop_operation_xyz
x,y,z
1/2-x,1/2-y,z
1/2+x,-y,-z
-x,1/2+y,-z
-x,-y,-z
1/2+x,1/2+y,-z
1/2-x,y,z
x,1/2-y,z
loop_
_atom_site_type_symbol
_atom_site_label
_atom_site_fract_x
_atom_site_fract_y
_atom_site_fract_z
Si Si1 0.375014 0.250000 0.150543
Si Si2 0.418359 0.750000 0.935445
Si Si3 0.485972 0.608602 0.470600
Si Si4 0.146298 0.435441 0.997864
Si Si5 0.356862 0.750000 0.631898
Si Si6 0.955254 0.088617 0.848954
Si Si7 0.145285 0.250000 0.478172
O O1 0.487574 0.250000 0.160488
O O2 0.334676 0.250000 0.309360
O O3 0.336053 0.164302 0.062418
O O4 0.342128 0.750000 0.806405
O O5 0.413244 0.839083 0.036618
O O6 0.500000 0.500000 0.500000
O O7 0.412924 0.657391 0.581038
O O8 0.442037 0.624502 0.312276
O O9 0.588391 0.657949 0.476496
O O10 0.250000 0.470822 0.940940
O O11 0.067593 0.433293 0.871453
O O12 0.106921 0.497209 0.129284
O O13 0.250000 0.750000 0.567301
O O14 0.250000 0.250000 0.553301
#
# Coordination Sequence:
#
# PCOD8240236 Si02
#       7
#     4   4   8   8   4   8   4
#     4  10  18  36  61  87 121 160 200 254 315 378
#     4  10  20  42  64  87 123 170 218 266 318 376
#     4  11  24  43  66  96 137 177 212 275 341 400
#     4  10  21  36  61  94 125 159 209 261 311 378
#     4  11  26  45  68  97 129 175 227 276 333 406
#     4  10  23  39  63  91 126 170 212 262 324 384
#     4  11  22  37  61  93 127 169 217 258 318 396
#
# _framework density 21.149449000000001
#
# number of rings (size 3 to 8) (size 9 to 14) (size 15 to 20)
#    0.000    1.600    2.000    3.300    5.600    3.200 
#    0.000    1.000    0.000    0.000    0.000    0.000 
#    0.000    0.000    0.000    0.000    0.000    0.000 
#
# Total GULP energy -495827.163549 kJ/mol
# GULP energy per Si atom -12395.679089 kJ/mol
# Density = 2.110131 g / cm^3
# Si number density = 21.149449 Si / 1000 Ang^3
#
#
#
# Elastic Constant Matrix: (Units=GPa)
#
#
# Indices 1 2 3 4 5 6 
#
# 1 123.4560 66.9716 21.5982 0.0000 0.0000 0.0000
# 2 66.9716 150.0792 40.1127 0.0000 0.0000 0.0000
# 3 21.5982 40.1127 119.6221 0.0000 0.0000 0.0000
# 4 0.0000 0.0000 0.0000 28.1822 0.0000 0.0000
# 5 0.0000 0.0000 0.0000 0.0000 -1.9372 0.0000
# 6 0.0000 0.0000 0.0000 0.0000 0.0000 -18.0671
#
#
#
# Elastic Compliance Matrix: (Units=1/GPa)
#
#
# Indices 1 2 3 4 5 6 
#
# 1 0.010701 -0.004678 -0.000363 0.000000 0.000000 0.000000
# 2 -0.004678 0.009364 -0.002295 0.000000 0.000000 0.000000
# 3 -0.000363 -0.002295 0.009195 0.000000 0.000000 0.000000
# 4 0.000000 0.000000 0.000000 0.035483 0.000000 0.000000
# 5 0.000000 0.000000 0.000000 0.000000 -0.516197 0.000000
# 6 0.000000 0.000000 0.000000 0.000000 0.000000 -0.055349
#
#
# Mechanical properties :
#
#
# Convention : Reuss Voigt Hill
#
# Bulk Modulus (GPa) = 68.55668 72.28025 70.41846
# Shear Modulus (GPa) = -10.26134 19.26723 4.50294
#
# Velocity S-wave (km/s) = -2.20508 3.02156 1.46073
# Velocity P-wave (km/s) = 5.09927 6.81346 6.01772
#
# Compressibility (1/GPa) = 0.01458647
#
# Stress axis : x y z
#
# Youngs Moduli (GPa) = 93.44487 106.78818 108.75470
#
# Poissons Ratio (x) = 0.49959 0.03952
# Poissons Ratio (y) = 0.43717 0.24964
# Poissons Ratio (z) = 0.03396 0.24513
#
# Static dielectric constant tensor:
#      x y z
#    x 3.888380 0.000000 0.000000 
#    y 0.000000 3.971250 0.000000 
#    z 0.000000 0.000000 3.620860 
# 
# 
# High freq. dielectric constant tensor:
#      x y z
#    x 1.831150 0.000000 0.000000 
#    y 0.000000 1.836860 0.000000 
#    z 0.000000 0.000000 1.817660 
# 
# From -- ./inp_files/8676.got.cif
#   From: 2010.03.12/outbox.cif.g09.slc.cpg/sg59_5_cif.got.tgz:8676.got - 2010.04.16 16:29:54.
