data_PCOD8240903
_publ_section_title
;
Structure prediction by ZEFSAII (Michael W. Deem and Ramdas Pophale) SiO2 
 PCOD8240903
Probable space group: P M M N
;
_chemical_formula_sum "Si O2"
_cell_formula_units_Z 64
_cell_length_a 12.938330
_cell_length_b 22.126385
_cell_length_c 11.945890
_cell_angle_alpha 90.000000
_cell_angle_beta 90.000000
_cell_angle_gamma 90.000000
_cell_volume 3419.851122
_symmetry_space_group_name_H-M "P M M N"
_symmetry_group_IT_number 59
_space_group.IT_coordinate_system_code '2'
_symmetry_cell_setting 'orthorhombic'
loop_
_space_group_symop_operation_xyz
x,y,z
1/2-x,1/2-y,z
1/2+x,-y,-z
-x,1/2+y,-z
-x,-y,-z
1/2+x,1/2+y,-z
1/2-x,y,z
x,1/2-y,z
loop_
_atom_site_type_symbol
_atom_site_label
_atom_site_fract_x
_atom_site_fract_y
_atom_site_fract_z
Si Si1 0.130793 0.533699 0.901300
Si Si2 0.985535 0.184565 0.364882
Si Si3 0.862850 0.532338 0.534941
Si Si4 0.630595 0.681870 0.189266
Si Si5 0.053979 0.094070 0.981448
Si Si6 0.366384 0.160454 0.557890
Si Si7 0.365472 0.182454 0.162009
Si Si8 0.568595 0.055209 0.351864
O O1 0.250000 0.552189 0.918643
O O2 0.111461 0.468012 0.952944
O O3 0.105319 0.532854 0.769114
O O4 0.060443 0.582090 0.968464
O O5 0.929015 0.250000 0.346901
O O6 0.908832 0.127237 0.368340
O O7 0.054248 0.192316 0.475067
O O8 0.059496 0.167983 0.262912
O O9 0.750000 0.531581 0.593211
O O10 0.875681 0.588454 0.451309
O O11 0.870662 0.474337 0.454873
O O12 0.947483 0.536737 0.633740
O O13 0.750000 0.661232 0.170402
O O14 0.615043 0.750000 0.144269
O O15 0.550946 0.636282 0.128508
O O16 0.601245 0.680094 0.318858
O O17 0.121541 0.131631 0.068886
O O18 0.250000 0.182577 0.531063
O O19 0.250000 0.178079 0.209626
O O20 0.386395 0.250000 0.113053
#
# Coordination Sequence:
#
# PCOD8240903 Si02
#       8
#     8   8   8   8   8   8   8   8
#     4  11  23  39  58  78 104 142 184 231 278 326
#     4  10  19  31  49  76 113 149 182 224 268 321
#     4   9  18  32  55  82 113 147 181 225 275 328
#     4  10  19  31  51  79 112 147 180 221 274 331
#     4  11  22  37  55  79 106 138 182 229 271 332
#     4   9  17  30  50  80 112 141 174 212 266 333
#     4  10  19  32  53  80 112 146 176 221 285 339
#     4  10  19  35  53  80 111 148 186 225 274 331
#
# _framework density 18.714265999999999
#
# number of rings (size 3 to 8) (size 9 to 14) (size 15 to 20)
#    0.000    2.000    1.250    3.375    0.000    3.750 
#    0.000    0.625    0.000    4.500    0.000    0.000 
#    0.000   10.000    0.000    0.000    0.000    0.000 
#
# Total GULP energy -793272.467151 kJ/mol
# GULP energy per Si atom -12394.882299 kJ/mol
# Density = 1.867167 g / cm^3
# Si number density = 18.714266 Si / 1000 Ang^3
#
#
#
# Elastic Constant Matrix: (Units=GPa)
#
#
# Indices 1 2 3 4 5 6 
#
# 1 73.7192 18.7994 17.1842 0.0000 0.0000 0.0000
# 2 18.7994 109.7453 23.4178 0.0000 0.0000 0.0000
# 3 17.1842 23.4178 76.4088 0.0000 0.0000 0.0000
# 4 0.0000 0.0000 0.0000 36.5211 0.0000 0.0000
# 5 0.0000 0.0000 0.0000 0.0000 28.9874 0.0000
# 6 0.0000 0.0000 0.0000 0.0000 0.0000 27.6427
#
#
#
# Elastic Compliance Matrix: (Units=1/GPa)
#
#
# Indices 1 2 3 4 5 6 
#
# 1 0.014691 -0.001938 -0.002710 0.000000 0.000000 0.000000
# 2 -0.001938 0.010005 -0.002631 0.000000 0.000000 0.000000
# 3 -0.002710 -0.002631 0.014503 0.000000 0.000000 0.000000
# 4 0.000000 0.000000 0.000000 0.027381 0.000000 0.000000
# 5 0.000000 0.000000 0.000000 0.000000 0.034498 0.000000
# 6 0.000000 0.000000 0.000000 0.000000 0.000000 0.036176
#
#
# Mechanical properties :
#
#
# Convention : Reuss Voigt Hill
#
# Bulk Modulus (GPa) = 40.58118 42.07514 41.32816
# Shear Modulus (GPa) = 31.24492 31.99504 31.61998
#
# Velocity S-wave (km/s) = 4.09048 4.13929 4.11496
# Velocity P-wave (km/s) = 6.63634 6.73622 6.68647
#
# Compressibility (1/GPa) = 0.02464196
#
# Stress axis : x y z
#
# Youngs Moduli (GPa) = 68.06900 99.94651 68.95048
#
# Poissons Ratio (x) = 0.19373 0.18685
# Poissons Ratio (y) = 0.13194 0.18138
# Poissons Ratio (z) = 0.18446 0.26291
#
# Static dielectric constant tensor:
#      x y z
#    x 3.269700 0.000000 0.000000 
#    y 0.000000 3.777080 0.000000 
#    z 0.000000 0.000000 3.465290 
# 
# 
# High freq. dielectric constant tensor:
#      x y z
#    x 1.688740 0.000000 0.000000 
#    y 0.000000 1.743130 0.000000 
#    z 0.000000 0.000000 1.727500 
# 
# From -- ./inp_files/16228.got.cif
#   From: 2010.03.12/outbox.cif.g09.slc.cpg/sg59_9_cif.got.tgz:16228.got - 2010.04.16 16:29:54.
