data_PCOD8240183
_publ_section_title
;
Structure prediction by ZEFSAII (Michael W. Deem and Ramdas Pophale) SiO2 
 PCOD8240183
Probable space group: P M M N
;
_chemical_formula_sum "Si O2"
_cell_formula_units_Z 40
_cell_length_a 9.481643
_cell_length_b 10.060523
_cell_length_c 22.562167
_cell_angle_alpha 90.000000
_cell_angle_beta 90.000000
_cell_angle_gamma 90.000000
_cell_volume 2152.211596
_symmetry_space_group_name_H-M "P M M N"
_symmetry_group_IT_number 59
_space_group.IT_coordinate_system_code '2'
_symmetry_cell_setting 'orthorhombic'
loop_
_space_group_symop_operation_xyz
x,y,z
1/2-x,1/2-y,z
1/2+x,-y,-z
-x,1/2+y,-z
-x,-y,-z
1/2+x,1/2+y,-z
1/2-x,y,z
x,1/2-y,z
loop_
_atom_site_type_symbol
_atom_site_label
_atom_site_fract_x
_atom_site_fract_y
_atom_site_fract_z
Si Si1 0.090721 0.405644 0.261579
Si Si2 0.750000 0.099373 0.075104
Si Si3 0.037974 0.098021 0.132188
Si Si4 0.750000 0.591784 0.964230
Si Si5 0.419606 0.003620 0.632354
Si Si6 0.920563 0.250000 0.577224
Si Si7 0.915532 0.250000 0.441644
O O1 0.250000 0.430099 0.285254
O O2 0.052908 0.250000 0.261416
O O3 0.078776 0.467496 0.195150
O O4 0.974031 0.479496 0.301103
O O5 0.750000 0.250000 0.048256
O O6 0.875359 0.076619 0.120532
O O7 0.750000 0.989949 0.024447
O O8 0.085817 0.250000 0.137170
O O9 0.117500 0.041642 0.074539
O O10 0.750000 0.750000 0.979083
O O11 0.250000 0.027195 0.631954
O O12 0.469465 0.880116 0.592201
O O13 0.507337 0.125115 0.607329
O O14 0.750000 0.250000 0.584988
O O15 0.968999 0.250000 0.508860
O O16 0.750000 0.250000 0.440447
#
# Coordination Sequence:
#
# PCOD8240183 Si02
#       7
#     8   4   8   4   8   4   4
#     4  10  19  34  57  83 113 146 198 243 285 344
#     4  10  20  32  52  82 110 136 181 227 286 338
#     4   9  18  32  52  80 108 144 184 231 281 333
#     4  10  18  34  56  76 106 146 181 227 278 338
#     4  11  22  38  61  91 119 155 196 245 296 340
#     4  11  23  41  61  83 125 165 194 231 290 361
#     4   9  20  39  61  93 121 149 196 247 290 339
#
# _framework density 18.585533000000002
#
# number of rings (size 3 to 8) (size 9 to 14) (size 15 to 20)
#    0.000    2.000    2.000    2.100    1.400    0.000 
#    0.000    3.000    4.400    0.000    0.000    0.000 
#    0.000    0.000    0.000    0.000    0.000    0.000 
#
# Total GULP energy -495772.715296 kJ/mol
# GULP energy per Si atom -12394.317882 kJ/mol
# Density = 1.854323 g / cm^3
# Si number density = 18.585533 Si / 1000 Ang^3
#
#
#
# Elastic Constant Matrix: (Units=GPa)
#
#
# Indices 1 2 3 4 5 6 
#
# 1 117.8920 37.2816 40.1275 0.0000 0.0000 0.0000
# 2 37.2816 90.1647 49.2980 0.0000 0.0000 0.0000
# 3 40.1275 49.2980 118.7127 0.0000 0.0000 0.0000
# 4 0.0000 0.0000 0.0000 21.3804 0.0000 0.0000
# 5 0.0000 0.0000 0.0000 0.0000 39.0397 0.0000
# 6 0.0000 0.0000 0.0000 0.0000 0.0000 132.0808
#
#
#
# Elastic Compliance Matrix: (Units=1/GPa)
#
#
# Indices 1 2 3 4 5 6 
#
# 1 0.010180 -0.003012 -0.002190 0.000000 0.000000 0.000000
# 2 -0.003012 0.015240 -0.005311 0.000000 0.000000 0.000000
# 3 -0.002190 -0.005311 0.011369 0.000000 0.000000 0.000000
# 4 0.000000 0.000000 0.000000 0.046772 0.000000 0.000000
# 5 0.000000 0.000000 0.000000 0.000000 0.025615 0.000000
# 6 0.000000 0.000000 0.000000 0.000000 0.000000 0.007571
#
#
# Mechanical properties :
#
#
# Convention : Reuss Voigt Hill
#
# Bulk Modulus (GPa) = 63.43613 64.46486 63.95050
# Shear Modulus (GPa) = 34.95824 51.83765 43.39795
#
# Velocity S-wave (km/s) = 4.34168 5.28696 4.83747
# Velocity P-wave (km/s) = 7.70323 8.48705 8.10462
#
# Compressibility (1/GPa) = 0.01576389
#
# Stress axis : x y z
#
# Youngs Moduli (GPa) = 98.22847 65.61807 87.95484
#
# Poissons Ratio (x) = 0.19762 0.19266
# Poissons Ratio (y) = 0.29584 0.46709
# Poissons Ratio (z) = 0.21517 0.34847
#
# Static dielectric constant tensor:
#      x y z
#    x 3.509560 0.000000 0.000000 
#    y 0.000000 3.268160 0.000000 
#    z 0.000000 0.000000 3.651340 
# 
# 
# High freq. dielectric constant tensor:
#      x y z
#    x 1.732700 0.000000 0.000000 
#    y 0.000000 1.686970 0.000000 
#    z 0.000000 0.000000 1.732150 
# 
# From -- ./inp_files/28798.got.cif
#   From: 2010.03.12/outbox.cif.g09.slc.cpg/sg59_15_cif.got.tgz:28798.got - 2010.04.16 16:29:54.
