data_PCOD8240011
_publ_section_title
;
Structure prediction by ZEFSAII (Michael W. Deem and Ramdas Pophale) SiO2 
 PCOD8240011
Probable space group: P M M N
;
_chemical_formula_sum "Si O2"
_cell_formula_units_Z 56
_cell_length_a 8.822039
_cell_length_b 24.255954
_cell_length_c 14.707293
_cell_angle_alpha 90.000000
_cell_angle_beta 90.000000
_cell_angle_gamma 90.000000
_cell_volume 3147.169098
_symmetry_space_group_name_H-M "P M M N"
_symmetry_group_IT_number 59
_space_group.IT_coordinate_system_code '2'
_symmetry_cell_setting 'orthorhombic'
loop_
_space_group_symop_operation_xyz
x,y,z
1/2-x,1/2-y,z
1/2+x,-y,-z
-x,1/2+y,-z
-x,-y,-z
1/2+x,1/2+y,-z
1/2-x,y,z
x,1/2-y,z
loop_
_atom_site_type_symbol
_atom_site_label
_atom_site_fract_x
_atom_site_fract_y
_atom_site_fract_z
Si Si1 0.427639 0.932187 0.865584
Si Si2 0.570049 0.750000 0.790102
Si Si3 0.427177 0.362896 0.286793
Si Si4 0.929662 0.364481 0.960032
Si Si5 0.424127 0.424512 0.460119
Si Si6 0.930078 0.750000 0.997597
Si Si7 0.074616 0.540061 0.368372
Si Si8 0.572408 0.945654 0.176580
O O1 0.250000 0.923965 0.857994
O O2 0.499491 0.910415 0.773204
O O3 0.469787 0.996741 0.873182
O O4 0.490953 0.898394 0.952201
O O5 0.750000 0.750000 0.784696
O O6 0.503386 0.803634 0.739710
O O7 0.513897 0.750000 0.893528
O O8 0.250000 0.365225 0.265559
O O9 0.459144 0.373182 0.393482
O O10 0.750000 0.358069 0.962287
O O11 0.004476 0.304340 0.954732
O O12 0.978722 0.397158 0.870524
O O13 0.250000 0.425568 0.491870
O O14 0.528441 0.418911 0.549223
O O15 0.462610 0.478724 0.401790
O O16 0.750000 0.750000 0.006061
O O17 0.250000 0.548244 0.343496
O O18 0.972825 0.553298 0.281779
O O19 0.750000 0.933201 0.168619
#
# Coordination Sequence:
#
# PCOD8240011 Si02
#       8
#     8   4   8   8   8   4   8   8
#     4  10  21  34  51  78 111 144 177 220 270 322
#     4   9  18  31  53  80 105 138 179 221 260 310
#     4  10  18  32  53  78 108 142 179 217 264 322
#     4  11  23  38  55  78 110 145 183 226 274 323
#     4   9  18  31  50  76 106 139 173 215 267 324
#     4  11  21  37  59  80 105 142 187 227 268 316
#     4  10  19  32  52  77 105 137 175 219 269 324
#     4  11  22  36  54  79 110 144 184 226 271 327
#
# _framework density 17.793769000000001
#
# number of rings (size 3 to 8) (size 9 to 14) (size 15 to 20)
#    0.000    1.857    2.857    1.929    0.000    2.286 
#    0.000    0.357    0.000    0.857    0.000    4.000 
#    0.000    0.000    0.000    0.000    0.000    0.000 
#
# Total GULP energy -694500.567952 kJ/mol
# GULP energy per Si atom -12401.795856 kJ/mol
# Density = 1.775327 g / cm^3
# Si number density = 17.793769 Si / 1000 Ang^3
#
#
#
# Elastic Constant Matrix: (Units=GPa)
#
#
# Indices 1 2 3 4 5 6 
#
# 1 44.6842 38.7032 26.4645 0.0000 0.0000 0.0000
# 2 38.7032 110.5524 42.8702 0.0000 0.0000 0.0000
# 3 26.4645 42.8702 80.4689 0.0000 0.0000 0.0000
# 4 0.0000 0.0000 0.0000 21.5121 0.0000 0.0000
# 5 0.0000 0.0000 0.0000 0.0000 30.2648 0.0000
# 6 0.0000 0.0000 0.0000 0.0000 0.0000 21.5589
#
#
#
# Elastic Compliance Matrix: (Units=1/GPa)
#
#
# Indices 1 2 3 4 5 6 
#
# 1 0.034389 -0.009646 -0.006171 0.000000 0.000000 0.000000
# 2 -0.009646 0.014107 -0.004343 0.000000 0.000000 0.000000
# 3 -0.006171 -0.004343 0.016770 0.000000 0.000000 0.000000
# 4 0.000000 0.000000 0.000000 0.046485 0.000000 0.000000
# 5 0.000000 0.000000 0.000000 0.000000 0.033042 0.000000
# 6 0.000000 0.000000 0.000000 0.000000 0.000000 0.046385
#
#
# Mechanical properties :
#
#
# Convention : Reuss Voigt Hill
#
# Bulk Modulus (GPa) = 40.08643 50.19794 45.14218
# Shear Modulus (GPa) = 20.84955 23.17832 22.01393
#
# Velocity S-wave (km/s) = 3.42677 3.61308 3.52116
# Velocity P-wave (km/s) = 6.18339 6.75855 6.47736
#
# Compressibility (1/GPa) = 0.02494610
#
# Stress axis : x y z
#
# Youngs Moduli (GPa) = 29.07892 70.88833 59.62928
#
# Poissons Ratio (x) = 0.68382 0.36796
# Poissons Ratio (y) = 0.28051 0.25896
# Poissons Ratio (z) = 0.17944 0.30786
#
# Static dielectric constant tensor:
#      x y z
#    x 3.205860 0.000000 0.000000 
#    y 0.000000 3.355330 0.000000 
#    z 0.000000 0.000000 3.283990 
# 
# 
# High freq. dielectric constant tensor:
#      x y z
#    x 1.686010 0.000000 0.000000 
#    y 0.000000 1.673740 0.000000 
#    z 0.000000 0.000000 1.684890 
# 
# From -- ./inp_files/21123.got.cif
#   From: 2010.03.12/outbox.cif.g09.slc.cpg/sg59_11_cif.got.tgz:21123.got - 2010.04.16 16:29:54.
