data_PCOD8240930
_publ_section_title
;
Structure prediction by ZEFSAII (Michael W. Deem and Ramdas Pophale) SiO2 
 PCOD8240930
Probable space group: P M M N
;
_chemical_formula_sum "Si O2"
_cell_formula_units_Z 48
_cell_length_a 9.054044
_cell_length_b 19.221758
_cell_length_c 15.376363
_cell_angle_alpha 90.000000
_cell_angle_beta 90.000000
_cell_angle_gamma 90.000000
_cell_volume 2676.019841
_symmetry_space_group_name_H-M "P M M N"
_symmetry_group_IT_number 59
_space_group.IT_coordinate_system_code '2'
_symmetry_cell_setting 'orthorhombic'
loop_
_space_group_symop_operation_xyz
x,y,z
1/2-x,1/2-y,z
1/2+x,-y,-z
-x,1/2+y,-z
-x,-y,-z
1/2+x,1/2+y,-z
1/2-x,y,z
x,1/2-y,z
loop_
_atom_site_type_symbol
_atom_site_label
_atom_site_fract_x
_atom_site_fract_y
_atom_site_fract_z
Si Si1 0.086883 0.415395 0.422535
Si Si2 0.925528 0.576944 0.769284
Si Si3 0.586093 0.080468 0.586146
Si Si4 0.923383 0.568646 0.241114
Si Si5 0.919568 0.168134 0.089057
Si Si6 0.080249 0.329858 0.915214
O O1 0.250000 0.384749 0.439304
O O2 0.029854 0.394063 0.326491
O O3 0.093156 0.498332 0.425557
O O4 0.980899 0.385792 0.498028
O O5 0.750000 0.567359 0.775837
O O6 0.999548 0.502719 0.787090
O O7 0.982261 0.632073 0.838170
O O8 0.750000 0.111163 0.600049
O O9 0.485585 0.099412 0.668696
O O10 0.750000 0.555411 0.251854
O O11 0.961100 0.624851 0.168023
O O12 0.750000 0.144501 0.097548
O O13 0.938457 0.250000 0.101826
O O14 0.978656 0.145173 0.994839
O O15 0.250000 0.340645 0.942896
O O16 0.048066 0.250000 0.891024
#
# Coordination Sequence:
#
# PCOD8240930 Si02
#       6
#     8   8   8   8   8   8
#     4   8  15  27  43  66  95 127 162 197 236 284
#     4  10  20  33  51  75 102 131 164 203 245 290
#     4   9  16  26  43  68  98 130 161 196 241 292
#     4  10  19  31  50  75 102 130 162 205 250 289
#     4  10  21  36  54  75  98 127 163 202 246 296
#     4   9  19  36  55  73  95 128 168 204 242 292
#
# _framework density 17.937086000000001
#
# number of rings (size 3 to 8) (size 9 to 14) (size 15 to 20)
#    0.000    2.667    0.000    3.000    0.000    7.667 
#    0.000    0.000    0.000    1.000    0.000    2.333 
#    0.000    0.000    0.000    0.000    0.000    0.000 
#
# Total GULP energy -595139.539115 kJ/mol
# GULP energy per Si atom -12398.740398 kJ/mol
# Density = 1.789626 g / cm^3
# Si number density = 17.937086 Si / 1000 Ang^3
#
#
#
# Elastic Constant Matrix: (Units=GPa)
#
#
# Indices 1 2 3 4 5 6 
#
# 1 114.4887 35.9964 77.7736 0.0000 0.0000 0.0000
# 2 35.9964 37.3026 50.3924 0.0000 0.0000 0.0000
# 3 77.7736 50.3924 154.4753 0.0000 0.0000 0.0000
# 4 0.0000 0.0000 0.0000 -5.9283 0.0000 0.0000
# 5 0.0000 0.0000 0.0000 0.0000 35.6530 0.0000
# 6 0.0000 0.0000 0.0000 0.0000 0.0000 16.7499
#
#
#
# Elastic Compliance Matrix: (Units=1/GPa)
#
#
# Indices 1 2 3 4 5 6 
#
# 1 0.014302 -0.007284 -0.004825 0.000000 0.000000 0.000000
# 2 -0.007284 0.051639 -0.013179 0.000000 0.000000 0.000000
# 3 -0.004825 -0.013179 0.013202 0.000000 0.000000 0.000000
# 4 0.000000 0.000000 0.000000 -0.168684 0.000000 0.000000
# 5 0.000000 0.000000 0.000000 0.000000 0.028048 0.000000
# 6 0.000000 0.000000 0.000000 0.000000 0.000000 0.059702
#
#
# Mechanical properties :
#
#
# Convention : Reuss Voigt Hill
#
# Bulk Modulus (GPa) = 35.00234 70.51015 52.75625
# Shear Modulus (GPa) = 85.75500 18.76855 52.26178
#
# Velocity S-wave (km/s) = 6.92189 3.23825 5.40365
# Velocity P-wave (km/s) = 9.13453 7.30594 8.27093
#
# Compressibility (1/GPa) = 0.02856951
#
# Stress axis : x y z
#
# Youngs Moduli (GPa) = 69.92084 19.36504 75.74847
#
# Poissons Ratio (x) = 0.14105 0.36545
# Poissons Ratio (y) = 0.50928 0.99826
# Poissons Ratio (z) = 0.33733 0.25520
#
# Static dielectric constant tensor:
#      x y z
#    x 3.539100 0.000000 0.000000 
#    y 0.000000 2.897700 0.000000 
#    z 0.000000 0.000000 3.551570 
# 
# 
# High freq. dielectric constant tensor:
#      x y z
#    x 1.707670 0.000000 0.000000 
#    y 0.000000 1.646120 0.000000 
#    z 0.000000 0.000000 1.708790 
# 
# From -- ./inp_files/18597.got.cif
#   From: 2010.03.12/outbox.cif.g09.slc.cpg/sg59_10_cif.got.tgz:18597.got - 2010.04.16 16:29:54.
