data_PCOD8240940
_publ_section_title
;
Structure prediction by ZEFSAII (Michael W. Deem and Ramdas Pophale) SiO2 
 PCOD8240940
Probable space group: P M M N
;
_chemical_formula_sum "Si O2"
_cell_formula_units_Z 64
_cell_length_a 18.892560
_cell_length_b 8.845921
_cell_length_c 20.759926
_cell_angle_alpha 90.000000
_cell_angle_beta 90.000000
_cell_angle_gamma 90.000000
_cell_volume 3469.442289
_symmetry_space_group_name_H-M "P M M N"
_symmetry_group_IT_number 59
_space_group.IT_coordinate_system_code '2'
_symmetry_cell_setting 'orthorhombic'
loop_
_space_group_symop_operation_xyz
x,y,z
1/2-x,1/2-y,z
1/2+x,-y,-z
-x,1/2+y,-z
-x,-y,-z
1/2+x,1/2+y,-z
1/2-x,y,z
x,1/2-y,z
loop_
_atom_site_type_symbol
_atom_site_label
_atom_site_fract_x
_atom_site_fract_y
_atom_site_fract_z
Si Si1 0.668456 0.924161 0.252404
Si Si2 0.668193 0.427155 0.385644
Si Si3 0.081615 0.927476 0.859580
Si Si4 0.570893 0.072434 0.862576
Si Si5 0.669502 0.571707 0.616620
Si Si6 0.425647 0.923548 0.998055
Si Si7 0.422916 0.070755 0.503484
Si Si8 0.830013 0.071690 0.747731
O O1 0.750000 0.949781 0.235084
O O2 0.651963 0.750000 0.268101
O O3 0.646674 0.023577 0.313885
O O4 0.624210 0.975833 0.191394
O O5 0.750000 0.469747 0.399623
O O6 0.654635 0.250000 0.393514
O O7 0.617989 0.517279 0.433465
O O8 0.089545 0.750000 0.844115
O O9 0.113839 0.970169 0.931244
O O10 0.999617 0.973999 0.856389
O O11 0.552502 0.250000 0.854618
O O12 0.623976 0.014803 0.807762
O O13 0.610685 0.044080 0.932239
O O14 0.750000 0.517109 0.603722
O O15 0.665852 0.750000 0.623455
O O16 0.621065 0.513857 0.558332
O O17 0.639370 0.499827 0.682237
O O18 0.443117 0.750000 0.990463
O O19 0.500000 0.000000 0.000000
O O20 0.429538 0.250000 0.504973
O O21 0.500000 0.000000 0.500000
O O22 0.750000 0.015314 0.759228
O O23 0.833593 0.250000 0.740719
#
# Coordination Sequence:
#
# PCOD8240940 Si02
#       8
#     8   8   8   8   8   8   8   8
#     4  10  21  37  56  77 103 137 174 211 256 312
#     4  10  21  38  60  83 106 135 173 216 262 315
#     4  10  19  31  50  76 103 132 171 217 262 307
#     4   9  17  31  50  72 101 136 174 214 258 310
#     4   9  19  36  56  75  98 133 172 206 245 298
#     4   8  15  28  46  69  97 132 171 210 254 304
#     4  11  23  38  56  80 111 142 174 214 259 306
#     4   9  18  32  51  75 101 130 167 211 254 297
#
# _framework density 18.446769
#
# number of rings (size 3 to 8) (size 9 to 14) (size 15 to 20)
#    0.000    2.500    0.000    1.875    0.000    5.000 
#    0.000    4.375    0.000    2.250    0.000    1.750 
#    0.000    0.000    0.000    0.000    0.000    0.000 
#
# Total GULP energy -793227.197812 kJ/mol
# GULP energy per Si atom -12394.174966 kJ/mol
# Density = 1.840478 g / cm^3
# Si number density = 18.446769 Si / 1000 Ang^3
#
#
#
# Elastic Constant Matrix: (Units=GPa)
#
#
# Indices 1 2 3 4 5 6 
#
# 1 76.6471 25.4892 70.7827 0.0000 0.0000 0.0000
# 2 25.4892 38.4813 30.9418 0.0000 0.0000 0.0000
# 3 70.7827 30.9418 160.5390 0.0000 0.0000 0.0000
# 4 0.0000 0.0000 0.0000 31.1000 0.0000 0.0000
# 5 0.0000 0.0000 0.0000 0.0000 126.2542 0.0000
# 6 0.0000 0.0000 0.0000 0.0000 0.0000 23.4485
#
#
#
# Elastic Compliance Matrix: (Units=1/GPa)
#
#
# Indices 1 2 3 4 5 6 
#
# 1 0.024318 -0.008859 -0.009014 0.000000 0.000000 0.000000
# 2 -0.008859 0.033980 -0.002643 0.000000 0.000000 0.000000
# 3 -0.009014 -0.002643 0.010713 0.000000 0.000000 0.000000
# 4 0.000000 0.000000 0.000000 0.032154 0.000000 0.000000
# 5 0.000000 0.000000 0.000000 0.000000 0.007921 0.000000
# 6 0.000000 0.000000 0.000000 0.000000 0.000000 0.042647
#
#
# Mechanical properties :
#
#
# Convention : Reuss Voigt Hill
#
# Bulk Modulus (GPa) = 35.74333 58.89940 47.32137
# Shear Modulus (GPa) = 24.74132 46.05748 35.39940
#
# Velocity S-wave (km/s) = 3.66625 5.00220 4.38539
# Velocity P-wave (km/s) = 6.11068 8.08464 7.16595
#
# Compressibility (1/GPa) = 0.02797724
#
# Stress axis : x y z
#
# Youngs Moduli (GPa) = 41.12260 29.42896 93.34567
#
# Poissons Ratio (x) = 0.26072 0.84144
# Poissons Ratio (y) = 0.36432 0.24672
# Poissons Ratio (z) = 0.37069 0.07778
#
# Static dielectric constant tensor:
#      x y z
#    x 3.189330 0.000000 0.000000 
#    y 0.000000 3.222070 0.000000 
#    z 0.000000 0.000000 3.911640 
# 
# 
# High freq. dielectric constant tensor:
#      x y z
#    x 1.688420 0.000000 0.000000 
#    y 0.000000 1.718310 0.000000 
#    z 0.000000 0.000000 1.738230 
# 
# From -- ./inp_files/28318.got.cif
#   From: 2010.03.12/outbox.cif.g09.slc.cpg/sg59_15_cif.got.tgz:28318.got - 2010.04.16 16:29:54.
