data_PCOD8240129
_publ_section_title
;
Structure prediction by ZEFSAII (Michael W. Deem and Ramdas Pophale) SiO2 
 PCOD8240129
Probable space group: P M M N
;
_chemical_formula_sum "Si O2"
_cell_formula_units_Z 48
_cell_length_a 13.597963
_cell_length_b 18.643661
_cell_length_c 10.254042
_cell_angle_alpha 90.000000
_cell_angle_beta 90.000000
_cell_angle_gamma 90.000000
_cell_volume 2599.561789
_symmetry_space_group_name_H-M "P M M N"
_symmetry_group_IT_number 59
_space_group.IT_coordinate_system_code '2'
_symmetry_cell_setting 'orthorhombic'
loop_
_space_group_symop_operation_xyz
x,y,z
1/2-x,1/2-y,z
1/2+x,-y,-z
-x,1/2+y,-z
-x,-y,-z
1/2+x,1/2+y,-z
1/2-x,y,z
x,1/2-y,z
loop_
_atom_site_type_symbol
_atom_site_label
_atom_site_fract_x
_atom_site_fract_y
_atom_site_fract_z
Si Si1 0.142386 0.332380 0.166901
Si Si2 0.361495 0.552107 0.958622
Si Si3 0.972859 0.665405 0.585069
Si Si4 0.366135 0.400723 0.652513
Si Si5 0.052855 0.102345 0.926329
Si Si6 0.361958 0.934504 0.658753
O O1 0.250000 0.369537 0.162310
O O2 0.155885 0.250000 0.200805
O O3 0.079450 0.365675 0.284965
O O4 0.087452 0.338501 0.029304
O O5 0.250000 0.564675 0.007258
O O6 0.385344 0.468285 0.960971
O O7 0.375241 0.581793 0.812310
O O8 0.435342 0.591922 0.057714
O O9 0.996460 0.750000 0.590793
O O10 0.901517 0.649046 0.464730
O O11 0.073873 0.620691 0.573426
O O12 0.250000 0.391499 0.674119
O O13 0.422870 0.372132 0.780724
O O14 0.393431 0.483770 0.627067
O O15 0.250000 0.921986 0.615831
#
# Coordination Sequence:
#
# PCOD8240129 Si02
#       6
#     8   8   8   8   8   8
#     4  10  20  33  50  75 107 140 180 226 269 321
#     4   9  17  31  55  83 109 138 174 223 273 317
#     4  11  22  36  54  79 110 145 184 226 277 327
#     4  10  21  36  55  80 112 147 181 224 281 333
#     4  10  18  33  55  79 108 140 177 220 265 321
#     4   9  18  36  58  80 108 143 186 228 270 327
#
# _framework density 18.464649000000001
#
# number of rings (size 3 to 8) (size 9 to 14) (size 15 to 20)
#    0.000    2.167    1.667    3.500    0.000    2.000 
#    0.000    0.833    0.000    0.500    0.000    0.000 
#    0.000    0.000    0.000    0.000    0.000    0.000 
#
# Total GULP energy -595189.546904 kJ/mol
# GULP energy per Si atom -12399.782227 kJ/mol
# Density = 1.842262 g / cm^3
# Si number density = 18.464649 Si / 1000 Ang^3
#
#
#
# Elastic Constant Matrix: (Units=GPa)
#
#
# Indices 1 2 3 4 5 6 
#
# 1 114.3739 24.5836 38.4007 0.0000 0.0000 0.0000
# 2 24.5836 41.0679 25.3936 0.0000 0.0000 0.0000
# 3 38.4007 25.3936 85.9195 0.0000 0.0000 0.0000
# 4 0.0000 0.0000 0.0000 23.4601 0.0000 0.0000
# 5 0.0000 0.0000 0.0000 0.0000 31.8336 0.0000
# 6 0.0000 0.0000 0.0000 0.0000 0.0000 22.7095
#
#
#
# Elastic Compliance Matrix: (Units=1/GPa)
#
#
# Indices 1 2 3 4 5 6 
#
# 1 0.010870 -0.004286 -0.003592 0.000000 0.000000 0.000000
# 2 -0.004286 0.031485 -0.007390 0.000000 0.000000 0.000000
# 3 -0.003592 -0.007390 0.015428 0.000000 0.000000 0.000000
# 4 0.000000 0.000000 0.000000 0.042625 0.000000 0.000000
# 5 0.000000 0.000000 0.000000 0.000000 0.031413 0.000000
# 6 0.000000 0.000000 0.000000 0.000000 0.000000 0.044034
#
#
# Mechanical properties :
#
#
# Convention : Reuss Voigt Hill
#
# Bulk Modulus (GPa) = 36.69959 46.45745 41.57852
# Shear Modulus (GPa) = 23.20457 25.79954 24.50206
#
# Velocity S-wave (km/s) = 3.54885 3.74202 3.64671
# Velocity P-wave (km/s) = 6.05897 6.62459 6.34808
#
# Compressibility (1/GPa) = 0.02724826
#
# Stress axis : x y z
#
# Youngs Moduli (GPa) = 91.99279 31.76113 64.81705
#
# Poissons Ratio (x) = 0.13614 0.23279
# Poissons Ratio (y) = 0.39431 0.47898
# Poissons Ratio (z) = 0.33040 0.23471
#
# Static dielectric constant tensor:
#      x y z
#    x 3.552010 0.000000 0.000000 
#    y 0.000000 3.089460 0.000000 
#    z 0.000000 0.000000 3.311180 
# 
# 
# High freq. dielectric constant tensor:
#      x y z
#    x 1.725440 0.000000 0.000000 
#    y 0.000000 1.688930 0.000000 
#    z 0.000000 0.000000 1.705820 
# 
# From -- ./inp_files/9199.got.cif
#   From: 2010.03.12/outbox.cif.g09.slc.cpg/sg59_5_cif.got.tgz:9199.got - 2010.04.16 16:29:54.
