data_PCOD8240082
_publ_section_title
;
Structure prediction by ZEFSAII (Michael W. Deem and Ramdas Pophale) SiO2 
 PCOD8240082
Probable space group: P M M N
;
_chemical_formula_sum "Si O2"
_cell_formula_units_Z 64
_cell_length_a 17.775497
_cell_length_b 18.080379
_cell_length_c 11.317256
_cell_angle_alpha 90.000000
_cell_angle_beta 90.000000
_cell_angle_gamma 90.000000
_cell_volume 3637.227133
_symmetry_space_group_name_H-M "P M M N"
_symmetry_group_IT_number 59
_space_group.IT_coordinate_system_code '2'
_symmetry_cell_setting 'orthorhombic'
loop_
_space_group_symop_operation_xyz
x,y,z
1/2-x,1/2-y,z
1/2+x,-y,-z
-x,1/2+y,-z
-x,-y,-z
1/2+x,1/2+y,-z
1/2-x,y,z
x,1/2-y,z
loop_
_atom_site_type_symbol
_atom_site_label
_atom_site_fract_x
_atom_site_fract_y
_atom_site_fract_z
Si Si1 0.162643 0.078473 0.138457
Si Si2 0.336448 0.164247 0.899559
Si Si3 0.480892 0.834446 0.464837
Si Si4 0.083076 0.582279 0.799243
Si Si5 0.539393 0.913880 0.238914
Si Si6 0.056416 0.165166 0.289588
Si Si7 0.433195 0.951011 0.051362
Si Si8 0.664935 0.164633 0.393726
O O1 0.250000 0.069252 0.159821
O O2 0.130242 0.119091 0.254190
O O3 0.127320 0.997606 0.124826
O O4 0.142595 0.124955 0.021808
O O5 0.250000 0.149577 0.865305
O O6 0.353725 0.250000 0.915824
O O7 0.386103 0.131941 0.793331
O O8 0.483554 0.750000 0.418924
O O9 0.508038 0.890237 0.365242
O O10 0.538341 0.845702 0.572863
O O11 0.395598 0.855213 0.504522
O O12 0.059771 0.500463 0.756436
O O13 0.151711 0.612820 0.720513
O O14 0.012550 0.636590 0.788625
O O15 0.107481 0.585892 0.937735
O O16 0.473236 0.895346 0.143612
O O17 0.071077 0.250000 0.258494
O O18 0.500000 0.000000 0.000000
O O19 0.750000 0.151242 0.440327
O O20 0.652788 0.250000 0.355701
#
# Coordination Sequence:
#
# PCOD8240082 Si02
#       8
#     8   8   8   8   8   8   8   8
#     4  11  20  34  53  77 107 141 179 220 270 317
#     4  10  20  32  50  79 108 136 175 221 265 317
#     4   9  20  36  56  79 102 140 183 218 260 313
#     4  10  18  32  57  79 103 137 175 220 264 315
#     4  11  19  34  57  74 111 144 177 209 260 322
#     4  10  19  34  52  75 104 134 178 224 262 307
#     4  10  18  34  51  79 109 138 169 217 261 312
#     4   9  19  36  56  79 105 134 177 231 275 309
#
# _framework density 17.595822999999999
#
# number of rings (size 3 to 8) (size 9 to 14) (size 15 to 20)
#    0.000    2.000    5.000    1.875    0.000    3.750 
#    0.000    3.125    0.000    0.750    0.000    1.750 
#    0.000    0.000    0.000    0.000    0.000    0.000 
#
# Total GULP energy -793473.447182 kJ/mol
# GULP energy per Si atom -12398.022612 kJ/mol
# Density = 1.755577 g / cm^3
# Si number density = 17.595823 Si / 1000 Ang^3
#
#
#
# Elastic Constant Matrix: (Units=GPa)
#
#
# Indices 1 2 3 4 5 6 
#
# 1 103.4062 29.8044 46.7422 0.0000 0.0000 0.0000
# 2 29.8044 58.0946 47.2770 0.0000 0.0000 0.0000
# 3 46.7422 47.2770 90.8990 0.0000 0.0000 0.0000
# 4 0.0000 0.0000 0.0000 25.7998 0.0000 0.0000
# 5 0.0000 0.0000 0.0000 0.0000 22.5205 0.0000
# 6 0.0000 0.0000 0.0000 0.0000 0.0000 25.2094
#
#
#
# Elastic Compliance Matrix: (Units=1/GPa)
#
#
# Indices 1 2 3 4 5 6 
#
# 1 0.012744 -0.002089 -0.005466 0.000000 0.000000 0.000000
# 2 -0.002089 0.030188 -0.014627 0.000000 0.000000 0.000000
# 3 -0.005466 -0.014627 0.021420 0.000000 0.000000 0.000000
# 4 0.000000 0.000000 0.000000 0.038760 0.000000 0.000000
# 5 0.000000 0.000000 0.000000 0.000000 0.044404 0.000000
# 6 0.000000 0.000000 0.000000 0.000000 0.000000 0.039668
#
#
# Mechanical properties :
#
#
# Convention : Reuss Voigt Hill
#
# Bulk Modulus (GPa) = 50.03335 55.56077 52.79706
# Shear Modulus (GPa) = 20.98984 23.27769 22.13376
#
# Velocity S-wave (km/s) = 3.45757 3.64113 3.55053
# Velocity P-wave (km/s) = 6.66605 7.02294 6.84682
#
# Compressibility (1/GPa) = 0.01998667
#
# Stress axis : x y z
#
# Youngs Moduli (GPa) = 78.46967 33.12541 46.68638
#
# Poissons Ratio (x) = 0.06921 0.25521
# Poissons Ratio (y) = 0.16396 0.68286
# Poissons Ratio (z) = 0.42895 0.48451
#
# Static dielectric constant tensor:
#      x y z
#    x 3.289590 0.000000 0.000000 
#    y 0.000000 3.316690 0.000000 
#    z 0.000000 0.000000 3.417260 
# 
# 
# High freq. dielectric constant tensor:
#      x y z
#    x 1.674470 0.000000 0.000000 
#    y 0.000000 1.674550 0.000000 
#    z 0.000000 0.000000 1.669170 
# 
# From -- ./inp_files/17938.got.cif
#   From: 2010.03.12/outbox.cif.g09.slc.cpg/sg59_9_cif.got.tgz:17938.got - 2010.04.16 16:29:54.
