data_PCOD8240353
_publ_section_title
;
Structure prediction by ZEFSAII (Michael W. Deem and Ramdas Pophale) SiO2 
 PCOD8240353
Probable space group: P M M N
;
_chemical_formula_sum "Si O2"
_cell_formula_units_Z 64
_cell_length_a 9.257212
_cell_length_b 28.620160
_cell_length_c 15.646710
_cell_angle_alpha 90.000000
_cell_angle_beta 90.000000
_cell_angle_gamma 90.000000
_cell_volume 4145.484544
_symmetry_space_group_name_H-M "P M M N"
_symmetry_group_IT_number 59
_space_group.IT_coordinate_system_code '2'
_symmetry_cell_setting 'orthorhombic'
loop_
_space_group_symop_operation_xyz
x,y,z
1/2-x,1/2-y,z
1/2+x,-y,-z
-x,1/2+y,-z
-x,-y,-z
1/2+x,1/2+y,-z
1/2-x,y,z
x,1/2-y,z
loop_
_atom_site_type_symbol
_atom_site_label
_atom_site_fract_x
_atom_site_fract_y
_atom_site_fract_z
Si Si1 0.583155 0.801938 0.587235
Si Si2 0.419467 0.948263 0.814618
Si Si3 0.083573 0.698811 0.415518
Si Si4 0.920349 0.950902 0.497690
Si Si5 0.417895 0.602016 0.348876
Si Si6 0.417894 0.546029 0.184350
Si Si7 0.916585 0.604336 0.670780
Si Si8 0.085388 0.546888 0.999568
O O1 0.750000 0.805884 0.562179
O O2 0.544992 0.750000 0.622560
O O3 0.499201 0.813599 0.501471
O O4 0.545300 0.840911 0.657739
O O5 0.250000 0.953312 0.796574
O O6 0.485092 0.912240 0.748116
O O7 0.490031 0.999157 0.803767
O O8 0.450951 0.926535 0.910362
O O9 0.250000 0.699656 0.441194
O O10 0.036344 0.750000 0.379092
O O11 0.053124 0.657950 0.346847
O O12 0.750000 0.958371 0.484292
O O13 0.953716 0.924278 0.585532
O O14 0.982383 0.921252 0.419753
O O15 0.000000 0.000000 0.500000
O O16 0.250000 0.590906 0.369200
O O17 0.463745 0.582986 0.256252
O O18 0.250000 0.532081 0.193969
O O19 0.446680 0.571485 0.091513
O O20 0.750000 0.597232 0.695935
O O21 0.250000 0.531563 0.995833
O O22 0.000000 0.500000 0.000000
#
# Coordination Sequence:
#
# PCOD8240353 Si02
#       8
#     8   8   8   8   8   8   8   8
#     4   9  17  31  49  65  82 108 145 185 221 259
#     4  10  19  29  44  66  88 114 147 183 217 255
#     4   9  17  29  45  65  88 111 139 180 223 257
#     4  11  22  33  43  59  87 122 152 178 210 250
#     4  10  19  30  45  65  87 115 148 177 212 258
#     4   9  17  30  46  63  87 118 146 178 217 259
#     4  10  20  32  44  62  87 116 146 176 215 260
#     4   8  15  28  44  62  84 110 143 180 219 255
#
# _framework density 15.438485
#
# number of rings (size 3 to 8) (size 9 to 14) (size 15 to 20)
#    0.000    2.500    1.250    1.500    0.000    5.500 
#    0.000    0.000    0.000    0.000    0.000    0.875 
#    0.000    3.000    0.000    0.000    0.000    0.000 
#
# Total GULP energy -792963.287188 kJ/mol
# GULP energy per Si atom -12390.051362 kJ/mol
# Density = 1.540335 g / cm^3
# Si number density = 15.438485 Si / 1000 Ang^3
#
#
#
# Elastic Constant Matrix: (Units=GPa)
#
#
# Indices 1 2 3 4 5 6 
#
# 1 53.5586 39.4216 48.8914 0.0000 0.0000 0.0000
# 2 39.4216 105.2800 65.6819 0.0000 0.0000 0.0000
# 3 48.8914 65.6819 131.3129 0.0000 0.0000 0.0000
# 4 0.0000 0.0000 0.0000 7.7667 0.0000 0.0000
# 5 0.0000 0.0000 0.0000 0.0000 20.1808 0.0000
# 6 0.0000 0.0000 0.0000 0.0000 0.0000 17.6239
#
#
#
# Elastic Compliance Matrix: (Units=1/GPa)
#
#
# Indices 1 2 3 4 5 6 
#
# 1 0.030996 -0.006405 -0.008337 0.000000 0.000000 0.000000
# 2 -0.006405 0.015131 -0.005183 0.000000 0.000000 0.000000
# 3 -0.008337 -0.005183 0.013312 0.000000 0.000000 0.000000
# 4 0.000000 0.000000 0.000000 0.128755 0.000000 0.000000
# 5 0.000000 0.000000 0.000000 0.000000 0.049552 0.000000
# 6 0.000000 0.000000 0.000000 0.000000 0.000000 0.056741
#
#
# Mechanical properties :
#
#
# Convention : Reuss Voigt Hill
#
# Bulk Modulus (GPa) = 51.05177 66.46013 58.75595
# Shear Modulus (GPa) = 14.66845 18.19138 16.42991
#
# Velocity S-wave (km/s) = 3.08575 3.43638 3.26577
# Velocity P-wave (km/s) = 6.77019 7.67377 7.23610
#
# Compressibility (1/GPa) = 0.01958796
#
# Stress axis : x y z
#
# Youngs Moduli (GPa) = 32.26229 66.09073 75.11913
#
# Poissons Ratio (x) = 0.42332 0.62626
# Poissons Ratio (y) = 0.20664 0.38938
# Poissons Ratio (z) = 0.26897 0.34258
#
# Static dielectric constant tensor:
#      x y z
#    x 2.995010 0.000000 0.000000 
#    y 0.000000 2.771540 0.000000 
#    z 0.000000 0.000000 3.340720 
# 
# 
# High freq. dielectric constant tensor:
#      x y z
#    x 1.600490 0.000000 0.000000 
#    y 0.000000 1.572970 0.000000 
#    z 0.000000 0.000000 1.584680 
# 
# From -- ./inp_files/21809.got.cif
#   From: 2010.03.12/outbox.cif.g09.slc.cpg/sg59_11_cif.got.tgz:21809.got - 2010.04.16 16:29:54.
