data_PCOD8240569
_publ_section_title
;
Structure prediction by ZEFSAII (Michael W. Deem and Ramdas Pophale) SiO2 
 PCOD8240569
Probable space group: P M M N
;
_chemical_formula_sum "Si O2"
_cell_formula_units_Z 48
_cell_length_a 8.954561
_cell_length_b 13.603615
_cell_length_c 23.588592
_cell_angle_alpha 90.000000
_cell_angle_beta 90.000000
_cell_angle_gamma 90.000000
_cell_volume 2873.430189
_symmetry_space_group_name_H-M "P M M N"
_symmetry_group_IT_number 59
_space_group.IT_coordinate_system_code '2'
_symmetry_cell_setting 'orthorhombic'
loop_
_space_group_symop_operation_xyz
x,y,z
1/2-x,1/2-y,z
1/2+x,-y,-z
-x,1/2+y,-z
-x,-y,-z
1/2+x,1/2+y,-z
1/2-x,y,z
x,1/2-y,z
loop_
_atom_site_type_symbol
_atom_site_label
_atom_site_fract_x
_atom_site_fract_y
_atom_site_fract_z
Si Si1 0.925679 0.362379 0.691142
Si Si2 0.925113 0.862917 0.192238
Si Si3 0.420752 0.139652 0.017038
Si Si4 0.077021 0.136926 0.471679
Si Si5 0.423763 0.034096 0.587703
Si Si6 0.076826 0.952487 0.086363
O O1 0.750000 0.375061 0.696227
O O2 0.971436 0.250000 0.677985
O O3 0.997983 0.397288 0.749841
O O4 0.985468 0.431331 0.641865
O O5 0.750000 0.877487 0.199021
O O6 0.966402 0.750000 0.178131
O O7 0.983798 0.932449 0.142629
O O8 0.250000 0.125477 0.996521
O O9 0.449212 0.250000 0.039430
O O10 0.526603 0.120185 0.963654
O O11 0.456220 0.065023 0.068218
O O12 0.250000 0.115546 0.458572
O O13 0.035166 0.250000 0.463009
O O14 0.039614 0.107683 0.536186
O O15 0.976294 0.075389 0.428325
O O16 0.250000 0.032811 0.602727
O O17 0.250000 0.933643 0.098895
#
# Coordination Sequence:
#
# PCOD8240569 Si02
#       6
#     8   8   8   8   8   8
#     4  10  20  33  50  72  97 125 158 196 237 283
#     4  10  20  33  49  69  95 126 156 189 234 285
#     4   9  18  32  48  67  94 127 158 188 228 278
#     4   9  18  32  49  70  98 131 164 197 235 281
#     4  10  19  31  49  73 100 128 159 197 240 285
#     4  10  19  30  47  71  96 122 155 195 234 274
#
# _framework density 16.704774
#
# number of rings (size 3 to 8) (size 9 to 14) (size 15 to 20)
#    0.000    2.333    0.000    3.000    0.000    6.667 
#    0.000    0.000    0.000    1.000    0.000    2.333 
#    0.000    0.000    0.000    0.000    0.000    0.000 
#
# Total GULP energy -595366.332168 kJ/mol
# GULP energy per Si atom -12403.465253 kJ/mol
# Density = 1.666675 g / cm^3
# Si number density = 16.704774 Si / 1000 Ang^3
#
#
#
# Elastic Constant Matrix: (Units=GPa)
#
#
# Indices 1 2 3 4 5 6 
#
# 1 73.4612 36.9443 50.9286 0.0000 0.0000 0.0000
# 2 36.9443 96.8070 53.5871 0.0000 0.0000 0.0000
# 3 50.9286 53.5871 113.3801 0.0000 0.0000 0.0000
# 4 0.0000 0.0000 0.0000 20.6381 0.0000 0.0000
# 5 0.0000 0.0000 0.0000 0.0000 34.2088 0.0000
# 6 0.0000 0.0000 0.0000 0.0000 0.0000 25.7513
#
#
#
# Elastic Compliance Matrix: (Units=1/GPa)
#
#
# Indices 1 2 3 4 5 6 
#
# 1 0.020718 -0.003731 -0.007543 0.000000 0.000000 0.000000
# 2 -0.003731 0.014662 -0.005254 0.000000 0.000000 0.000000
# 3 -0.007543 -0.005254 0.014691 0.000000 0.000000 0.000000
# 4 0.000000 0.000000 0.000000 0.048454 0.000000 0.000000
# 5 0.000000 0.000000 0.000000 0.000000 0.029232 0.000000
# 6 0.000000 0.000000 0.000000 0.000000 0.000000 0.038833
#
#
# Mechanical properties :
#
#
# Convention : Reuss Voigt Hill
#
# Bulk Modulus (GPa) = 58.76925 62.95204 60.86065
# Shear Modulus (GPa) = 24.35242 25.59885 24.97564
#
# Velocity S-wave (km/s) = 3.82227 3.91887 3.87087
# Velocity P-wave (km/s) = 7.39846 7.63175 7.51601
#
# Compressibility (1/GPa) = 0.01701570
#
# Stress axis : x y z
#
# Youngs Moduli (GPa) = 48.26624 68.20363 68.06875
#
# Poissons Ratio (x) = 0.25450 0.51343
# Poissons Ratio (y) = 0.18010 0.35761
# Poissons Ratio (z) = 0.36406 0.35832
#
# Static dielectric constant tensor:
#      x y z
#    x 3.230630 0.000000 0.000000 
#    y 0.000000 3.123290 0.000000 
#    z 0.000000 0.000000 3.020500 
# 
# 
# High freq. dielectric constant tensor:
#      x y z
#    x 1.657430 0.000000 0.000000 
#    y 0.000000 1.632990 0.000000 
#    z 0.000000 0.000000 1.632440 
# 
# From -- ./inp_files/28844.got.cif
#   From: 2010.03.12/outbox.cif.g09.slc.cpg/sg59_15_cif.got.tgz:28844.got - 2010.04.16 16:29:54.
