data_PCOD8240587
_publ_section_title
;
Structure prediction by ZEFSAII (Michael W. Deem and Ramdas Pophale) SiO2 
 PCOD8240587
Probable space group: P M M N
;
_chemical_formula_sum "Si O2"
_cell_formula_units_Z 64
_cell_length_a 19.598010
_cell_length_b 9.490147
_cell_length_c 18.239525
_cell_angle_alpha 90.000000
_cell_angle_beta 90.000000
_cell_angle_gamma 90.000000
_cell_volume 3392.332699
_symmetry_space_group_name_H-M "P M M N"
_symmetry_group_IT_number 59
_space_group.IT_coordinate_system_code '2'
_symmetry_cell_setting 'orthorhombic'
loop_
_space_group_symop_operation_xyz
x,y,z
1/2-x,1/2-y,z
1/2+x,-y,-z
-x,1/2+y,-z
-x,-y,-z
1/2+x,1/2+y,-z
1/2-x,y,z
x,1/2-y,z
loop_
_atom_site_type_symbol
_atom_site_label
_atom_site_fract_x
_atom_site_fract_y
_atom_site_fract_z
Si Si1 0.909381 0.585632 0.629296
Si Si2 0.827542 0.085183 0.515232
Si Si3 0.324821 0.916826 0.653135
Si Si4 0.976430 0.411153 0.111942
Si Si5 0.830567 0.905180 0.771056
Si Si6 0.900574 0.588705 0.000170
Si Si7 0.962629 0.416648 0.278643
Si Si8 0.671277 0.404066 0.898191
O O1 0.913507 0.750000 0.608232
O O2 0.885983 0.498863 0.558621
O O3 0.851543 0.554662 0.689486
O O4 0.981408 0.529420 0.662278
O O5 0.750000 0.046604 0.540016
O O6 0.840731 0.250000 0.527227
O O7 0.837534 0.041619 0.430970
O O8 0.250000 0.975690 0.678821
O O9 0.323045 0.750000 0.660565
O O10 0.387353 0.979019 0.701825
O O11 0.949339 0.250000 0.107791
O O12 0.922661 0.518678 0.076349
O O13 0.985494 0.459452 0.196408
O O14 0.044996 0.426436 0.065319
O O15 0.750000 0.900781 0.776543
O O16 0.861031 0.750000 0.791140
O O17 0.861689 0.016755 0.828201
O O18 0.880314 0.750000 0.014944
O O19 0.836600 0.498744 0.971020
O O20 0.960551 0.250000 0.285024
O O21 0.750000 0.381062 0.883299
O O22 0.635792 0.250000 0.907219
#
# Coordination Sequence:
#
# PCOD8240587 Si02
#       8
#     8   8   8   8   8   8   8   8
#     4  10  19  30  47  73 102 130 162 203 248 292
#     4   9  18  32  49  70  98 132 168 202 237 285
#     4   8  15  30  51  72  95 127 165 202 245 298
#     4   9  18  33  52  73  96 123 159 203 246 291
#     4   9  17  29  44  63  92 130 165 195 236 295
#     4  10  19  32  51  72  97 130 162 194 242 300
#     4   9  17  30  49  72  98 127 162 207 253 293
#     4  10  20  32  47  69  96 126 163 205 242 280
#
# _framework density 18.866074999999999
#
# number of rings (size 3 to 8) (size 9 to 14) (size 15 to 20)
#    0.000    2.750    0.000    2.625    0.000    5.000 
#    0.000    2.500    0.000    3.000    0.000    0.000 
#    0.000    0.000    0.000    0.000    0.000    0.000 
#
# Total GULP energy -793104.317214 kJ/mol
# GULP energy per Si atom -12392.254956 kJ/mol
# Density = 1.882313 g / cm^3
# Si number density = 18.866075 Si / 1000 Ang^3
#
#
#
# Elastic Constant Matrix: (Units=GPa)
#
#
# Indices 1 2 3 4 5 6 
#
# 1 65.7035 20.4232 40.4842 0.0000 0.0000 0.0000
# 2 20.4232 72.3529 25.7034 0.0000 0.0000 0.0000
# 3 40.4842 25.7034 75.9767 0.0000 0.0000 0.0000
# 4 0.0000 0.0000 0.0000 25.9273 0.0000 0.0000
# 5 0.0000 0.0000 0.0000 0.0000 34.7918 0.0000
# 6 0.0000 0.0000 0.0000 0.0000 0.0000 19.3735
#
#
#
# Elastic Compliance Matrix: (Units=1/GPa)
#
#
# Indices 1 2 3 4 5 6 
#
# 1 0.023031 -0.002434 -0.011448 0.000000 0.000000 0.000000
# 2 -0.002434 0.015966 -0.004105 0.000000 0.000000 0.000000
# 3 -0.011448 -0.004105 0.020651 0.000000 0.000000 0.000000
# 4 0.000000 0.000000 0.000000 0.038569 0.000000 0.000000
# 5 0.000000 0.000000 0.000000 0.000000 0.028742 0.000000
# 6 0.000000 0.000000 0.000000 0.000000 0.000000 0.051617
#
#
# Mechanical properties :
#
#
# Convention : Reuss Voigt Hill
#
# Bulk Modulus (GPa) = 42.24059 43.02828 42.63444
# Shear Modulus (GPa) = 22.47779 24.51333 23.49556
#
# Velocity S-wave (km/s) = 3.45547 3.60854 3.53283
# Velocity P-wave (km/s) = 6.19344 6.34183 6.26807
#
# Compressibility (1/GPa) = 0.02367391
#
# Stress axis : x y z
#
# Youngs Moduli (GPa) = 43.42051 62.63182 48.42405
#
# Poissons Ratio (x) = 0.15243 0.55438
# Poissons Ratio (y) = 0.10568 0.19876
# Poissons Ratio (z) = 0.49710 0.25708
#
# Static dielectric constant tensor:
#      x y z
#    x 3.623440 0.000000 0.000000 
#    y 0.000000 3.408240 0.000000 
#    z 0.000000 0.000000 3.416330 
# 
# 
# High freq. dielectric constant tensor:
#      x y z
#    x 1.725570 0.000000 0.000000 
#    y 0.000000 1.705120 0.000000 
#    z 0.000000 0.000000 1.723600 
# 
# From -- ./inp_files/28176.got.cif
#   From: 2010.03.12/outbox.cif.g09.slc.cpg/sg59_15_cif.got.tgz:28176.got - 2010.04.16 16:29:54.
