data_PCOD8240125
_publ_section_title
;
Structure prediction by ZEFSAII (Michael W. Deem and Ramdas Pophale) SiO2 
 PCOD8240125
Probable space group: P M M N
;
_chemical_formula_sum "Si O2"
_cell_formula_units_Z 48
_cell_length_a 28.589154
_cell_length_b 8.811109
_cell_length_c 10.354203
_cell_angle_alpha 90.000000
_cell_angle_beta 90.000000
_cell_angle_gamma 90.000000
_cell_volume 2608.246019
_symmetry_space_group_name_H-M "P M M N"
_symmetry_group_IT_number 59
_space_group.IT_coordinate_system_code '2'
_symmetry_cell_setting 'orthorhombic'
loop_
_space_group_symop_operation_xyz
x,y,z
1/2-x,1/2-y,z
1/2+x,-y,-z
-x,1/2+y,-z
-x,-y,-z
1/2+x,1/2+y,-z
1/2-x,y,z
x,1/2-y,z
loop_
_atom_site_type_symbol
_atom_site_label
_atom_site_fract_x
_atom_site_fract_y
_atom_site_fract_z
Si Si1 0.199016 0.070026 0.104524
Si Si2 0.952195 0.929741 0.735082
Si Si3 0.601341 0.570020 0.991093
Si Si4 0.301078 0.070067 0.393745
Si Si5 0.604379 0.930440 0.487488
Si Si6 0.557510 0.429699 0.242503
O O1 0.250000 0.016385 0.049548
O O2 0.197960 0.250000 0.113555
O O3 0.192096 0.004545 0.249128
O O4 0.155923 0.017772 0.014540
O O5 0.951867 0.750000 0.732899
O O6 0.928233 0.990563 0.604192
O O7 0.004886 0.993406 0.741582
O O8 0.923452 0.985257 0.859598
O O9 0.596286 0.750000 0.011520
O O10 0.577146 0.483130 0.106626
O O11 0.250000 0.019464 0.448113
O O12 0.304066 0.250000 0.385576
O O13 0.342599 0.012220 0.485880
O O14 0.601348 0.750000 0.473930
O O15 0.589493 0.005330 0.354875
O O16 0.558101 0.250000 0.248397
#
# Coordination Sequence:
#
# PCOD8240125 Si02
#       6
#     8   8   8   8   8   8
#     4   8  13  24  48  80 103 118 149 204 258 295
#     4   9  18  33  54  76  97 126 169 213 248 285
#     4  10  18  33  55  77  99 128 165 205 249 297
#     4   8  13  24  48  80 103 118 149 204 258 295
#     4  10  18  33  55  77  99 128 165 205 249 297
#     4  11  23  35  46  69 107 141 167 201 242 289
#
# _framework density 18.403172999999999
#
# number of rings (size 3 to 8) (size 9 to 14) (size 15 to 20)
#    0.000    2.667    1.667    2.500    0.000    0.000 
#    0.000    3.333    0.000    6.000    0.000    2.333 
#    0.000    0.000    0.000    0.000    0.000    0.000 
#
# Total GULP energy -594909.608772 kJ/mol
# GULP energy per Si atom -12393.950183 kJ/mol
# Density = 1.836129 g / cm^3
# Si number density = 18.403173 Si / 1000 Ang^3
#
#
#
# Elastic Constant Matrix: (Units=GPa)
#
#
# Indices 1 2 3 4 5 6 
#
# 1 130.1784 14.4875 12.5548 0.0000 0.0000 0.0000
# 2 14.4875 22.3914 8.4187 0.0000 0.0000 0.0000
# 3 12.5548 8.4187 55.5482 0.0000 0.0000 0.0000
# 4 0.0000 0.0000 0.0000 14.1237 0.0000 0.0000
# 5 0.0000 0.0000 0.0000 0.0000 10.6823 0.0000
# 6 0.0000 0.0000 0.0000 0.0000 0.0000 16.8484
#
#
#
# Elastic Compliance Matrix: (Units=1/GPa)
#
#
# Indices 1 2 3 4 5 6 
#
# 1 0.008344 -0.004973 -0.001132 0.000000 0.000000 0.000000
# 2 -0.004973 0.050323 -0.006503 0.000000 0.000000 0.000000
# 3 -0.001132 -0.006503 0.019244 0.000000 0.000000 0.000000
# 4 0.000000 0.000000 0.000000 0.070803 0.000000 0.000000
# 5 0.000000 0.000000 0.000000 0.000000 0.093613 0.000000
# 6 0.000000 0.000000 0.000000 0.000000 0.000000 0.059353
#
#
# Mechanical properties :
#
#
# Convention : Reuss Voigt Hill
#
# Bulk Modulus (GPa) = 18.97731 31.00443 24.99087
# Shear Modulus (GPa) = 14.51546 19.84136 17.17841
#
# Velocity S-wave (km/s) = 2.81151 3.28708 3.05855
# Velocity P-wave (km/s) = 4.56879 5.59378 5.10707
#
# Compressibility (1/GPa) = 0.05269451
#
# Stress axis : x y z
#
# Youngs Moduli (GPa) = 119.84040 19.87179 51.96479
#
# Poissons Ratio (x) = 0.09883 0.05884
# Poissons Ratio (y) = 0.59599 0.33791
# Poissons Ratio (z) = 0.13569 0.12922
#
# Static dielectric constant tensor:
#      x y z
#    x 4.037490 0.000000 0.000000 
#    y 0.000000 2.842760 0.000000 
#    z 0.000000 0.000000 3.283530 
# 
# 
# High freq. dielectric constant tensor:
#      x y z
#    x 1.738930 0.000000 0.000000 
#    y 0.000000 1.656810 0.000000 
#    z 0.000000 0.000000 1.700640 
# 
# From -- ./inp_files/12954.got.cif
#   From: 2010.03.12/outbox.cif.g09.slc.cpg/sg59_7_cif.got.tgz:12954.got - 2010.04.16 16:29:54.
