data_PCOD8240657
_publ_section_title
;
Structure prediction by ZEFSAII (Michael W. Deem and Ramdas Pophale) SiO2 
 PCOD8240657
Probable space group: P M M N
;
_chemical_formula_sum "Si O2"
_cell_formula_units_Z 48
_cell_length_a 9.120886
_cell_length_b 15.166375
_cell_length_c 19.165875
_cell_angle_alpha 90.000000
_cell_angle_beta 90.000000
_cell_angle_gamma 90.000000
_cell_volume 2651.230388
_symmetry_space_group_name_H-M "P M M N"
_symmetry_group_IT_number 59
_space_group.IT_coordinate_system_code '2'
_symmetry_cell_setting 'orthorhombic'
loop_
_space_group_symop_operation_xyz
x,y,z
1/2-x,1/2-y,z
1/2+x,-y,-z
-x,1/2+y,-z
-x,-y,-z
1/2+x,1/2+y,-z
1/2-x,y,z
x,1/2-y,z
loop_
_atom_site_type_symbol
_atom_site_label
_atom_site_fract_x
_atom_site_fract_y
_atom_site_fract_z
Si Si1 0.076405 0.111592 0.162149
Si Si2 0.423406 0.911104 0.479375
Si Si3 0.075317 0.750000 0.098478
Si Si4 0.922167 0.250000 0.422859
Si Si5 0.576015 0.750000 0.725390
Si Si6 0.424285 0.848063 0.330657
Si Si7 0.424511 0.917752 0.185409
Si Si8 0.576866 0.750000 0.951072
O O1 0.250000 0.108255 0.165169
O O2 0.023334 0.163643 0.231377
O O3 0.028610 0.163393 0.092470
O O4 0.011769 0.012142 0.159727
O O5 0.250000 0.923788 0.478889
O O6 0.470347 0.835325 0.533273
O O7 0.483752 0.888234 0.402496
O O8 0.500000 0.000000 0.500000
O O9 0.250000 0.750000 0.095630
O O10 0.016376 0.662388 0.137753
O O11 0.012499 0.750000 0.021556
O O12 0.750000 0.250000 0.408925
O O13 0.003105 0.250000 0.349586
O O14 0.750000 0.750000 0.715615
O O15 0.250000 0.844088 0.332982
O O16 0.487717 0.750000 0.321591
O O17 0.478755 0.905399 0.264977
O O18 0.250000 0.917469 0.182407
O O19 0.750000 0.750000 0.966177
#
# Coordination Sequence:
#
# PCOD8240657 Si02
#       8
#     8   8   4   4   4   8   8   4
#     4   8  16  31  49  71  97 126 160 201 245 284
#     4  10  21  35  52  75 103 136 173 210 254 306
#     4  10  19  30  49  78 101 120 158 204 240 284
#     4  10  21  36  49  70 109 142 162 202 268 320
#     4   9  18  32  53  77  94 120 174 219 238 282
#     4   9  15  28  49  71  96 129 166 204 247 292
#     4   9  16  27  47  75 100 120 155 208 248 274
#     4   9  18  34  51  67  98 134 156 185 240 298
#
# _framework density 18.104800999999998
#
# number of rings (size 3 to 8) (size 9 to 14) (size 15 to 20)
#    0.000    2.833    1.667    1.000    2.333    1.333 
#    0.000    1.667    0.000    2.000    0.000    0.000 
#    0.000    0.000    0.000    0.000    0.000    0.000 
#
# Total GULP energy -594974.236617 kJ/mol
# GULP energy per Si atom -12395.296596 kJ/mol
# Density = 1.806359 g / cm^3
# Si number density = 18.104801 Si / 1000 Ang^3
#
#
#
# Elastic Constant Matrix: (Units=GPa)
#
#
# Indices 1 2 3 4 5 6 
#
# 1 12.7059 20.9935 22.6759 0.0000 0.0000 0.0000
# 2 20.9935 186.7489 88.2949 0.0000 0.0000 0.0000
# 3 22.6759 88.2949 166.9432 0.0000 0.0000 0.0000
# 4 0.0000 0.0000 0.0000 22.9834 0.0000 0.0000
# 5 0.0000 0.0000 0.0000 0.0000 29.0319 0.0000
# 6 0.0000 0.0000 0.0000 0.0000 0.0000 17.4067
#
#
#
# Elastic Compliance Matrix: (Units=1/GPa)
#
#
# Indices 1 2 3 4 5 6 
#
# 1 0.110529 -0.007103 -0.011256 0.000000 0.000000 0.000000
# 2 -0.007103 0.007597 -0.003053 0.000000 0.000000 0.000000
# 3 -0.011256 -0.003053 0.009134 0.000000 0.000000 0.000000
# 4 0.000000 0.000000 0.000000 0.043510 0.000000 0.000000
# 5 0.000000 0.000000 0.000000 0.000000 0.034445 0.000000
# 6 0.000000 0.000000 0.000000 0.000000 0.000000 0.057449
#
#
# Mechanical properties :
#
#
# Convention : Reuss Voigt Hill
#
# Bulk Modulus (GPa) = 11.84352 70.03628 40.93990
# Shear Modulus (GPa) = 14.98653 29.51333 22.24993
#
# Velocity S-wave (km/s) = 2.88021 4.04188 3.50944
# Velocity P-wave (km/s) = 4.19722 7.78140 6.25167
#
# Compressibility (1/GPa) = 0.08443434
#
# Stress axis : x y z
#
# Youngs Moduli (GPa) = 9.04740 131.63479 109.48426
#
# Poissons Ratio (x) = 0.93503 1.23239
# Poissons Ratio (y) = 0.06427 0.33426
# Poissons Ratio (z) = 0.10184 0.40189
#
# Static dielectric constant tensor:
#      x y z
#    x 2.741550 0.000000 0.000000 
#    y 0.000000 3.841630 0.000000 
#    z 0.000000 0.000000 3.504490 
# 
# 
# High freq. dielectric constant tensor:
#      x y z
#    x 1.638010 0.000000 0.000000 
#    y 0.000000 1.716510 0.000000 
#    z 0.000000 0.000000 1.713180 
# 
# From -- ./inp_files/22473.got.cif
#   From: 2010.03.12/outbox.cif.g09.slc.cpg/sg59_12_cif.got.tgz:22473.got - 2010.04.16 16:29:54.
