data_PCOD8240766
_publ_section_title
;
Structure prediction by ZEFSAII (Michael W. Deem and Ramdas Pophale) SiO2 
 PCOD8240766
Probable space group: P M M N
;
_chemical_formula_sum "Si O2"
_cell_formula_units_Z 40
_cell_length_a 18.087619
_cell_length_b 8.814137
_cell_length_c 13.804712
_cell_angle_alpha 90.000000
_cell_angle_beta 90.000000
_cell_angle_gamma 90.000000
_cell_volume 2200.840395
_symmetry_space_group_name_H-M "P M M N"
_symmetry_group_IT_number 59
_space_group.IT_coordinate_system_code '2'
_symmetry_cell_setting 'orthorhombic'
loop_
_space_group_symop_operation_xyz
x,y,z
1/2-x,1/2-y,z
1/2+x,-y,-z
-x,1/2+y,-z
-x,-y,-z
1/2+x,1/2+y,-z
1/2-x,y,z
x,1/2-y,z
loop_
_atom_site_type_symbol
_atom_site_label
_atom_site_fract_x
_atom_site_fract_y
_atom_site_fract_z
Si Si1 0.166051 0.072985 0.074842
Si Si2 0.619825 0.071882 0.123657
Si Si3 0.166796 0.075886 0.684330
Si Si4 0.034981 0.427788 0.204209
Si Si5 0.470085 0.570269 0.597427
O O1 0.250000 0.046066 0.109817
O O2 0.150738 0.250000 0.053736
O O3 0.111278 0.009112 0.158591
O O4 0.150958 0.979546 0.978559
O O5 0.632865 0.250000 0.137212
O O6 0.532881 0.030505 0.132842
O O7 0.664968 0.986011 0.206471
O O8 0.250000 0.060059 0.644486
O O9 0.140764 0.250000 0.684137
O O10 0.114450 0.979872 0.613379
O O11 0.042173 0.250000 0.215591
O O12 0.019088 0.492732 0.311960
O O13 0.500000 0.500000 0.500000
O O14 0.473168 0.750000 0.590345
#
# Coordination Sequence:
#
# PCOD8240766 Si02
#       5
#     8   8   8   8   8
#     4  10  19  31  48  70  98 132 168 205 243 288
#     4  10  19  31  49  72 101 135 167 204 250 301
#     4  10  20  34  53  78 105 132 167 212 259 306
#     4   8  17  33  50  70  96 129 169 206 244 296
#     4  10  20  36  57  78 102 133 170 212 259 311
#
# _framework density 18.174876000000001
#
# number of rings (size 3 to 8) (size 9 to 14) (size 15 to 20)
#    0.000    2.400    0.000    4.200    0.000    4.400 
#    0.000    6.000    0.000    3.600    0.000    0.000 
#    0.000    0.000    0.000    0.000    0.000    0.000 
#
# Total GULP energy -495924.325306 kJ/mol
# GULP energy per Si atom -12398.108133 kJ/mol
# Density = 1.813351 g / cm^3
# Si number density = 18.174876 Si / 1000 Ang^3
#
#
#
# Elastic Constant Matrix: (Units=GPa)
#
#
# Indices 1 2 3 4 5 6 
#
# 1 117.2313 33.4613 57.0011 0.0000 0.0000 0.0000
# 2 33.4613 66.8680 32.7454 0.0000 0.0000 0.0000
# 3 57.0011 32.7454 100.0594 0.0000 0.0000 0.0000
# 4 0.0000 0.0000 0.0000 27.6989 0.0000 0.0000
# 5 0.0000 0.0000 0.0000 0.0000 21.9104 0.0000
# 6 0.0000 0.0000 0.0000 0.0000 0.0000 25.4366
#
#
#
# Elastic Compliance Matrix: (Units=1/GPa)
#
#
# Indices 1 2 3 4 5 6 
#
# 1 0.012368 -0.003261 -0.005978 0.000000 0.000000 0.000000
# 2 -0.003261 0.018669 -0.004252 0.000000 0.000000 0.000000
# 3 -0.005978 -0.004252 0.014791 0.000000 0.000000 0.000000
# 4 0.000000 0.000000 0.000000 0.036103 0.000000 0.000000
# 5 0.000000 0.000000 0.000000 0.000000 0.045640 0.000000
# 6 0.000000 0.000000 0.000000 0.000000 0.000000 0.039314
#
#
# Mechanical properties :
#
#
# Convention : Reuss Voigt Hill
#
# Bulk Modulus (GPa) = 53.06390 58.95268 56.00829
# Shear Modulus (GPa) = 24.98140 25.73922 25.36031
#
# Velocity S-wave (km/s) = 3.71145 3.76732 3.73949
# Velocity P-wave (km/s) = 6.90117 7.17150 7.03763
#
# Compressibility (1/GPa) = 0.01884520
#
# Stress axis : x y z
#
# Youngs Moduli (GPa) = 80.85464 53.56501 67.60801
#
# Poissons Ratio (x) = 0.17470 0.40418
# Poissons Ratio (y) = 0.26370 0.28745
# Poissons Ratio (z) = 0.48338 0.22774
#
# Static dielectric constant tensor:
#      x y z
#    x 3.621420 0.000000 0.000000 
#    y 0.000000 3.278210 0.000000 
#    z 0.000000 0.000000 3.402120 
# 
# 
# High freq. dielectric constant tensor:
#      x y z
#    x 1.709610 0.000000 0.000000 
#    y 0.000000 1.696860 0.000000 
#    z 0.000000 0.000000 1.688240 
# 
# From -- ./inp_files/18138.got.cif
#   From: 2010.03.12/outbox.cif.g09.slc.cpg/sg59_10_cif.got.tgz:18138.got - 2010.04.16 16:29:54.
