data_PCOD8240002
_publ_section_title
;
Structure prediction by ZEFSAII (Michael W. Deem and Ramdas Pophale) SiO2 
 PCOD8240002
Probable space group: P M M N
;
_chemical_formula_sum "Si O2"
_cell_formula_units_Z 56
_cell_length_a 21.448881
_cell_length_b 9.150183
_cell_length_c 16.777331
_cell_angle_alpha 90.000000
_cell_angle_beta 90.000000
_cell_angle_gamma 90.000000
_cell_volume 3292.738885
_symmetry_space_group_name_H-M "P M M N"
_symmetry_group_IT_number 59
_space_group.IT_coordinate_system_code '2'
_symmetry_cell_setting 'orthorhombic'
loop_
_space_group_symop_operation_xyz
x,y,z
1/2-x,1/2-y,z
1/2+x,-y,-z
-x,1/2+y,-z
-x,-y,-z
1/2+x,1/2+y,-z
1/2-x,y,z
x,1/2-y,z
loop_
_atom_site_type_symbol
_atom_site_label
_atom_site_fract_x
_atom_site_fract_y
_atom_site_fract_z
Si Si1 0.180496 0.423647 0.958444
Si Si2 0.125352 0.421331 0.796626
Si Si3 0.981013 0.419657 0.799433
Si Si4 0.480445 0.581454 0.380044
Si Si5 0.943639 0.924360 0.951656
Si Si6 0.322724 0.083629 0.633294
Si Si7 0.589966 0.418814 0.465605
O O1 0.250000 0.480264 0.984595
O O2 0.180839 0.250000 0.956258
O O3 0.165212 0.485888 0.870134
O O4 0.124430 0.474836 0.016268
O O5 0.137702 0.250000 0.791293
O O6 0.147817 0.489098 0.712949
O O7 0.053395 0.456352 0.811104
O O8 0.967457 0.250000 0.818584
O O9 0.959531 0.459911 0.709460
O O10 0.943626 0.522350 0.860213
O O11 0.502341 0.750000 0.382045
O O12 0.538318 0.485678 0.407317
O O13 0.423613 0.552877 0.440958
O O14 0.952202 0.750000 0.957788
O O15 0.000000 0.000000 0.000000
O O16 0.250000 0.069779 0.640379
O O17 0.344733 0.250000 0.622569
O O18 0.344742 0.994255 0.555655
O O19 0.593576 0.250000 0.445962
#
# Coordination Sequence:
#
# PCOD8240002 Si02
#       7
#     8   8   8   8   8   8   8
#     4   9  17  30  49  72  97 128 168 207 242 291
#     4   9  15  27  48  73  98 127 164 200 240 294
#     4  10  18  32  53  74 100 132 166 207 252 298
#     4   9  18  33  51  70  96 130 165 201 247 302
#     4  11  21  33  51  77 104 133 169 210 258 305
#     4  10  19  31  49  72 100 136 172 203 241 298
#     4  10  19  30  48  73  99 129 164 204 249 294
#
# _framework density 17.007117999999998
#
# number of rings (size 3 to 8) (size 9 to 14) (size 15 to 20)
#    0.000    2.286    2.857    1.286    0.000    3.143 
#    0.000    0.000    0.000    2.571    0.000    4.000 
#    0.000    0.000    0.000    0.000    0.000    0.000 
#
# Total GULP energy -694124.368318 kJ/mol
# GULP energy per Si atom -12395.078006 kJ/mol
# Density = 1.696841 g / cm^3
# Si number density = 17.007118 Si / 1000 Ang^3
#
#
#
# Elastic Constant Matrix: (Units=GPa)
#
#
# Indices 1 2 3 4 5 6 
#
# 1 88.3545 31.0526 58.7883 0.0000 0.0000 0.0000
# 2 31.0526 51.1582 42.7826 0.0000 0.0000 0.0000
# 3 58.7883 42.7826 126.7546 0.0000 0.0000 0.0000
# 4 0.0000 0.0000 0.0000 26.6634 0.0000 0.0000
# 5 0.0000 0.0000 0.0000 0.0000 24.3015 0.0000
# 6 0.0000 0.0000 0.0000 0.0000 0.0000 22.2292
#
#
#
# Elastic Compliance Matrix: (Units=1/GPa)
#
#
# Indices 1 2 3 4 5 6 
#
# 1 0.017341 -0.005294 -0.006256 0.000000 0.000000 0.000000
# 2 -0.005294 0.028851 -0.007282 0.000000 0.000000 0.000000
# 3 -0.006256 -0.007282 0.013249 0.000000 0.000000 0.000000
# 4 0.000000 0.000000 0.000000 0.037505 0.000000 0.000000
# 5 0.000000 0.000000 0.000000 0.000000 0.041150 0.000000
# 6 0.000000 0.000000 0.000000 0.000000 0.000000 0.044986
#
#
# Mechanical properties :
#
#
# Convention : Reuss Voigt Hill
#
# Bulk Modulus (GPa) = 45.92264 59.05712 52.48988
# Shear Modulus (GPa) = 21.92939 23.54842 22.73891
#
# Velocity S-wave (km/s) = 3.59475 3.72509 3.66050
# Velocity P-wave (km/s) = 6.65509 7.30082 6.98542
#
# Compressibility (1/GPa) = 0.02177575
#
# Stress axis : x y z
#
# Youngs Moduli (GPa) = 57.66620 34.66090 75.47943
#
# Poissons Ratio (x) = 0.18351 0.47218
# Poissons Ratio (y) = 0.30530 0.54967
# Poissons Ratio (z) = 0.36075 0.25241
#
# Static dielectric constant tensor:
#      x y z
#    x 3.184360 0.000000 0.000000 
#    y 0.000000 3.169230 0.000000 
#    z 0.000000 0.000000 3.520600 
# 
# 
# High freq. dielectric constant tensor:
#      x y z
#    x 1.639710 0.000000 0.000000 
#    y 0.000000 1.628800 0.000000 
#    z 0.000000 0.000000 1.660830 
# 
# From -- ./inp_files/28049.got.cif
#   From: 2010.03.12/outbox.cif.g09.slc.cpg/sg59_15_cif.got.tgz:28049.got - 2010.04.16 16:29:54.
