data_PCOD8240099
_publ_section_title
;
Structure prediction by ZEFSAII (Michael W. Deem and Ramdas Pophale) SiO2 
 PCOD8240099
Probable space group: P M M N
;
_chemical_formula_sum "Si O2"
_cell_formula_units_Z 64
_cell_length_a 30.720884
_cell_length_b 8.936581
_cell_length_c 11.849332
_cell_angle_alpha 90.000000
_cell_angle_beta 90.000000
_cell_angle_gamma 90.000000
_cell_volume 3253.111676
_symmetry_space_group_name_H-M "P M M N"
_symmetry_group_IT_number 59
_space_group.IT_coordinate_system_code '2'
_symmetry_cell_setting 'orthorhombic'
loop_
_space_group_symop_operation_xyz
x,y,z
1/2-x,1/2-y,z
1/2+x,-y,-z
-x,1/2+y,-z
-x,-y,-z
1/2+x,1/2+y,-z
1/2-x,y,z
x,1/2-y,z
loop_
_atom_site_type_symbol
_atom_site_label
_atom_site_fract_x
_atom_site_fract_y
_atom_site_fract_z
Si Si1 0.299153 0.920620 0.765653
Si Si2 0.126280 0.424616 0.633604
Si Si3 0.298027 0.927842 0.242903
Si Si4 0.577112 0.574718 0.993437
Si Si5 0.332401 0.922254 0.006275
Si Si6 0.622402 0.072589 0.605928
Si Si7 0.452653 0.072957 0.250782
Si Si8 0.040246 0.423882 0.772012
O O1 0.250000 0.952226 0.725265
O O2 0.312802 0.750000 0.736298
O O3 0.300675 0.945570 0.900328
O O4 0.330525 0.035292 0.702662
O O5 0.127236 0.250000 0.602623
O O6 0.125048 0.523489 0.522351
O O7 0.084374 0.466389 0.707690
O O8 0.250000 0.989218 0.276608
O O9 0.296974 0.750000 0.241649
O O10 0.333952 0.985806 0.331426
O O11 0.309846 0.989156 0.118281
O O12 0.584609 0.750000 0.987824
O O13 0.623105 0.503929 0.020832
O O14 0.544851 0.532910 0.095871
O O15 0.558133 0.514821 0.875379
O O16 0.343715 0.750000 0.027235
O O17 0.618110 0.250000 0.614640
O O18 0.580356 0.999490 0.661813
O O19 0.449671 0.250000 0.261881
O O20 0.501215 0.019773 0.281447
O O21 0.029165 0.250000 0.756947
#
# Coordination Sequence:
#
# PCOD8240099 Si02
#       8
#     8   8   8   8   8   8   8   8
#     4  10  21  37  60  91 123 155 194 240 289 345
#     4  11  24  42  62  84 115 156 200 248 295 344
#     4   9  18  34  58  88 118 150 190 236 287 340
#     4  10  20  36  58  87 122 154 186 235 294 352
#     4  10  18  32  59  90 119 152 191 236 286 345
#     4  11  23  40  62  86 116 156 199 246 296 349
#     4  11  23  38  61  90 120 152 191 241 295 353
#     4  10  22  40  61  85 117 155 194 238 294 354
#
# _framework density 19.673469999999998
#
# number of rings (size 3 to 8) (size 9 to 14) (size 15 to 20)
#    0.000    1.750    2.500    1.875    0.000    4.750 
#    0.000    1.250    0.000    3.750    0.000    0.000 
#    0.000    0.000    0.000    0.000    0.000    0.000 
#
# Total GULP energy -793756.464801 kJ/mol
# GULP energy per Si atom -12402.444763 kJ/mol
# Density = 1.962869 g / cm^3
# Si number density = 19.673470 Si / 1000 Ang^3
#
#
#
# Elastic Constant Matrix: (Units=GPa)
#
#
# Indices 1 2 3 4 5 6 
#
# 1 129.1667 34.5566 36.0705 0.0000 0.0000 0.0000
# 2 34.5566 28.4559 20.8442 0.0000 0.0000 0.0000
# 3 36.0705 20.8442 103.4340 0.0000 0.0000 0.0000
# 4 0.0000 0.0000 0.0000 29.3801 0.0000 0.0000
# 5 0.0000 0.0000 0.0000 0.0000 11.7036 0.0000
# 6 0.0000 0.0000 0.0000 0.0000 0.0000 29.1521
#
#
#
# Elastic Compliance Matrix: (Units=1/GPa)
#
#
# Indices 1 2 3 4 5 6 
#
# 1 0.011643 -0.013098 -0.001421 0.000000 0.000000 0.000000
# 2 -0.013098 0.055964 -0.006710 0.000000 0.000000 0.000000
# 3 -0.001421 -0.006710 0.011516 0.000000 0.000000 0.000000
# 4 0.000000 0.000000 0.000000 0.034037 0.000000 0.000000
# 5 0.000000 0.000000 0.000000 0.000000 0.085444 0.000000
# 6 0.000000 0.000000 0.000000 0.000000 0.000000 0.034303
#
#
# Mechanical properties :
#
#
# Convention : Reuss Voigt Hill
#
# Bulk Modulus (GPa) = 27.27463 49.33323 38.30393
# Shear Modulus (GPa) = 17.38614 25.35286 21.36950
#
# Velocity S-wave (km/s) = 2.97599 3.59372 3.29934
# Velocity P-wave (km/s) = 5.06976 6.50770 5.83321
#
# Compressibility (1/GPa) = 0.03666411
#
# Stress axis : x y z
#
# Youngs Moduli (GPa) = 85.88903 17.86866 86.83834
#
# Poissons Ratio (x) = 0.23405 0.12336
# Poissons Ratio (y) = 1.12501 0.58270
# Poissons Ratio (z) = 0.12201 0.11990
#
# Static dielectric constant tensor:
#      x y z
#    x 3.722250 0.000000 0.000000 
#    y 0.000000 3.384640 0.000000 
#    z 0.000000 0.000000 3.676220 
# 
# 
# High freq. dielectric constant tensor:
#      x y z
#    x 1.777130 0.000000 0.000000 
#    y 0.000000 1.749340 0.000000 
#    z 0.000000 0.000000 1.769270 
# 
# From -- ./inp_files/19281.got.cif
#   From: 2010.03.12/outbox.cif.g09.slc.cpg/sg59_10_cif.got.tgz:19281.got - 2010.04.16 16:29:54.
