data_PCOD8240052
_publ_section_title
;
Structure prediction by ZEFSAII (Michael W. Deem and Ramdas Pophale) SiO2 
 PCOD8240052
Probable space group: P M M N
;
_chemical_formula_sum "Si O2"
_cell_formula_units_Z 48
_cell_length_a 13.701415
_cell_length_b 8.634480
_cell_length_c 20.670505
_cell_angle_alpha 90.000000
_cell_angle_beta 90.000000
_cell_angle_gamma 90.000000
_cell_volume 2445.415697
_symmetry_space_group_name_H-M "P M M N"
_symmetry_group_IT_number 59
_space_group.IT_coordinate_system_code '2'
_symmetry_cell_setting 'orthorhombic'
loop_
_space_group_symop_operation_xyz
x,y,z
1/2-x,1/2-y,z
1/2+x,-y,-z
-x,1/2+y,-z
-x,-y,-z
1/2+x,1/2+y,-z
1/2-x,y,z
x,1/2-y,z
loop_
_atom_site_type_symbol
_atom_site_label
_atom_site_fract_x
_atom_site_fract_y
_atom_site_fract_z
Si Si1 0.004977 0.428729 0.605841
Si Si2 0.543583 0.431276 0.258717
Si Si3 0.750000 0.933148 0.069747
Si Si4 0.250000 0.434337 0.786340
Si Si5 0.139824 0.434255 0.172416
Si Si6 0.138204 0.428864 0.487062
Si Si7 0.905199 0.566872 0.970932
O O1 0.007706 0.250000 0.627298
O O2 0.902988 0.466610 0.570907
O O3 0.016943 0.537488 0.667373
O O4 0.090497 0.470706 0.555690
O O5 0.555571 0.250000 0.246071
O O6 0.648654 0.509593 0.245563
O O7 0.451044 0.496507 0.216300
O O8 0.750000 0.750000 0.076895
O O9 0.750000 0.004417 0.141319
O O10 0.661972 0.995395 0.027794
O O11 0.250000 0.250000 0.782798
O O12 0.250000 0.488796 0.195115
O O13 0.137926 0.250000 0.173635
O O14 0.122626 0.499165 0.099743
O O15 0.250000 0.470611 0.494403
O O16 0.119343 0.250000 0.469613
O O17 0.904879 0.750000 0.965498
O O18 0.000000 0.500000 0.000000
#
# Coordination Sequence:
#
# PCOD8240052 Si02
#       7
#     8   8   4   4   8   8   8
#     4  10  21  37  58  87 119 154 193 238 292 348
#     4  11  23  38  58  86 118 156 201 247 292 350
#     4   9  18  33  55  79 105 140 185 232 287 347
#     4  11  23  39  57  81 117 158 197 244 301 361
#     4   9  18  35  58  82 111 151 196 239 289 354
#     4   9  19  37  61  86 115 152 194 239 286 343
#     4  10  18  32  55  80 106 139 182 231 286 345
#
# _framework density 19.628565999999999
#
# number of rings (size 3 to 8) (size 9 to 14) (size 15 to 20)
#    0.000    2.167    0.833    2.250    1.167    1.667 
#    0.000    3.750    0.000    3.500    0.000    0.000 
#    0.000    0.000    0.000    0.000    0.000    0.000 
#
# Total GULP energy -594735.128022 kJ/mol
# GULP energy per Si atom -12390.315167 kJ/mol
# Density = 1.958389 g / cm^3
# Si number density = 19.628566 Si / 1000 Ang^3
#
#
#
# Elastic Constant Matrix: (Units=GPa)
#
#
# Indices 1 2 3 4 5 6 
#
# 1 154.7363 20.7780 55.5365 0.0000 0.0000 0.0000
# 2 20.7780 31.7912 20.1665 0.0000 0.0000 0.0000
# 3 55.5365 20.1665 124.0217 0.0000 0.0000 0.0000
# 4 0.0000 0.0000 0.0000 23.0492 0.0000 0.0000
# 5 0.0000 0.0000 0.0000 0.0000 16.4657 0.0000
# 6 0.0000 0.0000 0.0000 0.0000 0.0000 25.9052
#
#
#
# Elastic Compliance Matrix: (Units=1/GPa)
#
#
# Indices 1 2 3 4 5 6 
#
# 1 0.007998 -0.003295 -0.003046 0.000000 0.000000 0.000000
# 2 -0.003295 0.036431 -0.004448 0.000000 0.000000 0.000000
# 3 -0.003046 -0.004448 0.010150 0.000000 0.000000 0.000000
# 4 0.000000 0.000000 0.000000 0.043385 0.000000 0.000000
# 5 0.000000 0.000000 0.000000 0.000000 0.060732 0.000000
# 6 0.000000 0.000000 0.000000 0.000000 0.000000 0.038602
#
#
# Mechanical properties :
#
#
# Convention : Reuss Voigt Hill
#
# Bulk Modulus (GPa) = 30.30246 55.94571 43.12409
# Shear Modulus (GPa) = 21.75068 27.35524 24.55296
#
# Velocity S-wave (km/s) = 3.33245 3.73720 3.54061
# Velocity P-wave (km/s) = 5.50258 6.86923 6.22353
#
# Compressibility (1/GPa) = 0.03300062
#
# Stress axis : x y z
#
# Youngs Moduli (GPa) = 125.02704 27.44939 98.51962
#
# Poissons Ratio (x) = 0.09046 0.30007
# Poissons Ratio (y) = 0.41202 0.43823
# Poissons Ratio (z) = 0.38080 0.12210
#
# Static dielectric constant tensor:
#      x y z
#    x 3.838510 0.000000 0.000000 
#    y 0.000000 3.304890 0.000000 
#    z 0.000000 0.000000 3.945560 
# 
# 
# High freq. dielectric constant tensor:
#      x y z
#    x 1.783220 0.000000 0.000000 
#    y 0.000000 1.736240 0.000000 
#    z 0.000000 0.000000 1.771740 
# 
# From -- ./inp_files/27408.got.cif
#   From: 2010.03.12/outbox.cif.g09.slc.cpg/sg59_14_cif.got.tgz:27408.got - 2010.04.16 16:29:54.
