data_PCOD8240182
_publ_section_title
;
Structure prediction by ZEFSAII (Michael W. Deem and Ramdas Pophale) SiO2 
 PCOD8240182
Probable space group: P M M N
;
_chemical_formula_sum "Si O2"
_cell_formula_units_Z 56
_cell_length_a 21.974995
_cell_length_b 9.320880
_cell_length_c 15.013704
_cell_angle_alpha 90.000000
_cell_angle_beta 90.000000
_cell_angle_gamma 90.000000
_cell_volume 3075.201310
_symmetry_space_group_name_H-M "P M M N"
_symmetry_group_IT_number 59
_space_group.IT_coordinate_system_code '2'
_symmetry_cell_setting 'orthorhombic'
loop_
_space_group_symop_operation_xyz
x,y,z
1/2-x,1/2-y,z
1/2+x,-y,-z
-x,1/2+y,-z
-x,-y,-z
1/2+x,1/2+y,-z
1/2-x,y,z
x,1/2-y,z
loop_
_atom_site_type_symbol
_atom_site_label
_atom_site_fract_x
_atom_site_fract_y
_atom_site_fract_z
Si Si1 0.750000 0.912105 0.419742
Si Si2 0.819343 0.081352 0.792588
Si Si3 0.048940 0.418168 0.698030
Si Si4 0.882348 0.584488 0.477006
Si Si5 0.680173 0.586733 0.965388
Si Si6 0.359053 0.416452 0.843665
Si Si7 0.582942 0.079493 0.650059
Si Si8 0.250000 0.579922 0.757492
O O1 0.750000 0.750000 0.378952
O O2 0.690467 0.935086 0.479950
O O3 0.750000 0.030032 0.343766
O O4 0.750000 0.035054 0.770940
O O5 0.825295 0.250000 0.805095
O O6 0.862127 0.026295 0.712972
O O7 0.841989 0.012084 0.884674
O O8 0.045574 0.250000 0.687810
O O9 0.091262 0.474549 0.616993
O O10 0.077996 0.458501 0.794008
O O11 0.980317 0.478098 0.692415
O O12 0.900410 0.750000 0.492589
O O13 0.911486 0.489236 0.553541
O O14 0.750000 0.551928 0.992693
O O15 0.674417 0.750000 0.933227
O O16 0.636448 0.557659 0.050221
O O17 0.341608 0.250000 0.824222
O O18 0.308800 0.520880 0.805932
O O19 0.584166 0.250000 0.639057
O O20 0.250000 0.750000 0.761829
#
# Coordination Sequence:
#
# PCOD8240182 Si02
#       8
#     4   8   8   8   8   8   8   4
#     4  10  20  36  54  75 106 139 174 211 256 318
#     4   9  19  35  52  71 103 141 170 210 268 317
#     4   9  18  34  56  77 101 141 181 212 252 314
#     4  10  20  34  55  78 102 137 176 216 263 305
#     4   9  17  30  53  80 100 128 173 218 255 299
#     4  10  18  34  56  76 106 142 176 210 257 315
#     4  10  21  36  54  76 103 138 181 219 260 314
#     4  12  22  30  48  81 114 139 170 213 262 308
#
# _framework density 18.210190000000001
#
# number of rings (size 3 to 8) (size 9 to 14) (size 15 to 20)
#    0.000    2.286    2.143    1.071    1.000    1.714 
#    0.000    1.429    0.000    0.000    0.000    0.000 
#    0.000    0.000    0.000    0.000    0.000    0.000 
#
# Total GULP energy -694300.486880 kJ/mol
# GULP energy per Si atom -12398.222980 kJ/mol
# Density = 1.816874 g / cm^3
# Si number density = 18.210190 Si / 1000 Ang^3
#
#
#
# Elastic Constant Matrix: (Units=GPa)
#
#
# Indices 1 2 3 4 5 6 
#
# 1 104.5769 21.2319 44.2171 0.0000 0.0000 0.0000
# 2 21.2319 44.8922 21.6804 0.0000 0.0000 0.0000
# 3 44.2171 21.6804 100.6963 0.0000 0.0000 0.0000
# 4 0.0000 0.0000 0.0000 32.1041 0.0000 0.0000
# 5 0.0000 0.0000 0.0000 0.0000 24.1776 0.0000
# 6 0.0000 0.0000 0.0000 0.0000 0.0000 -28.3207
#
#
#
# Elastic Compliance Matrix: (Units=1/GPa)
#
#
# Indices 1 2 3 4 5 6 
#
# 1 0.012232 -0.003562 -0.004605 0.000000 0.000000 0.000000
# 2 -0.003562 0.025898 -0.004012 0.000000 0.000000 0.000000
# 3 -0.004605 -0.004012 0.012817 0.000000 0.000000 0.000000
# 4 0.000000 0.000000 0.000000 0.031149 0.000000 0.000000
# 5 0.000000 0.000000 0.000000 0.000000 0.041361 0.000000
# 6 0.000000 0.000000 0.000000 0.000000 0.000000 -0.035310
#
#
# Mechanical properties :
#
#
# Convention : Reuss Voigt Hill
#
# Bulk Modulus (GPa) = 37.60766 47.15824 42.38295
# Shear Modulus (GPa) = 41.19794 16.46129 28.82961
#
# Velocity S-wave (km/s) = 4.76158 3.00985 3.98321
# Velocity P-wave (km/s) = 7.13632 6.16699 6.66929
#
# Compressibility (1/GPa) = 0.02659033
#
# Stress axis : x y z
#
# Youngs Moduli (GPa) = 81.75059 38.61370 78.02402
#
# Poissons Ratio (x) = 0.13753 0.35927
# Poissons Ratio (y) = 0.29116 0.31303
# Poissons Ratio (z) = 0.37643 0.15492
#
# Static dielectric constant tensor:
#      x y z
#    x 3.587410 0.000000 0.000000 
#    y 0.000000 3.131480 0.000000 
#    z 0.000000 0.000000 3.348560 
# 
# 
# High freq. dielectric constant tensor:
#      x y z
#    x 1.699580 0.000000 0.000000 
#    y 0.000000 1.682690 0.000000 
#    z 0.000000 0.000000 1.704520 
# 
# From -- ./inp_files/24368.got.cif
#   From: 2010.03.12/outbox.cif.g09.slc.cpg/sg59_13_cif.got.tgz:24368.got - 2010.04.16 16:29:54.
