data_PCOD8240126
_publ_section_title
;
Structure prediction by ZEFSAII (Michael W. Deem and Ramdas Pophale) SiO2 
 PCOD8240126
Probable space group: P M M N
;
_chemical_formula_sum "Si O2"
_cell_formula_units_Z 56
_cell_length_a 21.949958
_cell_length_b 9.075680
_cell_length_c 14.960011
_cell_angle_alpha 90.000000
_cell_angle_beta 90.000000
_cell_angle_gamma 90.000000
_cell_volume 2980.195682
_symmetry_space_group_name_H-M "P M M N"
_symmetry_group_IT_number 59
_space_group.IT_coordinate_system_code '2'
_symmetry_cell_setting 'orthorhombic'
loop_
_space_group_symop_operation_xyz
x,y,z
1/2-x,1/2-y,z
1/2+x,-y,-z
-x,1/2+y,-z
-x,-y,-z
1/2+x,1/2+y,-z
1/2-x,y,z
x,1/2-y,z
loop_
_atom_site_type_symbol
_atom_site_label
_atom_site_fract_x
_atom_site_fract_y
_atom_site_fract_z
Si Si1 0.750000 0.082744 0.446036
Si Si2 0.818974 0.076910 0.783565
Si Si3 0.049855 0.423054 0.699785
Si Si4 0.874663 0.574032 0.469921
Si Si5 0.679838 0.579254 0.962451
Si Si6 0.362135 0.422837 0.848728
Si Si7 0.581215 0.074857 0.641736
Si Si8 0.250000 0.584929 0.764949
O O1 0.750000 0.250000 0.484426
O O2 0.750000 0.084029 0.340619
O O3 0.691323 0.997848 0.482406
O O4 0.750000 0.023619 0.762506
O O5 0.822009 0.250000 0.796061
O O6 0.862419 0.025236 0.703664
O O7 0.842850 0.008648 0.876188
O O8 0.049916 0.250000 0.688881
O O9 0.094042 0.483971 0.621585
O O10 0.075124 0.467816 0.798336
O O11 0.980797 0.479060 0.690142
O O12 0.869109 0.750000 0.473445
O O13 0.916449 0.514615 0.549959
O O14 0.750000 0.541134 0.986434
O O15 0.672328 0.750000 0.940312
O O16 0.637644 0.531693 0.046762
O O17 0.348973 0.250000 0.840511
O O18 0.309199 0.502864 0.797036
O O19 0.581884 0.250000 0.623354
O O20 0.250000 0.750000 0.803396
#
# Coordination Sequence:
#
# PCOD8240126 Si02
#       8
#     4   8   8   8   8   8   8   4
#     4  11  23  37  53  80 115 146 175 219 274 324
#     4   9  19  35  54  75 103 140 179 224 272 321
#     4   9  19  35  56  79 107 147 185 220 262 324
#     4  11  22  36  57  83 109 142 184 227 272 316
#     4   9  17  30  52  79 104 136 176 221 271 320
#     4  10  18  33  55  78 109 145 181 216 265 326
#     4  10  21  38  57  77 106 146 189 225 271 325
#     4  11  21  31  49  80 113 142 175 219 270 316
#
# _framework density 18.790713
#
# number of rings (size 3 to 8) (size 9 to 14) (size 15 to 20)
#    0.000    2.143    2.143    1.286    1.000    1.714 
#    0.000    2.143    0.000    0.000    0.000    0.000 
#    0.000    0.000    0.000    0.000    0.000    0.000 
#
# Total GULP energy -694324.139621 kJ/mol
# GULP energy per Si atom -12398.645350 kJ/mol
# Density = 1.874794 g / cm^3
# Si number density = 18.790713 Si / 1000 Ang^3
#
#
#
# Elastic Constant Matrix: (Units=GPa)
#
#
# Indices 1 2 3 4 5 6 
#
# 1 95.9320 21.5465 33.0389 0.0000 0.0000 0.0000
# 2 21.5465 42.5459 23.5192 0.0000 0.0000 0.0000
# 3 33.0389 23.5192 94.9969 0.0000 0.0000 0.0000
# 4 0.0000 0.0000 0.0000 31.7567 0.0000 0.0000
# 5 0.0000 0.0000 0.0000 0.0000 30.5876 0.0000
# 6 0.0000 0.0000 0.0000 0.0000 0.0000 17.2511
#
#
#
# Elastic Compliance Matrix: (Units=1/GPa)
#
#
# Indices 1 2 3 4 5 6 
#
# 1 0.012567 -0.004574 -0.003238 0.000000 0.000000 0.000000
# 2 -0.004574 0.028896 -0.005563 0.000000 0.000000 0.000000
# 3 -0.003238 -0.005563 0.013030 0.000000 0.000000 0.000000
# 4 0.000000 0.000000 0.000000 0.031489 0.000000 0.000000
# 5 0.000000 0.000000 0.000000 0.000000 0.032693 0.000000
# 6 0.000000 0.000000 0.000000 0.000000 0.000000 0.057967
#
#
# Mechanical properties :
#
#
# Convention : Reuss Voigt Hill
#
# Bulk Modulus (GPa) = 36.04660 43.29821 39.67241
# Shear Modulus (GPa) = 23.51389 26.27709 24.89549
#
# Velocity S-wave (km/s) = 3.54129 3.74359 3.64384
# Velocity P-wave (km/s) = 5.99548 6.46361 6.23394
#
# Compressibility (1/GPa) = 0.02774187
#
# Stress axis : x y z
#
# Youngs Moduli (GPa) = 79.57609 34.60713 76.74504
#
# Poissons Ratio (x) = 0.15830 0.24851
# Poissons Ratio (y) = 0.36399 0.42695
# Poissons Ratio (z) = 0.25767 0.19253
#
# Static dielectric constant tensor:
#      x y z
#    x 3.443490 0.000000 0.000000 
#    y 0.000000 3.322320 0.000000 
#    z 0.000000 0.000000 3.556810 
# 
# 
# High freq. dielectric constant tensor:
#      x y z
#    x 1.721640 0.000000 0.000000 
#    y 0.000000 1.712960 0.000000 
#    z 0.000000 0.000000 1.734590 
# 
# From -- ./inp_files/24369.got.cif
#   From: 2010.03.12/outbox.cif.g09.slc.cpg/sg59_13_cif.got.tgz:24369.got - 2010.04.16 16:29:54.
