data_PCOD8240163
_publ_section_title
;
Structure prediction by ZEFSAII (Michael W. Deem and Ramdas Pophale) SiO2 
 PCOD8240163
Probable space group: P M M N
;
_chemical_formula_sum "Si O2"
_cell_formula_units_Z 48
_cell_length_a 10.094447
_cell_length_b 16.577667
_cell_length_c 13.938350
_cell_angle_alpha 90.000000
_cell_angle_beta 90.000000
_cell_angle_gamma 90.000000
_cell_volume 2332.476675
_symmetry_space_group_name_H-M "P M M N"
_symmetry_group_IT_number 59
_space_group.IT_coordinate_system_code '2'
_symmetry_cell_setting 'orthorhombic'
loop_
_space_group_symop_operation_xyz
x,y,z
1/2-x,1/2-y,z
1/2+x,-y,-z
-x,1/2+y,-z
-x,-y,-z
1/2+x,1/2+y,-z
1/2-x,y,z
x,1/2-y,z
loop_
_atom_site_type_symbol
_atom_site_label
_atom_site_fract_x
_atom_site_fract_y
_atom_site_fract_z
Si Si1 0.750000 0.154229 0.750311
Si Si2 0.250000 0.154305 0.803309
Si Si3 0.478611 0.345648 0.662252
Si Si4 0.250000 0.920580 0.041332
Si Si5 0.600944 0.653788 0.545333
Si Si6 0.250000 0.393658 0.017729
Si Si7 0.030449 0.842420 0.914715
Si Si8 0.100967 0.654116 0.703402
O O1 0.750000 0.250000 0.760888
O O2 0.876393 0.123358 0.690856
O O3 0.750000 0.118545 0.855277
O O4 0.250000 0.250000 0.822672
O O5 0.377593 0.125281 0.743937
O O6 0.250000 0.107203 0.902852
O O7 0.472760 0.250000 0.655935
O O8 0.439310 0.381507 0.558709
O O9 0.117150 0.895089 0.986781
O O10 0.250000 0.015737 0.054978
O O11 0.750000 0.625770 0.570949
O O12 0.593069 0.750000 0.543878
O O13 0.499320 0.618010 0.624077
O O14 0.377018 0.347593 0.058621
O O15 0.077924 0.750000 0.922651
O O16 0.053746 0.875877 0.807613
O O17 0.250000 0.622896 0.682532
O O18 0.096833 0.750000 0.699334
#
# Coordination Sequence:
#
# PCOD8240163 Si02
#       8
#     4   4   8   4   8   4   8   8
#     4  10  20  32  53  80 107 150 195 230 277 346
#     4  10  18  34  53  76 111 148 187 232 287 346
#     4   9  17  29  48  77 112 145 182 229 284 341
#     4  12  24  42  59  84 120 158 199 246 301 352
#     4   9  16  27  46  77 117 146 172 228 295 339
#     4  12  26  38  59  90 118 152 201 252 299 348
#     4  11  22  40  62  86 118 156 199 245 292 349
#     4   9  18  31  51  80 112 149 188 230 284 342
#
# _framework density 20.578983999999998
#
# number of rings (size 3 to 8) (size 9 to 14) (size 15 to 20)
#    0.000    2.000    1.667    3.000    2.333    1.333 
#    0.000    0.000    0.000    0.000    0.000    7.000 
#    0.000    0.000    0.000    0.000    0.000    0.000 
#
# Total GULP energy -595294.928562 kJ/mol
# GULP energy per Si atom -12401.977678 kJ/mol
# Density = 2.053215 g / cm^3
# Si number density = 20.578984 Si / 1000 Ang^3
#
#
#
# Elastic Constant Matrix: (Units=GPa)
#
#
# Indices 1 2 3 4 5 6 
#
# 1 170.0074 13.7949 73.1102 0.0000 0.0000 0.0000
# 2 13.7949 13.3615 9.7167 0.0000 0.0000 0.0000
# 3 73.1102 9.7167 145.4571 0.0000 0.0000 0.0000
# 4 0.0000 0.0000 0.0000 -5.0042 0.0000 0.0000
# 5 0.0000 0.0000 0.0000 0.0000 -14.5422 0.0000
# 6 0.0000 0.0000 0.0000 0.0000 0.0000 5.9842
#
#
#
# Elastic Compliance Matrix: (Units=1/GPa)
#
#
# Indices 1 2 3 4 5 6 
#
# 1 0.007873 -0.005519 -0.003589 0.000000 0.000000 0.000000
# 2 -0.005519 0.082532 -0.002739 0.000000 0.000000 0.000000
# 3 -0.003589 -0.002739 0.008862 0.000000 0.000000 0.000000
# 4 0.000000 0.000000 0.000000 -0.199832 0.000000 0.000000
# 5 0.000000 0.000000 0.000000 0.000000 -0.068765 0.000000
# 6 0.000000 0.000000 0.000000 0.000000 0.000000 0.167107
#
#
# Mechanical properties :
#
#
# Convention : Reuss Voigt Hill
#
# Bulk Modulus (GPa) = 13.23223 58.00772 35.61997
# Shear Modulus (GPa) = 107.15795 12.76784 59.96290
#
# Velocity S-wave (km/s) = 7.22389 2.49355 5.40381
# Velocity P-wave (km/s) = 8.71914 6.04478 7.50209
#
# Compressibility (1/GPa) = 0.07557308
#
# Stress axis : x y z
#
# Youngs Moduli (GPa) = 127.01415 12.11654 112.84689
#
# Poissons Ratio (x) = 0.06687 0.40496
# Poissons Ratio (y) = 0.70097 0.30912
# Poissons Ratio (z) = 0.45580 0.03319
#
# Static dielectric constant tensor:
#      x y z
#    x 4.082040 0.000000 0.000000 
#    y 0.000000 3.071970 0.000000 
#    z 0.000000 0.000000 3.950710 
# 
# 
# High freq. dielectric constant tensor:
#      x y z
#    x 1.824020 0.000000 0.000000 
#    y 0.000000 1.746140 0.000000 
#    z 0.000000 0.000000 1.817700 
# 
# From -- ./inp_files/20642.got.cif
#   From: 2010.03.12/outbox.cif.g09.slc.cpg/sg59_11_cif.got.tgz:20642.got - 2010.04.16 16:29:54.
