data_PCOD8240023
_publ_section_title
;
Structure prediction by ZEFSAII (Michael W. Deem and Ramdas Pophale) SiO2 
 PCOD8240023
Probable space group: P M M N
;
_chemical_formula_sum "Si O2"
_cell_formula_units_Z 48
_cell_length_a 19.519667
_cell_length_b 8.992294
_cell_length_c 16.899455
_cell_angle_alpha 90.000000
_cell_angle_beta 90.000000
_cell_angle_gamma 90.000000
_cell_volume 2966.303615
_symmetry_space_group_name_H-M "P M M N"
_symmetry_group_IT_number 59
_space_group.IT_coordinate_system_code '2'
_symmetry_cell_setting 'orthorhombic'
loop_
_space_group_symop_operation_xyz
x,y,z
1/2-x,1/2-y,z
1/2+x,-y,-z
-x,1/2+y,-z
-x,-y,-z
1/2+x,1/2+y,-z
1/2-x,y,z
x,1/2-y,z
loop_
_atom_site_type_symbol
_atom_site_label
_atom_site_fract_x
_atom_site_fract_y
_atom_site_fract_z
Si Si1 0.071539 0.418252 0.785217
Si Si2 0.671078 0.075358 0.334947
Si Si3 0.998594 0.573176 0.914921
Si Si4 0.421469 0.581784 0.211445
Si Si5 0.331158 0.418798 0.336059
Si Si6 0.331313 0.585383 0.489553
O O1 0.093256 0.250000 0.806955
O O2 0.126976 0.485926 0.727347
O O3 0.065719 0.515668 0.866121
O O4 0.995796 0.419349 0.744287
O O5 0.750000 0.031471 0.321927
O O6 0.660155 0.250000 0.322365
O O7 0.646130 0.029479 0.423337
O O8 0.998660 0.750000 0.921471
O O9 0.929889 0.515522 0.869169
O O10 0.000000 0.500000 0.000000
O O11 0.400176 0.750000 0.189024
O O12 0.363320 0.514514 0.266428
O O13 0.250000 0.435466 0.329522
O O14 0.355461 0.250000 0.326802
O O15 0.357978 0.475200 0.421445
O O16 0.250000 0.594401 0.488958
O O17 0.361238 0.750000 0.472652
#
# Coordination Sequence:
#
# PCOD8240023 Si02
#       6
#     8   8   8   8   8   8
#     4   9  19  32  48  73  99 126 162 198 237 285
#     4   9  17  30  49  72  97 129 167 203 242 286
#     4  10  18  32  54  76  98 124 156 194 234 284
#     4   9  19  33  49  72  98 126 162 197 237 287
#     4  10  19  30  47  72  98 127 165 204 242 284
#     4   8  15  28  45  65  92 128 167 202 237 282
#
# _framework density 16.181754999999999
#
# number of rings (size 3 to 8) (size 9 to 14) (size 15 to 20)
#    1.000    1.833    0.000    3.500    0.000    2.000 
#    0.000    2.500    0.000    1.000    0.000    0.000 
#    0.000    0.000    0.000    0.000    0.000    0.000 
#
# Total GULP energy -594706.652152 kJ/mol
# GULP energy per Si atom -12389.721920 kJ/mol
# Density = 1.614492 g / cm^3
# Si number density = 16.181755 Si / 1000 Ang^3
#
#
#
# Elastic Constant Matrix: (Units=GPa)
#
#
# Indices 1 2 3 4 5 6 
#
# 1 32.5120 34.9644 34.3939 0.0000 0.0000 0.0000
# 2 34.9644 137.7372 75.6468 0.0000 0.0000 0.0000
# 3 34.3939 75.6468 126.4638 0.0000 0.0000 0.0000
# 4 0.0000 0.0000 0.0000 33.7981 0.0000 0.0000
# 5 0.0000 0.0000 0.0000 0.0000 35.0429 0.0000
# 6 0.0000 0.0000 0.0000 0.0000 0.0000 25.8091
#
#
#
# Elastic Compliance Matrix: (Units=1/GPa)
#
#
# Indices 1 2 3 4 5 6 
#
# 1 0.047804 -0.007438 -0.008552 0.000000 0.000000 0.000000
# 2 -0.007438 0.011970 -0.005137 0.000000 0.000000 0.000000
# 3 -0.008552 -0.005137 0.013306 0.000000 0.000000 0.000000
# 4 0.000000 0.000000 0.000000 0.029587 0.000000 0.000000
# 5 0.000000 0.000000 0.000000 0.000000 0.028536 0.000000
# 6 0.000000 0.000000 0.000000 0.000000 0.000000 0.038746
#
#
# Mechanical properties :
#
#
# Convention : Reuss Voigt Hill
#
# Bulk Modulus (GPa) = 32.44050 65.19147 48.81598
# Shear Modulus (GPa) = 22.47411 29.04389 25.75900
#
# Velocity S-wave (km/s) = 3.73078 4.24117 3.99413
# Velocity P-wave (km/s) = 6.21686 8.02233 7.17660
#
# Compressibility (1/GPa) = 0.03082567
#
# Stress axis : x y z
#
# Youngs Moduli (GPa) = 20.91883 83.54465 75.15452
#
# Poissons Ratio (x) = 0.62143 0.64270
# Poissons Ratio (y) = 0.15560 0.38606
# Poissons Ratio (z) = 0.17889 0.42916
#
# Static dielectric constant tensor:
#      x y z
#    x 2.719950 0.000000 0.000000 
#    y 0.000000 3.534830 0.000000 
#    z 0.000000 0.000000 3.023420 
# 
# 
# High freq. dielectric constant tensor:
#      x y z
#    x 1.584270 0.000000 0.000000 
#    y 0.000000 1.636990 0.000000 
#    z 0.000000 0.000000 1.615510 
# 
# From -- ./inp_files/28002.got.cif
#   From: 2010.03.12/outbox.cif.g09.slc.cpg/sg59_15_cif.got.tgz:28002.got - 2010.04.16 16:29:54.
