data_PCOD8240217
_publ_section_title
;
Structure prediction by ZEFSAII (Michael W. Deem and Ramdas Pophale) SiO2 
 PCOD8240217
Probable space group: P M M N
;
_chemical_formula_sum "Si O2"
_cell_formula_units_Z 56
_cell_length_a 18.322991
_cell_length_b 16.393546
_cell_length_c 10.181605
_cell_angle_alpha 90.000000
_cell_angle_beta 90.000000
_cell_angle_gamma 90.000000
_cell_volume 3058.338249
_symmetry_space_group_name_H-M "P M M N"
_symmetry_group_IT_number 59
_space_group.IT_coordinate_system_code '2'
_symmetry_cell_setting 'orthorhombic'
loop_
_space_group_symop_operation_xyz
x,y,z
1/2-x,1/2-y,z
1/2+x,-y,-z
-x,1/2+y,-z
-x,-y,-z
1/2+x,1/2+y,-z
1/2-x,y,z
x,1/2-y,z
loop_
_atom_site_type_symbol
_atom_site_label
_atom_site_fract_x
_atom_site_fract_y
_atom_site_fract_z
Si Si1 0.832853 0.250000 0.599528
Si Si2 0.835401 0.574243 0.215455
Si Si3 0.419608 0.078200 0.289623
Si Si4 0.580388 0.093229 0.591967
Si Si5 0.579538 0.845048 0.439408
Si Si6 0.589020 0.086952 0.288081
Si Si7 0.167297 0.750000 0.712796
Si Si8 0.164155 0.342623 0.055538
O O1 0.750000 0.250000 0.653171
O O2 0.874947 0.330283 0.650789
O O3 0.834832 0.250000 0.443542
O O4 0.750000 0.557178 0.223207
O O5 0.857193 0.628827 0.340285
O O6 0.876162 0.488022 0.210523
O O7 0.858215 0.623561 0.086336
O O8 0.395757 0.133295 0.413328
O O9 0.503960 0.092835 0.256558
O O10 0.372906 0.102398 0.164967
O O11 0.401555 0.984018 0.318554
O O12 0.493826 0.106822 0.597708
O O13 0.604124 0.074278 0.442857
O O14 0.563236 0.750000 0.429682
O O15 0.626075 0.169811 0.235100
O O16 0.250000 0.750000 0.765675
O O17 0.250000 0.347432 0.076928
O O18 0.135923 0.250000 0.066259
#
# Coordination Sequence:
#
# PCOD8240217 Si02
#       8
#     4   8   8   8   8   8   4   8
#     4   9  18  30  52  81 116 157 184 214 279 355
#     4  11  22  39  60  82 113 152 192 240 287 339
#     4  11  21  36  61  86 115 149 190 237 285 340
#     4  10  18  35  54  86 121 146 182 234 286 329
#     4  11  20  35  59  86 116 148 187 237 288 331
#     4  10  19  34  57  87 117 148 190 231 284 339
#     4   9  18  30  50  83 120 151 180 228 281 337
#     4  10  24  43  58  79 114 154 192 235 291 346
#
# _framework density 18.310597000000001
#
# number of rings (size 3 to 8) (size 9 to 14) (size 15 to 20)
#    0.000    1.714    3.571    2.143    4.000    3.143 
#    0.000    0.000    0.000    0.857    0.000    2.000 
#    0.000    0.000    0.000    0.000    0.000    0.000 
#
# Total GULP energy -694649.232696 kJ/mol
# GULP energy per Si atom -12404.450584 kJ/mol
# Density = 1.826892 g / cm^3
# Si number density = 18.310597 Si / 1000 Ang^3
#
#
#
# Elastic Constant Matrix: (Units=GPa)
#
#
# Indices 1 2 3 4 5 6 
#
# 1 55.5210 35.9807 41.1568 0.0000 0.0000 0.0000
# 2 35.9807 129.9489 34.4602 0.0000 0.0000 0.0000
# 3 41.1568 34.4602 75.5654 0.0000 0.0000 0.0000
# 4 0.0000 0.0000 0.0000 25.5028 0.0000 0.0000
# 5 0.0000 0.0000 0.0000 0.0000 26.5864 0.0000
# 6 0.0000 0.0000 0.0000 0.0000 0.0000 30.3203
#
#
#
# Elastic Compliance Matrix: (Units=1/GPa)
#
#
# Indices 1 2 3 4 5 6 
#
# 1 0.032774 -0.004938 -0.015599 0.000000 0.000000 0.000000
# 2 -0.004938 0.009498 -0.001642 0.000000 0.000000 0.000000
# 3 -0.015599 -0.001642 0.022478 0.000000 0.000000 0.000000
# 4 0.000000 0.000000 0.000000 0.039211 0.000000 0.000000
# 5 0.000000 0.000000 0.000000 0.000000 0.037613 0.000000
# 6 0.000000 0.000000 0.000000 0.000000 0.000000 0.032981
#
#
# Mechanical properties :
#
#
# Convention : Reuss Voigt Hill
#
# Bulk Modulus (GPa) = 49.03585 53.80342 51.41964
# Shear Modulus (GPa) = 22.15216 26.44440 24.29828
#
# Velocity S-wave (km/s) = 3.48199 3.80440 3.64676
# Velocity P-wave (km/s) = 6.55773 6.98180 6.77309
#
# Compressibility (1/GPa) = 0.02039324
#
# Stress axis : x y z
#
# Youngs Moduli (GPa) = 30.51155 105.28515 44.48771
#
# Poissons Ratio (x) = 0.51992 0.69395
# Poissons Ratio (y) = 0.15067 0.07304
# Poissons Ratio (z) = 0.47594 0.17286
#
# Static dielectric constant tensor:
#      x y z
#    x 3.354050 0.000000 0.000000 
#    y 0.000000 3.585400 0.000000 
#    z 0.000000 0.000000 3.067250 
# 
# 
# High freq. dielectric constant tensor:
#      x y z
#    x 1.710570 0.000000 0.000000 
#    y 0.000000 1.731970 0.000000 
#    z 0.000000 0.000000 1.673540 
# 
# From -- ./inp_files/11475.got.cif
#   From: 2010.03.12/outbox.cif.g09.slc.cpg/sg59_6_cif.got.tgz:11475.got - 2010.04.16 16:29:54.
