data_PCOD8240598
_publ_section_title
;
Structure prediction by ZEFSAII (Michael W. Deem and Ramdas Pophale) SiO2 
 PCOD8240598
Probable space group: P M M N
;
_chemical_formula_sum "Si O2"
_cell_formula_units_Z 64
_cell_length_a 9.038257
_cell_length_b 29.496597
_cell_length_c 14.950747
_cell_angle_alpha 90.000000
_cell_angle_beta 90.000000
_cell_angle_gamma 90.000000
_cell_volume 3985.836622
_symmetry_space_group_name_H-M "P M M N"
_symmetry_group_IT_number 59
_space_group.IT_coordinate_system_code '2'
_symmetry_cell_setting 'orthorhombic'
loop_
_space_group_symop_operation_xyz
x,y,z
1/2-x,1/2-y,z
1/2+x,-y,-z
-x,1/2+y,-z
-x,-y,-z
1/2+x,1/2+y,-z
1/2-x,y,z
x,1/2-y,z
loop_
_atom_site_type_symbol
_atom_site_label
_atom_site_fract_x
_atom_site_fract_y
_atom_site_fract_z
Si Si1 0.076855 0.064014 0.948444
Si Si2 0.425186 0.299067 0.516943
Si Si3 0.423048 0.535236 0.879933
Si Si4 0.076720 0.558772 0.367618
Si Si5 0.418417 0.301500 0.720754
Si Si6 0.076193 0.395612 0.465296
Si Si7 0.077380 0.459699 0.305046
Si Si8 0.923897 0.381681 0.800863
O O1 0.250000 0.072163 0.958931
O O2 0.005658 0.103774 0.890874
O O3 0.039764 0.017101 0.898614
O O4 0.004523 0.065775 0.046361
O O5 0.250000 0.296182 0.512800
O O6 0.488201 0.250000 0.481376
O O7 0.475083 0.305851 0.619126
O O8 0.481853 0.343130 0.461922
O O9 0.250000 0.545273 0.884889
O O10 0.483088 0.548831 0.783298
O O11 0.250000 0.564609 0.383114
O O12 0.031914 0.506587 0.352560
O O13 0.023530 0.587018 0.281537
O O14 0.996570 0.576357 0.455350
O O15 0.250000 0.319455 0.729026
O O16 0.428571 0.250000 0.754117
O O17 0.527780 0.330350 0.782306
O O18 0.250000 0.396737 0.483969
O O19 0.037127 0.418575 0.371219
O O20 0.250000 0.460637 0.279337
O O21 0.750000 0.385123 0.816443
#
# Coordination Sequence:
#
# PCOD8240598 Si02
#       8
#     8   8   8   8   8   8   8   8
#     4  10  20  33  51  71  93 122 157 196 236 284
#     4   8  14  26  44  66  90 116 153 200 240 273
#     4  10  20  33  50  71  93 122 157 196 241 284
#     4  10  20  31  42  62  97 132 159 194 233 274
#     4   9  17  30  48  68  93 126 162 201 241 283
#     4  10  19  30  48  68  89 125 166 199 234 281
#     4  10  20  33  46  65  95 128 162 199 238 281
#     4  11  20  30  47  70  98 130 160 194 238 288
#
# _framework density 16.056854999999999
#
# number of rings (size 3 to 8) (size 9 to 14) (size 15 to 20)
#    0.000    2.250    2.500    2.250    0.000    2.750 
#    0.000    0.000    0.000    0.375    0.000    0.875 
#    0.000    5.000    0.000    0.000    0.000    0.000 
#
# Total GULP energy -793566.329558 kJ/mol
# GULP energy per Si atom -12399.473899 kJ/mol
# Density = 1.602031 g / cm^3
# Si number density = 16.056855 Si / 1000 Ang^3
#
#
#
# Elastic Constant Matrix: (Units=GPa)
#
#
# Indices 1 2 3 4 5 6 
#
# 1 53.6104 33.0549 45.3470 0.0000 0.0000 0.0000
# 2 33.0549 109.3301 57.4738 0.0000 0.0000 0.0000
# 3 45.3470 57.4738 102.9409 0.0000 0.0000 0.0000
# 4 0.0000 0.0000 0.0000 15.3870 0.0000 0.0000
# 5 0.0000 0.0000 0.0000 0.0000 27.4956 0.0000
# 6 0.0000 0.0000 0.0000 0.0000 0.0000 20.8234
#
#
#
# Elastic Compliance Matrix: (Units=1/GPa)
#
#
# Indices 1 2 3 4 5 6 
#
# 1 0.030433 -0.003048 -0.011704 0.000000 0.000000 0.000000
# 2 -0.003048 0.013252 -0.006056 0.000000 0.000000 0.000000
# 3 -0.011704 -0.006056 0.018251 0.000000 0.000000 0.000000
# 4 0.000000 0.000000 0.000000 0.064990 0.000000 0.000000
# 5 0.000000 0.000000 0.000000 0.000000 0.036369 0.000000
# 6 0.000000 0.000000 0.000000 0.000000 0.000000 0.048023
#
#
# Mechanical properties :
#
#
# Convention : Reuss Voigt Hill
#
# Bulk Modulus (GPa) = 49.21479 59.73698 54.47588
# Shear Modulus (GPa) = 19.25245 21.40827 20.33036
#
# Velocity S-wave (km/s) = 3.46644 3.65537 3.56216
# Velocity P-wave (km/s) = 6.83655 7.42293 7.13577
#
# Compressibility (1/GPa) = 0.02031910
#
# Stress axis : x y z
#
# Youngs Moduli (GPa) = 32.85942 75.46178 54.79074
#
# Poissons Ratio (x) = 0.23003 0.64128
# Poissons Ratio (y) = 0.10016 0.33181
# Poissons Ratio (z) = 0.38459 0.45699
#
# Static dielectric constant tensor:
#      x y z
#    x 2.933030 0.000000 0.000000 
#    y 0.000000 3.290430 0.000000 
#    z 0.000000 0.000000 2.901050 
# 
# 
# High freq. dielectric constant tensor:
#      x y z
#    x 1.611160 0.000000 0.000000 
#    y 0.000000 1.608770 0.000000 
#    z 0.000000 0.000000 1.598150 
# 
# From -- ./inp_files/21851.got.cif
#   From: 2010.03.12/outbox.cif.g09.slc.cpg/sg59_11_cif.got.tgz:21851.got - 2010.04.16 16:29:54.
