data_PCOD8240727
_publ_section_title
;
Structure prediction by ZEFSAII (Michael W. Deem and Ramdas Pophale) SiO2 
 PCOD8240727
Probable space group: P M M N
;
_chemical_formula_sum "Si O2"
_cell_formula_units_Z 56
_cell_length_a 9.108144
_cell_length_b 21.109753
_cell_length_c 14.598050
_cell_angle_alpha 90.000000
_cell_angle_beta 90.000000
_cell_angle_gamma 90.000000
_cell_volume 2806.776856
_symmetry_space_group_name_H-M "P M M N"
_symmetry_group_IT_number 59
_space_group.IT_coordinate_system_code '2'
_symmetry_cell_setting 'orthorhombic'
loop_
_space_group_symop_operation_xyz
x,y,z
1/2-x,1/2-y,z
1/2+x,-y,-z
-x,1/2+y,-z
-x,-y,-z
1/2+x,1/2+y,-z
1/2-x,y,z
x,1/2-y,z
loop_
_atom_site_type_symbol
_atom_site_label
_atom_site_fract_x
_atom_site_fract_y
_atom_site_fract_z
Si Si1 0.584827 0.321323 0.913368
Si Si2 0.076680 0.497097 0.730878
Si Si3 0.411324 0.491249 0.090888
Si Si4 0.076061 0.750000 0.588339
Si Si5 0.909739 0.845765 0.902263
Si Si6 0.075054 0.750000 0.382707
Si Si7 0.422885 0.875177 0.279663
Si Si8 0.076566 0.641569 0.722961
O O1 0.750000 0.336660 0.945517
O O2 0.573580 0.250000 0.875772
O O3 0.539558 0.366450 0.828797
O O4 0.482851 0.329460 0.001297
O O5 0.250000 0.489479 0.725956
O O6 0.028587 0.568431 0.700564
O O7 0.017232 0.482081 0.831718
O O8 0.001089 0.438213 0.676546
O O9 0.250000 0.525705 0.089544
O O10 0.381251 0.418934 0.107335
O O11 0.500000 0.500000 0.000000
O O12 0.250000 0.750000 0.585025
O O13 0.011618 0.750000 0.486098
O O14 0.023198 0.685971 0.639670
O O15 0.750000 0.811624 0.897467
O O16 0.009093 0.827381 0.815115
O O17 0.250000 0.750000 0.380830
O O18 0.016980 0.686451 0.333315
O O19 0.250000 0.883258 0.294762
O O20 0.250000 0.643407 0.737634
#
# Coordination Sequence:
#
# PCOD8240727 Si02
#       8
#     8   8   8   4   8   4   8   8
#     4  10  20  33  49  72 105 144 184 223 265 317
#     4  10  20  33  51  77 111 146 181 223 273 327
#     4  10  19  31  47  70 103 143 186 226 267 318
#     4   9  18  36  64  87 104 134 181 231 274 325
#     4  10  21  33  47  73 109 143 178 221 267 314
#     4   9  18  36  62  89 108 132 181 235 278 325
#     4  10  19  35  58  82 110 143 182 229 276 324
#     4   9  19  36  57  82 110 144 185 226 270 323
#
# _framework density 19.951709999999999
#
# number of rings (size 3 to 8) (size 9 to 14) (size 15 to 20)
#    0.000    2.286    0.714    2.143    1.000    5.429 
#    0.000    1.071    0.000    1.714    0.000    0.000 
#    0.000    0.000    0.000    0.000    0.000    0.000 
#
# Total GULP energy -693780.246990 kJ/mol
# GULP energy per Si atom -12388.932982 kJ/mol
# Density = 1.990630 g / cm^3
# Si number density = 19.951710 Si / 1000 Ang^3
#
#
#
# Elastic Constant Matrix: (Units=GPa)
#
#
# Indices 1 2 3 4 5 6 
#
# 1 68.2043 38.6682 31.3082 0.0000 0.0000 0.0000
# 2 38.6682 147.5321 47.4960 0.0000 0.0000 0.0000
# 3 31.3082 47.4960 101.3171 0.0000 0.0000 0.0000
# 4 0.0000 0.0000 0.0000 14.6745 0.0000 0.0000
# 5 0.0000 0.0000 0.0000 0.0000 10.3403 0.0000
# 6 0.0000 0.0000 0.0000 0.0000 0.0000 20.3031
#
#
#
# Elastic Compliance Matrix: (Units=1/GPa)
#
#
# Indices 1 2 3 4 5 6 
#
# 1 0.018541 -0.003551 -0.004065 0.000000 0.000000 0.000000
# 2 -0.003551 0.008663 -0.002964 0.000000 0.000000 0.000000
# 3 -0.004065 -0.002964 0.012515 0.000000 0.000000 0.000000
# 4 0.000000 0.000000 0.000000 0.068146 0.000000 0.000000
# 5 0.000000 0.000000 0.000000 0.000000 0.096709 0.000000
# 6 0.000000 0.000000 0.000000 0.000000 0.000000 0.049254
#
#
# Mechanical properties :
#
#
# Convention : Reuss Voigt Hill
#
# Bulk Modulus (GPa) = 53.87824 61.33316 57.60570
# Shear Modulus (GPa) = 17.78263 22.36897 20.07580
#
# Velocity S-wave (km/s) = 2.98868 3.35200 3.17554
# Velocity P-wave (km/s) = 6.24280 6.76674 6.51004
#
# Compressibility (1/GPa) = 0.01856037
#
# Stress axis : x y z
#
# Youngs Moduli (GPa) = 53.93475 115.43250 79.90125
#
# Poissons Ratio (x) = 0.40990 0.32478
# Poissons Ratio (y) = 0.19152 0.23681
# Poissons Ratio (z) = 0.21923 0.34212
#
# Static dielectric constant tensor:
#      x y z
#    x 3.614520 0.000000 0.000000 
#    y 0.000000 3.908570 0.000000 
#    z 0.000000 0.000000 3.055930 
# 
# 
# High freq. dielectric constant tensor:
#      x y z
#    x 1.759530 0.000000 0.000000 
#    y 0.000000 1.803350 0.000000 
#    z 0.000000 0.000000 1.743920 
# 
# From -- ./inp_files/21179.got.cif
#   From: 2010.03.12/outbox.cif.g09.slc.cpg/sg59_11_cif.got.tgz:21179.got - 2010.04.16 16:29:54.
