data_PCOD8240425
_publ_section_title
;
Structure prediction by ZEFSAII (Michael W. Deem and Ramdas Pophale) SiO2 
 PCOD8240425
Probable space group: P M M N
;
_chemical_formula_sum "Si O2"
_cell_formula_units_Z 64
_cell_length_a 9.054896
_cell_length_b 29.433324
_cell_length_c 15.047101
_cell_angle_alpha 90.000000
_cell_angle_beta 90.000000
_cell_angle_gamma 90.000000
_cell_volume 4010.288472
_symmetry_space_group_name_H-M "P M M N"
_symmetry_group_IT_number 59
_space_group.IT_coordinate_system_code '2'
_symmetry_cell_setting 'orthorhombic'
loop_
_space_group_symop_operation_xyz
x,y,z
1/2-x,1/2-y,z
1/2+x,-y,-z
-x,1/2+y,-z
-x,-y,-z
1/2+x,1/2+y,-z
1/2-x,y,z
x,1/2-y,z
loop_
_atom_site_type_symbol
_atom_site_label
_atom_site_fract_x
_atom_site_fract_y
_atom_site_fract_z
Si Si1 0.424289 0.619388 0.196877
Si Si2 0.078851 0.434218 0.949974
Si Si3 0.420799 0.534645 0.883626
Si Si4 0.575212 0.056187 0.639718
Si Si5 0.918846 0.801711 0.286211
Si Si6 0.075010 0.963119 0.682355
Si Si7 0.076325 0.894375 0.537113
Si Si8 0.921479 0.300287 0.528572
O O1 0.250000 0.622388 0.188060
O O2 0.491372 0.603964 0.103485
O O3 0.473521 0.584997 0.274569
O O4 0.488054 0.668966 0.216929
O O5 0.250000 0.421541 0.952274
O O6 0.048826 0.481860 0.901683
O O7 0.018249 0.434910 0.050453
O O8 0.250000 0.546748 0.899087
O O9 0.473289 0.545626 0.783799
O O10 0.750000 0.049331 0.637387
O O11 0.514914 0.082379 0.552688
O O12 0.499373 0.007497 0.641934
O O13 0.750000 0.818327 0.287850
O O14 0.931443 0.750000 0.253817
O O15 0.983186 0.807358 0.384210
O O16 0.250000 0.970062 0.676819
O O17 0.016955 0.920080 0.624754
O O18 0.250000 0.899835 0.535619
O O19 0.033359 0.840587 0.539944
O O20 0.750000 0.305493 0.555895
O O21 0.950790 0.250000 0.486652
#
# Coordination Sequence:
#
# PCOD8240425 Si02
#       8
#     8   8   8   8   8   8   8   8
#     4  11  20  31  49  70  95 127 157 191 232 280
#     4  10  19  31  48  68  91 119 154 196 236 281
#     4   9  18  31  45  66  90 120 158 194 237 281
#     4  10  19  30  43  64  95 126 159 190 223 273
#     4  10  20  32  47  69  96 124 156 195 234 275
#     4  10  19  31  47  64  91 125 160 199 234 275
#     4   9  17  30  45  66  92 123 159 193 230 275
#     4   9  16  29  48  67  90 121 156 192 232 276
#
# _framework density 15.958951000000001
#
# number of rings (size 3 to 8) (size 9 to 14) (size 15 to 20)
#    0.000    2.250    2.500    1.500    0.000    2.250 
#    0.000    0.625    0.000    0.000    0.000    0.875 
#    0.000    3.000    0.000    0.000    0.000    0.000 
#
# Total GULP energy -793535.429907 kJ/mol
# GULP energy per Si atom -12398.991092 kJ/mol
# Density = 1.592263 g / cm^3
# Si number density = 15.958951 Si / 1000 Ang^3
#
#
#
# Elastic Constant Matrix: (Units=GPa)
#
#
# Indices 1 2 3 4 5 6 
#
# 1 52.0038 37.8069 30.3784 0.0000 0.0000 0.0000
# 2 37.8069 113.3541 59.9911 0.0000 0.0000 0.0000
# 3 30.3784 59.9911 100.8644 0.0000 0.0000 0.0000
# 4 0.0000 0.0000 0.0000 23.7405 0.0000 0.0000
# 5 0.0000 0.0000 0.0000 0.0000 17.4911 0.0000
# 6 0.0000 0.0000 0.0000 0.0000 0.0000 23.2947
#
#
#
# Elastic Compliance Matrix: (Units=1/GPa)
#
#
# Indices 1 2 3 4 5 6 
#
# 1 0.026428 -0.006716 -0.003965 0.000000 0.000000 0.000000
# 2 -0.006716 0.014581 -0.006650 0.000000 0.000000 0.000000
# 3 -0.003965 -0.006650 0.015064 0.000000 0.000000 0.000000
# 4 0.000000 0.000000 0.000000 0.042122 0.000000 0.000000
# 5 0.000000 0.000000 0.000000 0.000000 0.057172 0.000000
# 6 0.000000 0.000000 0.000000 0.000000 0.000000 0.042928
#
#
# Mechanical properties :
#
#
# Convention : Reuss Voigt Hill
#
# Bulk Modulus (GPa) = 46.70469 58.06390 52.38430
# Shear Modulus (GPa) = 20.82517 22.10833 21.46675
#
# Velocity S-wave (km/s) = 3.61629 3.72603 3.67157
# Velocity P-wave (km/s) = 6.83855 7.41440 7.13229
#
# Compressibility (1/GPa) = 0.02141112
#
# Stress axis : x y z
#
# Youngs Moduli (GPa) = 37.83833 68.58147 66.38538
#
# Poissons Ratio (x) = 0.46060 0.26323
# Poissons Ratio (y) = 0.25413 0.44144
# Poissons Ratio (z) = 0.15003 0.45605
#
# Static dielectric constant tensor:
#      x y z
#    x 2.971000 0.000000 0.000000 
#    y 0.000000 3.131600 0.000000 
#    z 0.000000 0.000000 3.054720 
# 
# 
# High freq. dielectric constant tensor:
#      x y z
#    x 1.609560 0.000000 0.000000 
#    y 0.000000 1.602650 0.000000 
#    z 0.000000 0.000000 1.594800 
# 
# From -- ./inp_files/21852.got.cif
#   From: 2010.03.12/outbox.cif.g09.slc.cpg/sg59_11_cif.got.tgz:21852.got - 2010.04.16 16:29:54.
