data_PCOD8240245
_publ_section_title
;
Structure prediction by ZEFSAII (Michael W. Deem and Ramdas Pophale) SiO2 
 PCOD8240245
Probable space group: P M M N
;
_chemical_formula_sum "Si O2"
_cell_formula_units_Z 64
_cell_length_a 19.379936
_cell_length_b 15.097580
_cell_length_c 14.911168
_cell_angle_alpha 90.000000
_cell_angle_beta 90.000000
_cell_angle_gamma 90.000000
_cell_volume 4362.860646
_symmetry_space_group_name_H-M "P M M N"
_symmetry_group_IT_number 59
_space_group.IT_coordinate_system_code '2'
_symmetry_cell_setting 'orthorhombic'
loop_
_space_group_symop_operation_xyz
x,y,z
1/2-x,1/2-y,z
1/2+x,-y,-z
-x,1/2+y,-z
-x,-y,-z
1/2+x,1/2+y,-z
1/2-x,y,z
x,1/2-y,z
loop_
_atom_site_type_symbol
_atom_site_label
_atom_site_fract_x
_atom_site_fract_y
_atom_site_fract_z
Si Si1 0.415573 0.645679 0.941157
Si Si2 0.667808 0.152091 0.610021
Si Si3 0.670166 0.495320 0.743329
Si Si4 0.072088 0.347811 0.047213
Si Si5 0.831134 0.493631 0.952854
Si Si6 0.925727 0.355195 0.260547
Si Si7 0.577674 0.652522 0.740502
Si Si8 0.673353 0.355541 0.412702
O O1 0.399699 0.750000 0.948702
O O2 0.493173 0.625357 0.976857
O O3 0.407011 0.610843 0.838982
O O4 0.359156 0.594172 0.999503
O O5 0.750000 0.157315 0.611244
O O6 0.637257 0.250000 0.629219
O O7 0.644746 0.117644 0.511251
O O8 0.639789 0.087222 0.687265
O O9 0.750000 0.508052 0.723296
O O10 0.655307 0.479189 0.847614
O O11 0.634579 0.584078 0.706194
O O12 0.089162 0.250000 0.006307
O O13 0.126471 0.420653 0.010797
O O14 0.078806 0.340440 0.153034
O O15 0.750000 0.507040 0.973350
O O16 0.921917 0.250000 0.258545
O O17 0.874327 0.396375 0.334428
O O18 0.002771 0.383308 0.289339
O O19 0.593411 0.750000 0.699715
O O20 0.750000 0.393976 0.397496
O O21 0.674947 0.250000 0.406781
#
# Coordination Sequence:
#
# PCOD8240245 Si02
#       8
#     8   8   8   8   8   8   8   8
#     4   9  17  28  41  57  80 109 132 151 186 240
#     4   8  14  25  39  53  72 100 130 156 182 217
#     4   9  17  27  38  54  77 104 131 157 184 216
#     4   8  15  29  45  56  70 100 139 169 192 222
#     4  10  19  27  38  59  83 105 129 160 196 229
#     4   8  14  25  40  57  77  99 122 153 192 228
#     4   8  14  25  40  57  76  98 125 156 191 227
#     4   8  13  22  38  57  73  94 126 158 187 220
#
# _framework density 14.669275000000001
#
# number of rings (size 3 to 8) (size 9 to 14) (size 15 to 20)
#    0.000    3.500    0.000    2.625    0.000    1.750 
#    0.000    5.625    0.000    0.000    0.000    0.000 
#    0.000    1.000    0.000    3.250    0.000    0.375 
#
# Total GULP energy -793066.688905 kJ/mol
# GULP energy per Si atom -12391.667014 kJ/mol
# Density = 1.463589 g / cm^3
# Si number density = 14.669275 Si / 1000 Ang^3
#
#
#
# Elastic Constant Matrix: (Units=GPa)
#
#
# Indices 1 2 3 4 5 6 
#
# 1 70.8296 44.9502 39.6443 0.0000 0.0000 0.0000
# 2 44.9502 75.0142 38.6541 0.0000 0.0000 0.0000
# 3 39.6443 38.6541 58.7078 0.0000 0.0000 0.0000
# 4 0.0000 0.0000 0.0000 11.6463 0.0000 0.0000
# 5 0.0000 0.0000 0.0000 0.0000 15.3461 0.0000
# 6 0.0000 0.0000 0.0000 0.0000 0.0000 20.8857
#
#
#
# Elastic Compliance Matrix: (Units=1/GPa)
#
#
# Indices 1 2 3 4 5 6 
#
# 1 0.027107 -0.010308 -0.011518 0.000000 0.000000 0.000000
# 2 -0.010308 0.024096 -0.008904 0.000000 0.000000 0.000000
# 3 -0.011518 -0.008904 0.030674 0.000000 0.000000 0.000000
# 4 0.000000 0.000000 0.000000 0.085864 0.000000 0.000000
# 5 0.000000 0.000000 0.000000 0.000000 0.065163 0.000000
# 6 0.000000 0.000000 0.000000 0.000000 0.000000 0.047880
#
#
# Mechanical properties :
#
#
# Convention : Reuss Voigt Hill
#
# Bulk Modulus (GPa) = 48.97995 50.11654 49.54825
# Shear Modulus (GPa) = 14.32464 14.99583 14.66023
#
# Velocity S-wave (km/s) = 3.12830 3.20075 3.16473
# Velocity P-wave (km/s) = 6.81985 6.92085 6.87054
#
# Compressibility (1/GPa) = 0.02041652
#
# Stress axis : x y z
#
# Youngs Moduli (GPa) = 36.89119 41.50091 32.60098
#
# Poissons Ratio (x) = 0.42779 0.37549
# Poissons Ratio (y) = 0.38027 0.29029
# Poissons Ratio (z) = 0.42490 0.36953
#
# Static dielectric constant tensor:
#      x y z
#    x 2.953050 0.000000 0.000000 
#    y 0.000000 2.963410 0.000000 
#    z 0.000000 0.000000 2.814490 
# 
# 
# High freq. dielectric constant tensor:
#      x y z
#    x 1.551840 0.000000 0.000000 
#    y 0.000000 1.539880 0.000000 
#    z 0.000000 0.000000 1.536110 
# 
# From -- ./inp_files/24009.got.cif
#   From: 2010.03.12/outbox.cif.g09.slc.cpg/sg59_13_cif.got.tgz:24009.got - 2010.04.16 16:29:54.
