data_PCOD8240851
_publ_section_title
;
Structure prediction by ZEFSAII (Michael W. Deem and Ramdas Pophale) SiO2 
 PCOD8240851
Probable space group: P M M N
;
_chemical_formula_sum "Si O2"
_cell_formula_units_Z 56
_cell_length_a 23.153687
_cell_length_b 9.022879
_cell_length_c 15.398543
_cell_angle_alpha 90.000000
_cell_angle_beta 90.000000
_cell_angle_gamma 90.000000
_cell_volume 3216.954523
_symmetry_space_group_name_H-M "P M M N"
_symmetry_group_IT_number 59
_space_group.IT_coordinate_system_code '2'
_symmetry_cell_setting 'orthorhombic'
loop_
_space_group_symop_operation_xyz
x,y,z
1/2-x,1/2-y,z
1/2+x,-y,-z
-x,1/2+y,-z
-x,-y,-z
1/2+x,1/2+y,-z
1/2-x,y,z
x,1/2-y,z
loop_
_atom_site_type_symbol
_atom_site_label
_atom_site_fract_x
_atom_site_fract_y
_atom_site_fract_z
Si Si1 0.181386 0.083058 0.011336
Si Si2 0.816983 0.424527 0.160863
Si Si3 0.379901 0.421945 0.340818
Si Si4 0.682732 0.079892 0.507010
Si Si5 0.622888 0.075687 0.332269
Si Si6 0.683352 0.424500 0.815348
Si Si7 0.995961 0.422660 0.407656
O O1 0.250000 0.079633 0.009983
O O2 0.157361 0.250000 0.014086
O O3 0.159371 0.997402 0.096499
O O4 0.157949 0.002686 0.925183
O O5 0.750000 0.463423 0.176267
O O6 0.825448 0.250000 0.149039
O O7 0.852877 0.490964 0.242250
O O8 0.366337 0.250000 0.323585
O O9 0.350743 0.469982 0.430239
O O10 0.355462 0.518795 0.262950
O O11 0.448135 0.452110 0.348580
O O12 0.750000 0.058037 0.522444
O O13 0.664287 0.250000 0.525819
O O14 0.667042 0.034101 0.409111
O O15 0.620360 0.250000 0.319794
O O16 0.559104 0.013844 0.354656
O O17 0.750000 0.468499 0.797670
O O18 0.676472 0.250000 0.824058
O O19 0.987525 0.250000 0.427474
O O20 0.000000 0.500000 0.500000
#
# Coordination Sequence:
#
# PCOD8240851 Si02
#       7
#     8   8   8   8   8   8   8
#     4   9  17  30  49  74 105 135 159 193 245 300
#     4   9  16  28  49  76 102 129 163 201 244 296
#     4  11  22  33  48  72 101 132 166 207 255 301
#     4  10  19  31  49  72  98 131 168 204 246 297
#     4   9  17  31  51  72  97 129 168 212 247 284
#     4  10  20  34  53  76 100 130 168 205 245 297
#     4  10  20  35  53  71  94 131 176 214 251 293
#
# _framework density 17.407769999999999
#
# number of rings (size 3 to 8) (size 9 to 14) (size 15 to 20)
#    0.000    2.286    1.429    2.143    0.000    6.857 
#    0.000    1.429    0.000    2.571    0.000    0.000 
#    0.000    0.000    0.000    0.000    0.000    0.000 
#
# Total GULP energy -694410.432280 kJ/mol
# GULP energy per Si atom -12400.186291 kJ/mol
# Density = 1.736815 g / cm^3
# Si number density = 17.407770 Si / 1000 Ang^3
#
#
#
# Elastic Constant Matrix: (Units=GPa)
#
#
# Indices 1 2 3 4 5 6 
#
# 1 59.6955 25.0835 18.2635 0.0000 0.0000 0.0000
# 2 25.0835 58.9568 35.0349 0.0000 0.0000 0.0000
# 3 18.2635 35.0349 97.9573 0.0000 0.0000 0.0000
# 4 0.0000 0.0000 0.0000 26.2738 0.0000 0.0000
# 5 0.0000 0.0000 0.0000 0.0000 8.1174 0.0000
# 6 0.0000 0.0000 0.0000 0.0000 0.0000 17.2719
#
#
#
# Elastic Compliance Matrix: (Units=1/GPa)
#
#
# Indices 1 2 3 4 5 6 
#
# 1 0.020459 -0.008175 -0.000891 0.000000 0.000000 0.000000
# 2 -0.008175 0.024806 -0.007348 0.000000 0.000000 0.000000
# 3 -0.000891 -0.007348 0.013003 0.000000 0.000000 0.000000
# 4 0.000000 0.000000 0.000000 0.038061 0.000000 0.000000
# 5 0.000000 0.000000 0.000000 0.000000 0.123192 0.000000
# 6 0.000000 0.000000 0.000000 0.000000 0.000000 0.057898
#
#
# Mechanical properties :
#
#
# Convention : Reuss Voigt Hill
#
# Bulk Modulus (GPa) = 39.30711 41.48593 40.39652
# Shear Modulus (GPa) = 15.68746 19.54780 17.61763
#
# Velocity S-wave (km/s) = 3.00522 3.35466 3.18473
# Velocity P-wave (km/s) = 5.88821 6.23607 6.06463
#
# Compressibility (1/GPa) = 0.02544069
#
# Stress axis : x y z
#
# Youngs Moduli (GPa) = 48.87746 40.31248 76.90799
#
# Poissons Ratio (x) = 0.32957 0.06849
# Poissons Ratio (y) = 0.39959 0.56511
# Poissons Ratio (z) = 0.04353 0.29621
#
# Static dielectric constant tensor:
#      x y z
#    x 3.281730 0.000000 0.000000 
#    y 0.000000 3.192690 0.000000 
#    z 0.000000 0.000000 3.397840 
# 
# 
# High freq. dielectric constant tensor:
#      x y z
#    x 1.651150 0.000000 0.000000 
#    y 0.000000 1.662720 0.000000 
#    z 0.000000 0.000000 1.680300 
# 
# From -- ./inp_files/24235.got.cif
#   From: 2010.03.12/outbox.cif.g09.slc.cpg/sg59_13_cif.got.tgz:24235.got - 2010.04.16 16:29:54.
