data_PCOD8240839
_publ_section_title
;
Structure prediction by ZEFSAII (Michael W. Deem and Ramdas Pophale) SiO2 
 PCOD8240839
Probable space group: P M M N
;
_chemical_formula_sum "Si O2"
_cell_formula_units_Z 64
_cell_length_a 17.539745
_cell_length_b 9.063196
_cell_length_c 23.072570
_cell_angle_alpha 90.000000
_cell_angle_beta 90.000000
_cell_angle_gamma 90.000000
_cell_volume 3667.757548
_symmetry_space_group_name_H-M "P M M N"
_symmetry_group_IT_number 59
_space_group.IT_coordinate_system_code '2'
_symmetry_cell_setting 'orthorhombic'
loop_
_space_group_symop_operation_xyz
x,y,z
1/2-x,1/2-y,z
1/2+x,-y,-z
-x,1/2+y,-z
-x,-y,-z
1/2+x,1/2+y,-z
1/2-x,y,z
x,1/2-y,z
loop_
_atom_site_type_symbol
_atom_site_label
_atom_site_fract_x
_atom_site_fract_y
_atom_site_fract_z
Si Si1 0.550377 0.421102 0.129040
Si Si2 0.020569 0.574888 0.237671
Si Si3 0.064352 0.579990 0.465845
Si Si4 0.468350 0.422563 0.636611
Si Si5 0.839632 0.580437 0.048654
Si Si6 0.163766 0.076598 0.194080
Si Si7 0.393243 0.080331 0.072854
Si Si8 0.664725 0.424183 0.434269
O O1 0.562138 0.250000 0.144152
O O2 0.531752 0.506928 0.187781
O O3 0.626463 0.487563 0.101626
O O4 0.483051 0.443702 0.082304
O O5 0.024961 0.750000 0.230887
O O6 0.106375 0.510107 0.236035
O O7 0.982143 0.526122 0.297883
O O8 0.049918 0.750000 0.475977
O O9 0.144100 0.537353 0.497611
O O10 0.000000 0.500000 0.500000
O O11 0.048420 0.541417 0.398132
O O12 0.449910 0.250000 0.633647
O O13 0.394798 0.504391 0.610478
O O14 0.750000 0.566939 0.053201
O O15 0.867013 0.750000 0.054133
O O16 0.867323 0.507100 0.987690
O O17 0.250000 0.046155 0.214542
O O18 0.143111 0.250000 0.196257
O O19 0.152374 0.016140 0.128332
O O20 0.370108 0.250000 0.067599
O O21 0.750000 0.485484 0.422872
O O22 0.662289 0.250000 0.423856
#
# Coordination Sequence:
#
# PCOD8240839 Si02
#       8
#     8   8   8   8   8   8   8   8
#     4  10  20  34  51  70  94 126 163 201 243 290
#     4  10  20  34  51  71  96 128 169 207 237 277
#     4   8  14  27  46  68  94 121 149 182 225 276
#     4   9  18  32  50  71  95 128 166 200 235 277
#     4  10  19  31  49  72  97 124 154 193 244 298
#     4   9  17  31  51  74 100 128 158 195 241 291
#     4   8  15  29  50  73  94 120 154 191 238 297
#     4   9  17  29  48  75 102 126 155 194 238 282
#
# _framework density 17.449352999999999
#
# number of rings (size 3 to 8) (size 9 to 14) (size 15 to 20)
#    0.000    2.875    0.000    2.250    0.000    3.250 
#    0.000    3.750    0.000    6.000    0.000    0.000 
#    0.000    0.000    0.000    0.000    0.000    0.000 
#
# Total GULP energy -792966.386503 kJ/mol
# GULP energy per Si atom -12390.099789 kJ/mol
# Density = 1.740964 g / cm^3
# Si number density = 17.449353 Si / 1000 Ang^3
#
#
#
# Elastic Constant Matrix: (Units=GPa)
#
#
# Indices 1 2 3 4 5 6 
#
# 1 101.8219 39.6289 71.5941 0.0000 0.0000 0.0000
# 2 39.6289 52.9614 44.5859 0.0000 0.0000 0.0000
# 3 71.5941 44.5859 119.9809 0.0000 0.0000 0.0000
# 4 0.0000 0.0000 0.0000 20.5906 0.0000 0.0000
# 5 0.0000 0.0000 0.0000 0.0000 21.1740 0.0000
# 6 0.0000 0.0000 0.0000 0.0000 0.0000 26.3560
#
#
#
# Elastic Compliance Matrix: (Units=1/GPa)
#
#
# Indices 1 2 3 4 5 6 
#
# 1 0.018369 -0.006574 -0.008518 0.000000 0.000000 0.000000
# 2 -0.006574 0.029830 -0.007163 0.000000 0.000000 0.000000
# 3 -0.008518 -0.007163 0.016079 0.000000 0.000000 0.000000
# 4 0.000000 0.000000 0.000000 0.048566 0.000000 0.000000
# 5 0.000000 0.000000 0.000000 0.000000 0.047228 0.000000
# 6 0.000000 0.000000 0.000000 0.000000 0.000000 0.037942
#
#
# Mechanical properties :
#
#
# Convention : Reuss Voigt Hill
#
# Bulk Modulus (GPa) = 50.58254 65.15355 57.86804
# Shear Modulus (GPa) = 20.07124 21.55449 20.81287
#
# Velocity S-wave (km/s) = 3.39522 3.51844 3.45738
# Velocity P-wave (km/s) = 6.66492 7.34341 7.01237
#
# Compressibility (1/GPa) = 0.01976967
#
# Stress axis : x y z
#
# Youngs Moduli (GPa) = 54.43992 33.52288 62.19211
#
# Poissons Ratio (x) = 0.22037 0.52976
# Poissons Ratio (y) = 0.35787 0.44546
# Poissons Ratio (z) = 0.46373 0.24011
#
# Static dielectric constant tensor:
#      x y z
#    x 3.662930 0.000000 0.000000 
#    y 0.000000 3.176430 0.000000 
#    z 0.000000 0.000000 3.706710 
# 
# 
# High freq. dielectric constant tensor:
#      x y z
#    x 1.665170 0.000000 0.000000 
#    y 0.000000 1.661660 0.000000 
#    z 0.000000 0.000000 1.668690 
# 
# From -- ./inp_files/31012.got.cif
#   From: 2010.03.12/outbox.cif.g09.slc.cpg/sg59_16_cif.got.tgz:31012.got - 2010.04.16 16:29:54.
