data_PCOD8240685
_publ_section_title
;
Structure prediction by ZEFSAII (Michael W. Deem and Ramdas Pophale) SiO2 
 PCOD8240685
Probable space group: P M M N
;
_chemical_formula_sum "Si O2"
_cell_formula_units_Z 64
_cell_length_a 29.522032
_cell_length_b 9.024882
_cell_length_c 15.208614
_cell_angle_alpha 90.000000
_cell_angle_beta 90.000000
_cell_angle_gamma 90.000000
_cell_volume 4052.074452
_symmetry_space_group_name_H-M "P M M N"
_symmetry_group_IT_number 59
_space_group.IT_coordinate_system_code '2'
_symmetry_cell_setting 'orthorhombic'
loop_
_space_group_symop_operation_xyz
x,y,z
1/2-x,1/2-y,z
1/2+x,-y,-z
-x,1/2+y,-z
-x,-y,-z
1/2+x,1/2+y,-z
1/2-x,y,z
x,1/2-y,z
loop_
_atom_site_type_symbol
_atom_site_label
_atom_site_fract_x
_atom_site_fract_y
_atom_site_fract_z
Si Si1 0.443403 0.919266 0.059326
Si Si2 0.800141 0.080059 0.532878
Si Si3 0.540924 0.074658 0.318281
Si Si4 0.060032 0.074129 0.361615
Si Si5 0.895816 0.423241 0.470817
Si Si6 0.301364 0.419852 0.285467
Si Si7 0.469581 0.923875 0.873766
Si Si8 0.381809 0.579298 0.213770
O O1 0.460509 0.750000 0.063396
O O2 0.396687 0.939346 0.112061
O O3 0.480498 0.017964 0.107025
O O4 0.436947 0.965751 0.956443
O O5 0.750000 0.047559 0.491126
O O6 0.802381 0.250000 0.565156
O O7 0.841284 0.048499 0.464874
O O8 0.808465 0.976102 0.615863
O O9 0.543087 0.250000 0.315191
O O10 0.492392 0.023765 0.356690
O O11 0.581149 0.015606 0.381335
O O12 0.548403 0.009831 0.219171
O O13 0.064987 0.250000 0.362260
O O14 0.082455 0.009682 0.448572
O O15 0.085202 0.011660 0.276662
O O16 0.906286 0.250000 0.484225
O O17 0.250000 0.439506 0.254245
O O18 0.316897 0.250000 0.283146
O O19 0.331310 0.515115 0.218591
O O20 0.474259 0.750000 0.861919
O O21 0.382500 0.750000 0.243430
#
# Coordination Sequence:
#
# PCOD8240685 Si02
#       8
#     8   8   8   8   8   8   8   8
#     4   9  18  29  45  67  89 115 150 186 225 268
#     4   9  17  29  45  64  87 115 146 183 226 268
#     4   9  18  30  45  64  88 121 157 189 226 267
#     4  11  20  30  43  63  90 122 158 189 220 262
#     4  10  19  31  45  63  88 121 155 185 223 273
#     4  10  20  32  47  67  90 116 149 188 228 271
#     4   9  16  30  47  64  88 117 149 188 228 265
#     4  11  20  30  45  67  93 122 153 185 225 274
#
# _framework density 15.79438
#
# number of rings (size 3 to 8) (size 9 to 14) (size 15 to 20)
#    0.000    2.250    2.500    1.500    0.000    1.250 
#    0.000    1.250    0.000    0.000    0.000    0.875 
#    0.000    5.000    0.000    3.375    0.000    3.125 
#
# Total GULP energy -793196.846305 kJ/mol
# GULP energy per Si atom -12393.700724 kJ/mol
# Density = 1.575843 g / cm^3
# Si number density = 15.794380 Si / 1000 Ang^3
#
#
#
# Elastic Constant Matrix: (Units=GPa)
#
#
# Indices 1 2 3 4 5 6 
#
# 1 115.1143 32.2364 66.5678 0.0000 0.0000 0.0000
# 2 32.2364 46.5435 29.3723 0.0000 0.0000 0.0000
# 3 66.5678 29.3723 110.8683 0.0000 0.0000 0.0000
# 4 0.0000 0.0000 0.0000 13.3881 0.0000 0.0000
# 5 0.0000 0.0000 0.0000 0.0000 22.0120 0.0000
# 6 0.0000 0.0000 0.0000 0.0000 0.0000 19.4584
#
#
#
# Elastic Compliance Matrix: (Units=1/GPa)
#
#
# Indices 1 2 3 4 5 6 
#
# 1 0.014358 -0.005408 -0.007188 0.000000 0.000000 0.000000
# 2 -0.005408 0.027836 -0.004127 0.000000 0.000000 0.000000
# 3 -0.007188 -0.004127 0.014429 0.000000 0.000000 0.000000
# 4 0.000000 0.000000 0.000000 0.074693 0.000000 0.000000
# 5 0.000000 0.000000 0.000000 0.000000 0.045430 0.000000
# 6 0.000000 0.000000 0.000000 0.000000 0.000000 0.051392
#
#
# Mechanical properties :
#
#
# Convention : Reuss Voigt Hill
#
# Bulk Modulus (GPa) = 43.14894 58.76435 50.95664
# Shear Modulus (GPa) = 18.56590 20.59499 19.58044
#
# Velocity S-wave (km/s) = 3.43224 3.61493 3.52477
# Velocity P-wave (km/s) = 6.56395 7.39664 6.99270
#
# Compressibility (1/GPa) = 0.02317554
#
# Stress axis : x y z
#
# Youngs Moduli (GPa) = 69.64583 35.92502 69.30440
#
# Poissons Ratio (x) = 0.19430 0.49818
# Poissons Ratio (y) = 0.37667 0.28603
# Poissons Ratio (z) = 0.50063 0.14827
#
# Static dielectric constant tensor:
#      x y z
#    x 3.194860 0.000000 0.000000 
#    y 0.000000 3.008630 0.000000 
#    z 0.000000 0.000000 3.258920 
# 
# 
# High freq. dielectric constant tensor:
#      x y z
#    x 1.595080 0.000000 0.000000 
#    y 0.000000 1.604760 0.000000 
#    z 0.000000 0.000000 1.589380 
# 
# From -- ./inp_files/25121.got.cif
#   From: 2010.03.12/outbox.cif.g09.slc.cpg/sg59_13_cif.got.tgz:25121.got - 2010.04.16 16:29:54.
