data_PCOD8240005
_publ_section_title
;
Structure prediction by ZEFSAII (Michael W. Deem and Ramdas Pophale) SiO2 
 PCOD8240005
Probable space group: P M M N
;
_chemical_formula_sum "Si O2"
_cell_formula_units_Z 56
_cell_length_a 19.512299
_cell_length_b 9.004534
_cell_length_c 17.738436
_cell_angle_alpha 90.000000
_cell_angle_beta 90.000000
_cell_angle_gamma 90.000000
_cell_volume 3116.628301
_symmetry_space_group_name_H-M "P M M N"
_symmetry_group_IT_number 59
_space_group.IT_coordinate_system_code '2'
_symmetry_cell_setting 'orthorhombic'
loop_
_space_group_symop_operation_xyz
x,y,z
1/2-x,1/2-y,z
1/2+x,-y,-z
-x,1/2+y,-z
-x,-y,-z
1/2+x,1/2+y,-z
1/2-x,y,z
x,1/2-y,z
loop_
_atom_site_type_symbol
_atom_site_label
_atom_site_fract_x
_atom_site_fract_y
_atom_site_fract_z
Si Si1 0.426987 0.073276 0.677687
Si Si2 0.061363 0.576252 0.095464
Si Si3 0.926035 0.073522 0.737251
Si Si4 0.673669 0.926625 0.191546
Si Si5 0.326869 0.926270 0.391026
Si Si6 0.071329 0.573248 0.522386
Si Si7 0.907794 0.923512 0.049956
O O1 0.424049 0.250000 0.664809
O O2 0.502555 0.019279 0.701401
O O3 0.374477 0.017371 0.741271
O O4 0.404382 0.988551 0.602492
O O5 0.074633 0.750000 0.090952
O O6 0.083115 0.512711 0.177520
O O7 0.982179 0.536172 0.082628
O O8 0.106690 0.500766 0.030265
O O9 0.928311 0.250000 0.740304
O O10 0.863895 0.014994 0.685177
O O11 0.750000 0.988851 0.204427
O O12 0.672222 0.750000 0.190466
O O13 0.646376 0.984771 0.110944
O O14 0.250000 0.993437 0.395300
O O15 0.323391 0.750000 0.388332
O O16 0.370511 0.977191 0.463216
O O17 0.062466 0.750000 0.523524
O O18 0.000000 0.500000 0.500000
O O19 0.899758 0.750000 0.036803
#
# Coordination Sequence:
#
# PCOD8240005 Si02
#       7
#     8   8   8   8   8   8   8
#     4  10  18  32  53  76 100 128 169 211 249 294
#     4   9  16  27  47  72  95 122 161 207 248 286
#     4   9  15  28  50  72  95 127 164 204 244 291
#     4   9  17  30  50  74 101 136 173 206 248 308
#     4   9  18  32  51  74  99 130 166 202 244 297
#     4  11  21  34  54  79 104 132 168 208 250 299
#     4   9  16  28  46  69  97 128 165 202 242 293
#
# _framework density 17.968135
#
# number of rings (size 3 to 8) (size 9 to 14) (size 15 to 20)
#    0.000    2.571    2.857    0.429    0.000    0.571 
#    0.000    2.143    0.000    3.429    0.000    0.000 
#    0.000    0.000    0.000    0.000    0.000    0.000 
#
# Total GULP energy -694247.678333 kJ/mol
# GULP energy per Si atom -12397.279970 kJ/mol
# Density = 1.792724 g / cm^3
# Si number density = 17.968135 Si / 1000 Ang^3
#
#
#
# Elastic Constant Matrix: (Units=GPa)
#
#
# Indices 1 2 3 4 5 6 
#
# 1 137.4317 22.2084 84.7708 0.0000 0.0000 0.0000
# 2 22.2084 23.2743 30.8892 0.0000 0.0000 0.0000
# 3 84.7708 30.8892 192.8056 0.0000 0.0000 0.0000
# 4 0.0000 0.0000 0.0000 30.4433 0.0000 0.0000
# 5 0.0000 0.0000 0.0000 0.0000 29.4983 0.0000
# 6 0.0000 0.0000 0.0000 0.0000 0.0000 11.9201
#
#
#
# Elastic Compliance Matrix: (Units=1/GPa)
#
#
# Indices 1 2 3 4 5 6 
#
# 1 0.010406 -0.004899 -0.003790 0.000000 0.000000 0.000000
# 2 -0.004899 0.056875 -0.006958 0.000000 0.000000 0.000000
# 3 -0.003790 -0.006958 0.007968 0.000000 0.000000 0.000000
# 4 0.000000 0.000000 0.000000 0.032848 0.000000 0.000000
# 5 0.000000 0.000000 0.000000 0.000000 0.033900 0.000000
# 6 0.000000 0.000000 0.000000 0.000000 0.000000 0.083892
#
#
# Mechanical properties :
#
#
# Convention : Reuss Voigt Hill
#
# Bulk Modulus (GPa) = 22.75100 69.91650 46.33375
# Shear Modulus (GPa) = 18.39357 28.74857 23.57107
#
# Velocity S-wave (km/s) = 3.20297 4.00431 3.62584
# Velocity P-wave (km/s) = 5.13498 7.77015 6.58571
#
# Compressibility (1/GPa) = 0.04395410
#
# Stress axis : x y z
#
# Youngs Moduli (GPa) = 96.09900 17.58249 125.50541
#
# Poissons Ratio (x) = 0.08614 0.47571
# Poissons Ratio (y) = 0.47078 0.87326
# Poissons Ratio (z) = 0.36425 0.12234
#
# Static dielectric constant tensor:
#      x y z
#    x 3.422030 0.000000 0.000000 
#    y 0.000000 2.896850 0.000000 
#    z 0.000000 0.000000 3.695370 
# 
# 
# High freq. dielectric constant tensor:
#      x y z
#    x 1.681850 0.000000 0.000000 
#    y 0.000000 1.646620 0.000000 
#    z 0.000000 0.000000 1.715910 
# 
# From -- ./inp_files/28109.got.cif
#   From: 2010.03.12/outbox.cif.g09.slc.cpg/sg59_15_cif.got.tgz:28109.got - 2010.04.16 16:29:54.
