data_PCOD8240941
_publ_section_title
;
Structure prediction by ZEFSAII (Michael W. Deem and Ramdas Pophale) SiO2 
 PCOD8240941
Probable space group: P M M N
;
_chemical_formula_sum "Si O2"
_cell_formula_units_Z 56
_cell_length_a 8.881069
_cell_length_b 13.960853
_cell_length_c 25.983220
_cell_angle_alpha 90.000000
_cell_angle_beta 90.000000
_cell_angle_gamma 90.000000
_cell_volume 3221.589262
_symmetry_space_group_name_H-M "P M M N"
_symmetry_group_IT_number 59
_space_group.IT_coordinate_system_code '2'
_symmetry_cell_setting 'orthorhombic'
loop_
_space_group_symop_operation_xyz
x,y,z
1/2-x,1/2-y,z
1/2+x,-y,-z
-x,1/2+y,-z
-x,-y,-z
1/2+x,1/2+y,-z
1/2-x,y,z
x,1/2-y,z
loop_
_atom_site_type_symbol
_atom_site_label
_atom_site_fract_x
_atom_site_fract_y
_atom_site_fract_z
Si Si1 0.071015 0.643983 0.032869
Si Si2 0.074345 0.139602 0.474218
Si Si3 0.572968 0.359350 0.670727
Si Si4 0.923872 0.138337 0.081352
Si Si5 0.572843 0.859528 0.222000
Si Si6 0.574415 0.531817 0.421594
Si Si7 0.927450 0.026944 0.869899
O O1 0.250000 0.646786 0.032999
O O2 0.007224 0.750000 0.043757
O O3 0.009442 0.577253 0.078285
O O4 0.017973 0.610009 0.976160
O O5 0.250000 0.127524 0.461770
O O6 0.023103 0.250000 0.469310
O O7 0.038210 0.103429 0.531577
O O8 0.980572 0.075836 0.434005
O O9 0.750000 0.371219 0.677084
O O10 0.528848 0.250000 0.656718
O O11 0.495749 0.390780 0.723661
O O12 0.515430 0.430189 0.627101
O O13 0.750000 0.109952 0.088307
O O14 0.948166 0.250000 0.091124
O O15 0.023359 0.083390 0.123943
O O16 0.750000 0.873730 0.224564
O O17 0.528651 0.750000 0.209093
O O18 0.505059 0.928011 0.179254
O O19 0.750000 0.529190 0.408639
O O20 0.750000 0.037234 0.863442
#
# Coordination Sequence:
#
# PCOD8240941 Si02
#       7
#     8   8   8   8   8   8   8
#     4   8  15  28  46  69  97 128 159 192 235 288
#     4   9  18  32  49  72 105 142 177 212 249 290
#     4  10  20  34  53  76 102 132 166 204 246 293
#     4   9  18  33  50  67  92 128 167 203 239 284
#     4  10  21  36  53  74 100 129 162 200 242 291
#     4  10  19  31  50  76 105 137 173 211 251 296
#     4  11  20  30  49  74 100 128 158 198 246 294
#
# _framework density 17.382725000000001
#
# number of rings (size 3 to 8) (size 9 to 14) (size 15 to 20)
#    0.000    2.429    0.000    3.857    0.000    4.000 
#    0.000    0.714    0.000    2.571    0.000    0.000 
#    0.000    0.000    0.000    0.000    0.000    0.000 
#
# Total GULP energy -694418.356755 kJ/mol
# GULP energy per Si atom -12400.327799 kJ/mol
# Density = 1.734316 g / cm^3
# Si number density = 17.382725 Si / 1000 Ang^3
#
#
#
# Elastic Constant Matrix: (Units=GPa)
#
#
# Indices 1 2 3 4 5 6 
#
# 1 63.7073 37.3503 46.4272 0.0000 0.0000 0.0000
# 2 37.3503 94.6719 60.1995 0.0000 0.0000 0.0000
# 3 46.4272 60.1995 107.0910 0.0000 0.0000 0.0000
# 4 0.0000 0.0000 0.0000 23.4818 0.0000 0.0000
# 5 0.0000 0.0000 0.0000 0.0000 27.9250 0.0000
# 6 0.0000 0.0000 0.0000 0.0000 0.0000 26.7809
#
#
#
# Elastic Compliance Matrix: (Units=1/GPa)
#
#
# Indices 1 2 3 4 5 6 
#
# 1 0.024097 -0.004457 -0.007941 0.000000 0.000000 0.000000
# 2 -0.004457 0.017263 -0.007772 0.000000 0.000000 0.000000
# 3 -0.007941 -0.007772 0.017150 0.000000 0.000000 0.000000
# 4 0.000000 0.000000 0.000000 0.042586 0.000000 0.000000
# 5 0.000000 0.000000 0.000000 0.000000 0.035810 0.000000
# 6 0.000000 0.000000 0.000000 0.000000 0.000000 0.037340
#
#
# Mechanical properties :
#
#
# Convention : Reuss Voigt Hill
#
# Bulk Modulus (GPa) = 55.03860 61.49159 58.26509
# Shear Modulus (GPa) = 22.66097 23.73710 23.19903
#
# Velocity S-wave (km/s) = 3.61452 3.69935 3.65718
# Velocity P-wave (km/s) = 7.01080 7.32795 7.17113
#
# Compressibility (1/GPa) = 0.01816907
#
# Stress axis : x y z
#
# Youngs Moduli (GPa) = 41.49842 57.92646 58.31068
#
# Poissons Ratio (x) = 0.25819 0.46306
# Poissons Ratio (y) = 0.18497 0.45319
# Poissons Ratio (z) = 0.32955 0.45020
#
# Static dielectric constant tensor:
#      x y z
#    x 3.138940 0.000000 0.000000 
#    y 0.000000 3.253150 0.000000 
#    z 0.000000 0.000000 3.174830 
# 
# 
# High freq. dielectric constant tensor:
#      x y z
#    x 1.669380 0.000000 0.000000 
#    y 0.000000 1.667560 0.000000 
#    z 0.000000 0.000000 1.659410 
# 
# From -- ./inp_files/29020.got.cif
#   From: 2010.03.12/outbox.cif.g09.slc.cpg/sg59_15_cif.got.tgz:29020.got - 2010.04.16 16:29:54.
