data_PCOD8240754
_publ_section_title
;
Structure prediction by ZEFSAII (Michael W. Deem and Ramdas Pophale) SiO2 
 PCOD8240754
Probable space group: P M M N
;
_chemical_formula_sum "Si O2"
_cell_formula_units_Z 64
_cell_length_a 8.915922
_cell_length_b 17.708323
_cell_length_c 23.187912
_cell_angle_alpha 90.000000
_cell_angle_beta 90.000000
_cell_angle_gamma 90.000000
_cell_volume 3661.047291
_symmetry_space_group_name_H-M "P M M N"
_symmetry_group_IT_number 59
_space_group.IT_coordinate_system_code '2'
_symmetry_cell_setting 'orthorhombic'
loop_
_space_group_symop_operation_xyz
x,y,z
1/2-x,1/2-y,z
1/2+x,-y,-z
-x,1/2+y,-z
-x,-y,-z
1/2+x,1/2+y,-z
1/2-x,y,z
x,1/2-y,z
loop_
_atom_site_type_symbol
_atom_site_label
_atom_site_fract_x
_atom_site_fract_y
_atom_site_fract_z
Si Si1 0.422661 0.565660 0.467005
Si Si2 0.072059 0.968335 0.757147
Si Si3 0.080030 0.165612 0.185863
Si Si4 0.925765 0.380191 0.073987
Si Si5 0.573592 0.527081 0.636975
Si Si6 0.574957 0.537185 0.126413
Si Si7 0.927367 0.335637 0.432693
Si Si8 0.575832 0.836215 0.043785
O O1 0.500000 0.500000 0.500000
O O2 0.250000 0.551566 0.476207
O O3 0.462149 0.550167 0.399782
O O4 0.466094 0.644257 0.499355
O O5 0.250000 0.971379 0.750908
O O6 0.023766 0.883147 0.771934
O O7 0.997039 0.993610 0.698080
O O8 0.010111 0.021951 0.809275
O O9 0.250000 0.133939 0.185018
O O10 0.077354 0.250000 0.210749
O O11 0.015391 0.167656 0.121185
O O12 0.750000 0.363735 0.081141
O O13 0.963479 0.468318 0.083511
O O14 0.977909 0.354703 0.011566
O O15 0.750000 0.541310 0.643366
O O16 0.504972 0.604044 0.609927
O O17 0.750000 0.544720 0.135042
O O18 0.513116 0.613559 0.097086
O O19 0.750000 0.340111 0.421630
O O20 0.985462 0.250000 0.421311
O O21 0.750000 0.854808 0.030517
O O22 0.553857 0.750000 0.062328
#
# Coordination Sequence:
#
# PCOD8240754 Si02
#       8
#     8   8   8   8   8   8   8   8
#     4   8  15  28  46  68  93 122 155 188 223 263
#     4  10  20  34  51  68  89 121 161 199 231 270
#     4  10  20  33  48  67  93 123 154 190 232 278
#     4  10  19  31  48  69  95 124 153 187 227 279
#     4  10  19  31  48  70  96 125 158 194 230 272
#     4   8  17  33  49  67  90 119 156 194 233 274
#     4   9  17  30  49  73 100 128 157 190 229 272
#     4  10  19  31  49  71  93 117 148 190 239 287
#
# _framework density 17.481337
#
# number of rings (size 3 to 8) (size 9 to 14) (size 15 to 20)
#    0.000    2.625    0.000    3.000    0.000    4.000 
#    0.000    3.125    0.000    0.750    0.000    0.000 
#    0.000    0.000    0.000    0.000    0.000    0.875 
#
# Total GULP energy -792906.647861 kJ/mol
# GULP energy per Si atom -12389.166373 kJ/mol
# Density = 1.744155 g / cm^3
# Si number density = 17.481337 Si / 1000 Ang^3
#
#
#
# Elastic Constant Matrix: (Units=GPa)
#
#
# Indices 1 2 3 4 5 6 
#
# 1 45.7719 15.9499 25.6015 0.0000 0.0000 0.0000
# 2 15.9499 48.1977 22.9958 0.0000 0.0000 0.0000
# 3 25.6015 22.9958 94.3373 0.0000 0.0000 0.0000
# 4 0.0000 0.0000 0.0000 14.6742 0.0000 0.0000
# 5 0.0000 0.0000 0.0000 0.0000 25.5134 0.0000
# 6 0.0000 0.0000 0.0000 0.0000 0.0000 17.0750
#
#
#
# Elastic Compliance Matrix: (Units=1/GPa)
#
#
# Indices 1 2 3 4 5 6 
#
# 1 0.027314 -0.006227 -0.005895 0.000000 0.000000 0.000000
# 2 -0.006227 0.024898 -0.004379 0.000000 0.000000 0.000000
# 3 -0.005895 -0.004379 0.013268 0.000000 0.000000 0.000000
# 4 0.000000 0.000000 0.000000 0.068147 0.000000 0.000000
# 5 0.000000 0.000000 0.000000 0.000000 0.039195 0.000000
# 6 0.000000 0.000000 0.000000 0.000000 0.000000 0.058565
#
#
# Mechanical properties :
#
#
# Convention : Reuss Voigt Hill
#
# Bulk Modulus (GPa) = 30.78980 35.26679 33.02829
# Shear Modulus (GPa) = 18.16766 19.70318 18.93542
#
# Velocity S-wave (km/s) = 3.22725 3.36087 3.29474
# Velocity P-wave (km/s) = 5.61588 5.93956 5.77998
#
# Compressibility (1/GPa) = 0.03247829
#
# Stress axis : x y z
#
# Youngs Moduli (GPa) = 36.61078 40.16410 75.37195
#
# Poissons Ratio (x) = 0.25008 0.44431
# Poissons Ratio (y) = 0.22796 0.33008
# Poissons Ratio (z) = 0.21582 0.17589
#
# Static dielectric constant tensor:
#      x y z
#    x 3.155250 0.000000 0.000000 
#    y 0.000000 3.338340 0.000000 
#    z 0.000000 0.000000 3.229940 
# 
# 
# High freq. dielectric constant tensor:
#      x y z
#    x 1.673430 0.000000 0.000000 
#    y 0.000000 1.656940 0.000000 
#    z 0.000000 0.000000 1.671370 
# 
# From -- ./inp_files/31704.got.cif
#   From: 2010.03.12/outbox.cif.g09.slc.cpg/sg59_16_cif.got.tgz:31704.got - 2010.04.16 16:29:54.
