data_PCOD8240348
_publ_section_title
;
Structure prediction by ZEFSAII (Michael W. Deem and Ramdas Pophale) SiO2 
 PCOD8240348
Probable space group: P M M N
;
_chemical_formula_sum "Si O2"
_cell_formula_units_Z 56
_cell_length_a 9.214488
_cell_length_b 21.745848
_cell_length_c 17.672790
_cell_angle_alpha 90.000000
_cell_angle_beta 90.000000
_cell_angle_gamma 90.000000
_cell_volume 3541.218087
_symmetry_space_group_name_H-M "P M M N"
_symmetry_group_IT_number 59
_space_group.IT_coordinate_system_code '2'
_symmetry_cell_setting 'orthorhombic'
loop_
_space_group_symop_operation_xyz
x,y,z
1/2-x,1/2-y,z
1/2+x,-y,-z
-x,1/2+y,-z
-x,-y,-z
1/2+x,1/2+y,-z
1/2-x,y,z
x,1/2-y,z
loop_
_atom_site_type_symbol
_atom_site_label
_atom_site_fract_x
_atom_site_fract_y
_atom_site_fract_z
Si Si1 0.913867 0.467784 0.250793
Si Si2 0.415615 0.544259 0.912383
Si Si3 0.918587 0.677907 0.353589
Si Si4 0.084026 0.579000 0.069466
Si Si5 0.419572 0.590146 0.462866
Si Si6 0.083324 0.108353 0.793062
Si Si7 0.418762 0.457313 0.397455
O O1 0.750000 0.460964 0.281939
O O2 0.935793 0.428633 0.172767
O O3 0.947231 0.538845 0.232608
O O4 0.024029 0.442592 0.313472
O O5 0.250000 0.517427 0.918003
O O6 0.532503 0.490985 0.922868
O O7 0.437521 0.595243 0.979405
O O8 0.750000 0.659990 0.364827
O O9 0.944537 0.750000 0.357558
O O10 0.974569 0.653607 0.272328
O O11 0.011915 0.647553 0.419689
O O12 0.250000 0.583764 0.093956
O O13 0.997184 0.622892 0.127323
O O14 0.250000 0.601570 0.475186
O O15 0.450001 0.528627 0.415034
O O16 0.495607 0.585680 0.544255
O O17 0.250000 0.121385 0.809027
O O18 0.250000 0.441103 0.402689
#
# Coordination Sequence:
#
# PCOD8240348 Si02
#       7
#     8   8   8   8   8   8   8
#     4   9  15  25  41  59  84 115 144 177 217 260
#     4   8  15  25  35  53  81 113 142 171 208 248
#     4  10  20  34  50  65  85 116 152 188 225 266
#     4   9  15  23  37  55  78 109 145 176 204 245
#     4  10  20  32  46  64  87 114 145 183 227 268
#     4   9  17  28  41  58  83 113 145 179 218 260
#     4  10  19  29  44  65  88 114 147 182 218 269
#
# _framework density 15.813768
#
# number of rings (size 3 to 8) (size 9 to 14) (size 15 to 20)
#    0.000    2.714    1.429    2.143    0.000    4.857 
#    0.000    0.000    0.000    0.000    0.000    0.000 
#    0.000    1.143    0.000    9.143    0.000    3.286 
#
# Total GULP energy -694002.322217 kJ/mol
# GULP energy per Si atom -12392.898611 kJ/mol
# Density = 1.577778 g / cm^3
# Si number density = 15.813768 Si / 1000 Ang^3
#
#
#
# Elastic Constant Matrix: (Units=GPa)
#
#
# Indices 1 2 3 4 5 6 
#
# 1 78.8714 26.2271 66.3030 0.0000 0.0000 0.0000
# 2 26.2271 37.9758 36.8077 0.0000 0.0000 0.0000
# 3 66.3030 36.8077 150.5054 0.0000 0.0000 0.0000
# 4 0.0000 0.0000 0.0000 13.0881 0.0000 0.0000
# 5 0.0000 0.0000 0.0000 0.0000 32.1903 0.0000
# 6 0.0000 0.0000 0.0000 0.0000 0.0000 14.3918
#
#
#
# Elastic Compliance Matrix: (Units=1/GPa)
#
#
# Indices 1 2 3 4 5 6 
#
# 1 0.021644 -0.007479 -0.007706 0.000000 0.000000 0.000000
# 2 -0.007479 0.037098 -0.005778 0.000000 0.000000 0.000000
# 3 -0.007706 -0.005778 0.011452 0.000000 0.000000 0.000000
# 4 0.000000 0.000000 0.000000 0.076405 0.000000 0.000000
# 5 0.000000 0.000000 0.000000 0.000000 0.031065 0.000000
# 6 0.000000 0.000000 0.000000 0.000000 0.000000 0.069484
#
#
# Mechanical properties :
#
#
# Convention : Reuss Voigt Hill
#
# Bulk Modulus (GPa) = 35.37536 58.44758 46.91147
# Shear Modulus (GPa) = 16.75064 21.13502 18.94283
#
# Velocity S-wave (km/s) = 3.25813 3.65978 3.46478
# Velocity P-wave (km/s) = 6.04752 7.40937 6.76281
#
# Compressibility (1/GPa) = 0.02826826
#
# Stress axis : x y z
#
# Youngs Moduli (GPa) = 46.20284 26.95568 87.32111
#
# Poissons Ratio (x) = 0.20160 0.67287
# Poissons Ratio (y) = 0.34555 0.50453
# Poissons Ratio (z) = 0.35603 0.15575
#
# Static dielectric constant tensor:
#      x y z
#    x 3.058740 0.000000 0.000000 
#    y 0.000000 2.452240 0.000000 
#    z 0.000000 0.000000 3.424100 
# 
# 
# High freq. dielectric constant tensor:
#      x y z
#    x 1.616380 0.000000 0.000000 
#    y 0.000000 1.526750 0.000000 
#    z 0.000000 0.000000 1.627770 
# 
# From -- ./inp_files/26056.got.cif
#   From: 2010.03.12/outbox.cif.g09.slc.cpg/sg59_14_cif.got.tgz:26056.got - 2010.04.16 16:29:54.
