data_PCOD8240593
_publ_section_title
;
Structure prediction by ZEFSAII (Michael W. Deem and Ramdas Pophale) SiO2 
 PCOD8240593
Probable space group: P M M N
;
_chemical_formula_sum "Si O2"
_cell_formula_units_Z 48
_cell_length_a 9.093078
_cell_length_b 23.584843
_cell_length_c 12.744741
_cell_angle_alpha 90.000000
_cell_angle_beta 90.000000
_cell_angle_gamma 90.000000
_cell_volume 2733.222078
_symmetry_space_group_name_H-M "P M M N"
_symmetry_group_IT_number 59
_space_group.IT_coordinate_system_code '2'
_symmetry_cell_setting 'orthorhombic'
loop_
_space_group_symop_operation_xyz
x,y,z
1/2-x,1/2-y,z
1/2+x,-y,-z
-x,1/2+y,-z
-x,-y,-z
1/2+x,1/2+y,-z
1/2-x,y,z
x,1/2-y,z
loop_
_atom_site_type_symbol
_atom_site_label
_atom_site_fract_x
_atom_site_fract_y
_atom_site_fract_z
Si Si1 0.922991 0.059539 0.006116
Si Si2 0.076906 0.868979 0.791122
Si Si3 0.577480 0.062039 0.609054
Si Si4 0.425355 0.750000 0.118921
Si Si5 0.422114 0.431799 0.394197
Si Si6 0.424393 0.750000 0.881886
Si Si7 0.924664 0.130243 0.809224
O O1 0.750000 0.050592 0.996629
O O2 0.966090 0.089964 0.113752
O O3 0.984086 0.097031 0.910446
O O4 0.000000 0.000000 0.000000
O O5 0.250000 0.870407 0.768602
O O6 0.022694 0.805616 0.819323
O O7 0.992372 0.889170 0.688579
O O8 0.750000 0.070871 0.588733
O O9 0.490952 0.082002 0.506802
O O10 0.516348 0.100676 0.703754
O O11 0.543175 0.996698 0.637578
O O12 0.250000 0.750000 0.112393
O O13 0.481815 0.805084 0.182443
O O14 0.489096 0.750000 0.000241
O O15 0.250000 0.420159 0.399656
O O16 0.250000 0.750000 0.891494
O O17 0.750000 0.128418 0.809131
#
# Coordination Sequence:
#
# PCOD8240593 Si02
#       7
#     8   8   8   4   8   4   8
#     4  10  19  30  47  74 105 132 159 198 248 299
#     4  10  19  32  52  76 102 132 169 210 251 297
#     4   9  18  33  52  74 101 133 170 210 252 301
#     4   9  14  26  49  75 100 128 163 204 251 294
#     4  10  20  34  52  73 101 136 171 209 255 305
#     4   9  16  30  50  75 102 132 169 208 247 294
#     4   9  16  28  48  74 101 127 160 204 250 294
#
# _framework density 17.561691
#
# number of rings (size 3 to 8) (size 9 to 14) (size 15 to 20)
#    0.000    2.500    1.667    1.500    0.000    2.667 
#    0.000    2.083    0.000    3.000    0.000    1.750 
#    0.000    0.000    0.000    0.000    0.000    0.000 
#
# Total GULP energy -595184.319565 kJ/mol
# GULP energy per Si atom -12399.673324 kJ/mol
# Density = 1.752172 g / cm^3
# Si number density = 17.561691 Si / 1000 Ang^3
#
#
#
# Elastic Constant Matrix: (Units=GPa)
#
#
# Indices 1 2 3 4 5 6 
#
# 1 30.2143 26.8584 34.2756 0.0000 0.0000 0.0000
# 2 26.8584 136.4992 70.3787 0.0000 0.0000 0.0000
# 3 34.2756 70.3787 132.8173 0.0000 0.0000 0.0000
# 4 0.0000 0.0000 0.0000 29.7674 0.0000 0.0000
# 5 0.0000 0.0000 0.0000 0.0000 15.6333 0.0000
# 6 0.0000 0.0000 0.0000 0.0000 0.0000 21.4649
#
#
#
# Elastic Compliance Matrix: (Units=1/GPa)
#
#
# Indices 1 2 3 4 5 6 
#
# 1 0.048528 -0.004254 -0.010269 0.000000 0.000000 0.000000
# 2 -0.004254 0.010453 -0.004441 0.000000 0.000000 0.000000
# 3 -0.010269 -0.004441 0.012533 0.000000 0.000000 0.000000
# 4 0.000000 0.000000 0.000000 0.033594 0.000000 0.000000
# 5 0.000000 0.000000 0.000000 0.000000 0.063966 0.000000
# 6 0.000000 0.000000 0.000000 0.000000 0.000000 0.046588
#
#
# Mechanical properties :
#
#
# Convention : Reuss Voigt Hill
#
# Bulk Modulus (GPa) = 29.77528 62.50625 46.14077
# Shear Modulus (GPa) = 18.88328 24.57433 21.72880
#
# Velocity S-wave (km/s) = 3.28266 3.74480 3.52132
# Velocity P-wave (km/s) = 5.59994 7.37344 6.54702
#
# Compressibility (1/GPa) = 0.03358491
#
# Stress axis : x y z
#
# Youngs Moduli (GPa) = 20.60668 95.66735 79.79176
#
# Poissons Ratio (x) = 0.40695 0.81941
# Poissons Ratio (y) = 0.08766 0.35437
# Poissons Ratio (z) = 0.21162 0.42487
#
# Static dielectric constant tensor:
#      x y z
#    x 2.892110 0.000000 0.000000 
#    y 0.000000 3.408850 0.000000 
#    z 0.000000 0.000000 3.337190 
# 
# 
# High freq. dielectric constant tensor:
#      x y z
#    x 1.640800 0.000000 0.000000 
#    y 0.000000 1.683920 0.000000 
#    z 0.000000 0.000000 1.684610 
# 
# From -- ./inp_files/15953.got.cif
#   From: 2010.03.12/outbox.cif.g09.slc.cpg/sg59_8_cif.got.tgz:15953.got - 2010.04.16 16:29:54.
