data_PCOD8240081
_publ_section_title
;
Structure prediction by ZEFSAII (Michael W. Deem and Ramdas Pophale) SiO2 
 PCOD8240081
Probable space group: P M M N
;
_chemical_formula_sum "Si O2"
_cell_formula_units_Z 32
_cell_length_a 8.398017
_cell_length_b 14.859978
_cell_length_c 12.296800
_cell_angle_alpha 90.000000
_cell_angle_beta 90.000000
_cell_angle_gamma 90.000000
_cell_volume 1534.571137
_symmetry_space_group_name_H-M "P M M N"
_symmetry_group_IT_number 59
_space_group.IT_coordinate_system_code '2'
_symmetry_cell_setting 'orthorhombic'
loop_
_space_group_symop_operation_xyz
x,y,z
1/2-x,1/2-y,z
1/2+x,-y,-z
-x,1/2+y,-z
-x,-y,-z
1/2+x,1/2+y,-z
1/2-x,y,z
x,1/2-y,z
loop_
_atom_site_type_symbol
_atom_site_label
_atom_site_fract_x
_atom_site_fract_y
_atom_site_fract_z
Si Si1 0.436335 0.894227 0.224055
Si Si2 0.560999 0.899183 0.997826
Si Si3 0.062040 0.594225 0.774456
Si Si4 0.565819 0.750000 0.383387
Si Si5 0.564268 0.250000 0.378451
O O1 0.250000 0.877006 0.232748
O O2 0.522849 0.840029 0.318901
O O3 0.473284 0.999356 0.238773
O O4 0.498182 0.853804 0.108756
O O5 0.750000 0.892830 0.993489
O O6 0.486149 0.856809 0.888424
O O7 0.500000 0.000000 0.000000
O O8 0.250000 0.576370 0.771169
O O9 0.998569 0.659318 0.678761
O O10 0.750000 0.750000 0.412051
O O11 0.471168 0.750000 0.495408
O O12 0.750000 0.250000 0.356279
#
# Coordination Sequence:
#
# PCOD8240081 Si02
#       5
#     8   8   8   4   4
#     4  11  22  39  62  88 120 156 194 239 295 352
#     4  10  18  32  56  88 122 154 193 238 290 349
#     4  10  20  38  62  89 121 156 196 241 293 348
#     4  12  26  43  62  85 114 151 199 249 293 346
#     4  10  24  43  62  85 116 155 199 245 289 342
#
# _framework density 20.852730999999999
#
# number of rings (size 3 to 8) (size 9 to 14) (size 15 to 20)
#    0.000    1.500    0.000    9.375    0.000    4.000 
#    0.000    3.750    0.000    0.000    0.000    0.000 
#    0.000    0.000    0.000    0.000    0.000    0.000 
#
# Total GULP energy -396746.452615 kJ/mol
# GULP energy per Si atom -12398.326644 kJ/mol
# Density = 2.080527 g / cm^3
# Si number density = 20.852731 Si / 1000 Ang^3
#
#
#
# Elastic Constant Matrix: (Units=GPa)
#
#
# Indices 1 2 3 4 5 6 
#
# 1 45.1916 -7.5472 -28.9155 0.0000 0.0000 0.0000
# 2 -7.5472 81.0152 42.7426 0.0000 0.0000 0.0000
# 3 -28.9155 42.7426 140.8129 0.0000 0.0000 0.0000
# 4 0.0000 0.0000 0.0000 38.3753 0.0000 0.0000
# 5 0.0000 0.0000 0.0000 0.0000 35.6989 0.0000
# 6 0.0000 0.0000 0.0000 0.0000 0.0000 15.6590
#
#
#
# Elastic Compliance Matrix: (Units=1/GPa)
#
#
# Indices 1 2 3 4 5 6 
#
# 1 0.025490 -0.000461 0.005374 0.000000 0.000000 0.000000
# 2 -0.000461 0.014705 -0.004558 0.000000 0.000000 0.000000
# 3 0.005374 -0.004558 0.009589 0.000000 0.000000 0.000000
# 4 0.000000 0.000000 0.000000 0.026058 0.000000 0.000000
# 5 0.000000 0.000000 0.000000 0.000000 0.028012 0.000000
# 6 0.000000 0.000000 0.000000 0.000000 0.000000 0.063861
#
#
# Mechanical properties :
#
#
# Convention : Reuss Voigt Hill
#
# Bulk Modulus (GPa) = 19.80437 31.06437 25.43437
# Shear Modulus (GPa) = 27.19807 35.32928 31.26367
#
# Velocity S-wave (km/s) = 3.61542 4.12057 3.87623
# Velocity P-wave (km/s) = 5.19097 6.12928 5.67954
#
# Compressibility (1/GPa) = 0.05049390
#
# Stress axis : x y z
#
# Youngs Moduli (GPa) = 39.23162 68.00251 104.28827
#
# Poissons Ratio (x) = 0.03133 -0.56045
# Poissons Ratio (y) = 0.01807 0.47538
# Poissons Ratio (z) = -0.21083 0.30998
#
# Static dielectric constant tensor:
#      x y z
#    x 3.771440 0.000000 0.000000 
#    y 0.000000 3.705740 0.000000 
#    z 0.000000 0.000000 4.359810 
# 
# 
# High freq. dielectric constant tensor:
#      x y z
#    x 1.825750 0.000000 0.000000 
#    y 0.000000 1.807820 0.000000 
#    z 0.000000 0.000000 1.825110 
# 
# From -- ./inp_files/13617.got.cif
#   From: 2010.03.12/outbox.cif.g09.slc.cpg/sg59_7_cif.got.tgz:13617.got - 2010.04.16 16:29:54.
