data_PCOD8240356
_publ_section_title
;
Structure prediction by ZEFSAII (Michael W. Deem and Ramdas Pophale) SiO2 
 PCOD8240356
Probable space group: P M M N
;
_chemical_formula_sum "Si O2"
_cell_formula_units_Z 56
_cell_length_a 13.537082
_cell_length_b 9.494897
_cell_length_c 28.834624
_cell_angle_alpha 90.000000
_cell_angle_beta 90.000000
_cell_angle_gamma 90.000000
_cell_volume 3706.206472
_symmetry_space_group_name_H-M "P M M N"
_symmetry_group_IT_number 59
_space_group.IT_coordinate_system_code '2'
_symmetry_cell_setting 'orthorhombic'
loop_
_space_group_symop_operation_xyz
x,y,z
1/2-x,1/2-y,z
1/2+x,-y,-z
-x,1/2+y,-z
-x,-y,-z
1/2+x,1/2+y,-z
1/2-x,y,z
x,1/2-y,z
loop_
_atom_site_type_symbol
_atom_site_label
_atom_site_fract_x
_atom_site_fract_y
_atom_site_fract_z
Si Si1 0.051966 0.914336 0.433533
Si Si2 0.364368 0.911741 0.975725
Si Si3 0.364659 0.913516 0.336784
Si Si4 0.135083 0.085627 0.148294
Si Si5 0.139895 0.088719 0.513791
Si Si6 0.027827 0.914322 0.070345
Si Si7 0.867329 0.905503 0.747930
O O1 0.076844 0.750000 0.438244
O O2 0.073949 0.965956 0.381449
O O3 0.937796 0.948976 0.445572
O O4 0.123687 0.994268 0.468676
O O5 0.250000 0.949520 0.970720
O O6 0.386192 0.750000 0.962067
O O7 0.423265 0.014052 0.941406
O O8 0.395665 0.939514 0.028646
O O9 0.250000 0.950188 0.345218
O O10 0.380439 0.750000 0.327705
O O11 0.408542 0.990405 0.291448
O O12 0.250000 0.049441 0.141428
O O13 0.116082 0.250000 0.137307
O O14 0.099697 0.048418 0.200545
O O15 0.071111 0.986963 0.115633
O O16 0.250000 0.061405 0.533302
O O17 0.125800 0.250000 0.498213
O O18 0.010257 0.750000 0.080159
O O19 0.750000 0.904011 0.747002
O O20 0.908443 0.750000 0.736874
#
# Coordination Sequence:
#
# PCOD8240356 Si02
#       7
#     8   8   8   8   8   8   8
#     4   9  17  28  41  58  81 108 136 166 203 245
#     4   9  18  32  46  61  86 118 148 176 207 247
#     4   9  16  25  38  57  80 105 132 163 201 244
#     4   9  17  29  44  62  86 115 143 171 207 252
#     4   9  17  28  41  58  80 106 137 170 200 235
#     4  10  19  29  44  67  90 112 142 178 213 249
#     4   8  15  27  41  58  81 108 136 166 202 245
#
# _framework density 15.109788999999999
#
# number of rings (size 3 to 8) (size 9 to 14) (size 15 to 20)
#    0.000    3.000    0.000    2.143    0.000    3.714 
#    0.000    2.857    0.000    0.000    0.000    1.000 
#    0.000    3.429    0.000    0.000    0.000    0.000 
#
# Total GULP energy -694269.944643 kJ/mol
# GULP energy per Si atom -12397.677583 kJ/mol
# Density = 1.507540 g / cm^3
# Si number density = 15.109789 Si / 1000 Ang^3
#
#
#
# Elastic Constant Matrix: (Units=GPa)
#
#
# Indices 1 2 3 4 5 6 
#
# 1 80.2789 45.2665 52.4613 0.0000 0.0000 0.0000
# 2 45.2665 74.5801 67.9510 0.0000 0.0000 0.0000
# 3 52.4613 67.9510 126.9591 0.0000 0.0000 0.0000
# 4 0.0000 0.0000 0.0000 29.6239 0.0000 0.0000
# 5 0.0000 0.0000 0.0000 0.0000 21.7512 0.0000
# 6 0.0000 0.0000 0.0000 0.0000 0.0000 19.8368
#
#
#
# Elastic Compliance Matrix: (Units=1/GPa)
#
#
# Indices 1 2 3 4 5 6 
#
# 1 0.019658 -0.008843 -0.003390 0.000000 0.000000 0.000000
# 2 -0.008843 0.030148 -0.012482 0.000000 0.000000 0.000000
# 3 -0.003390 -0.012482 0.015958 0.000000 0.000000 0.000000
# 4 0.000000 0.000000 0.000000 0.033757 0.000000 0.000000
# 5 0.000000 0.000000 0.000000 0.000000 0.045974 0.000000
# 6 0.000000 0.000000 0.000000 0.000000 0.000000 0.050411
#
#
# Mechanical properties :
#
#
# Convention : Reuss Voigt Hill
#
# Bulk Modulus (GPa) = 61.22004 68.13064 64.67534
# Shear Modulus (GPa) = 19.93775 21.98499 20.96137
#
# Velocity S-wave (km/s) = 3.63647 3.81861 3.72865
# Velocity P-wave (km/s) = 7.63129 8.03932 7.83796
#
# Compressibility (1/GPa) = 0.01633452
#
# Stress axis : x y z
#
# Youngs Moduli (GPa) = 50.86951 33.16990 62.66455
#
# Poissons Ratio (x) = 0.29331 0.21245
# Poissons Ratio (y) = 0.44982 0.78217
# Poissons Ratio (z) = 0.17246 0.41402
#
# Static dielectric constant tensor:
#      x y z
#    x 2.757510 0.000000 0.000000 
#    y 0.000000 3.006470 0.000000 
#    z 0.000000 0.000000 2.957390 
# 
# 
# High freq. dielectric constant tensor:
#      x y z
#    x 1.550690 0.000000 0.000000 
#    y 0.000000 1.584110 0.000000 
#    z 0.000000 0.000000 1.571780 
# 
# From -- ./inp_files/33182.got.cif
#   From: 2010.03.12/outbox.cif.g09.slc.cpg/sg59_17_cif.got.tgz:33182.got - 2010.04.16 16:29:54.
