data_PCOD8240805
_publ_section_title
;
Structure prediction by ZEFSAII (Michael W. Deem and Ramdas Pophale) SiO2 
 PCOD8240805
Probable space group: P M M N
;
_chemical_formula_sum "Si O2"
_cell_formula_units_Z 56
_cell_length_a 9.441780
_cell_length_b 26.596440
_cell_length_c 12.740122
_cell_angle_alpha 90.000000
_cell_angle_beta 90.000000
_cell_angle_gamma 90.000000
_cell_volume 3199.270584
_symmetry_space_group_name_H-M "P M M N"
_symmetry_group_IT_number 59
_space_group.IT_coordinate_system_code '2'
_symmetry_cell_setting 'orthorhombic'
loop_
_space_group_symop_operation_xyz
x,y,z
1/2-x,1/2-y,z
1/2+x,-y,-z
-x,1/2+y,-z
-x,-y,-z
1/2+x,1/2+y,-z
1/2-x,y,z
x,1/2-y,z
loop_
_atom_site_type_symbol
_atom_site_label
_atom_site_fract_x
_atom_site_fract_y
_atom_site_fract_z
Si Si1 0.414433 0.692020 0.734038
Si Si2 0.592053 0.986220 0.402214
Si Si3 0.915165 0.691560 0.529819
Si Si4 0.419432 0.400911 0.882663
Si Si5 0.407810 0.372273 0.657891
Si Si6 0.417138 0.615388 0.916706
Si Si7 0.917966 0.489596 0.177497
O O1 0.250000 0.684603 0.706953
O O2 0.448802 0.750000 0.762089
O O3 0.502867 0.673373 0.633680
O O4 0.458466 0.657894 0.832776
O O5 0.750000 0.007205 0.420766
O O6 0.594955 0.926796 0.392203
O O7 0.524140 0.010362 0.296967
O O8 0.500000 0.000000 0.500000
O O9 0.750000 0.677810 0.544953
O O10 0.939869 0.750000 0.512037
O O11 0.982935 0.664384 0.426860
O O12 0.250000 0.396262 0.893614
O O13 0.475305 0.374558 0.774759
O O14 0.467253 0.459788 0.882753
O O15 0.497991 0.372358 0.977031
O O16 0.250000 0.351200 0.672933
O O17 0.250000 0.615187 0.939314
O O18 0.471893 0.560744 0.878556
O O19 0.750000 0.490952 0.185463
#
# Coordination Sequence:
#
# PCOD8240805 Si02
#       7
#     8   8   8   8   8   8   8
#     4   9  19  34  49  68  96 126 154 191 240 283
#     4   9  17  29  44  64  93 124 152 184 227 277
#     4   9  17  31  52  73  92 119 157 196 232 279
#     4   9  17  32  50  68  94 126 156 190 232 278
#     4   8  16  31  48  66  94 125 148 184 240 282
#     4  10  19  31  49  69  92 124 161 196 232 275
#     4   8  16  30  46  65  92 126 157 186 228 279
#
# _framework density 17.503990000000002
#
# number of rings (size 3 to 8) (size 9 to 14) (size 15 to 20)
#    0.000    3.143    0.000    2.143    2.000    0.571 
#    0.000    5.000    0.000    0.857    0.000    0.000 
#    0.000    0.000    0.000    0.000    0.000    0.000 
#
# Total GULP energy -694028.567890 kJ/mol
# GULP energy per Si atom -12393.367284 kJ/mol
# Density = 1.746415 g / cm^3
# Si number density = 17.503990 Si / 1000 Ang^3
#
#
#
# Elastic Constant Matrix: (Units=GPa)
#
#
# Indices 1 2 3 4 5 6 
#
# 1 39.7416 25.9677 51.8906 0.0000 0.0000 0.0000
# 2 25.9677 62.7253 69.8125 0.0000 0.0000 0.0000
# 3 51.8906 69.8125 169.3217 0.0000 0.0000 0.0000
# 4 0.0000 0.0000 0.0000 31.3215 0.0000 0.0000
# 5 0.0000 0.0000 0.0000 0.0000 27.9922 0.0000
# 6 0.0000 0.0000 0.0000 0.0000 0.0000 16.2030
#
#
#
# Elastic Compliance Matrix: (Units=1/GPa)
#
#
# Indices 1 2 3 4 5 6 
#
# 1 0.043061 -0.005802 -0.010804 0.000000 0.000000 0.000000
# 2 -0.005802 0.030244 -0.010692 0.000000 0.000000 0.000000
# 3 -0.010804 -0.010692 0.013625 0.000000 0.000000 0.000000
# 4 0.000000 0.000000 0.000000 0.031927 0.000000 0.000000
# 5 0.000000 0.000000 0.000000 0.000000 0.035724 0.000000
# 6 0.000000 0.000000 0.000000 0.000000 0.000000 0.061717
#
#
# Mechanical properties :
#
#
# Convention : Reuss Voigt Hill
#
# Bulk Modulus (GPa) = 30.92662 63.01448 46.97055
# Shear Modulus (GPa) = 17.75108 23.37786 20.56447
#
# Velocity S-wave (km/s) = 3.18797 3.65851 3.43132
# Velocity P-wave (km/s) = 5.59085 7.34333 6.52618
#
# Compressibility (1/GPa) = 0.03233460
#
# Stress axis : x y z
#
# Youngs Moduli (GPa) = 23.22300 33.06396 73.39194
#
# Poissons Ratio (x) = 0.19182 0.79296
# Poissons Ratio (y) = 0.13473 0.78471
# Poissons Ratio (z) = 0.25091 0.35352
#
# Static dielectric constant tensor:
#      x y z
#    x 2.997870 0.000000 0.000000 
#    y 0.000000 2.562660 0.000000 
#    z 0.000000 0.000000 3.507670 
# 
# 
# High freq. dielectric constant tensor:
#      x y z
#    x 1.640400 0.000000 0.000000 
#    y 0.000000 1.665390 0.000000 
#    z 0.000000 0.000000 1.688210 
# 
# From -- ./inp_files/16020.got.cif
#   From: 2010.03.12/outbox.cif.g09.slc.cpg/sg59_9_cif.got.tgz:16020.got - 2010.04.16 16:29:54.
