data_PCOD8240843
_publ_section_title
;
Structure prediction by ZEFSAII (Michael W. Deem and Ramdas Pophale) SiO2 
 PCOD8240843
Probable space group: P M M N
;
_chemical_formula_sum "Si O2"
_cell_formula_units_Z 64
_cell_length_a 17.619246
_cell_length_b 9.162009
_cell_length_c 22.986530
_cell_angle_alpha 90.000000
_cell_angle_beta 90.000000
_cell_angle_gamma 90.000000
_cell_volume 3710.662449
_symmetry_space_group_name_H-M "P M M N"
_symmetry_group_IT_number 59
_space_group.IT_coordinate_system_code '2'
_symmetry_cell_setting 'orthorhombic'
loop_
_space_group_symop_operation_xyz
x,y,z
1/2-x,1/2-y,z
1/2+x,-y,-z
-x,1/2+y,-z
-x,-y,-z
1/2+x,1/2+y,-z
1/2-x,y,z
x,1/2-y,z
loop_
_atom_site_type_symbol
_atom_site_label
_atom_site_fract_x
_atom_site_fract_y
_atom_site_fract_z
Si Si1 0.607555 0.919834 0.930504
Si Si2 0.451060 0.583693 0.871889
Si Si3 0.836221 0.084567 0.823750
Si Si4 0.468803 0.921802 0.361612
Si Si5 0.538783 0.578201 0.757171
Si Si6 0.164310 0.078110 0.944551
Si Si7 0.437506 0.084239 0.533657
Si Si8 0.163532 0.421559 0.433516
O O1 0.628765 0.750000 0.921352
O O2 0.519782 0.948658 0.916163
O O3 0.659266 0.015099 0.887798
O O4 0.624215 0.972387 0.995793
O O5 0.425176 0.750000 0.876547
O O6 0.475667 0.545443 0.806201
O O7 0.379750 0.485988 0.889337
O O8 0.750000 0.083936 0.802523
O O9 0.868213 0.250000 0.825485
O O10 0.881428 0.988391 0.777254
O O11 0.453631 0.750000 0.352120
O O12 0.547610 0.949891 0.398089
O O13 0.487085 0.000713 0.301492
O O14 0.393758 0.989760 0.391969
O O15 0.549685 0.750000 0.747455
O O16 0.250000 0.018576 0.943835
O O17 0.162593 0.250000 0.938684
O O18 0.457820 0.250000 0.522407
O O19 0.356520 0.049041 0.502660
O O20 0.500000 0.000000 0.500000
O O21 0.250000 0.474760 0.423375
O O22 0.155803 0.250000 0.418896
#
# Coordination Sequence:
#
# PCOD8240843 Si02
#       8
#     8   8   8   8   8   8   8   8
#     4   9  18  33  51  71  97 128 160 192 234 293
#     4   9  19  34  51  71  93 123 163 204 244 284
#     4  10  20  32  47  70  98 126 158 197 240 285
#     4  10  19  31  49  72  97 126 161 201 239 275
#     4  10  21  36  52  69  91 125 168 204 239 287
#     4  10  20  32  49  74 100 126 156 193 242 297
#     4   8  15  28  46  69  95 124 157 189 224 266
#     4   9  17  30  49  73 102 133 160 189 230 280
#
# _framework density 17.247595
#
# number of rings (size 3 to 8) (size 9 to 14) (size 15 to 20)
#    0.000    2.625    0.000    2.625    0.000    6.000 
#    0.000    0.000    0.000    0.750    0.000    1.750 
#    0.000    0.000    0.000    0.000    0.000    0.000 
#
# Total GULP energy -793136.640853 kJ/mol
# GULP energy per Si atom -12392.760013 kJ/mol
# Density = 1.720834 g / cm^3
# Si number density = 17.247595 Si / 1000 Ang^3
#
#
#
# Elastic Constant Matrix: (Units=GPa)
#
#
# Indices 1 2 3 4 5 6 
#
# 1 70.7297 33.0419 53.9195 0.0000 0.0000 0.0000
# 2 33.0419 69.4381 50.1106 0.0000 0.0000 0.0000
# 3 53.9195 50.1106 118.0879 0.0000 0.0000 0.0000
# 4 0.0000 0.0000 0.0000 30.8643 0.0000 0.0000
# 5 0.0000 0.0000 0.0000 0.0000 16.2213 0.0000
# 6 0.0000 0.0000 0.0000 0.0000 0.0000 25.1392
#
#
#
# Elastic Compliance Matrix: (Units=1/GPa)
#
#
# Indices 1 2 3 4 5 6 
#
# 1 0.022745 -0.004797 -0.008349 0.000000 0.000000 0.000000
# 2 -0.004797 0.021770 -0.007048 0.000000 0.000000 0.000000
# 3 -0.008349 -0.007048 0.015271 0.000000 0.000000 0.000000
# 4 0.000000 0.000000 0.000000 0.032400 0.000000 0.000000
# 5 0.000000 0.000000 0.000000 0.000000 0.061647 0.000000
# 6 0.000000 0.000000 0.000000 0.000000 0.000000 0.039779
#
#
# Mechanical properties :
#
#
# Convention : Reuss Voigt Hill
#
# Bulk Modulus (GPa) = 51.55453 59.15550 55.35502
# Shear Modulus (GPa) = 20.79290 22.52387 21.65839
#
# Velocity S-wave (km/s) = 3.47588 3.61766 3.54748
# Velocity P-wave (km/s) = 6.78710 7.19877 6.99596
#
# Compressibility (1/GPa) = 0.01939694
#
# Stress axis : x y z
#
# Youngs Moduli (GPa) = 43.96658 45.93444 65.48220
#
# Poissons Ratio (x) = 0.22037 0.54674
# Poissons Ratio (y) = 0.21093 0.46149
# Poissons Ratio (z) = 0.36710 0.32373
#
# Static dielectric constant tensor:
#      x y z
#    x 2.213680 0.000000 0.000000 
#    y 0.000000 3.260470 0.000000 
#    z 0.000000 0.000000 3.730470 
# 
# 
# High freq. dielectric constant tensor:
#      x y z
#    x 1.645090 0.000000 0.000000 
#    y 0.000000 1.672890 0.000000 
#    z 0.000000 0.000000 1.660310 
# 
# From -- ./inp_files/30662.got.cif
#   From: 2010.03.12/outbox.cif.g09.slc.cpg/sg59_16_cif.got.tgz:30662.got - 2010.04.16 16:29:54.
