data_PCOD8240261
_publ_section_title
;
Structure prediction by ZEFSAII (Michael W. Deem and Ramdas Pophale) SiO2 
 PCOD8240261
Probable space group: P M M N
;
_chemical_formula_sum "Si O2"
_cell_formula_units_Z 64
_cell_length_a 17.955014
_cell_length_b 9.063899
_cell_length_c 21.866318
_cell_angle_alpha 90.000000
_cell_angle_beta 90.000000
_cell_angle_gamma 90.000000
_cell_volume 3558.577802
_symmetry_space_group_name_H-M "P M M N"
_symmetry_group_IT_number 59
_space_group.IT_coordinate_system_code '2'
_symmetry_cell_setting 'orthorhombic'
loop_
_space_group_symop_operation_xyz
x,y,z
1/2-x,1/2-y,z
1/2+x,-y,-z
-x,1/2+y,-z
-x,-y,-z
1/2+x,1/2+y,-z
1/2-x,y,z
x,1/2-y,z
loop_
_atom_site_type_symbol
_atom_site_label
_atom_site_fract_x
_atom_site_fract_y
_atom_site_fract_z
Si Si1 0.832832 0.418966 0.630083
Si Si2 0.952523 0.079244 0.323890
Si Si3 0.394857 0.080194 0.257605
Si Si4 0.161691 0.085428 0.890212
Si Si5 0.836763 0.077530 0.858928
Si Si6 0.838505 0.582257 0.978634
Si Si7 0.662981 0.923606 0.242024
Si Si8 0.019942 0.576496 0.437169
O O1 0.750000 0.444049 0.602562
O O2 0.844514 0.250000 0.650645
O O3 0.840682 0.517415 0.690340
O O4 0.893866 0.461187 0.578954
O O5 0.941482 0.250000 0.341040
O O6 0.020045 0.056767 0.276986
O O7 0.878405 0.016209 0.293537
O O8 0.966225 0.988416 0.385510
O O9 0.374316 0.250000 0.247901
O O10 0.383839 0.995559 0.194605
O O11 0.250000 0.092024 0.888615
O O12 0.129495 0.250000 0.891655
O O13 0.136662 0.013710 0.825382
O O14 0.135521 0.012442 0.955039
O O15 0.750000 0.037872 0.850391
O O16 0.850827 0.250000 0.857517
O O17 0.869057 0.016812 0.923250
O O18 0.750000 0.581262 0.976607
O O19 0.867580 0.750000 0.971064
O O20 0.750000 0.951235 0.252299
O O21 0.644239 0.750000 0.247341
O O22 0.006108 0.750000 0.442697
O O23 0.000000 0.500000 0.500000
#
# Coordination Sequence:
#
# PCOD8240261 Si02
#       8
#     8   8   8   8   8   8   8   8
#     4   9  18  33  53  77 103 130 163 204 248 290
#     4  10  21  36  53  75 102 131 164 201 242 290
#     4  10  20  32  47  68  95 129 167 204 242 288
#     4   7  11  22  42  67  92 119 154 197 244 294
#     4  10  19  28  40  63  95 127 160 202 250 295
#     4   8  13  23  40  61  87 121 159 197 240 292
#     4   9  17  31  53  79 103 127 160 203 250 300
#     4  10  20  36  58  80 105 138 171 203 242 292
#
# _framework density 17.984714
#
# number of rings (size 3 to 8) (size 9 to 14) (size 15 to 20)
#    0.000    2.875    0.000    3.375    0.000    4.750 
#    0.000    1.250    0.000    5.250    0.000    0.000 
#    0.000    0.000    0.000    0.000    0.000    0.000 
#
# Total GULP energy -793100.445363 kJ/mol
# GULP energy per Si atom -12392.194459 kJ/mol
# Density = 1.794378 g / cm^3
# Si number density = 17.984714 Si / 1000 Ang^3
#
#
#
# Elastic Constant Matrix: (Units=GPa)
#
#
# Indices 1 2 3 4 5 6 
#
# 1 56.2550 35.7564 54.1862 0.0000 0.0000 0.0000
# 2 35.7564 87.3480 68.3370 0.0000 0.0000 0.0000
# 3 54.1862 68.3370 161.3411 0.0000 0.0000 0.0000
# 4 0.0000 0.0000 0.0000 28.4104 0.0000 0.0000
# 5 0.0000 0.0000 0.0000 0.0000 20.5649 0.0000
# 6 0.0000 0.0000 0.0000 0.0000 0.0000 21.4951
#
#
#
# Elastic Compliance Matrix: (Units=1/GPa)
#
#
# Indices 1 2 3 4 5 6 
#
# 1 0.028370 -0.006220 -0.006893 0.000000 0.000000 0.000000
# 2 -0.006220 0.018486 -0.005741 0.000000 0.000000 0.000000
# 3 -0.006893 -0.005741 0.010945 0.000000 0.000000 0.000000
# 4 0.000000 0.000000 0.000000 0.035198 0.000000 0.000000
# 5 0.000000 0.000000 0.000000 0.000000 0.048627 0.000000
# 6 0.000000 0.000000 0.000000 0.000000 0.000000 0.046522
#
#
# Mechanical properties :
#
#
# Convention : Reuss Voigt Hill
#
# Bulk Modulus (GPa) = 49.77185 69.05594 59.41389
# Shear Modulus (GPa) = 21.50041 23.87171 22.68606
#
# Velocity S-wave (km/s) = 3.46133 3.64721 3.55548
# Velocity P-wave (km/s) = 6.61128 7.49777 7.06844
#
# Compressibility (1/GPa) = 0.02009168
#
# Stress axis : x y z
#
# Youngs Moduli (GPa) = 35.24894 54.09455 91.36837
#
# Poissons Ratio (x) = 0.33649 0.62983
# Poissons Ratio (y) = 0.21926 0.52453
# Poissons Ratio (z) = 0.24298 0.31055
#
# Static dielectric constant tensor:
#      x y z
#    x 3.044740 0.000000 0.000000 
#    y 0.000000 3.296880 0.000000 
#    z 0.000000 0.000000 3.554860 
# 
# 
# High freq. dielectric constant tensor:
#      x y z
#    x 1.663490 0.000000 0.000000 
#    y 0.000000 1.686770 0.000000 
#    z 0.000000 0.000000 1.703710 
# 
# From -- ./inp_files/30847.got.cif
#   From: 2010.03.12/outbox.cif.g09.slc.cpg/sg59_16_cif.got.tgz:30847.got - 2010.04.16 16:29:54.
