data_PCOD8240905
_publ_section_title
;
Structure prediction by ZEFSAII (Michael W. Deem and Ramdas Pophale) SiO2 
 PCOD8240905
Probable space group: P M M N
;
_chemical_formula_sum "Si O2"
_cell_formula_units_Z 56
_cell_length_a 24.235521
_cell_length_b 8.942928
_cell_length_c 14.709666
_cell_angle_alpha 90.000000
_cell_angle_beta 90.000000
_cell_angle_gamma 90.000000
_cell_volume 3188.121810
_symmetry_space_group_name_H-M "P M M N"
_symmetry_group_IT_number 59
_space_group.IT_coordinate_system_code '2'
_symmetry_cell_setting 'orthorhombic'
loop_
_space_group_symop_operation_xyz
x,y,z
1/2-x,1/2-y,z
1/2+x,-y,-z
-x,1/2+y,-z
-x,-y,-z
1/2+x,1/2+y,-z
1/2-x,y,z
x,1/2-y,z
loop_
_atom_site_type_symbol
_atom_site_label
_atom_site_fract_x
_atom_site_fract_y
_atom_site_fract_z
Si Si1 0.421344 0.421351 0.441952
Si Si2 0.750000 0.072740 0.996764
Si Si3 0.431434 0.426480 0.143057
Si Si4 0.638027 0.426724 0.704713
Si Si5 0.971744 0.921400 0.374014
Si Si6 0.456663 0.423278 0.831658
Si Si7 0.750000 0.427595 0.790749
Si Si8 0.862021 0.575135 0.032643
O O1 0.410077 0.250000 0.417876
O O2 0.371819 0.518993 0.398752
O O3 0.478675 0.467594 0.395365
O O4 0.423773 0.447456 0.550727
O O5 0.750000 0.250000 0.001384
O O6 0.750000 0.011957 0.893345
O O7 0.695200 0.012397 0.045643
O O8 0.430477 0.250000 0.156878
O O9 0.410747 0.507506 0.233777
O O10 0.493851 0.479859 0.125735
O O11 0.393003 0.475970 0.059227
O O12 0.635799 0.250000 0.710295
O O13 0.696501 0.490164 0.738891
O O14 0.993367 0.750000 0.379918
O O15 0.947261 0.957086 0.274984
O O16 0.470801 0.250000 0.849526
O O17 0.400348 0.468033 0.882106
O O18 0.750000 0.250000 0.790568
O O19 0.848811 0.750000 0.030021
#
# Coordination Sequence:
#
# PCOD8240905 Si02
#       8
#     8   4   8   8   8   8   4   8
#     4  10  19  31  49  77 106 131 167 212 258 305
#     4  11  21  37  57  76  99 136 182 221 259 305
#     4  11  21  32  49  78 110 138 169 214 262 307
#     4  11  20  34  53  74 103 139 176 211 259 318
#     4   9  18  32  51  74 103 138 171 205 251 310
#     4  10  20  35  54  76 105 144 178 208 256 317
#     4   9  20  35  53  74  97 132 178 217 253 311
#     4  10  22  37  53  76 107 139 176 219 263 307
#
# _framework density 17.565200999999998
#
# number of rings (size 3 to 8) (size 9 to 14) (size 15 to 20)
#    0.000    1.857    2.857    1.929    0.000    1.714 
#    0.000    1.429    0.000    0.857    0.000    4.000 
#    0.000    0.000    0.000    0.000    0.000    0.000 
#
# Total GULP energy -694497.364149 kJ/mol
# GULP energy per Si atom -12401.738646 kJ/mol
# Density = 1.752522 g / cm^3
# Si number density = 17.565201 Si / 1000 Ang^3
#
#
#
# Elastic Constant Matrix: (Units=GPa)
#
#
# Indices 1 2 3 4 5 6 
#
# 1 118.3814 41.1146 49.4800 0.0000 0.0000 0.0000
# 2 41.1146 64.6991 31.9766 0.0000 0.0000 0.0000
# 3 49.4800 31.9766 87.4777 0.0000 0.0000 0.0000
# 4 0.0000 0.0000 0.0000 23.3611 0.0000 0.0000
# 5 0.0000 0.0000 0.0000 0.0000 26.3899 0.0000
# 6 0.0000 0.0000 0.0000 0.0000 0.0000 25.4750
#
#
#
# Elastic Compliance Matrix: (Units=1/GPa)
#
#
# Indices 1 2 3 4 5 6 
#
# 1 0.012439 -0.005404 -0.005061 0.000000 0.000000 0.000000
# 2 -0.005404 0.021212 -0.004697 0.000000 0.000000 0.000000
# 3 -0.005061 -0.004697 0.016011 0.000000 0.000000 0.000000
# 4 0.000000 0.000000 0.000000 0.042806 0.000000 0.000000
# 5 0.000000 0.000000 0.000000 0.000000 0.037893 0.000000
# 6 0.000000 0.000000 0.000000 0.000000 0.000000 0.039254
#
#
# Mechanical properties :
#
#
# Convention : Reuss Voigt Hill
#
# Bulk Modulus (GPa) = 51.70998 57.30005 54.50502
# Shear Modulus (GPa) = 24.22657 24.91099 24.56878
#
# Velocity S-wave (km/s) = 3.71784 3.76999 3.74400
# Velocity P-wave (km/s) = 6.92333 7.18628 7.05603
#
# Compressibility (1/GPa) = 0.01933863
#
# Stress axis : x y z
#
# Youngs Moduli (GPa) = 80.39078 47.14409 62.45693
#
# Poissons Ratio (x) = 0.25475 0.31608
# Poissons Ratio (y) = 0.43440 0.29337
# Poissons Ratio (z) = 0.40684 0.22145
#
# Static dielectric constant tensor:
#      x y z
#    x 3.209370 0.000000 0.000000 
#    y 0.000000 3.205300 0.000000 
#    z 0.000000 0.000000 3.435590 
# 
# 
# High freq. dielectric constant tensor:
#      x y z
#    x 1.660140 0.000000 0.000000 
#    y 0.000000 1.679040 0.000000 
#    z 0.000000 0.000000 1.677490 
# 
# From -- ./inp_files/21121.got.cif
#   From: 2010.03.12/outbox.cif.g09.slc.cpg/sg59_11_cif.got.tgz:21121.got - 2010.04.16 16:29:54.
