data_PCOD8240513
_publ_section_title
;
Structure prediction by ZEFSAII (Michael W. Deem and Ramdas Pophale) SiO2 
 PCOD8240513
Probable space group: P M M N
;
_chemical_formula_sum "Si O2"
_cell_formula_units_Z 64
_cell_length_a 9.293850
_cell_length_b 24.167230
_cell_length_c 15.205335
_cell_angle_alpha 90.000000
_cell_angle_beta 90.000000
_cell_angle_gamma 90.000000
_cell_volume 3415.218756
_symmetry_space_group_name_H-M "P M M N"
_symmetry_group_IT_number 59
_space_group.IT_coordinate_system_code '2'
_symmetry_cell_setting 'orthorhombic'
loop_
_space_group_symop_operation_xyz
x,y,z
1/2-x,1/2-y,z
1/2+x,-y,-z
-x,1/2+y,-z
-x,-y,-z
1/2+x,1/2+y,-z
1/2-x,y,z
x,1/2-y,z
loop_
_atom_site_type_symbol
_atom_site_label
_atom_site_fract_x
_atom_site_fract_y
_atom_site_fract_z
Si Si1 0.403539 0.959319 0.550628
Si Si2 0.080950 0.186775 0.058581
Si Si3 0.916094 0.186715 0.887610
Si Si4 0.421052 0.612280 0.278541
Si Si5 0.910790 0.638696 0.588350
Si Si6 0.918293 0.889577 0.781933
Si Si7 0.589288 0.001661 0.254413
Si Si8 0.915014 0.688532 0.411633
O O1 0.250000 0.955070 0.502734
O O2 0.475049 0.900671 0.544381
O O3 0.500000 0.000000 0.500000
O O4 0.384146 0.980663 0.647464
O O5 0.250000 0.181664 0.044740
O O6 0.034987 0.250000 0.077764
O O7 0.028094 0.149823 0.140017
O O8 0.005692 0.164259 0.970607
O O9 0.750000 0.180264 0.912225
O O10 0.957284 0.250000 0.867009
O O11 0.957283 0.151880 0.802572
O O12 0.250000 0.603895 0.292015
O O13 0.494694 0.553964 0.254302
O O14 0.487330 0.641387 0.365524
O O15 0.750000 0.613266 0.584145
O O16 0.948936 0.645982 0.691873
O O17 0.923634 0.689607 0.519818
O O18 0.750000 0.903699 0.789990
O O19 0.003732 0.947501 0.791087
O O20 0.750000 0.992926 0.211562
O O21 0.750000 0.677029 0.383402
O O22 0.964018 0.750000 0.381354
#
# Coordination Sequence:
#
# PCOD8240513 Si02
#       8
#     8   8   8   8   8   8   8   8
#     4  10  19  30  46  68  94 126 166 211 253 295
#     4   9  18  33  56  85 110 133 167 212 260 310
#     4   9  19  36  56  78 104 134 170 213 262 316
#     4  11  22  36  55  77 103 138 179 221 267 316
#     4   9  18  32  49  70  99 135 170 203 244 296
#     4   9  18  34  55  79 109 142 175 213 257 307
#     4  10  21  35  51  74 104 137 176 219 262 311
#     4  10  21  35  51  75 107 141 177 217 262 312
#
# _framework density 18.739649
#
# number of rings (size 3 to 8) (size 9 to 14) (size 15 to 20)
#    0.000    2.375    0.000    2.250    0.000    7.750 
#    0.000    4.375    0.000    0.000    0.000    5.250 
#    0.000    0.000    0.000    0.000    0.000    0.000 
#
# Total GULP energy -792913.930057 kJ/mol
# GULP energy per Si atom -12389.280157 kJ/mol
# Density = 1.869700 g / cm^3
# Si number density = 18.739649 Si / 1000 Ang^3
#
#
#
# Elastic Constant Matrix: (Units=GPa)
#
#
# Indices 1 2 3 4 5 6 
#
# 1 77.1740 42.6626 22.2835 0.0000 0.0000 0.0000
# 2 42.6626 91.5132 47.1839 0.0000 0.0000 0.0000
# 3 22.2835 47.1839 87.0029 0.0000 0.0000 0.0000
# 4 0.0000 0.0000 0.0000 32.0816 0.0000 0.0000
# 5 0.0000 0.0000 0.0000 0.0000 27.8755 0.0000
# 6 0.0000 0.0000 0.0000 0.0000 0.0000 33.9857
#
#
#
# Elastic Compliance Matrix: (Units=1/GPa)
#
#
# Indices 1 2 3 4 5 6 
#
# 1 0.017457 -0.008097 -0.000080 0.000000 0.000000 0.000000
# 2 -0.008097 0.018925 -0.008189 0.000000 0.000000 0.000000
# 3 -0.000080 -0.008189 0.015956 0.000000 0.000000 0.000000
# 4 0.000000 0.000000 0.000000 0.031171 0.000000 0.000000
# 5 0.000000 0.000000 0.000000 0.000000 0.035874 0.000000
# 6 0.000000 0.000000 0.000000 0.000000 0.000000 0.029424
#
#
# Mechanical properties :
#
#
# Convention : Reuss Voigt Hill
#
# Bulk Modulus (GPa) = 51.00893 53.32779 52.16836
# Shear Modulus (GPa) = 26.58537 28.35922 27.47229
#
# Velocity S-wave (km/s) = 3.77061 3.89437 3.83299
# Velocity P-wave (km/s) = 6.79967 6.98144 6.89115
#
# Compressibility (1/GPa) = 0.01960441
#
# Stress axis : x y z
#
# Youngs Moduli (GPa) = 57.28379 52.84122 62.67364
#
# Poissons Ratio (x) = 0.42786 0.00501
# Poissons Ratio (y) = 0.46383 0.51326
# Poissons Ratio (z) = 0.00458 0.43274
#
# Static dielectric constant tensor:
#      x y z
#    x 3.764970 0.000000 0.000000 
#    y 0.000000 3.385150 0.000000 
#    z 0.000000 0.000000 3.354700 
# 
# 
# High freq. dielectric constant tensor:
#      x y z
#    x 1.734650 0.000000 0.000000 
#    y 0.000000 1.718940 0.000000 
#    z 0.000000 0.000000 1.720050 
# 
# From -- ./inp_files/21490.got.cif
#   From: 2010.03.12/outbox.cif.g09.slc.cpg/sg59_11_cif.got.tgz:21490.got - 2010.04.16 16:29:54.
