data_PCOD8240821
_publ_section_title
;
Structure prediction by ZEFSAII (Michael W. Deem and Ramdas Pophale) SiO2 
 PCOD8240821
Probable space group: P M M N
;
_chemical_formula_sum "Si O2"
_cell_formula_units_Z 48
_cell_length_a 13.696642
_cell_length_b 9.213230
_cell_length_c 21.044480
_cell_angle_alpha 90.000000
_cell_angle_beta 90.000000
_cell_angle_gamma 90.000000
_cell_volume 2655.609518
_symmetry_space_group_name_H-M "P M M N"
_symmetry_group_IT_number 59
_space_group.IT_coordinate_system_code '2'
_symmetry_cell_setting 'orthorhombic'
loop_
_space_group_symop_operation_xyz
x,y,z
1/2-x,1/2-y,z
1/2+x,-y,-z
-x,1/2+y,-z
-x,-y,-z
1/2+x,1/2+y,-z
1/2-x,y,z
x,1/2-y,z
loop_
_atom_site_type_symbol
_atom_site_label
_atom_site_fract_x
_atom_site_fract_y
_atom_site_fract_z
Si Si1 0.143091 0.422159 0.904124
Si Si2 0.864141 0.079678 0.710411
Si Si3 0.862377 0.918570 0.464202
Si Si4 0.048891 0.578962 0.157227
Si Si5 0.034128 0.080412 0.404640
Si Si6 0.635066 0.590130 0.957314
O O1 0.250000 0.489093 0.887469
O O2 0.152305 0.250000 0.907348
O O3 0.064784 0.468575 0.850458
O O4 0.102669 0.473831 0.973437
O O5 0.750000 0.043562 0.710413
O O6 0.883569 0.250000 0.700678
O O7 0.910047 0.021042 0.776130
O O8 0.916255 0.992494 0.655271
O O9 0.750000 0.966100 0.456712
O O10 0.876833 0.750000 0.447618
O O11 0.895565 0.951261 0.535914
O O12 0.927237 0.011922 0.415690
O O13 0.062069 0.750000 0.154287
O O14 0.109936 0.517200 0.099115
O O15 0.020916 0.250000 0.392022
O O16 0.750000 0.606256 0.961423
O O17 0.588688 0.750000 0.944840
#
# Coordination Sequence:
#
# PCOD8240821 Si02
#       6
#     8   8   8   8   8   8
#     4   8  15  29  48  69  93 122 158 201 250 302
#     4  10  21  35  49  69 101 136 167 203 249 300
#     4   9  18  34  56  81 108 136 168 206 247 294
#     4  10  19  31  49  71  95 126 166 208 244 285
#     4  10  20  34  54  80 107 135 170 209 247 290
#     4   9  17  29  46  69  96 124 155 197 252 307
#
# _framework density 18.074946000000001
#
# number of rings (size 3 to 8) (size 9 to 14) (size 15 to 20)
#    0.000    2.667    0.000    3.000    0.000    3.667 
#    0.000    0.833    0.000    4.500    0.000    0.000 
#    0.000    0.000    0.000    0.000    0.000    0.000 
#
# Total GULP energy -595035.195479 kJ/mol
# GULP energy per Si atom -12396.566572 kJ/mol
# Density = 1.803381 g / cm^3
# Si number density = 18.074946 Si / 1000 Ang^3
#
#
#
# Elastic Constant Matrix: (Units=GPa)
#
#
# Indices 1 2 3 4 5 6 
#
# 1 126.0958 49.1368 82.2640 0.0000 0.0000 0.0000
# 2 49.1368 47.3334 49.5934 0.0000 0.0000 0.0000
# 3 82.2640 49.5934 127.4152 0.0000 0.0000 0.0000
# 4 0.0000 0.0000 0.0000 21.6005 0.0000 0.0000
# 5 0.0000 0.0000 0.0000 0.0000 30.1746 0.0000
# 6 0.0000 0.0000 0.0000 0.0000 0.0000 22.4684
#
#
#
# Elastic Compliance Matrix: (Units=1/GPa)
#
#
# Indices 1 2 3 4 5 6 
#
# 1 0.015992 -0.009766 -0.006524 0.000000 0.000000 0.000000
# 2 -0.009766 0.041640 -0.009902 0.000000 0.000000 0.000000
# 3 -0.006524 -0.009902 0.015915 0.000000 0.000000 0.000000
# 4 0.000000 0.000000 0.000000 0.046295 0.000000 0.000000
# 5 0.000000 0.000000 0.000000 0.000000 0.033140 0.000000
# 6 0.000000 0.000000 0.000000 0.000000 0.000000 0.044507
#
#
# Mechanical properties :
#
#
# Convention : Reuss Voigt Hill
#
# Bulk Modulus (GPa) = 47.25338 73.64808 60.45073
# Shear Modulus (GPa) = 19.46075 22.83872 21.14973
#
# Velocity S-wave (km/s) = 3.28482 3.55851 3.42440
# Velocity P-wave (km/s) = 6.37076 7.59726 7.01088
#
# Compressibility (1/GPa) = 0.02116251
#
# Stress axis : x y z
#
# Youngs Moduli (GPa) = 62.52982 24.01559 62.83548
#
# Poissons Ratio (x) = 0.23454 0.40994
# Poissons Ratio (y) = 0.61068 0.62219
# Poissons Ratio (z) = 0.40795 0.23780
#
# Static dielectric constant tensor:
#      x y z
#    x 3.583760 0.000000 0.000000 
#    y 0.000000 3.165990 0.000000 
#    z 0.000000 0.000000 3.327250 
# 
# 
# High freq. dielectric constant tensor:
#      x y z
#    x 1.710350 0.000000 0.000000 
#    y 0.000000 1.680450 0.000000 
#    z 0.000000 0.000000 1.689840 
# 
# From -- ./inp_files/27372.got.cif
#   From: 2010.03.12/outbox.cif.g09.slc.cpg/sg59_14_cif.got.tgz:27372.got - 2010.04.16 16:29:54.
