data_PCOD8240177
_publ_section_title
;
Structure prediction by ZEFSAII (Michael W. Deem and Ramdas Pophale) SiO2 
 PCOD8240177
Probable space group: P M M N
;
_chemical_formula_sum "Si O2"
_cell_formula_units_Z 56
_cell_length_a 21.023151
_cell_length_b 9.146634
_cell_length_c 16.779399
_cell_angle_alpha 90.000000
_cell_angle_beta 90.000000
_cell_angle_gamma 90.000000
_cell_volume 3226.528549
_symmetry_space_group_name_H-M "P M M N"
_symmetry_group_IT_number 59
_space_group.IT_coordinate_system_code '2'
_symmetry_cell_setting 'orthorhombic'
loop_
_space_group_symop_operation_xyz
x,y,z
1/2-x,1/2-y,z
1/2+x,-y,-z
-x,1/2+y,-z
-x,-y,-z
1/2+x,1/2+y,-z
1/2-x,y,z
x,1/2-y,z
loop_
_atom_site_type_symbol
_atom_site_label
_atom_site_fract_x
_atom_site_fract_y
_atom_site_fract_z
Si Si1 0.176783 0.411332 0.356410
Si Si2 0.822597 0.080783 0.969510
Si Si3 0.558890 0.923412 0.044083
Si Si4 0.038484 0.082805 0.614441
Si Si5 0.367457 0.579813 0.205235
Si Si6 0.489966 0.421717 0.787453
Si Si7 0.906000 0.083743 0.525812
O O1 0.250000 0.395596 0.374845
O O2 0.145188 0.250000 0.351284
O O3 0.168153 0.493702 0.273629
O O4 0.149443 0.498779 0.430610
O O5 0.750000 0.041283 0.994417
O O6 0.837772 0.250000 0.988396
O O7 0.829885 0.050419 0.876010
O O8 0.872519 0.981186 0.016915
O O9 0.553895 0.750000 0.029171
O O10 0.554465 0.962334 0.137939
O O11 0.500000 0.000000 0.000000
O O12 0.062395 0.250000 0.611540
O O13 0.039019 0.017434 0.704532
O O14 0.967544 0.070135 0.581136
O O15 0.084929 0.985010 0.561484
O O16 0.367043 0.750000 0.228197
O O17 0.439118 0.517703 0.196501
O O18 0.496255 0.250000 0.776857
O O19 0.885344 0.250000 0.513519
#
# Coordination Sequence:
#
# PCOD8240177 Si02
#       7
#     8   8   8   8   8   8   8
#     4  11  23  35  48  73 109 143 175 214 258 306
#     4  10  21  37  56  78 109 148 186 226 275 329
#     4  11  21  35  56  81 110 144 185 230 273 324
#     4   9  17  32  52  74 101 131 163 211 261 301
#     4  10  18  34  55  76 104 142 182 215 260 322
#     4   9  17  32  54  78 106 138 175 217 263 318
#     4  10  19  32  52  76 100 133 172 207 250 308
#
# _framework density 17.356114999999999
#
# number of rings (size 3 to 8) (size 9 to 14) (size 15 to 20)
#    0.000    2.000    2.857    1.714    0.000    3.143 
#    0.000    1.429    0.000    0.857    0.000    2.000 
#    0.000    0.000    0.000    0.000    0.000    0.000 
#
# Total GULP energy -694356.248866 kJ/mol
# GULP energy per Si atom -12399.218730 kJ/mol
# Density = 1.731661 g / cm^3
# Si number density = 17.356115 Si / 1000 Ang^3
#
#
#
# Elastic Constant Matrix: (Units=GPa)
#
#
# Indices 1 2 3 4 5 6 
#
# 1 88.0418 48.0273 50.8555 0.0000 0.0000 0.0000
# 2 48.0273 96.8562 58.7937 0.0000 0.0000 0.0000
# 3 50.8555 58.7937 126.7201 0.0000 0.0000 0.0000
# 4 0.0000 0.0000 0.0000 26.0446 0.0000 0.0000
# 5 0.0000 0.0000 0.0000 0.0000 27.0139 0.0000
# 6 0.0000 0.0000 0.0000 0.0000 0.0000 26.5329
#
#
#
# Elastic Compliance Matrix: (Units=1/GPa)
#
#
# Indices 1 2 3 4 5 6 
#
# 1 0.016934 -0.005946 -0.004037 0.000000 0.000000 0.000000
# 2 -0.005946 0.016460 -0.005251 0.000000 0.000000 0.000000
# 3 -0.004037 -0.005251 0.011948 0.000000 0.000000 0.000000
# 4 0.000000 0.000000 0.000000 0.038396 0.000000 0.000000
# 5 0.000000 0.000000 0.000000 0.000000 0.037018 0.000000
# 6 0.000000 0.000000 0.000000 0.000000 0.000000 0.037689
#
#
# Mechanical properties :
#
#
# Convention : Reuss Voigt Hill
#
# Bulk Modulus (GPa) = 67.23172 69.66344 68.44758
# Shear Modulus (GPa) = 25.79039 26.18106 25.98573
#
# Velocity S-wave (km/s) = 3.85899 3.88811 3.87358
# Velocity P-wave (km/s) = 7.66005 7.77054 7.71550
#
# Compressibility (1/GPa) = 0.01487393
#
# Stress axis : x y z
#
# Youngs Moduli (GPa) = 59.05316 60.75189 83.69814
#
# Poissons Ratio (x) = 0.36125 0.33789
# Poissons Ratio (y) = 0.35115 0.43947
# Poissons Ratio (z) = 0.23840 0.31899
#
# Static dielectric constant tensor:
#      x y z
#    x 3.092820 0.000000 0.000000 
#    y 0.000000 3.223600 0.000000 
#    z 0.000000 0.000000 3.374430 
# 
# 
# High freq. dielectric constant tensor:
#      x y z
#    x 1.650510 0.000000 0.000000 
#    y 0.000000 1.665630 0.000000 
#    z 0.000000 0.000000 1.672300 
# 
# From -- ./inp_files/28062.got.cif
#   From: 2010.03.12/outbox.cif.g09.slc.cpg/sg59_15_cif.got.tgz:28062.got - 2010.04.16 16:29:54.
