data_PCOD8240888
_publ_section_title
;
Structure prediction by ZEFSAII (Michael W. Deem and Ramdas Pophale) SiO2 
 PCOD8240888
Probable space group: P M M N
;
_chemical_formula_sum "Si O2"
_cell_formula_units_Z 64
_cell_length_a 8.888673
_cell_length_b 17.514470
_cell_length_c 22.892123
_cell_angle_alpha 90.000000
_cell_angle_beta 90.000000
_cell_angle_gamma 90.000000
_cell_volume 3563.854788
_symmetry_space_group_name_H-M "P M M N"
_symmetry_group_IT_number 59
_space_group.IT_coordinate_system_code '2'
_symmetry_cell_setting 'orthorhombic'
loop_
_space_group_symop_operation_xyz
x,y,z
1/2-x,1/2-y,z
1/2+x,-y,-z
-x,1/2+y,-z
-x,-y,-z
1/2+x,1/2+y,-z
1/2-x,y,z
x,1/2-y,z
loop_
_atom_site_type_symbol
_atom_site_label
_atom_site_fract_x
_atom_site_fract_y
_atom_site_fract_z
Si Si1 0.076946 0.063399 0.537038
Si Si2 0.572803 0.836007 0.198218
Si Si3 0.927001 0.663363 0.564234
Si Si4 0.072572 0.968529 0.640775
Si Si5 0.422339 0.339366 0.047803
Si Si6 0.922377 0.889911 0.075267
Si Si7 0.576871 0.047938 0.129545
Si Si8 0.427833 0.518108 0.242335
O O1 0.250000 0.045062 0.531909
O O2 0.040136 0.144186 0.505206
O O3 0.031872 0.047407 0.604721
O O4 0.000000 0.000000 0.500000
O O5 0.750000 0.854631 0.199274
O O6 0.538729 0.750000 0.219428
O O7 0.508959 0.847488 0.132233
O O8 0.492413 0.895473 0.241355
O O9 0.750000 0.654168 0.577446
O O10 0.980678 0.750000 0.575186
O O11 0.018397 0.607229 0.606662
O O12 0.250000 0.961477 0.652568
O O13 0.985334 0.973431 0.701226
O O14 0.250000 0.368299 0.051537
O O15 0.433443 0.250000 0.056294
O O16 0.516795 0.375366 0.100307
O O17 0.497601 0.362885 0.985417
O O18 0.750000 0.864334 0.071372
O O19 0.942659 0.980489 0.082238
O O20 0.750000 0.057682 0.147969
O O21 0.481611 0.030051 0.186890
O O22 0.250000 0.522184 0.243043
#
# Coordination Sequence:
#
# PCOD8240888 Si02
#       8
#     8   8   8   8   8   8   8   8
#     4   8  15  28  48  73 100 130 161 195 237 288
#     4   9  17  32  54  78 104 133 166 206 253 304
#     4   9  17  31  52  79 109 137 167 206 252 298
#     4  10  19  33  53  76 103 136 177 215 249 296
#     4  10  19  31  49  74 103 132 162 200 252 312
#     4   8  15  29  51  76  99 127 162 200 248 308
#     4  10  20  35  53  72  97 130 171 214 255 303
#     4  11  22  36  54  74 100 135 176 217 256 300
#
# _framework density 17.958082999999998
#
# number of rings (size 3 to 8) (size 9 to 14) (size 15 to 20)
#    0.000    2.625    0.000    3.375    0.000    2.750 
#    0.000    3.750    0.000    9.000    0.000    0.000 
#    0.000    0.000    0.000    0.000    0.000    0.000 
#
# Total GULP energy -793052.778247 kJ/mol
# GULP energy per Si atom -12391.449660 kJ/mol
# Density = 1.791721 g / cm^3
# Si number density = 17.958083 Si / 1000 Ang^3
#
#
#
# Elastic Constant Matrix: (Units=GPa)
#
#
# Indices 1 2 3 4 5 6 
#
# 1 73.2188 39.0432 39.5571 0.0000 0.0000 0.0000
# 2 39.0432 90.4809 53.3133 0.0000 0.0000 0.0000
# 3 39.5571 53.3133 93.4691 0.0000 0.0000 0.0000
# 4 0.0000 0.0000 0.0000 21.4029 0.0000 0.0000
# 5 0.0000 0.0000 0.0000 0.0000 24.1500 0.0000
# 6 0.0000 0.0000 0.0000 0.0000 0.0000 26.1294
#
#
#
# Elastic Compliance Matrix: (Units=1/GPa)
#
#
# Indices 1 2 3 4 5 6 
#
# 1 0.019247 -0.005280 -0.005134 0.000000 0.000000 0.000000
# 2 -0.005280 0.018095 -0.008087 0.000000 0.000000 0.000000
# 3 -0.005134 -0.008087 0.017484 0.000000 0.000000 0.000000
# 4 0.000000 0.000000 0.000000 0.046723 0.000000 0.000000
# 5 0.000000 0.000000 0.000000 0.000000 0.041408 0.000000
# 6 0.000000 0.000000 0.000000 0.000000 0.000000 0.038271
#
#
# Mechanical properties :
#
#
# Convention : Reuss Voigt Hill
#
# Bulk Modulus (GPa) = 56.10145 57.88846 56.99495
# Shear Modulus (GPa) = 22.30447 22.68683 22.49565
#
# Velocity S-wave (km/s) = 3.52807 3.55818 3.54316
# Velocity P-wave (km/s) = 6.92130 7.01328 6.96744
#
# Compressibility (1/GPa) = 0.01782485
#
# Stress axis : x y z
#
# Youngs Moduli (GPa) = 51.95655 55.26278 57.19567
#
# Poissons Ratio (x) = 0.29180 0.29362
# Poissons Ratio (y) = 0.27435 0.46252
# Poissons Ratio (z) = 0.26673 0.44689
#
# Static dielectric constant tensor:
#      x y z
#    x 3.078370 0.000000 0.000000 
#    y 0.000000 3.528010 0.000000 
#    z 0.000000 0.000000 3.498520 
# 
# 
# High freq. dielectric constant tensor:
#      x y z
#    x 1.683380 0.000000 0.000000 
#    y 0.000000 1.685090 0.000000 
#    z 0.000000 0.000000 1.689750 
# 
# From -- ./inp_files/31729.got.cif
#   From: 2010.03.12/outbox.cif.g09.slc.cpg/sg59_16_cif.got.tgz:31729.got - 2010.04.16 16:29:54.
