data_PCOD8240467
_publ_section_title
;
Structure prediction by ZEFSAII (Michael W. Deem and Ramdas Pophale) SiO2 
 PCOD8240467
Probable space group: P M M N
;
_chemical_formula_sum "Si O2"
_cell_formula_units_Z 64
_cell_length_a 23.214648
_cell_length_b 9.300812
_cell_length_c 18.924589
_cell_angle_alpha 90.000000
_cell_angle_beta 90.000000
_cell_angle_gamma 90.000000
_cell_volume 4086.104085
_symmetry_space_group_name_H-M "P M M N"
_symmetry_group_IT_number 59
_space_group.IT_coordinate_system_code '2'
_symmetry_cell_setting 'orthorhombic'
loop_
_space_group_symop_operation_xyz
x,y,z
1/2-x,1/2-y,z
1/2+x,-y,-z
-x,1/2+y,-z
-x,-y,-z
1/2+x,1/2+y,-z
1/2-x,y,z
x,1/2-y,z
loop_
_atom_site_type_symbol
_atom_site_label
_atom_site_fract_x
_atom_site_fract_y
_atom_site_fract_z
Si Si1 0.015043 0.083251 0.105496
Si Si2 0.684703 0.915676 0.119446
Si Si3 0.581183 0.914885 0.027841
Si Si4 0.634868 0.080315 0.251667
Si Si5 0.498761 0.917248 0.738739
Si Si6 0.415761 0.415214 0.514799
Si Si7 0.184033 0.414676 0.617895
Si Si8 0.027925 0.582584 0.396071
O O1 0.999289 0.250000 0.101021
O O2 0.029318 0.044189 0.186564
O O3 0.068702 0.042039 0.054082
O O4 0.957795 0.003231 0.081477
O O5 0.750000 0.957242 0.100824
O O6 0.679759 0.750000 0.144028
O O7 0.647711 0.942896 0.047950
O O8 0.661583 0.015087 0.181316
O O9 0.564130 0.750000 0.039424
O O10 0.643822 0.250000 0.249619
O O11 0.568060 0.038192 0.257322
O O12 0.669279 0.018185 0.317831
O O13 0.505200 0.750000 0.719354
O O14 0.531673 0.010133 0.680449
O O15 0.419444 0.250000 0.490475
O O16 0.354677 0.453319 0.549922
O O17 0.465079 0.449620 0.572071
O O18 0.423246 0.514525 0.446232
O O19 0.250000 0.437783 0.595332
O O20 0.172206 0.250000 0.641307
O O21 0.040840 0.750000 0.388237
#
# Coordination Sequence:
#
# PCOD8240467 Si02
#       8
#     8   8   8   8   8   8   8   8
#     4   9  17  30  46  65  89 116 148 188 232 272
#     4  10  20  32  45  63  90 124 158 190 225 267
#     4   9  17  29  46  65  86 116 152 188 227 270
#     4  11  21  31  44  65  94 126 160 192 221 262
#     4  10  19  30  45  66  93 123 150 184 230 276
#     4   9  18  32  47  66  91 119 149 187 229 267
#     4  10  20  34  50  67  91 125 160 190 223 266
#     4  10  19  30  48  69  90 118 152 188 227 273
#
# _framework density 15.662841
#
# number of rings (size 3 to 8) (size 9 to 14) (size 15 to 20)
#    0.000    2.250    2.500    1.125    0.000    4.000 
#    0.000    0.000    0.000    0.000    0.000    0.875 
#    0.000    5.000    0.000    0.000    0.000    0.000 
#
# Total GULP energy -793570.917760 kJ/mol
# GULP energy per Si atom -12399.545590 kJ/mol
# Density = 1.562719 g / cm^3
# Si number density = 15.662841 Si / 1000 Ang^3
#
#
#
# Elastic Constant Matrix: (Units=GPa)
#
#
# Indices 1 2 3 4 5 6 
#
# 1 80.6493 35.1785 59.5192 0.0000 0.0000 0.0000
# 2 35.1785 60.2480 54.6081 0.0000 0.0000 0.0000
# 3 59.5192 54.6081 124.6372 0.0000 0.0000 0.0000
# 4 0.0000 0.0000 0.0000 21.4867 0.0000 0.0000
# 5 0.0000 0.0000 0.0000 0.0000 18.8162 0.0000
# 6 0.0000 0.0000 0.0000 0.0000 0.0000 18.3129
#
#
#
# Elastic Compliance Matrix: (Units=1/GPa)
#
#
# Indices 1 2 3 4 5 6 
#
# 1 0.020022 -0.005017 -0.007363 0.000000 0.000000 0.000000
# 2 -0.005017 0.028788 -0.010218 0.000000 0.000000 0.000000
# 3 -0.007363 -0.010218 0.016016 0.000000 0.000000 0.000000
# 4 0.000000 0.000000 0.000000 0.046540 0.000000 0.000000
# 5 0.000000 0.000000 0.000000 0.000000 0.053146 0.000000
# 6 0.000000 0.000000 0.000000 0.000000 0.000000 0.054606
#
#
# Mechanical properties :
#
#
# Convention : Reuss Voigt Hill
#
# Bulk Modulus (GPa) = 50.93879 62.68290 56.81084
# Shear Modulus (GPa) = 18.45994 19.47175 18.96585
#
# Velocity S-wave (km/s) = 3.43677 3.52970 3.48355
# Velocity P-wave (km/s) = 6.95278 7.53119 7.24776
#
# Compressibility (1/GPa) = 0.01963141
#
# Stress axis : x y z
#
# Youngs Moduli (GPa) = 49.94620 34.73627 62.43696
#
# Poissons Ratio (x) = 0.17426 0.45973
# Poissons Ratio (y) = 0.25056 0.63795
# Poissons Ratio (z) = 0.36776 0.35492
#
# Static dielectric constant tensor:
#      x y z
#    x 2.940990 0.000000 0.000000 
#    y 0.000000 3.036680 0.000000 
#    z 0.000000 0.000000 3.064660 
# 
# 
# High freq. dielectric constant tensor:
#      x y z
#    x 1.574480 0.000000 0.000000 
#    y 0.000000 1.607470 0.000000 
#    z 0.000000 0.000000 1.596170 
# 
# From -- ./inp_files/26546.got.cif
#   From: 2010.03.12/outbox.cif.g09.slc.cpg/sg59_14_cif.got.tgz:26546.got - 2010.04.16 16:29:54.
