data_PCOD8240574
_publ_section_title
;
Structure prediction by ZEFSAII (Michael W. Deem and Ramdas Pophale) SiO2 
 PCOD8240574
Probable space group: P M M N
;
_chemical_formula_sum "Si O2"
_cell_formula_units_Z 48
_cell_length_a 8.900514
_cell_length_b 30.495000
_cell_length_c 9.584750
_cell_angle_alpha 90.000000
_cell_angle_beta 90.000000
_cell_angle_gamma 90.000000
_cell_volume 2601.504102
_symmetry_space_group_name_H-M "P M M N"
_symmetry_group_IT_number 59
_space_group.IT_coordinate_system_code '2'
_symmetry_cell_setting 'orthorhombic'
loop_
_space_group_symop_operation_xyz
x,y,z
1/2-x,1/2-y,z
1/2+x,-y,-z
-x,1/2+y,-z
-x,-y,-z
1/2+x,1/2+y,-z
1/2-x,y,z
x,1/2-y,z
loop_
_atom_site_type_symbol
_atom_site_label
_atom_site_fract_x
_atom_site_fract_y
_atom_site_fract_z
Si Si1 0.071256 0.701323 0.658136
Si Si2 0.571434 0.201365 0.654678
Si Si3 0.074968 0.549502 0.638340
Si Si4 0.574722 0.948772 0.350925
Si Si5 0.571916 0.123761 0.152941
Si Si6 0.070938 0.621632 0.160910
O O1 0.250000 0.698942 0.658402
O O2 0.018187 0.750000 0.704031
O O3 0.013278 0.690898 0.501664
O O4 0.003800 0.665724 0.765156
O O5 0.750000 0.200316 0.656460
O O6 0.515942 0.250000 0.700785
O O7 0.507793 0.164757 0.759960
O O8 0.250000 0.555905 0.603468
O O9 0.037507 0.499626 0.677970
O O10 0.023640 0.579381 0.767933
O O11 0.984230 0.565122 0.502836
O O12 0.750000 0.938758 0.342839
O O13 0.490108 0.922019 0.232207
O O14 0.750000 0.127756 0.147322
O O15 0.507372 0.122963 0.996526
O O16 0.250000 0.620074 0.164165
#
# Coordination Sequence:
#
# PCOD8240574 Si02
#       6
#     8   8   8   8   8   8
#     4   8  13  22  38  62  92 122 151 188 232 272
#     4   8  14  25  43  68  95 123 157 195 232 272
#     4   9  18  34  53  70  91 122 161 202 239 279
#     4  10  20  33  50  71  93 121 160 202 240 280
#     4   9  17  28  44  68  96 126 157 188 230 283
#     4  10  19  30  47  71  99 129 156 187 233 286
#
# _framework density 18.450863999999999
#
# number of rings (size 3 to 8) (size 9 to 14) (size 15 to 20)
#    0.000    3.000    0.000    2.500    0.000    4.667 
#    0.000    4.167    0.000    0.500    0.000    0.000 
#    0.000    1.333    0.000    0.000    0.000    0.000 
#
# Total GULP energy -595059.243056 kJ/mol
# GULP energy per Si atom -12397.067564 kJ/mol
# Density = 1.840887 g / cm^3
# Si number density = 18.450864 Si / 1000 Ang^3
#
#
#
# Elastic Constant Matrix: (Units=GPa)
#
#
# Indices 1 2 3 4 5 6 
#
# 1 17.0868 20.5895 21.5297 0.0000 0.0000 0.0000
# 2 20.5895 138.0763 102.6660 0.0000 0.0000 0.0000
# 3 21.5297 102.6660 168.8091 0.0000 0.0000 0.0000
# 4 0.0000 0.0000 0.0000 23.9533 0.0000 0.0000
# 5 0.0000 0.0000 0.0000 0.0000 13.5070 0.0000
# 6 0.0000 0.0000 0.0000 0.0000 0.0000 16.0815
#
#
#
# Elastic Compliance Matrix: (Units=1/GPa)
#
#
# Indices 1 2 3 4 5 6 
#
# 1 0.073539 -0.007288 -0.004947 0.000000 0.000000 0.000000
# 2 -0.007288 0.013943 -0.007550 0.000000 0.000000 0.000000
# 3 -0.004947 -0.007550 0.011147 0.000000 0.000000 0.000000
# 4 0.000000 0.000000 0.000000 0.041748 0.000000 0.000000
# 5 0.000000 0.000000 0.000000 0.000000 0.074036 0.000000
# 6 0.000000 0.000000 0.000000 0.000000 0.000000 0.062183
#
#
# Mechanical properties :
#
#
# Convention : Reuss Voigt Hill
#
# Bulk Modulus (GPa) = 16.93217 68.17141 42.55179
# Shear Modulus (GPa) = 14.88746 22.65415 18.77081
#
# Velocity S-wave (km/s) = 2.84363 3.50781 3.19304
# Velocity P-wave (km/s) = 4.46973 7.30986 6.05857
#
# Compressibility (1/GPa) = 0.05905919
#
# Stress axis : x y z
#
# Youngs Moduli (GPa) = 13.59816 71.71939 89.71173
#
# Poissons Ratio (x) = 0.52267 0.44379
# Poissons Ratio (y) = 0.09910 0.67737
# Poissons Ratio (z) = 0.06727 0.54152
#
# Static dielectric constant tensor:
#      x y z
#    x 2.835720 0.000000 0.000000 
#    y 0.000000 3.680840 0.000000 
#    z 0.000000 0.000000 3.608440 
# 
# 
# High freq. dielectric constant tensor:
#      x y z
#    x 1.654940 0.000000 0.000000 
#    y 0.000000 1.731240 0.000000 
#    z 0.000000 0.000000 1.715210 
# 
# From -- ./inp_files/7869.got.cif
#   From: 2010.03.12/outbox.cif.g09.slc.cpg/sg59_4_cif.got.tgz:7869.got - 2010.04.16 16:29:54.
