data_PCOD8240184
_publ_section_title
;
Structure prediction by ZEFSAII (Michael W. Deem and Ramdas Pophale) SiO2 
 PCOD8240184
Probable space group: P M M N
;
_chemical_formula_sum "Si O2"
_cell_formula_units_Z 56
_cell_length_a 9.189077
_cell_length_b 21.732583
_cell_length_c 14.870842
_cell_angle_alpha 90.000000
_cell_angle_beta 90.000000
_cell_angle_gamma 90.000000
_cell_volume 2969.742519
_symmetry_space_group_name_H-M "P M M N"
_symmetry_group_IT_number 59
_space_group.IT_coordinate_system_code '2'
_symmetry_cell_setting 'orthorhombic'
loop_
_space_group_symop_operation_xyz
x,y,z
1/2-x,1/2-y,z
1/2+x,-y,-z
-x,1/2+y,-z
-x,-y,-z
1/2+x,1/2+y,-z
1/2-x,y,z
x,1/2-y,z
loop_
_atom_site_type_symbol
_atom_site_label
_atom_site_fract_x
_atom_site_fract_y
_atom_site_fract_z
Si Si1 0.078622 0.046908 0.297585
Si Si2 0.577327 0.250000 0.431865
Si Si3 0.082484 0.424881 0.655600
Si Si4 0.420972 0.820862 0.027632
Si Si5 0.913282 0.750000 0.748883
Si Si6 0.583679 0.870340 0.864612
Si Si7 0.079686 0.372257 0.465620
Si Si8 0.918397 0.680150 0.207855
O O1 0.250000 0.040172 0.306831
O O2 0.034775 0.073712 0.199965
O O3 0.023939 0.092400 0.376622
O O4 0.010233 0.980290 0.305564
O O5 0.750000 0.250000 0.441937
O O6 0.533430 0.250000 0.327777
O O7 0.511454 0.189828 0.479226
O O8 0.250000 0.441686 0.670526
O O9 0.047862 0.415705 0.550676
O O10 0.040488 0.362742 0.708328
O O11 0.250000 0.830045 0.032465
O O12 0.463248 0.750000 0.005746
O O13 0.487784 0.840903 0.122527
O O14 0.483147 0.866936 0.952306
O O15 0.750000 0.750000 0.706672
O O16 0.937599 0.691229 0.809107
O O17 0.750000 0.878358 0.896007
O O18 0.250000 0.355216 0.458904
O O19 0.750000 0.674011 0.180965
O O20 0.956533 0.750000 0.236143
#
# Coordination Sequence:
#
# PCOD8240184 Si02
#       8
#     8   4   8   8   4   8   8   8
#     4  10  21  37  57  82 115 154 188 224 276 337
#     4  12  24  34  52  87 120 147 184 239 288 320
#     4  10  22  38  61  85 107 145 193 238 280 326
#     4  10  20  33  53  84 116 145 177 227 290 335
#     4  10  18  34  56  77 112 153 188 225 272 336
#     4  10  19  33  56  83 110 150 190 221 269 332
#     4  10  21  39  60  81 113 155 193 228 276 339
#     4   9  19  37  59  83 108 140 186 234 279 335
#
# _framework density 18.856854999999999
#
# number of rings (size 3 to 8) (size 9 to 14) (size 15 to 20)
#    0.000    2.000    2.143    1.500    1.000    3.429 
#    0.000    0.714    0.000    0.000    0.000    0.000 
#    0.000    0.000    0.000    0.000    0.000    0.000 
#
# Total GULP energy -694534.201347 kJ/mol
# GULP energy per Si atom -12402.396453 kJ/mol
# Density = 1.881394 g / cm^3
# Si number density = 18.856855 Si / 1000 Ang^3
#
#
#
# Elastic Constant Matrix: (Units=GPa)
#
#
# Indices 1 2 3 4 5 6 
#
# 1 60.1389 32.7000 35.6242 0.0000 0.0000 0.0000
# 2 32.7000 91.1573 27.8432 0.0000 0.0000 0.0000
# 3 35.6242 27.8432 90.1294 0.0000 0.0000 0.0000
# 4 0.0000 0.0000 0.0000 26.0392 0.0000 0.0000
# 5 0.0000 0.0000 0.0000 0.0000 22.7053 0.0000
# 6 0.0000 0.0000 0.0000 0.0000 0.0000 34.3617
#
#
#
# Elastic Compliance Matrix: (Units=1/GPa)
#
#
# Indices 1 2 3 4 5 6 
#
# 1 0.024779 -0.006512 -0.007782 0.000000 0.000000 0.000000
# 2 -0.006512 0.013824 -0.001697 0.000000 0.000000 0.000000
# 3 -0.007782 -0.001697 0.014695 0.000000 0.000000 0.000000
# 4 0.000000 0.000000 0.000000 0.038404 0.000000 0.000000
# 5 0.000000 0.000000 0.000000 0.000000 0.044043 0.000000
# 6 0.000000 0.000000 0.000000 0.000000 0.000000 0.029102
#
#
# Mechanical properties :
#
#
# Convention : Reuss Voigt Hill
#
# Bulk Modulus (GPa) = 46.91164 48.19559 47.55362
# Shear Modulus (GPa) = 24.51771 26.30512 25.41141
#
# Velocity S-wave (km/s) = 3.60974 3.73901 3.67494
# Velocity P-wave (km/s) = 6.50426 6.65240 6.57875
#
# Compressibility (1/GPa) = 0.02131667
#
# Stress axis : x y z
#
# Youngs Moduli (GPa) = 40.35701 72.33700 68.04846
#
# Poissons Ratio (x) = 0.47103 0.52958
# Poissons Ratio (y) = 0.26279 0.11547
# Poissons Ratio (z) = 0.31407 0.12275
#
# Static dielectric constant tensor:
#      x y z
#    x 3.341420 0.000000 0.000000 
#    y 0.000000 3.333480 0.000000 
#    z 0.000000 0.000000 3.504750 
# 
# 
# High freq. dielectric constant tensor:
#      x y z
#    x 1.721760 0.000000 0.000000 
#    y 0.000000 1.724830 0.000000 
#    z 0.000000 0.000000 1.735580 
# 
# From -- ./inp_files/21142.got.cif
#   From: 2010.03.12/outbox.cif.g09.slc.cpg/sg59_11_cif.got.tgz:21142.got - 2010.04.16 16:29:54.
