data_PCOD8240802
_publ_section_title
;
Structure prediction by ZEFSAII (Michael W. Deem and Ramdas Pophale) SiO2 
 PCOD8240802
Probable space group: P M M N
;
_chemical_formula_sum "Si O2"
_cell_formula_units_Z 64
_cell_length_a 28.417531
_cell_length_b 13.494599
_cell_length_c 9.331644
_cell_angle_alpha 90.000000
_cell_angle_beta 90.000000
_cell_angle_gamma 90.000000
_cell_volume 3578.528566
_symmetry_space_group_name_H-M "P M M N"
_symmetry_group_IT_number 59
_space_group.IT_coordinate_system_code '2'
_symmetry_cell_setting 'orthorhombic'
loop_
_space_group_symop_operation_xyz
x,y,z
1/2-x,1/2-y,z
1/2+x,-y,-z
-x,1/2+y,-z
-x,-y,-z
1/2+x,1/2+y,-z
1/2-x,y,z
x,1/2-y,z
loop_
_atom_site_type_symbol
_atom_site_label
_atom_site_fract_x
_atom_site_fract_y
_atom_site_fract_z
Si Si1 0.302322 0.360319 0.411571
Si Si2 0.800369 0.638609 0.249908
Si Si3 0.891062 0.517790 0.630349
Si Si4 0.526834 0.365376 0.138545
Si Si5 0.400877 0.368307 0.825931
Si Si6 0.060579 0.637346 0.546083
Si Si7 0.937678 0.511074 0.917472
Si Si8 0.540729 0.866358 0.446494
O O1 0.250000 0.388203 0.356696
O O2 0.316000 0.250000 0.354948
O O3 0.303869 0.358562 0.581029
O O4 0.337922 0.443711 0.357564
O O5 0.750000 0.587179 0.204365
O O6 0.799348 0.750000 0.189173
O O7 0.848070 0.586219 0.193796
O O8 0.896545 0.426741 0.518268
O O9 0.902434 0.483174 0.790834
O O10 0.925514 0.605384 0.578132
O O11 0.512649 0.250000 0.111765
O O12 0.558005 0.373595 0.282203
O O13 0.483242 0.439955 0.155525
O O14 0.555027 0.407308 0.001173
O O15 0.399637 0.250000 0.818977
O O16 0.436819 0.407659 0.702134
O O17 0.418221 0.404128 0.978431
O O18 0.069776 0.750000 0.502114
O O19 0.012530 0.594882 0.472456
O O20 0.538030 0.750000 0.445575
#
# Coordination Sequence:
#
# PCOD8240802 Si02
#       8
#     8   8   8   8   8   8   8   8
#     4   9  18  33  55  83 110 137 171 215 267 315
#     4   8  14  27  48  73 100 132 172 214 255 302
#     4  12  21  33  55  78 108 135 179 221 264 316
#     4  10  22  39  51  68 105 145 180 220 260 305
#     4  10  19  31  48  74 106 141 180 216 257 311
#     4  10  22  37  54  76 103 139 184 226 263 303
#     4  11  24  33  50  76 105 143 180 211 262 319
#     4  10  19  31  51  75 103 140 178 219 261 305
#
# _framework density 17.884446000000001
#
# number of rings (size 3 to 8) (size 9 to 14) (size 15 to 20)
#    0.000    2.000    2.500    2.625    3.500    2.000 
#    0.000    0.625    0.000    1.875    0.000    0.000 
#    0.000    1.500    0.000    0.000    0.000    0.000 
#
# Total GULP energy -793052.251905 kJ/mol
# GULP energy per Si atom -12391.441436 kJ/mol
# Density = 1.784374 g / cm^3
# Si number density = 17.884446 Si / 1000 Ang^3
#
#
#
# Elastic Constant Matrix: (Units=GPa)
#
#
# Indices 1 2 3 4 5 6 
#
# 1 88.8887 35.0967 27.4574 0.0000 0.0000 0.0000
# 2 35.0967 74.3767 25.9043 0.0000 0.0000 0.0000
# 3 27.4574 25.9043 85.7187 0.0000 0.0000 0.0000
# 4 0.0000 0.0000 0.0000 22.2330 0.0000 0.0000
# 5 0.0000 0.0000 0.0000 0.0000 11.2458 0.0000
# 6 0.0000 0.0000 0.0000 0.0000 0.0000 21.5681
#
#
#
# Elastic Compliance Matrix: (Units=1/GPa)
#
#
# Indices 1 2 3 4 5 6 
#
# 1 0.014430 -0.005811 -0.002866 0.000000 0.000000 0.000000
# 2 -0.005811 0.017367 -0.003387 0.000000 0.000000 0.000000
# 3 -0.002866 -0.003387 0.013608 0.000000 0.000000 0.000000
# 4 0.000000 0.000000 0.000000 0.044978 0.000000 0.000000
# 5 0.000000 0.000000 0.000000 0.000000 0.088922 0.000000
# 6 0.000000 0.000000 0.000000 0.000000 0.000000 0.046365
#
#
# Mechanical properties :
#
#
# Convention : Reuss Voigt Hill
#
# Bulk Modulus (GPa) = 47.00044 47.32231 47.16138
# Shear Modulus (GPa) = 19.46366 21.71110 20.58738
#
# Velocity S-wave (km/s) = 3.30252 3.48798 3.39652
# Velocity P-wave (km/s) = 6.39369 6.53749 6.46599
#
# Compressibility (1/GPa) = 0.02127639
#
# Stress axis : x y z
#
# Youngs Moduli (GPa) = 69.30158 57.58150 73.48804
#
# Poissons Ratio (x) = 0.33460 0.21062
# Poissons Ratio (y) = 0.40270 0.24890
# Poissons Ratio (z) = 0.19862 0.19502
#
# Static dielectric constant tensor:
#      x y z
#    x 3.794120 0.000000 0.000000 
#    y 0.000000 3.181720 0.000000 
#    z 0.000000 0.000000 3.242090 
# 
# 
# High freq. dielectric constant tensor:
#      x y z
#    x 1.674190 0.000000 0.000000 
#    y 0.000000 1.671460 0.000000 
#    z 0.000000 0.000000 1.685460 
# 
# From -- ./inp_files/13253.got.cif
#   From: 2010.03.12/outbox.cif.g09.slc.cpg/sg59_7_cif.got.tgz:13253.got - 2010.04.16 16:29:54.
