data_PCOD8240925
_publ_section_title
;
Structure prediction by ZEFSAII (Michael W. Deem and Ramdas Pophale) SiO2 
 PCOD8240925
Probable space group: P M M N
;
_chemical_formula_sum "Si O2"
_cell_formula_units_Z 64
_cell_length_a 8.972749
_cell_length_b 17.678248
_cell_length_c 22.992520
_cell_angle_alpha 90.000000
_cell_angle_beta 90.000000
_cell_angle_gamma 90.000000
_cell_volume 3647.130591
_symmetry_space_group_name_H-M "P M M N"
_symmetry_group_IT_number 59
_space_group.IT_coordinate_system_code '2'
_symmetry_cell_setting 'orthorhombic'
loop_
_space_group_symop_operation_xyz
x,y,z
1/2-x,1/2-y,z
1/2+x,-y,-z
-x,1/2+y,-z
-x,-y,-z
1/2+x,1/2+y,-z
1/2-x,y,z
x,1/2-y,z
loop_
_atom_site_type_symbol
_atom_site_label
_atom_site_fract_x
_atom_site_fract_y
_atom_site_fract_z
Si Si1 0.575231 0.561483 0.459977
Si Si2 0.075891 0.962256 0.755879
Si Si3 0.081349 0.164402 0.176962
Si Si4 0.924672 0.392519 0.069165
Si Si5 0.572986 0.523080 0.634343
Si Si6 0.579327 0.547500 0.128413
Si Si7 0.075555 0.333904 0.439979
Si Si8 0.425726 0.834829 0.055084
O O1 0.500000 0.500000 0.500000
O O2 0.750000 0.545745 0.453557
O O3 0.496708 0.551259 0.397378
O O4 0.545926 0.641705 0.492477
O O5 0.250000 0.957927 0.740385
O O6 0.023760 0.881277 0.779333
O O7 0.979965 0.983073 0.700101
O O8 0.043696 0.025086 0.805168
O O9 0.250000 0.131927 0.178004
O O10 0.080206 0.250000 0.199172
O O11 0.017250 0.161606 0.111734
O O12 0.750000 0.374767 0.077724
O O13 0.961550 0.478922 0.085144
O O14 0.979265 0.375934 0.003936
O O15 0.750000 0.518040 0.630484
O O16 0.513984 0.601933 0.604794
O O17 0.750000 0.570091 0.121259
O O18 0.483337 0.620074 0.111114
O O19 0.250000 0.328089 0.428778
O O20 0.003721 0.250000 0.429548
O O21 0.250000 0.833029 0.057911
O O22 0.490772 0.750000 0.056695
#
# Coordination Sequence:
#
# PCOD8240925 Si02
#       8
#     8   8   8   8   8   8   8   8
#     4   9  16  28  48  71  97 130 165 199 234 276
#     4  10  21  36  52  70  94 127 169 209 245 289
#     4  10  20  32  47  70  99 130 164 200 240 289
#     4   9  18  33  51  71  97 128 161 196 240 297
#     4  10  19  31  50  74  99 129 164 203 245 289
#     4   9  19  34  51  71  94 125 164 205 247 290
#     4   8  15  28  47  73 103 131 158 191 232 276
#     4  10  20  32  49  74 100 126 156 195 249 306
#
# _framework density 17.548041000000001
#
# number of rings (size 3 to 8) (size 9 to 14) (size 15 to 20)
#    0.000    2.625    0.000    3.750    0.000    5.250 
#    0.000    1.250    0.000   13.875    0.000    1.750 
#    0.000    0.000    0.000    0.000    0.000    0.000 
#
# Total GULP energy -793289.090123 kJ/mol
# GULP energy per Si atom -12395.142033 kJ/mol
# Density = 1.750810 g / cm^3
# Si number density = 17.548041 Si / 1000 Ang^3
#
#
#
# Elastic Constant Matrix: (Units=GPa)
#
#
# Indices 1 2 3 4 5 6 
#
# 1 57.6396 25.7519 31.7668 0.0000 0.0000 0.0000
# 2 25.7519 75.2522 47.3350 0.0000 0.0000 0.0000
# 3 31.7668 47.3350 103.2294 0.0000 0.0000 0.0000
# 4 0.0000 0.0000 0.0000 13.7089 0.0000 0.0000
# 5 0.0000 0.0000 0.0000 0.0000 31.1346 0.0000
# 6 0.0000 0.0000 0.0000 0.0000 0.0000 23.8373
#
#
#
# Elastic Compliance Matrix: (Units=1/GPa)
#
#
# Indices 1 2 3 4 5 6 
#
# 1 0.021965 -0.004588 -0.004655 0.000000 0.000000 0.000000
# 2 -0.004588 0.019634 -0.007591 0.000000 0.000000 0.000000
# 3 -0.004655 -0.007591 0.014600 0.000000 0.000000 0.000000
# 4 0.000000 0.000000 0.000000 0.072945 0.000000 0.000000
# 5 0.000000 0.000000 0.000000 0.000000 0.032119 0.000000
# 6 0.000000 0.000000 0.000000 0.000000 0.000000 0.041951
#
#
# Mechanical properties :
#
#
# Convention : Reuss Voigt Hill
#
# Bulk Modulus (GPa) = 44.38538 49.53653 46.96095
# Shear Modulus (GPa) = 20.45887 22.48732 21.47309
#
# Velocity S-wave (km/s) = 3.41820 3.58365 3.50190
# Velocity P-wave (km/s) = 6.39745 6.73897 6.57043
#
# Compressibility (1/GPa) = 0.02252994
#
# Stress axis : x y z
#
# Youngs Moduli (GPa) = 45.52748 50.93310 68.49088
#
# Poissons Ratio (x) = 0.23369 0.31885
# Poissons Ratio (y) = 0.20889 0.51991
# Poissons Ratio (z) = 0.21194 0.38663
#
# Static dielectric constant tensor:
#      x y z
#    x 3.285640 0.000000 0.000000 
#    y 0.000000 3.376350 0.000000 
#    z 0.000000 0.000000 3.374720 
# 
# 
# High freq. dielectric constant tensor:
#      x y z
#    x 1.674400 0.000000 0.000000 
#    y 0.000000 1.659640 0.000000 
#    z 0.000000 0.000000 1.670890 
# 
# From -- ./inp_files/31707.got.cif
#   From: 2010.03.12/outbox.cif.g09.slc.cpg/sg59_16_cif.got.tgz:31707.got - 2010.04.16 16:29:54.
