data_PCOD8240035
_publ_section_title
;
Structure prediction by ZEFSAII (Michael W. Deem and Ramdas Pophale) SiO2 
 PCOD8240035
Probable space group: P M M N
;
_chemical_formula_sum "Si O2"
_cell_formula_units_Z 64
_cell_length_a 9.120200
_cell_length_b 16.397373
_cell_length_c 22.046729
_cell_angle_alpha 90.000000
_cell_angle_beta 90.000000
_cell_angle_gamma 90.000000
_cell_volume 3297.029264
_symmetry_space_group_name_H-M "P M M N"
_symmetry_group_IT_number 59
_space_group.IT_coordinate_system_code '2'
_symmetry_cell_setting 'orthorhombic'
loop_
_space_group_symop_operation_xyz
x,y,z
1/2-x,1/2-y,z
1/2+x,-y,-z
-x,1/2+y,-z
-x,-y,-z
1/2+x,1/2+y,-z
1/2-x,y,z
x,1/2-y,z
loop_
_atom_site_type_symbol
_atom_site_label
_atom_site_fract_x
_atom_site_fract_y
_atom_site_fract_z
Si Si1 0.580027 0.424077 0.244482
Si Si2 0.423677 0.586935 0.250400
Si Si3 0.576028 0.339805 0.874282
Si Si4 0.424240 0.914855 0.001048
Si Si5 0.580181 0.160173 0.365330
Si Si6 0.924271 0.339643 0.124385
Si Si7 0.575453 0.999806 0.435567
Si Si8 0.920158 0.658293 0.358657
O O1 0.750000 0.450391 0.241219
O O2 0.485945 0.499342 0.268622
O O3 0.558105 0.352007 0.293172
O O4 0.518565 0.396737 0.178834
O O5 0.250000 0.588632 0.256011
O O6 0.477140 0.604963 0.181693
O O7 0.489053 0.653446 0.296272
O O8 0.750000 0.337841 0.876629
O O9 0.512097 0.250000 0.863572
O O10 0.516082 0.370743 0.938744
O O11 0.250000 0.923996 0.001580
O O12 0.479564 0.868289 0.941218
O O13 0.500000 0.000000 0.000000
O O14 0.750000 0.163969 0.381602
O O15 0.510717 0.250000 0.382357
O O16 0.515282 0.081349 0.400962
O O17 0.750000 0.337722 0.126411
O O18 0.988955 0.250000 0.135316
O O19 0.750000 0.002508 0.442201
O O20 0.527531 0.914856 0.403081
O O21 0.500000 0.000000 0.500000
O O22 0.750000 0.645960 0.343216
O O23 0.947271 0.750000 0.386139
#
# Coordination Sequence:
#
# PCOD8240035 Si02
#       8
#     8   8   8   8   8   8   8   8
#     4  10  18  32  54  79 108 139 176 223 276 329
#     4  11  21  33  53  80 110 143 184 229 272 322
#     4   9  18  32  49  70  99 137 177 217 264 318
#     4  10  19  32  50  71  99 134 173 218 269 327
#     4   9  17  32  56  82 108 141 180 221 264 315
#     4   9  17  29  50  79 102 129 178 233 275 320
#     4  10  21  38  58  84 115 147 182 219 264 322
#     4  10  21  39  61  84 113 149 186 226 276 326
#
# _framework density 19.411414000000001
#
# number of rings (size 3 to 8) (size 9 to 14) (size 15 to 20)
#    0.000    2.250    1.250    2.250    0.000    4.750 
#    0.000    0.625    0.000    6.000    0.000    0.000 
#    0.000    0.000    0.000    0.000    0.000    0.000 
#
# Total GULP energy -793240.909088 kJ/mol
# GULP energy per Si atom -12394.389205 kJ/mol
# Density = 1.936723 g / cm^3
# Si number density = 19.411414 Si / 1000 Ang^3
#
#
#
# Elastic Constant Matrix: (Units=GPa)
#
#
# Indices 1 2 3 4 5 6 
#
# 1 26.2251 23.8286 26.4508 0.0000 0.0000 0.0000
# 2 23.8286 158.0492 59.3092 0.0000 0.0000 0.0000
# 3 26.4508 59.3092 135.1241 0.0000 0.0000 0.0000
# 4 0.0000 0.0000 0.0000 28.1056 0.0000 0.0000
# 5 0.0000 0.0000 0.0000 0.0000 24.5362 0.0000
# 6 0.0000 0.0000 0.0000 0.0000 0.0000 17.7177
#
#
#
# Elastic Compliance Matrix: (Units=1/GPa)
#
#
# Indices 1 2 3 4 5 6 
#
# 1 0.050210 -0.004647 -0.007789 0.000000 0.000000 0.000000
# 2 -0.004647 0.008005 -0.002604 0.000000 0.000000 0.000000
# 3 -0.007789 -0.002604 0.010068 0.000000 0.000000 0.000000
# 4 0.000000 0.000000 0.000000 0.035580 0.000000 0.000000
# 5 0.000000 0.000000 0.000000 0.000000 0.040756 0.000000
# 6 0.000000 0.000000 0.000000 0.000000 0.000000 0.056441
#
#
# Mechanical properties :
#
#
# Convention : Reuss Voigt Hill
#
# Bulk Modulus (GPa) = 26.17591 59.84175 43.00883
# Shear Modulus (GPa) = 20.50241 28.05924 24.28083
#
# Velocity S-wave (km/s) = 3.25345 3.80610 3.54058
# Velocity P-wave (km/s) = 5.25617 7.08592 6.23849
#
# Compressibility (1/GPa) = 0.03820307
#
# Stress axis : x y z
#
# Youngs Moduli (GPa) = 19.91644 124.92364 99.32260
#
# Poissons Ratio (x) = 0.58053 0.77362
# Poissons Ratio (y) = 0.09255 0.25862
# Poissons Ratio (z) = 0.15513 0.32528
#
# Static dielectric constant tensor:
#      x y z
#    x 3.064150 0.000000 0.000000 
#    y 0.000000 3.790230 0.000000 
#    z 0.000000 0.000000 4.374380 
# 
# 
# High freq. dielectric constant tensor:
#      x y z
#    x 1.704270 0.000000 0.000000 
#    y 0.000000 1.771550 0.000000 
#    z 0.000000 0.000000 1.762680 
# 
# From -- ./inp_files/31509.got.cif
#   From: 2010.03.12/outbox.cif.g09.slc.cpg/sg59_16_cif.got.tgz:31509.got - 2010.04.16 16:29:54.
