data_PCOD8240266
_publ_section_title
;
Structure prediction by ZEFSAII (Michael W. Deem and Ramdas Pophale) SiO2 
 PCOD8240266
Probable space group: P M M N
;
_chemical_formula_sum "Si O2"
_cell_formula_units_Z 64
_cell_length_a 25.822129
_cell_length_b 9.070978
_cell_length_c 18.076720
_cell_angle_alpha 90.000000
_cell_angle_beta 90.000000
_cell_angle_gamma 90.000000
_cell_volume 4234.145630
_symmetry_space_group_name_H-M "P M M N"
_symmetry_group_IT_number 59
_space_group.IT_coordinate_system_code '2'
_symmetry_cell_setting 'orthorhombic'
loop_
_space_group_symop_operation_xyz
x,y,z
1/2-x,1/2-y,z
1/2+x,-y,-z
-x,1/2+y,-z
-x,-y,-z
1/2+x,1/2+y,-z
1/2-x,y,z
x,1/2-y,z
loop_
_atom_site_type_symbol
_atom_site_label
_atom_site_fract_x
_atom_site_fract_y
_atom_site_fract_z
Si Si1 0.451687 0.079665 0.535392
Si Si2 0.390388 0.922200 0.423204
Si Si3 0.689357 0.920214 0.675191
Si Si4 0.504224 0.578148 0.827665
Si Si5 0.509721 0.416705 0.676604
Si Si6 0.891398 0.581627 0.914186
Si Si7 0.309635 0.578936 0.174380
Si Si8 0.042890 0.420501 0.952322
O O1 0.450953 0.250000 0.511057
O O2 0.458882 0.066143 0.624129
O O3 0.500000 0.000000 0.500000
O O4 0.400740 0.998179 0.503412
O O5 0.381250 0.750000 0.435775
O O6 0.438249 0.954093 0.368549
O O7 0.338918 0.994609 0.390547
O O8 0.750000 0.940377 0.661383
O O9 0.672651 0.750000 0.675819
O O10 0.672753 0.990178 0.753195
O O11 0.492899 0.750000 0.832771
O O12 0.504176 0.530116 0.742972
O O13 0.559030 0.536875 0.864698
O O14 0.457287 0.495413 0.871233
O O15 0.512991 0.250000 0.707360
O O16 0.875768 0.750000 0.897479
O O17 0.843664 0.476023 0.894498
O O18 0.903424 0.561209 0.001981
O O19 0.250000 0.548237 0.154666
O O20 0.320044 0.750000 0.189639
O O21 0.028313 0.250000 0.944038
O O22 0.000000 0.500000 0.000000
#
# Coordination Sequence:
#
# PCOD8240266 Si02
#       8
#     8   8   8   8   8   8   8   8
#     4   9  17  29  43  60  84 112 142 175 210 249
#     4  10  19  30  45  63  83 111 145 178 214 252
#     4  10  20  32  45  61  83 112 144 178 214 250
#     4  10  19  28  41  62  85 110 141 173 206 245
#     4   9  18  29  41  60  85 113 142 171 206 246
#     4   9  18  30  43  60  81 110 144 173 206 247
#     4  10  20  31  43  61  84 110 141 177 213 246
#     4   9  17  29  43  59  81 107 137 171 206 246
#
# _framework density 15.115209
#
# number of rings (size 3 to 8) (size 9 to 14) (size 15 to 20)
#    0.000    2.500    0.000    4.500    0.000    9.500 
#    0.000    0.000    0.000    0.000    0.000    0.000 
#    0.000    1.000    0.000    5.500    0.000    4.125 
#
# Total GULP energy -793390.853003 kJ/mol
# GULP energy per Si atom -12396.732078 kJ/mol
# Density = 1.508081 g / cm^3
# Si number density = 15.115209 Si / 1000 Ang^3
#
#
#
# Elastic Constant Matrix: (Units=GPa)
#
#
# Indices 1 2 3 4 5 6 
#
# 1 49.2629 38.9911 29.7953 0.0000 0.0000 0.0000
# 2 38.9911 107.7853 44.2107 0.0000 0.0000 0.0000
# 3 29.7953 44.2107 65.2101 0.0000 0.0000 0.0000
# 4 0.0000 0.0000 0.0000 29.5278 0.0000 0.0000
# 5 0.0000 0.0000 0.0000 0.0000 25.4634 0.0000
# 6 0.0000 0.0000 0.0000 0.0000 0.0000 24.1883
#
#
#
# Elastic Compliance Matrix: (Units=1/GPa)
#
#
# Indices 1 2 3 4 5 6 
#
# 1 0.032143 -0.007762 -0.009424 0.000000 0.000000 0.000000
# 2 -0.007762 0.014726 -0.006437 0.000000 0.000000 0.000000
# 3 -0.009424 -0.006437 0.024005 0.000000 0.000000 0.000000
# 4 0.000000 0.000000 0.000000 0.033866 0.000000 0.000000
# 5 0.000000 0.000000 0.000000 0.000000 0.039272 0.000000
# 6 0.000000 0.000000 0.000000 0.000000 0.000000 0.041342
#
#
# Mechanical properties :
#
#
# Convention : Reuss Voigt Hill
#
# Bulk Modulus (GPa) = 42.32368 49.80582 46.06475
# Shear Modulus (GPa) = 20.79203 23.11999 21.95601
#
# Velocity S-wave (km/s) = 3.71289 3.91523 3.81540
# Velocity P-wave (km/s) = 6.81486 7.31171 7.06765
#
# Compressibility (1/GPa) = 0.02362744
#
# Stress axis : x y z
#
# Youngs Moduli (GPa) = 31.11135 67.90700 41.65768
#
# Poissons Ratio (x) = 0.52710 0.39257
# Poissons Ratio (y) = 0.24149 0.26816
# Poissons Ratio (z) = 0.29319 0.43713
#
# Static dielectric constant tensor:
#      x y z
#    x 2.663170 0.000000 0.000000 
#    y 0.000000 3.123630 0.000000 
#    z 0.000000 0.000000 2.588780 
# 
# 
# High freq. dielectric constant tensor:
#      x y z
#    x 1.540850 0.000000 0.000000 
#    y 0.000000 1.599710 0.000000 
#    z 0.000000 0.000000 1.565420 
# 
# From -- ./inp_files/26528.got.cif
#   From: 2010.03.12/outbox.cif.g09.slc.cpg/sg59_14_cif.got.tgz:26528.got - 2010.04.16 16:29:54.
