data_PCOD8240871
_publ_section_title
;
Structure prediction by ZEFSAII (Michael W. Deem and Ramdas Pophale) SiO2 
 PCOD8240871
Probable space group: P M M N
;
_chemical_formula_sum "Si O2"
_cell_formula_units_Z 64
_cell_length_a 14.082682
_cell_length_b 17.341099
_cell_length_c 15.469222
_cell_angle_alpha 90.000000
_cell_angle_beta 90.000000
_cell_angle_gamma 90.000000
_cell_volume 3777.726062
_symmetry_space_group_name_H-M "P M M N"
_symmetry_group_IT_number 59
_space_group.IT_coordinate_system_code '2'
_symmetry_cell_setting 'orthorhombic'
loop_
_space_group_symop_operation_xyz
x,y,z
1/2-x,1/2-y,z
1/2+x,-y,-z
-x,1/2+y,-z
-x,-y,-z
1/2+x,1/2+y,-z
1/2-x,y,z
x,1/2-y,z
loop_
_atom_site_type_symbol
_atom_site_label
_atom_site_fract_x
_atom_site_fract_y
_atom_site_fract_z
Si Si1 0.641050 0.913383 0.721636
Si Si2 0.359381 0.839296 0.141304
Si Si3 0.461238 0.840225 0.660068
Si Si4 0.974548 0.088698 0.009934
Si Si5 0.856572 0.838158 0.904262
Si Si6 0.639090 0.159734 0.510214
Si Si7 0.361564 0.912469 0.315279
Si Si8 0.861864 0.340200 0.164902
O O1 0.750000 0.898720 0.693153
O O2 0.572540 0.861504 0.662648
O O3 0.626285 0.892174 0.821632
O O4 0.608414 0.000962 0.707807
O O5 0.250000 0.865883 0.130147
O O6 0.370630 0.750000 0.119740
O O7 0.395707 0.856475 0.238238
O O8 0.423980 0.887548 0.077611
O O9 0.447847 0.750000 0.655427
O O10 0.414201 0.874965 0.573608
O O11 0.406860 0.870274 0.745390
O O12 0.905089 0.106839 0.089827
O O13 0.072028 0.136659 0.020473
O O14 0.000000 0.000000 0.000000
O O15 0.750000 0.848102 0.940110
O O16 0.875923 0.750000 0.875983
O O17 0.750000 0.143187 0.497088
O O18 0.619756 0.250000 0.523674
O O19 0.595241 0.115597 0.593536
O O20 0.250000 0.904902 0.324530
O O21 0.750000 0.353491 0.168296
O O22 0.885965 0.250000 0.147490
#
# Coordination Sequence:
#
# PCOD8240871 Si02
#       8
#     8   8   8   8   8   8   8   8
#     4  10  19  31  49  73 103 134 166 206 253 301
#     4  10  20  34  53  76 101 132 170 211 254 302
#     4  10  19  31  51  77 103 134 171 206 248 306
#     4  12  23  33  50  74 103 136 166 208 254 308
#     4  10  20  35  53  71  96 133 175 215 250 293
#     4   9  17  31  51  75 102 132 166 205 250 302
#     4   9  18  32  50  73 103 134 166 206 254 301
#     4  10  20  35  54  76 104 135 167 208 259 311
#
# _framework density 16.941409
#
# number of rings (size 3 to 8) (size 9 to 14) (size 15 to 20)
#    0.000    2.000    1.250    3.375    0.000    7.250 
#    0.000    0.000    0.000    0.000    0.000    0.875 
#    0.000    2.000    0.000    0.000    0.000    0.000 
#
# Total GULP energy -793584.932374 kJ/mol
# GULP energy per Si atom -12399.764568 kJ/mol
# Density = 1.690285 g / cm^3
# Si number density = 16.941409 Si / 1000 Ang^3
#
#
#
# Elastic Constant Matrix: (Units=GPa)
#
#
# Indices 1 2 3 4 5 6 
#
# 1 89.3465 27.7251 45.7888 0.0000 0.0000 0.0000
# 2 27.7251 52.2641 37.8544 0.0000 0.0000 0.0000
# 3 45.7888 37.8544 114.5732 0.0000 0.0000 0.0000
# 4 0.0000 0.0000 0.0000 22.1347 0.0000 0.0000
# 5 0.0000 0.0000 0.0000 0.0000 18.8668 0.0000
# 6 0.0000 0.0000 0.0000 0.0000 0.0000 23.3762
#
#
#
# Elastic Compliance Matrix: (Units=1/GPa)
#
#
# Indices 1 2 3 4 5 6 
#
# 1 0.014913 -0.004725 -0.004399 0.000000 0.000000 0.000000
# 2 -0.004725 0.026650 -0.006917 0.000000 0.000000 0.000000
# 3 -0.004399 -0.006917 0.012771 0.000000 0.000000 0.000000
# 4 0.000000 0.000000 0.000000 0.045178 0.000000 0.000000
# 5 0.000000 0.000000 0.000000 0.000000 0.053003 0.000000
# 6 0.000000 0.000000 0.000000 0.000000 0.000000 0.042779
#
#
# Mechanical properties :
#
#
# Convention : Reuss Voigt Hill
#
# Bulk Modulus (GPa) = 44.93762 53.21340 49.07551
# Shear Modulus (GPa) = 21.29544 22.52990 21.91267
#
# Velocity S-wave (km/s) = 3.54927 3.65070 3.60034
# Velocity P-wave (km/s) = 6.58630 7.01773 6.80544
#
# Compressibility (1/GPa) = 0.02225307
#
# Stress axis : x y z
#
# Youngs Moduli (GPa) = 67.05596 37.52378 78.30109
#
# Poissons Ratio (x) = 0.17730 0.34443
# Poissons Ratio (y) = 0.31684 0.54158
# Poissons Ratio (z) = 0.29496 0.25954
#
# Static dielectric constant tensor:
#      x y z
#    x 3.203030 0.000000 0.000000 
#    y 0.000000 3.154890 0.000000 
#    z 0.000000 0.000000 3.358820 
# 
# 
# High freq. dielectric constant tensor:
#      x y z
#    x 1.644620 0.000000 0.000000 
#    y 0.000000 1.646040 0.000000 
#    z 0.000000 0.000000 1.651310 
# 
# From -- ./inp_files/23451.got.cif
#   From: 2010.03.12/outbox.cif.g09.slc.cpg/sg59_12_cif.got.tgz:23451.got - 2010.04.16 16:29:54.
