data_PCOD8240927
_publ_section_title
;
Structure prediction by ZEFSAII (Michael W. Deem and Ramdas Pophale) SiO2 
 PCOD8240927
Probable space group: P M M N
;
_chemical_formula_sum "Si O2"
_cell_formula_units_Z 64
_cell_length_a 15.954622
_cell_length_b 9.181990
_cell_length_c 22.472960
_cell_angle_alpha 90.000000
_cell_angle_beta 90.000000
_cell_angle_gamma 90.000000
_cell_volume 3292.180313
_symmetry_space_group_name_H-M "P M M N"
_symmetry_group_IT_number 59
_space_group.IT_coordinate_system_code '2'
_symmetry_cell_setting 'orthorhombic'
loop_
_space_group_symop_operation_xyz
x,y,z
1/2-x,1/2-y,z
1/2+x,-y,-z
-x,1/2+y,-z
-x,-y,-z
1/2+x,1/2+y,-z
1/2-x,y,z
x,1/2-y,z
loop_
_atom_site_type_symbol
_atom_site_label
_atom_site_fract_x
_atom_site_fract_y
_atom_site_fract_z
Si Si1 0.343696 0.084130 0.009883
Si Si2 0.505007 0.923273 0.562884
Si Si3 0.846194 0.910769 0.243151
Si Si4 0.423564 0.910543 0.113732
Si Si5 0.842493 0.077203 0.768491
Si Si6 0.848837 0.421997 0.635590
Si Si7 0.618577 0.910698 0.116609
Si Si8 0.346454 0.919850 0.642971
O O1 0.250000 0.075577 0.034422
O O2 0.376076 0.250000 0.004587
O O3 0.400731 0.004590 0.056985
O O4 0.348344 0.010971 0.943653
O O5 0.516057 0.750000 0.556683
O O6 0.415458 0.961541 0.593540
O O7 0.500000 0.000000 0.500000
O O8 0.587682 0.986551 0.595060
O O9 0.750000 0.890684 0.257309
O O10 0.890405 0.750000 0.242707
O O11 0.858100 0.990723 0.178769
O O12 0.882184 0.006756 0.296722
O O13 0.381603 0.750000 0.108117
O O14 0.398590 0.984038 0.177079
O O15 0.520966 0.896152 0.111919
O O16 0.750000 0.015689 0.780259
O O17 0.842827 0.250000 0.768772
O O18 0.872467 0.028370 0.703001
O O19 0.750000 0.457170 0.622238
O O20 0.864132 0.250000 0.625624
O O21 0.660784 0.750000 0.120004
O O22 0.250000 0.968212 0.625415
O O23 0.346248 0.750000 0.655474
#
# Coordination Sequence:
#
# PCOD8240927 Si02
#       8
#     8   8   8   8   8   8   8   8
#     4  10  20  34  49  65  95 138 176 214 266 324
#     4  11  24  40  60  88 119 154 194 236 281 333
#     4   9  17  31  54  82 106 133 176 224 267 320
#     4  10  19  31  50  75 100 130 173 223 267 313
#     4   8  15  29  50  76 103 134 174 218 266 322
#     4   9  19  37  61  87 117 154 192 233 286 344
#     4   9  18  31  49  74 102 134 170 214 269 323
#     4   9  20  39  59  81 115 154 187 225 280 338
#
# _framework density 19.440004999999999
#
# number of rings (size 3 to 8) (size 9 to 14) (size 15 to 20)
#    0.000    2.625    0.000    2.250    1.750    4.000 
#    0.000    3.125    0.000    2.250    0.000    0.000 
#    0.000    0.000    0.000    0.000    0.000    0.000 
#
# Total GULP energy -792847.997111 kJ/mol
# GULP energy per Si atom -12388.249955 kJ/mol
# Density = 1.939576 g / cm^3
# Si number density = 19.440005 Si / 1000 Ang^3
#
#
#
# Elastic Constant Matrix: (Units=GPa)
#
#
# Indices 1 2 3 4 5 6 
#
# 1 88.1531 33.8634 58.0299 0.0000 0.0000 0.0000
# 2 33.8634 51.2031 52.5767 0.0000 0.0000 0.0000
# 3 58.0299 52.5767 168.9128 0.0000 0.0000 0.0000
# 4 0.0000 0.0000 0.0000 26.8593 0.0000 0.0000
# 5 0.0000 0.0000 0.0000 0.0000 38.9618 0.0000
# 6 0.0000 0.0000 0.0000 0.0000 0.0000 28.4482
#
#
#
# Elastic Compliance Matrix: (Units=1/GPa)
#
#
# Indices 1 2 3 4 5 6 
#
# 1 0.016380 -0.007429 -0.003315 0.000000 0.000000 0.000000
# 2 -0.007429 0.032074 -0.007431 0.000000 0.000000 0.000000
# 3 -0.003315 -0.007431 0.009372 0.000000 0.000000 0.000000
# 4 0.000000 0.000000 0.000000 0.037231 0.000000 0.000000
# 5 0.000000 0.000000 0.000000 0.000000 0.025666 0.000000
# 6 0.000000 0.000000 0.000000 0.000000 0.000000 0.035152
#
#
# Mechanical properties :
#
#
# Convention : Reuss Voigt Hill
#
# Bulk Modulus (GPa) = 46.56474 66.35657 56.46065
# Shear Modulus (GPa) = 25.07728 29.77380 27.42554
#
# Velocity S-wave (km/s) = 3.59553 3.91778 3.76011
# Velocity P-wave (km/s) = 6.42201 7.39415 6.92516
#
# Compressibility (1/GPa) = 0.02147548
#
# Stress axis : x y z
#
# Youngs Moduli (GPa) = 61.05052 31.17800 106.69953
#
# Poissons Ratio (x) = 0.23163 0.35370
# Poissons Ratio (y) = 0.45355 0.79291
# Poissons Ratio (z) = 0.20237 0.23169
#
# Static dielectric constant tensor:
#      x y z
#    x 3.604380 0.000000 0.000000 
#    y 0.000000 3.836570 0.000000 
#    z 0.000000 0.000000 3.789120 
# 
# 
# High freq. dielectric constant tensor:
#      x y z
#    x 1.761740 0.000000 0.000000 
#    y 0.000000 1.711650 0.000000 
#    z 0.000000 0.000000 1.770800 
# 
# From -- ./inp_files/30641.got.cif
#   From: 2010.03.12/outbox.cif.g09.slc.cpg/sg59_16_cif.got.tgz:30641.got - 2010.04.16 16:29:54.
