data_PCOD8240788
_publ_section_title
;
Structure prediction by ZEFSAII (Michael W. Deem and Ramdas Pophale) SiO2 
 PCOD8240788
Probable space group: P M M N
;
_chemical_formula_sum "Si O2"
_cell_formula_units_Z 64
_cell_length_a 25.366209
_cell_length_b 9.257970
_cell_length_c 15.355906
_cell_angle_alpha 90.000000
_cell_angle_beta 90.000000
_cell_angle_gamma 90.000000
_cell_volume 3606.174852
_symmetry_space_group_name_H-M "P M M N"
_symmetry_group_IT_number 59
_space_group.IT_coordinate_system_code '2'
_symmetry_cell_setting 'orthorhombic'
loop_
_space_group_symop_operation_xyz
x,y,z
1/2-x,1/2-y,z
1/2+x,-y,-z
-x,1/2+y,-z
-x,-y,-z
1/2+x,1/2+y,-z
1/2-x,y,z
x,1/2-y,z
loop_
_atom_site_type_symbol
_atom_site_label
_atom_site_fract_x
_atom_site_fract_y
_atom_site_fract_z
Si Si1 0.690900 0.593536 0.477992
Si Si2 0.845063 0.921617 0.292458
Si Si3 0.418216 0.583860 0.970866
Si Si4 0.309848 0.916918 0.874129
Si Si5 0.561830 0.079184 0.372644
Si Si6 0.026098 0.082422 0.122089
Si Si7 0.889835 0.410869 0.553305
Si Si8 0.468014 0.916006 0.297645
O O1 0.750000 0.602609 0.508789
O O2 0.663491 0.750000 0.478268
O O3 0.687173 0.534154 0.379300
O O4 0.663632 0.500204 0.552351
O O5 0.851857 0.750000 0.280221
O O6 0.813479 0.983697 0.210710
O O7 0.901167 0.000650 0.301473
O O8 0.418653 0.750000 0.003950
O O9 0.358947 0.541836 0.938263
O O10 0.463494 0.564560 0.897072
O O11 0.435162 0.475119 0.046910
O O12 0.250000 0.940948 0.913976
O O13 0.316682 0.750000 0.847234
O O14 0.562421 0.250000 0.355277
O O15 0.574333 0.035028 0.472199
O O16 0.504978 0.014640 0.356160
O O17 0.039507 0.250000 0.138820
O O18 0.040778 0.985833 0.204373
O O19 0.873487 0.250000 0.530398
O O20 0.913861 0.422210 0.648854
O O21 0.487768 0.750000 0.288898
#
# Coordination Sequence:
#
# PCOD8240788 Si02
#       8
#     8   8   8   8   8   8   8   8
#     4   9  18  32  49  69  95 129 169 212 254 293
#     4  10  19  31  48  72 103 137 172 207 245 291
#     4   9  19  36  54  74 102 131 163 205 250 299
#     4  10  20  33  51  76 106 139 171 204 247 301
#     4  10  19  32  49  71 102 137 172 207 243 287
#     4  10  20  34  55  79 100 128 166 208 253 300
#     4   9  20  34  48  70  99 132 169 207 246 292
#     4  11  21  33  50  74 103 132 164 202 248 298
#
# _framework density 17.747337000000002
#
# number of rings (size 3 to 8) (size 9 to 14) (size 15 to 20)
#    0.000    2.250    0.000    3.000    0.000    5.000 
#    0.000    0.000    0.000    0.750    0.000    1.750 
#    0.000    0.000    0.000    0.000    0.000    0.000 
#
# Total GULP energy -793146.411112 kJ/mol
# GULP energy per Si atom -12392.912674 kJ/mol
# Density = 1.770694 g / cm^3
# Si number density = 17.747337 Si / 1000 Ang^3
#
#
#
# Elastic Constant Matrix: (Units=GPa)
#
#
# Indices 1 2 3 4 5 6 
#
# 1 97.0562 46.9458 39.4632 0.0000 0.0000 0.0000
# 2 46.9458 93.8436 44.7620 0.0000 0.0000 0.0000
# 3 39.4632 44.7620 76.0986 0.0000 0.0000 0.0000
# 4 0.0000 0.0000 0.0000 29.4927 0.0000 0.0000
# 5 0.0000 0.0000 0.0000 0.0000 21.1250 0.0000
# 6 0.0000 0.0000 0.0000 0.0000 0.0000 26.1520
#
#
#
# Elastic Compliance Matrix: (Units=1/GPa)
#
#
# Indices 1 2 3 4 5 6 
#
# 1 0.014652 -0.005151 -0.004569 0.000000 0.000000 0.000000
# 2 -0.005151 0.016622 -0.007106 0.000000 0.000000 0.000000
# 3 -0.004569 -0.007106 0.019690 0.000000 0.000000 0.000000
# 4 0.000000 0.000000 0.000000 0.033907 0.000000 0.000000
# 5 0.000000 0.000000 0.000000 0.000000 0.047337 0.000000
# 6 0.000000 0.000000 0.000000 0.000000 0.000000 0.038238
#
#
# Mechanical properties :
#
#
# Convention : Reuss Voigt Hill
#
# Bulk Modulus (GPa) = 57.75935 58.81560 58.28748
# Shear Modulus (GPa) = 23.82432 24.40908 24.11670
#
# Velocity S-wave (km/s) = 3.66788 3.71262 3.69031
# Velocity P-wave (km/s) = 7.11012 7.18265 7.14648
#
# Compressibility (1/GPa) = 0.01731321
#
# Stress axis : x y z
#
# Youngs Moduli (GPa) = 68.24848 60.16002 50.78684
#
# Poissons Ratio (x) = 0.30987 0.23203
# Poissons Ratio (y) = 0.35153 0.36091
# Poissons Ratio (z) = 0.31181 0.42752
#
# Static dielectric constant tensor:
#      x y z
#    x 3.329310 0.000000 0.000000 
#    y 0.000000 3.490340 0.000000 
#    z 0.000000 0.000000 3.093310 
# 
# 
# High freq. dielectric constant tensor:
#      x y z
#    x 1.675720 0.000000 0.000000 
#    y 0.000000 1.699320 0.000000 
#    z 0.000000 0.000000 1.662640 
# 
# From -- ./inp_files/24731.got.cif
#   From: 2010.03.12/outbox.cif.g09.slc.cpg/sg59_13_cif.got.tgz:24731.got - 2010.04.16 16:29:54.
