data_PCOD8240712
_publ_section_title
;
Structure prediction by ZEFSAII (Michael W. Deem and Ramdas Pophale) SiO2 
 PCOD8240712
Probable space group: P M M N
;
_chemical_formula_sum "Si O2"
_cell_formula_units_Z 64
_cell_length_a 9.111868
_cell_length_b 22.304201
_cell_length_c 17.380602
_cell_angle_alpha 90.000000
_cell_angle_beta 90.000000
_cell_angle_gamma 90.000000
_cell_volume 3532.310763
_symmetry_space_group_name_H-M "P M M N"
_symmetry_group_IT_number 59
_space_group.IT_coordinate_system_code '2'
_symmetry_cell_setting 'orthorhombic'
loop_
_space_group_symop_operation_xyz
x,y,z
1/2-x,1/2-y,z
1/2+x,-y,-z
-x,1/2+y,-z
-x,-y,-z
1/2+x,1/2+y,-z
1/2-x,y,z
x,1/2-y,z
loop_
_atom_site_type_symbol
_atom_site_label
_atom_site_fract_x
_atom_site_fract_y
_atom_site_fract_z
Si Si1 0.426556 0.893713 0.925084
Si Si2 0.912464 0.410754 0.302407
Si Si3 0.528726 0.999656 0.175022
Si Si4 0.909803 0.611240 0.079082
Si Si5 0.422616 0.487769 0.420035
Si Si6 0.421969 0.319785 0.195710
Si Si7 0.091138 0.582130 0.293406
Si Si8 0.577906 0.815903 0.222580
O O1 0.250000 0.899327 0.914421
O O2 0.489823 0.834555 0.883317
O O3 0.515663 0.949680 0.887121
O O4 0.465149 0.893724 0.014870
O O5 0.750000 0.387368 0.325848
O O6 0.883922 0.465172 0.242080
O O7 0.999826 0.431695 0.378136
O O8 0.007728 0.357590 0.265109
O O9 0.617334 0.949633 0.127702
O O10 0.400790 0.964017 0.220340
O O11 0.750000 0.627058 0.042806
O O12 0.963543 0.663611 0.136232
O O13 0.500000 0.500000 0.500000
O O14 0.250000 0.473908 0.430156
O O15 0.450178 0.547345 0.370552
O O16 0.250000 0.335994 0.187017
O O17 0.443592 0.250000 0.213918
O O18 0.250000 0.611712 0.300389
O O19 0.979234 0.636701 0.284725
O O20 0.750000 0.814041 0.233071
O O21 0.509542 0.750000 0.236566
#
# Coordination Sequence:
#
# PCOD8240712 Si02
#       8
#     8   8   8   8   8   8   8   8
#     4  11  22  33  47  70  98 128 167 214 264 312
#     4  10  19  33  55  81 107 134 167 206 250 301
#     4   9  18  31  48  70  98 129 164 205 253 308
#     4  10  19  31  47  67  96 131 166 208 258 309
#     4  10  20  34  54  83 116 143 167 198 242 294
#     4  10  21  37  55  73  96 131 174 215 255 301
#     4   9  19  33  52  78 103 130 166 206 245 291
#     4   9  19  35  53  72  96 130 171 211 252 300
#
# _framework density 18.118451
#
# number of rings (size 3 to 8) (size 9 to 14) (size 15 to 20)
#    0.000    2.250    0.000    3.750    0.000   11.250 
#    0.000    1.250    0.000    0.750    0.000    3.500 
#    0.000    0.000    0.000    0.000    0.000    0.000 
#
# Total GULP energy -792933.212024 kJ/mol
# GULP energy per Si atom -12389.581438 kJ/mol
# Density = 1.807721 g / cm^3
# Si number density = 18.118451 Si / 1000 Ang^3
#
#
#
# Elastic Constant Matrix: (Units=GPa)
#
#
# Indices 1 2 3 4 5 6 
#
# 1 94.2351 49.3935 57.6572 0.0000 0.0000 0.0000
# 2 49.3935 107.0551 44.7985 0.0000 0.0000 0.0000
# 3 57.6572 44.7985 108.6858 0.0000 0.0000 0.0000
# 4 0.0000 0.0000 0.0000 16.9101 0.0000 0.0000
# 5 0.0000 0.0000 0.0000 0.0000 24.8025 0.0000
# 6 0.0000 0.0000 0.0000 0.0000 0.0000 20.9720
#
#
#
# Elastic Compliance Matrix: (Units=1/GPa)
#
#
# Indices 1 2 3 4 5 6 
#
# 1 0.017783 -0.005144 -0.007313 0.000000 0.000000 0.000000
# 2 -0.005144 0.012776 -0.002537 0.000000 0.000000 0.000000
# 3 -0.007313 -0.002537 0.014126 0.000000 0.000000 0.000000
# 4 0.000000 0.000000 0.000000 0.059136 0.000000 0.000000
# 5 0.000000 0.000000 0.000000 0.000000 0.040318 0.000000
# 6 0.000000 0.000000 0.000000 0.000000 0.000000 0.047683
#
#
# Mechanical properties :
#
#
# Convention : Reuss Voigt Hill
#
# Bulk Modulus (GPa) = 68.04667 68.18605 68.11636
# Shear Modulus (GPa) = 22.05456 23.07871 22.56663
#
# Velocity S-wave (km/s) = 3.49269 3.57286 3.53300
# Velocity P-wave (km/s) = 7.34188 7.39835 7.37017
#
# Compressibility (1/GPa) = 0.01469580
#
# Stress axis : x y z
#
# Youngs Moduli (GPa) = 56.23431 78.27069 70.79048
#
# Poissons Ratio (x) = 0.40265 0.51771
# Poissons Ratio (y) = 0.28929 0.17960
# Poissons Ratio (z) = 0.41125 0.19858
#
# Static dielectric constant tensor:
#      x y z
#    x 3.288950 0.000000 0.000000 
#    y 0.000000 3.420790 0.000000 
#    z 0.000000 0.000000 3.189900 
# 
# 
# High freq. dielectric constant tensor:
#      x y z
#    x 1.703450 0.000000 0.000000 
#    y 0.000000 1.691700 0.000000 
#    z 0.000000 0.000000 1.682870 
# 
# From -- ./inp_files/26533.got.cif
#   From: 2010.03.12/outbox.cif.g09.slc.cpg/sg59_14_cif.got.tgz:26533.got - 2010.04.16 16:29:54.
