data_PCOD8240512
_publ_section_title
;
Structure prediction by ZEFSAII (Michael W. Deem and Ramdas Pophale) SiO2 
 PCOD8240512
Probable space group: P M M N
;
_chemical_formula_sum "Si O2"
_cell_formula_units_Z 64
_cell_length_a 9.227973
_cell_length_b 17.975331
_cell_length_c 22.608176
_cell_angle_alpha 90.000000
_cell_angle_beta 90.000000
_cell_angle_gamma 90.000000
_cell_volume 3750.150844
_symmetry_space_group_name_H-M "P M M N"
_symmetry_group_IT_number 59
_space_group.IT_coordinate_system_code '2'
_symmetry_cell_setting 'orthorhombic'
loop_
_space_group_symop_operation_xyz
x,y,z
1/2-x,1/2-y,z
1/2+x,-y,-z
-x,1/2+y,-z
-x,-y,-z
1/2+x,1/2+y,-z
1/2-x,y,z
x,1/2-y,z
loop_
_atom_site_type_symbol
_atom_site_label
_atom_site_fract_x
_atom_site_fract_y
_atom_site_fract_z
Si Si1 0.409395 0.108896 0.484077
Si Si2 0.089239 0.546935 0.419711
Si Si3 0.081821 0.019105 0.814902
Si Si4 0.087373 0.609252 0.018528
Si Si5 0.079456 0.973175 0.682860
Si Si6 0.912851 0.951540 0.917891
Si Si7 0.915869 0.832015 0.123277
Si Si8 0.919476 0.666311 0.638412
O O1 0.250000 0.135026 0.505200
O O2 0.516382 0.111978 0.540446
O O3 0.466017 0.161215 0.430728
O O4 0.399214 0.025895 0.459294
O O5 0.250000 0.573059 0.400250
O O6 0.991819 0.531198 0.362403
O O7 0.250000 0.004291 0.828174
O O8 0.038878 0.104799 0.829438
O O9 0.043008 0.004158 0.747324
O O10 0.990859 0.962283 0.854994
O O11 0.250000 0.637516 0.006205
O O12 0.000489 0.608850 0.956584
O O13 0.089390 0.527974 0.046624
O O14 0.010548 0.664788 0.063969
O O15 0.250000 0.968782 0.670178
O O16 0.012713 0.890549 0.677460
O O17 0.750000 0.922330 0.906822
O O18 0.750000 0.844666 0.104026
O O19 0.937994 0.750000 0.151951
O O20 0.750000 0.644529 0.644028
O O21 0.948964 0.750000 0.661090
#
# Coordination Sequence:
#
# PCOD8240512 Si02
#       8
#     8   8   8   8   8   8   8   8
#     4   8  14  25  42  64  88 112 140 177 223 273
#     4   9  16  26  42  64  89 116 146 183 225 267
#     4   9  18  31  46  67  94 123 158 199 238 275
#     4   9  16  26  42  65  92 117 141 176 224 273
#     4  10  19  30  46  68  94 125 161 198 234 276
#     4   9  16  26  43  66  89 115 147 182 221 267
#     4   9  17  30  48  68  91 120 154 193 236 282
#     4   9  18  32  49  69  93 120 151 191 239 288
#
# _framework density 17.065981000000001
#
# number of rings (size 3 to 8) (size 9 to 14) (size 15 to 20)
#    0.000    3.000    0.000    2.250    0.000    7.500 
#    0.000    0.000    0.000    1.500    0.000    7.000 
#    0.000    0.000    0.000    0.000    0.000    0.000 
#
# Total GULP energy -793322.212727 kJ/mol
# GULP energy per Si atom -12395.659574 kJ/mol
# Density = 1.702714 g / cm^3
# Si number density = 17.065981 Si / 1000 Ang^3
#
#
#
# Elastic Constant Matrix: (Units=GPa)
#
#
# Indices 1 2 3 4 5 6 
#
# 1 111.4332 34.6891 68.8056 0.0000 0.0000 0.0000
# 2 34.6891 58.1852 42.2254 0.0000 0.0000 0.0000
# 3 68.8056 42.2254 112.8695 0.0000 0.0000 0.0000
# 4 0.0000 0.0000 0.0000 15.6159 0.0000 0.0000
# 5 0.0000 0.0000 0.0000 0.0000 28.6755 0.0000
# 6 0.0000 0.0000 0.0000 0.0000 0.0000 16.9194
#
#
#
# Elastic Compliance Matrix: (Units=1/GPa)
#
#
# Indices 1 2 3 4 5 6 
#
# 1 0.014793 -0.003123 -0.007850 0.000000 0.000000 0.000000
# 2 -0.003123 0.024251 -0.007169 0.000000 0.000000 0.000000
# 3 -0.007850 -0.007169 0.016327 0.000000 0.000000 0.000000
# 4 0.000000 0.000000 0.000000 0.064037 0.000000 0.000000
# 5 0.000000 0.000000 0.000000 0.000000 0.034873 0.000000
# 6 0.000000 0.000000 0.000000 0.000000 0.000000 0.059104
#
#
# Mechanical properties :
#
#
# Convention : Reuss Voigt Hill
#
# Bulk Modulus (GPa) = 52.38833 63.76981 58.07907
# Shear Modulus (GPa) = 19.52902 21.36000 20.44451
#
# Velocity S-wave (km/s) = 3.38646 3.54165 3.46492
# Velocity P-wave (km/s) = 6.78638 7.36017 7.07909
#
# Compressibility (1/GPa) = 0.01908822
#
# Stress axis : x y z
#
# Youngs Moduli (GPa) = 67.60007 41.23599 61.24926
#
# Poissons Ratio (x) = 0.12877 0.48078
# Poissons Ratio (y) = 0.21110 0.43908
# Poissons Ratio (z) = 0.53063 0.29561
#
# Static dielectric constant tensor:
#      x y z
#    x 3.436420 0.000000 0.000000 
#    y 0.000000 2.934350 0.000000 
#    z 0.000000 0.000000 3.072510 
# 
# 
# High freq. dielectric constant tensor:
#      x y z
#    x 1.669180 0.000000 0.000000 
#    y 0.000000 1.618320 0.000000 
#    z 0.000000 0.000000 1.640370 
# 
# From -- ./inp_files/29805.got.cif
#   From: 2010.03.12/outbox.cif.g09.slc.cpg/sg59_15_cif.got.tgz:29805.got - 2010.04.16 16:29:54.
