data_PCOD8240999
_publ_section_title
;
Structure prediction by ZEFSAII (Michael W. Deem and Ramdas Pophale) SiO2 
 PCOD8240999
Probable space group: P M M N
;
_chemical_formula_sum "Si O2"
_cell_formula_units_Z 40
_cell_length_a 7.717656
_cell_length_b 9.710973
_cell_length_c 29.122162
_cell_angle_alpha 90.000000
_cell_angle_beta 90.000000
_cell_angle_gamma 90.000000
_cell_volume 2182.588069
_symmetry_space_group_name_H-M "P M M N"
_symmetry_group_IT_number 59
_space_group.IT_coordinate_system_code '2'
_symmetry_cell_setting 'orthorhombic'
loop_
_space_group_symop_operation_xyz
x,y,z
1/2-x,1/2-y,z
1/2+x,-y,-z
-x,1/2+y,-z
-x,-y,-z
1/2+x,1/2+y,-z
1/2-x,y,z
x,1/2-y,z
loop_
_atom_site_type_symbol
_atom_site_label
_atom_site_fract_x
_atom_site_fract_y
_atom_site_fract_z
Si Si1 0.046899 0.600068 0.540625
Si Si2 0.550672 0.089492 0.956450
Si Si3 0.951189 0.410770 0.358209
Si Si4 0.750000 0.913480 0.212895
Si Si5 0.942581 0.092673 0.723217
Si Si6 0.250000 0.087686 0.889064
O O1 0.250000 0.615351 0.545187
O O2 0.966208 0.750000 0.529292
O O3 0.980325 0.549533 0.590561
O O4 0.000000 0.500000 0.500000
O O5 0.750000 0.062684 0.941982
O O6 0.520381 0.250000 0.968393
O O7 0.424646 0.040901 0.915331
O O8 0.500000 0.000000 0.000000
O O9 0.750000 0.446845 0.352367
O O10 0.985738 0.250000 0.348782
O O11 0.057011 0.502104 0.322615
O O12 0.750000 0.750000 0.209303
O O13 0.578815 0.965401 0.239589
O O14 0.750000 0.979045 0.161827
O O15 0.750000 0.083866 0.744792
O O16 0.989403 0.250000 0.710090
O O17 0.250000 0.250000 0.884167
#
# Coordination Sequence:
#
# PCOD8240999 Si02
#       6
#     8   8   8   4   8   4
#     4   9  19  34  50  71 100 132 167 206 250 302
#     4  10  19  31  51  78 106 139 179 219 260 309
#     4   9  18  34  54  73  97 134 174 211 255 309
#     4   9  18  34  53  75 109 141 169 217 268 307
#     4  10  20  33  53  80 104 131 170 214 260 309
#     4   9  18  32  51  77 107 141 177 215 264 313
#
# _framework density 18.326865999999999
#
# number of rings (size 3 to 8) (size 9 to 14) (size 15 to 20)
#    0.000    2.600    2.000    1.200    0.000    3.200 
#    0.000   10.000    0.000    2.400    0.000    2.800 
#    0.000    0.000    0.000    0.000    0.000    0.000 
#
# Total GULP energy -495819.837808 kJ/mol
# GULP energy per Si atom -12395.495945 kJ/mol
# Density = 1.828515 g / cm^3
# Si number density = 18.326866 Si / 1000 Ang^3
#
#
#
# Elastic Constant Matrix: (Units=GPa)
#
#
# Indices 1 2 3 4 5 6 
#
# 1 117.2856 30.5059 65.7643 0.0000 0.0000 0.0000
# 2 30.5059 50.5400 54.0469 0.0000 0.0000 0.0000
# 3 65.7643 54.0469 164.0258 0.0000 0.0000 0.0000
# 4 0.0000 0.0000 0.0000 24.0698 0.0000 0.0000
# 5 0.0000 0.0000 0.0000 0.0000 25.2755 0.0000
# 6 0.0000 0.0000 0.0000 0.0000 0.0000 20.6813
#
#
#
# Elastic Compliance Matrix: (Units=1/GPa)
#
#
# Indices 1 2 3 4 5 6 
#
# 1 0.011295 -0.003049 -0.003524 0.000000 0.000000 0.000000
# 2 -0.003049 0.031375 -0.009115 0.000000 0.000000 0.000000
# 3 -0.003524 -0.009115 0.010513 0.000000 0.000000 0.000000
# 4 0.000000 0.000000 0.000000 0.041546 0.000000 0.000000
# 5 0.000000 0.000000 0.000000 0.000000 0.039564 0.000000
# 6 0.000000 0.000000 0.000000 0.000000 0.000000 0.048353
#
#
# Mechanical properties :
#
#
# Convention : Reuss Voigt Hill
#
# Bulk Modulus (GPa) = 45.85968 70.27618 58.06793
# Shear Modulus (GPa) = 22.59457 26.10761 24.35109
#
# Velocity S-wave (km/s) = 3.51503 3.77842 3.64910
# Velocity P-wave (km/s) = 6.44604 7.58054 7.03619
#
# Compressibility (1/GPa) = 0.02180564
#
# Stress axis : x y z
#
# Youngs Moduli (GPa) = 88.53259 31.87261 95.11981
#
# Poissons Ratio (x) = 0.09719 0.33520
# Poissons Ratio (y) = 0.26997 0.86706
# Poissons Ratio (z) = 0.31198 0.29053
#
# Static dielectric constant tensor:
#      x y z
#    x 0.000000 0.000000 0.000000 
#    y 0.000000 0.000000 0.000000 
#    z 0.000000 0.000000 0.000000 
# 
# 
# High freq. dielectric constant tensor:
#      x y z
#    x 1.719580 0.000000 0.000000 
#    y 0.000000 1.682470 0.000000 
#    z 0.000000 0.000000 1.704990 
# 
# From -- ./inp_files/32428.got.cif
#   From: 2010.03.12/outbox.cif.g09.slc.cpg/sg59_17_cif.got.tgz:32428.got - 2010.04.16 16:29:54.
