data_PCOD8240331
_publ_section_title
;
Structure prediction by ZEFSAII (Michael W. Deem and Ramdas Pophale) SiO2 
 PCOD8240331
Probable space group: P M M N
;
_chemical_formula_sum "Si O2"
_cell_formula_units_Z 56
_cell_length_a 30.233421
_cell_length_b 9.108087
_cell_length_c 12.525131
_cell_angle_alpha 90.000000
_cell_angle_beta 90.000000
_cell_angle_gamma 90.000000
_cell_volume 3449.028149
_symmetry_space_group_name_H-M "P M M N"
_symmetry_group_IT_number 59
_space_group.IT_coordinate_system_code '2'
_symmetry_cell_setting 'orthorhombic'
loop_
_space_group_symop_operation_xyz
x,y,z
1/2-x,1/2-y,z
1/2+x,-y,-z
-x,1/2+y,-z
-x,-y,-z
1/2+x,1/2+y,-z
1/2-x,y,z
x,1/2-y,z
loop_
_atom_site_type_symbol
_atom_site_label
_atom_site_fract_x
_atom_site_fract_y
_atom_site_fract_z
Si Si1 0.460768 0.415546 0.633496
Si Si2 0.133888 0.577983 0.395994
Si Si3 0.126830 0.921893 0.643050
Si Si4 0.453946 0.084211 0.379901
Si Si5 0.302485 0.912992 0.038974
Si Si6 0.697676 0.918026 0.755323
Si Si7 0.200815 0.924713 0.804145
O O1 0.462853 0.250000 0.677896
O O2 0.417420 0.494904 0.679598
O O3 0.504140 0.502771 0.673153
O O4 0.459209 0.415737 0.506384
O O5 0.130534 0.750000 0.373609
O O6 0.138959 0.543632 0.521060
O O7 0.090312 0.502006 0.347246
O O8 0.176910 0.512228 0.339799
O O9 0.118581 0.750000 0.660900
O O10 0.166965 0.983313 0.715039
O O11 0.451481 0.250000 0.335631
O O12 0.250000 0.902959 0.041672
O O13 0.322327 0.750000 0.059303
O O14 0.316304 0.973621 0.921861
O O15 0.319839 0.022001 0.130696
O O16 0.750000 0.935853 0.745465
O O17 0.682719 0.750000 0.744891
O O18 0.250000 0.988703 0.780399
O O19 0.203264 0.750000 0.801381
#
# Coordination Sequence:
#
# PCOD8240331 Si02
#       7
#     8   8   8   8   8   8   8
#     4   9  16  26  41  61  86 115 147 182 218 256
#     4  10  19  29  43  65  92 120 150 181 215 261
#     4   9  17  28  43  65  92 120 149 179 215 262
#     4   9  16  27  43  61  84 114 147 183 221 258
#     4   8  14  27  47  66  82 105 143 188 226 257
#     4  10  20  32  45  62  87 118 150 185 223 260
#     4   8  14  26  45  67  89 114 146 184 221 256
#
# _framework density 16.236457000000001
#
# number of rings (size 3 to 8) (size 9 to 14) (size 15 to 20)
#    0.000    3.000    0.000    2.571    0.000    5.429 
#    0.000    2.143    0.000    1.286    0.000    1.000 
#    0.000    0.000    0.000    0.000    0.000    0.000 
#
# Total GULP energy -694235.683324 kJ/mol
# GULP energy per Si atom -12397.065774 kJ/mol
# Density = 1.619950 g / cm^3
# Si number density = 16.236457 Si / 1000 Ang^3
#
#
#
# Elastic Constant Matrix: (Units=GPa)
#
#
# Indices 1 2 3 4 5 6 
#
# 1 77.5053 45.8462 39.9418 0.0000 0.0000 0.0000
# 2 45.8462 95.9859 38.3120 0.0000 0.0000 0.0000
# 3 39.9418 38.3120 63.1027 0.0000 0.0000 0.0000
# 4 0.0000 0.0000 0.0000 14.0046 0.0000 0.0000
# 5 0.0000 0.0000 0.0000 0.0000 3.3045 0.0000
# 6 0.0000 0.0000 0.0000 0.0000 0.0000 27.8433
#
#
#
# Elastic Compliance Matrix: (Units=1/GPa)
#
#
# Indices 1 2 3 4 5 6 
#
# 1 0.021829 -0.006482 -0.009881 0.000000 0.000000 0.000000
# 2 -0.006482 0.015675 -0.005414 0.000000 0.000000 0.000000
# 3 -0.009881 -0.005414 0.025389 0.000000 0.000000 0.000000
# 4 0.000000 0.000000 0.000000 0.071405 0.000000 0.000000
# 5 0.000000 0.000000 0.000000 0.000000 0.302617 0.000000
# 6 0.000000 0.000000 0.000000 0.000000 0.000000 0.035915
#
#
# Mechanical properties :
#
#
# Convention : Reuss Voigt Hill
#
# Bulk Modulus (GPa) = 51.71215 53.86599 52.78907
# Shear Modulus (GPa) = 9.56329 16.53006 13.04667
#
# Velocity S-wave (km/s) = 2.42957 3.19420 2.83776
# Velocity P-wave (km/s) = 6.30785 6.84484 6.58182
#
# Compressibility (1/GPa) = 0.01933782
#
# Stress axis : x y z
#
# Youngs Moduli (GPa) = 45.81045 63.79466 39.38738
#
# Poissons Ratio (x) = 0.41353 0.38920
# Poissons Ratio (y) = 0.29695 0.21324
# Poissons Ratio (z) = 0.45267 0.34539
#
# Static dielectric constant tensor:
#      x y z
#    x 3.091640 0.000000 0.000000 
#    y 0.000000 3.124780 0.000000 
#    z 0.000000 0.000000 2.954650 
# 
# 
# High freq. dielectric constant tensor:
#      x y z
#    x 1.614580 0.000000 0.000000 
#    y 0.000000 1.623010 0.000000 
#    z 0.000000 0.000000 1.588040 
# 
# From -- ./inp_files/24989.got.cif
#   From: 2010.03.12/outbox.cif.g09.slc.cpg/sg59_13_cif.got.tgz:24989.got - 2010.04.16 16:29:54.
