data_PCOD8240801
_publ_section_title
;
Structure prediction by ZEFSAII (Michael W. Deem and Ramdas Pophale) SiO2 
 PCOD8240801
Probable space group: P M M N
;
_chemical_formula_sum "Si O2"
_cell_formula_units_Z 64
_cell_length_a 9.324167
_cell_length_b 20.341741
_cell_length_c 19.518340
_cell_angle_alpha 90.000000
_cell_angle_beta 90.000000
_cell_angle_gamma 90.000000
_cell_volume 3702.039452
_symmetry_space_group_name_H-M "P M M N"
_symmetry_group_IT_number 59
_space_group.IT_coordinate_system_code '2'
_symmetry_cell_setting 'orthorhombic'
loop_
_space_group_symop_operation_xyz
x,y,z
1/2-x,1/2-y,z
1/2+x,-y,-z
-x,1/2+y,-z
-x,-y,-z
1/2+x,1/2+y,-z
1/2-x,y,z
x,1/2-y,z
loop_
_atom_site_type_symbol
_atom_site_label
_atom_site_fract_x
_atom_site_fract_y
_atom_site_fract_z
Si Si1 0.082401 0.130794 0.183807
Si Si2 0.584435 0.022029 0.813423
Si Si3 0.082220 0.942598 0.038177
Si Si4 0.914037 0.521547 0.316351
Si Si5 0.585469 0.175168 0.463489
Si Si6 0.084983 0.870428 0.684817
Si Si7 0.919074 0.939050 0.466174
Si Si8 0.086807 0.676304 0.944292
O O1 0.250000 0.145517 0.186209
O O2 0.046367 0.054161 0.174725
O O3 0.012343 0.157491 0.253880
O O4 0.015774 0.169347 0.120494
O O5 0.750000 0.032013 0.797289
O O6 0.536676 0.060493 0.881973
O O7 0.502217 0.050761 0.747584
O O8 0.250000 0.958985 0.032512
O O9 0.040974 0.872927 0.004918
O O10 0.000000 0.000000 0.000000
O O11 0.750000 0.528317 0.295194
O O12 0.954753 0.445958 0.330945
O O13 0.948973 0.561911 0.384900
O O14 0.750000 0.152498 0.475979
O O15 0.561873 0.250000 0.487584
O O16 0.549990 0.170822 0.382958
O O17 0.478480 0.129545 0.505876
O O18 0.250000 0.862727 0.706898
O O19 0.750000 0.945644 0.481854
O O20 0.000000 0.000000 0.500000
O O21 0.250000 0.661560 0.921113
O O22 0.071577 0.750000 0.973524
#
# Coordination Sequence:
#
# PCOD8240801 Si02
#       8
#     8   8   8   8   8   8   8   8
#     4  10  19  31  48  74 105 135 171 213 254 298
#     4   9  18  31  49  76 104 129 164 211 260 300
#     4  10  19  33  53  76 101 130 168 211 254 299
#     4   9  18  32  51  76 104 135 171 209 255 309
#     4  10  21  37  55  77 107 142 179 219 264 314
#     4   9  17  32  50  72 105 142 178 211 250 306
#     4  11  21  35  56  81 108 138 178 221 265 313
#     4  10  21  35  51  72 100 137 174 206 250 307
#
# _framework density 17.287769000000001
#
# number of rings (size 3 to 8) (size 9 to 14) (size 15 to 20)
#    0.000    2.250    2.500    0.750    0.000    3.500 
#    0.000    1.250    0.000    0.750    0.000    1.750 
#    0.000    0.000    0.000    0.000    0.000    0.000 
#
# Total GULP energy -793684.919410 kJ/mol
# GULP energy per Si atom -12401.326866 kJ/mol
# Density = 1.724842 g / cm^3
# Si number density = 17.287769 Si / 1000 Ang^3
#
#
#
# Elastic Constant Matrix: (Units=GPa)
#
#
# Indices 1 2 3 4 5 6 
#
# 1 80.4196 45.1610 63.9060 0.0000 0.0000 0.0000
# 2 45.1610 82.4708 55.6511 0.0000 0.0000 0.0000
# 3 63.9060 55.6511 123.2157 0.0000 0.0000 0.0000
# 4 0.0000 0.0000 0.0000 21.8559 0.0000 0.0000
# 5 0.0000 0.0000 0.0000 0.0000 32.3669 0.0000
# 6 0.0000 0.0000 0.0000 0.0000 0.0000 20.9291
#
#
#
# Elastic Compliance Matrix: (Units=1/GPa)
#
#
# Indices 1 2 3 4 5 6 
#
# 1 0.023451 -0.006666 -0.009152 0.000000 0.000000 0.000000
# 2 -0.006666 0.019336 -0.005276 0.000000 0.000000 0.000000
# 3 -0.009152 -0.005276 0.015246 0.000000 0.000000 0.000000
# 4 0.000000 0.000000 0.000000 0.045754 0.000000 0.000000
# 5 0.000000 0.000000 0.000000 0.000000 0.030896 0.000000
# 6 0.000000 0.000000 0.000000 0.000000 0.000000 0.047780
#
#
# Mechanical properties :
#
#
# Convention : Reuss Voigt Hill
#
# Bulk Modulus (GPa) = 63.11356 68.39360 65.75358
# Shear Modulus (GPa) = 21.74554 23.12292 22.43423
#
# Velocity S-wave (km/s) = 3.55048 3.66119 3.60626
# Velocity P-wave (km/s) = 7.30717 7.58421 7.44698
#
# Compressibility (1/GPa) = 0.01584446
#
# Stress axis : x y z
#
# Youngs Moduli (GPa) = 42.64213 51.71723 65.59293
#
# Poissons Ratio (x) = 0.34474 0.60032
# Poissons Ratio (y) = 0.28425 0.34606
# Poissons Ratio (z) = 0.39027 0.27285
#
# Static dielectric constant tensor:
#      x y z
#    x 3.257830 0.000000 0.000000 
#    y 0.000000 3.049900 0.000000 
#    z 0.000000 0.000000 3.346460 
# 
# 
# High freq. dielectric constant tensor:
#      x y z
#    x 1.669600 0.000000 0.000000 
#    y 0.000000 1.641280 0.000000 
#    z 0.000000 0.000000 1.669330 
# 
# From -- ./inp_files/26366.got.cif
#   From: 2010.03.12/outbox.cif.g09.slc.cpg/sg59_14_cif.got.tgz:26366.got - 2010.04.16 16:29:54.
