data_PCOD8240817
_publ_section_title
;
Structure prediction by ZEFSAII (Michael W. Deem and Ramdas Pophale) SiO2 
 PCOD8240817
Probable space group: P M M N
;
_chemical_formula_sum "Si O2"
_cell_formula_units_Z 56
_cell_length_a 14.541777
_cell_length_b 9.620290
_cell_length_c 21.052045
_cell_angle_alpha 90.000000
_cell_angle_beta 90.000000
_cell_angle_gamma 90.000000
_cell_volume 2945.099242
_symmetry_space_group_name_H-M "P M M N"
_symmetry_group_IT_number 59
_space_group.IT_coordinate_system_code '2'
_symmetry_cell_setting 'orthorhombic'
loop_
_space_group_symop_operation_xyz
x,y,z
1/2-x,1/2-y,z
1/2+x,-y,-z
-x,1/2+y,-z
-x,-y,-z
1/2+x,1/2+y,-z
1/2-x,y,z
x,1/2-y,z
loop_
_atom_site_type_symbol
_atom_site_label
_atom_site_fract_x
_atom_site_fract_y
_atom_site_fract_z
Si Si1 0.522259 0.588815 0.783943
Si Si2 0.352350 0.397632 0.597001
Si Si3 0.469777 0.912906 0.091365
Si Si4 0.142551 0.089788 0.992996
Si Si5 0.147550 0.414747 0.333811
Si Si6 0.577524 0.909524 0.532205
Si Si7 0.353933 0.907466 0.702630
O O1 0.541718 0.750000 0.802531
O O2 0.542602 0.486813 0.841470
O O3 0.585527 0.539931 0.725391
O O4 0.416018 0.567680 0.764495
O O5 0.250000 0.389025 0.623758
O O6 0.403631 0.250000 0.608947
O O7 0.343911 0.424903 0.521545
O O8 0.398954 0.513920 0.641590
O O9 0.445632 0.750000 0.096814
O O10 0.575175 0.933235 0.067470
O O11 0.393908 0.984961 0.046491
O O12 0.250000 0.056293 0.976224
O O13 0.133888 0.250000 0.016429
O O14 0.250000 0.473629 0.322526
O O15 0.150228 0.250000 0.340222
O O16 0.109434 0.474732 0.400786
O O17 0.545899 0.750000 0.541315
O O18 0.500000 0.000000 0.500000
O O19 0.250000 0.950142 0.721170
O O20 0.359284 0.750000 0.679986
#
# Coordination Sequence:
#
# PCOD8240817 Si02
#       7
#     8   8   8   8   8   8   8
#     4  10  20  34  52  74 103 141 182 218 255 306
#     4   9  17  29  46  68  92 119 156 206 263 317
#     4  10  21  36  56  85 116 143 176 220 266 309
#     4   9  19  38  62  85 111 144 179 213 254 311
#     4   9  18  33  52  72  96 133 181 222 253 299
#     4  10  19  31  49  71  94 122 161 212 267 316
#     4   9  18  32  49  71 101 136 174 217 266 321
#
# _framework density 19.014638000000001
#
# number of rings (size 3 to 8) (size 9 to 14) (size 15 to 20)
#    0.000    2.571    0.000    1.714    0.000    6.000 
#    0.000    2.143    0.000    2.143    0.000    0.000 
#    0.000    0.000    0.000    0.000    0.000    0.000 
#
# Total GULP energy -693737.446537 kJ/mol
# GULP energy per Si atom -12388.168688 kJ/mol
# Density = 1.897136 g / cm^3
# Si number density = 19.014638 Si / 1000 Ang^3
#
#
#
# Elastic Constant Matrix: (Units=GPa)
#
#
# Indices 1 2 3 4 5 6 
#
# 1 100.9461 29.9237 31.7999 0.0000 0.0000 0.0000
# 2 29.9237 70.8607 46.8479 0.0000 0.0000 0.0000
# 3 31.7999 46.8479 108.8089 0.0000 0.0000 0.0000
# 4 0.0000 0.0000 0.0000 34.1817 0.0000 0.0000
# 5 0.0000 0.0000 0.0000 0.0000 19.7632 0.0000
# 6 0.0000 0.0000 0.0000 0.0000 0.0000 21.4671
#
#
#
# Elastic Compliance Matrix: (Units=1/GPa)
#
#
# Indices 1 2 3 4 5 6 
#
# 1 0.011567 -0.003704 -0.001786 0.000000 0.000000 0.000000
# 2 -0.003704 0.020914 -0.007922 0.000000 0.000000 0.000000
# 3 -0.001786 -0.007922 0.013123 0.000000 0.000000 0.000000
# 4 0.000000 0.000000 0.000000 0.029255 0.000000 0.000000
# 5 0.000000 0.000000 0.000000 0.000000 0.050599 0.000000
# 6 0.000000 0.000000 0.000000 0.000000 0.000000 0.046583
#
#
# Mechanical properties :
#
#
# Convention : Reuss Voigt Hill
#
# Bulk Modulus (GPa) = 53.24693 55.30652 54.27672
# Shear Modulus (GPa) = 24.37547 26.55203 25.46375
#
# Velocity S-wave (km/s) = 3.58429 3.74090 3.66343
# Velocity P-wave (km/s) = 6.72261 6.91437 6.81916
#
# Compressibility (1/GPa) = 0.01878042
#
# Stress axis : x y z
#
# Youngs Moduli (GPa) = 86.45453 47.81545 76.20133
#
# Poissons Ratio (x) = 0.17711 0.13607
# Poissons Ratio (y) = 0.32022 0.60366
# Poissons Ratio (z) = 0.15438 0.37879
#
# Static dielectric constant tensor:
#      x y z
#    x 3.502400 0.000000 0.000000 
#    y 0.000000 3.488130 0.000000 
#    z 0.000000 0.000000 3.677400 
# 
# 
# High freq. dielectric constant tensor:
#      x y z
#    x 1.737940 0.000000 0.000000 
#    y 0.000000 1.723420 0.000000 
#    z 0.000000 0.000000 1.732610 
# 
# From -- ./inp_files/30296.got.cif
#   From: 2010.03.12/outbox.cif.g09.slc.cpg/sg59_16_cif.got.tgz:30296.got - 2010.04.16 16:29:54.
