data_PCOD8240993
_publ_section_title
;
Structure prediction by ZEFSAII (Michael W. Deem and Ramdas Pophale) SiO2 
 PCOD8240993
Probable space group: P M M N
;
_chemical_formula_sum "Si O2"
_cell_formula_units_Z 52
_cell_length_a 13.454926
_cell_length_b 9.628772
_cell_length_c 22.018003
_cell_angle_alpha 90.000000
_cell_angle_beta 90.000000
_cell_angle_gamma 90.000000
_cell_volume 2852.529492
_symmetry_space_group_name_H-M "P M M N"
_symmetry_group_IT_number 59
_space_group.IT_coordinate_system_code '2'
_symmetry_cell_setting 'orthorhombic'
loop_
_space_group_symop_operation_xyz
x,y,z
1/2-x,1/2-y,z
1/2+x,-y,-z
-x,1/2+y,-z
-x,-y,-z
1/2+x,1/2+y,-z
1/2-x,y,z
x,1/2-y,z
loop_
_atom_site_type_symbol
_atom_site_label
_atom_site_fract_x
_atom_site_fract_y
_atom_site_fract_z
Si Si1 0.027526 0.588397 0.352705
Si Si2 0.635414 0.412210 0.770326
Si Si3 0.860721 0.750000 0.949545
Si Si4 0.634007 0.090207 0.394817
Si Si5 0.027892 0.472055 0.118676
Si Si6 0.869364 0.250000 0.083082
Si Si7 0.140934 0.914685 0.469895
Si Si8 0.526521 0.250000 0.957909
O O1 0.000753 0.750000 0.355679
O O2 0.925138 0.502797 0.345721
O O3 0.103914 0.557351 0.298635
O O4 0.073802 0.529748 0.415213
O O5 0.750000 0.459571 0.779338
O O6 0.625025 0.250000 0.786074
O O7 0.558545 0.499024 0.811844
O O8 0.750000 0.750000 0.971990
O O9 0.883096 0.884685 0.909813
O O10 0.920284 0.750000 0.011428
O O11 0.750000 0.064276 0.384495
O O12 0.606851 0.250000 0.383585
O O13 0.602102 0.043251 0.463188
O O14 0.922979 0.387240 0.112357
O O15 0.029523 0.615568 0.083303
O O16 0.750000 0.250000 0.096194
O O17 0.887840 0.250000 0.010202
O O18 0.250000 0.979463 0.460547
O O19 0.148382 0.750000 0.465969
#
# Coordination Sequence:
#
# PCOD8240993 Si02
#       8
#     8   8   4   8   8   4   8   4
#     4  10  19  31  51  78 103 129 170 221 264 307
#     4  10  20  35  57  81 106 139 177 219 270 324
#     4  10  20  34  54  82 112 142 175 216 268 319
#     4   9  18  33  51  71  99 137 174 209 259 319
#     4  10  20  37  56  80 114 144 181 222 262 316
#     4  10  22  38  58  84 114 148 183 220 269 318
#     4   8  14  27  49  75 102 131 165 208 262 321
#     4  10  20  34  58  86 112 142 176 224 267 311
#
# _framework density 18.229436
#
# number of rings (size 3 to 8) (size 9 to 14) (size 15 to 20)
#    0.000    2.615    0.769    4.154    0.000    5.231 
#    2.769    0.769    0.000    3.231    0.000    0.000 
#    0.000    0.000    0.000    0.000    0.000    0.000 
#
# Total GULP energy -644401.096857 kJ/mol
# GULP energy per Si atom -12392.328786 kJ/mol
# Density = 1.818795 g / cm^3
# Si number density = 18.229436 Si / 1000 Ang^3
#
#
#
# Elastic Constant Matrix: (Units=GPa)
#
#
# Indices 1 2 3 4 5 6 
#
# 1 119.4075 48.9533 53.7516 0.0000 0.0000 0.0000
# 2 48.9533 87.1569 41.1665 0.0000 0.0000 0.0000
# 3 53.7516 41.1665 69.2154 0.0000 0.0000 0.0000
# 4 0.0000 0.0000 0.0000 96.5009 0.0000 0.0000
# 5 0.0000 0.0000 0.0000 0.0000 18.3978 0.0000
# 6 0.0000 0.0000 0.0000 0.0000 0.0000 17.7980
#
#
#
# Elastic Compliance Matrix: (Units=1/GPa)
#
#
# Indices 1 2 3 4 5 6 
#
# 1 0.013687 -0.003709 -0.008423 0.000000 0.000000 0.000000
# 2 -0.003709 0.016961 -0.007207 0.000000 0.000000 0.000000
# 3 -0.008423 -0.007207 0.025275 0.000000 0.000000 0.000000
# 4 0.000000 0.000000 0.000000 0.010363 0.000000 0.000000
# 5 0.000000 0.000000 0.000000 0.000000 0.054354 0.000000
# 6 0.000000 0.000000 0.000000 0.000000 0.000000 0.056186
#
#
# Mechanical properties :
#
#
# Convention : Reuss Voigt Hill
#
# Bulk Modulus (GPa) = 57.98935 62.61363 60.30149
# Shear Modulus (GPa) = 22.59848 35.33323 28.96585
#
# Velocity S-wave (km/s) = 3.52471 4.40733 3.99050
# Velocity P-wave (km/s) = 6.96022 7.76670 7.37449
#
# Compressibility (1/GPa) = 0.01724455
#
# Stress axis : x y z
#
# Youngs Moduli (GPa) = 73.06220 58.95856 39.56403
#
# Poissons Ratio (x) = 0.21868 0.33325
# Poissons Ratio (y) = 0.27100 0.28515
# Poissons Ratio (z) = 0.61541 0.42493
#
# Static dielectric constant tensor:
#      x y z
#    x 3.349000 0.000000 0.000000 
#    y 0.000000 3.296340 0.000000 
#    z 0.000000 0.000000 3.334310 
# 
# 
# High freq. dielectric constant tensor:
#      x y z
#    x 1.703990 0.000000 0.000000 
#    y 0.000000 1.694980 0.000000 
#    z 0.000000 0.000000 1.698120 
# 
# From -- ./inp_files/30282.got.cif
#   From: 2010.03.12/outbox.cif.g09.slc.cpg/sg59_16_cif.got.tgz:30282.got - 2010.04.16 16:29:54.
