data_PCOD8240469
_publ_section_title
;
Structure prediction by ZEFSAII (Michael W. Deem and Ramdas Pophale) SiO2 
 PCOD8240469
Probable space group: P M M N
;
_chemical_formula_sum "Si O2"
_cell_formula_units_Z 64
_cell_length_a 9.030300
_cell_length_b 18.341326
_cell_length_c 21.419677
_cell_angle_alpha 90.000000
_cell_angle_beta 90.000000
_cell_angle_gamma 90.000000
_cell_volume 3547.691326
_symmetry_space_group_name_H-M "P M M N"
_symmetry_group_IT_number 59
_space_group.IT_coordinate_system_code '2'
_symmetry_cell_setting 'orthorhombic'
loop_
_space_group_symop_operation_xyz
x,y,z
1/2-x,1/2-y,z
1/2+x,-y,-z
-x,1/2+y,-z
-x,-y,-z
1/2+x,1/2+y,-z
1/2-x,y,z
x,1/2-y,z
loop_
_atom_site_type_symbol
_atom_site_label
_atom_site_fract_x
_atom_site_fract_y
_atom_site_fract_z
Si Si1 0.578810 0.664088 0.636664
Si Si2 0.922308 0.668032 0.868216
Si Si3 0.422571 0.960777 0.191034
Si Si4 0.576046 0.833856 0.255016
Si Si5 0.926034 0.401291 0.245501
Si Si6 0.585933 0.836606 0.394328
Si Si7 0.084868 0.836659 0.512901
Si Si8 0.080144 0.471199 0.060371
O O1 0.750000 0.641972 0.643372
O O2 0.556573 0.750000 0.645668
O O3 0.480423 0.622664 0.686915
O O4 0.521004 0.638230 0.569090
O O5 0.750000 0.653855 0.851721
O O6 0.948912 0.750000 0.893052
O O7 0.974134 0.610586 0.921103
O O8 0.014174 0.656289 0.805185
O O9 0.250000 0.967913 0.207280
O O10 0.481983 0.880466 0.205975
O O11 0.512727 0.018350 0.232235
O O12 0.451255 0.974816 0.117917
O O13 0.750000 0.846789 0.244874
O O14 0.534710 0.750000 0.242938
O O15 0.529519 0.858103 0.325197
O O16 0.750000 0.402246 0.243707
O O17 0.750000 0.868846 0.405657
O O18 0.594592 0.750000 0.398552
O O19 0.477938 0.868481 0.447537
O O20 0.250000 0.867839 0.523027
O O21 0.088857 0.750000 0.509390
O O22 0.250000 0.468793 0.042203
O O23 0.000000 0.500000 0.000000
#
# Coordination Sequence:
#
# PCOD8240469 Si02
#       8
#     8   8   8   8   8   8   8   8
#     4  10  19  30  45  66  96 134 171 208 254 304
#     4   9  18  34  54  76 104 136 172 213 255 301
#     4  10  21  37  55  76 103 134 168 203 246 302
#     4   9  18  33  54  80 106 131 165 210 255 299
#     4  11  21  32  49  73 101 132 168 210 254 301
#     4   8  14  26  44  66  94 127 161 200 249 301
#     4   9  16  25  39  63  94 126 165 211 252 294
#     4   9  19  35  55  78 104 137 173 208 249 299
#
# _framework density 18.039901
#
# number of rings (size 3 to 8) (size 9 to 14) (size 15 to 20)
#    0.000    2.625    0.000    4.125    0.000    7.250 
#    0.000    1.875    0.000    3.000    0.000    0.000 
#    0.000    0.000    0.000    0.000    0.000    0.000 
#
# Total GULP energy -793507.682350 kJ/mol
# GULP energy per Si atom -12398.557537 kJ/mol
# Density = 1.799884 g / cm^3
# Si number density = 18.039901 Si / 1000 Ang^3
#
#
#
# Elastic Constant Matrix: (Units=GPa)
#
#
# Indices 1 2 3 4 5 6 
#
# 1 106.4467 43.9286 56.3693 0.0000 0.0000 0.0000
# 2 43.9286 78.4854 55.2520 0.0000 0.0000 0.0000
# 3 56.3693 55.2520 111.8432 0.0000 0.0000 0.0000
# 4 0.0000 0.0000 0.0000 20.6278 0.0000 0.0000
# 5 0.0000 0.0000 0.0000 0.0000 35.5088 0.0000
# 6 0.0000 0.0000 0.0000 0.0000 0.0000 25.2458
#
#
#
# Elastic Compliance Matrix: (Units=1/GPa)
#
#
# Indices 1 2 3 4 5 6 
#
# 1 0.013702 -0.004304 -0.004779 0.000000 0.000000 0.000000
# 2 -0.004304 0.020887 -0.008149 0.000000 0.000000 0.000000
# 3 -0.004779 -0.008149 0.015376 0.000000 0.000000 0.000000
# 4 0.000000 0.000000 0.000000 0.048478 0.000000 0.000000
# 5 0.000000 0.000000 0.000000 0.000000 0.028162 0.000000
# 6 0.000000 0.000000 0.000000 0.000000 0.000000 0.039611
#
#
# Mechanical properties :
#
#
# Convention : Reuss Voigt Hill
#
# Bulk Modulus (GPa) = 64.52054 67.54168 66.03111
# Shear Modulus (GPa) = 24.28988 25.69151 24.99070
#
# Velocity S-wave (km/s) = 3.67339 3.77788 3.72600
# Velocity P-wave (km/s) = 7.33722 7.52006 7.42920
#
# Compressibility (1/GPa) = 0.01549894
#
# Stress axis : x y z
#
# Youngs Moduli (GPa) = 72.98442 47.87616 65.03808
#
# Poissons Ratio (x) = 0.20608 0.31083
# Poissons Ratio (y) = 0.31415 0.53001
# Poissons Ratio (z) = 0.34881 0.39015
#
# Static dielectric constant tensor:
#      x y z
#    x 3.411510 0.000000 0.000000 
#    y 0.000000 3.148740 0.000000 
#    z 0.000000 0.000000 3.319380 
# 
# 
# High freq. dielectric constant tensor:
#      x y z
#    x 1.703220 0.000000 0.000000 
#    y 0.000000 1.670410 0.000000 
#    z 0.000000 0.000000 1.694120 
# 
# From -- ./inp_files/29360.got.cif
#   From: 2010.03.12/outbox.cif.g09.slc.cpg/sg59_15_cif.got.tgz:29360.got - 2010.04.16 16:29:54.
