data_PCOD8240958
_publ_section_title
;
Structure prediction by ZEFSAII (Michael W. Deem and Ramdas Pophale) SiO2 
 PCOD8240958
Probable space group: P M M N
;
_chemical_formula_sum "Si O2"
_cell_formula_units_Z 48
_cell_length_a 31.200002
_cell_length_b 9.156233
_cell_length_c 9.062620
_cell_angle_alpha 90.000000
_cell_angle_beta 90.000000
_cell_angle_gamma 90.000000
_cell_volume 2588.959328
_symmetry_space_group_name_H-M "P M M N"
_symmetry_group_IT_number 59
_space_group.IT_coordinate_system_code '2'
_symmetry_cell_setting 'orthorhombic'
loop_
_space_group_symop_operation_xyz
x,y,z
1/2-x,1/2-y,z
1/2+x,-y,-z
-x,1/2+y,-z
-x,-y,-z
1/2+x,1/2+y,-z
1/2-x,y,z
x,1/2-y,z
loop_
_atom_site_type_symbol
_atom_site_label
_atom_site_fract_x
_atom_site_fract_y
_atom_site_fract_z
Si Si1 0.093406 0.421535 0.836845
Si Si2 0.333346 0.919035 0.668242
Si Si3 0.907997 0.080750 0.852202
Si Si4 0.999310 0.582882 0.150036
Si Si5 0.325689 0.579898 0.329613
Si Si6 0.250000 0.076470 0.164642
Si Si7 0.750000 0.419190 0.142515
O O1 0.101953 0.250000 0.849003
O O2 0.126792 0.488337 0.723771
O O3 0.045557 0.457141 0.768432
O O4 0.099044 0.487782 0.000019
O O5 0.345735 0.750000 0.681444
O O6 0.323794 0.962296 0.500459
O O7 0.291535 0.957092 0.761977
O O8 0.904163 0.250000 0.898672
O O9 0.954617 0.049259 0.772740
O O10 0.872566 0.039843 0.731865
O O11 0.996855 0.750000 0.105915
O O12 0.000000 0.500000 0.000000
O O13 0.314428 0.750000 0.304900
O O14 0.291947 0.481760 0.244836
O O15 0.250000 0.250000 0.167273
O O16 0.250000 0.022676 0.997495
O O17 0.750000 0.250000 0.093078
#
# Coordination Sequence:
#
# PCOD8240958 Si02
#       7
#     8   8   8   8   8   4   4
#     4  10  19  31  50  77 109 140 171 213 263 312
#     4  10  21  37  56  77 102 135 175 214 253 302
#     4   9  17  32  55  78 101 135 180 223 258 299
#     4   8  15  28  47  73 103 135 172 214 259 303
#     4  10  21  38  58  78 103 137 176 215 254 301
#     4  12  25  38  56  82 108 132 163 208 260 312
#     4  10  21  38  58  76  98 132 171 210 250 298
#
# _framework density 18.540268000000001
#
# number of rings (size 3 to 8) (size 9 to 14) (size 15 to 20)
#    0.000    2.333    0.000    2.750    0.000    8.000 
#    0.000    1.667    0.000    0.000    0.000    0.000 
#    0.000    0.000    0.000    0.000    0.000    0.000 
#
# Total GULP energy -594833.176187 kJ/mol
# GULP energy per Si atom -12392.357837 kJ/mol
# Density = 1.849807 g / cm^3
# Si number density = 18.540268 Si / 1000 Ang^3
#
#
#
# Elastic Constant Matrix: (Units=GPa)
#
#
# Indices 1 2 3 4 5 6 
#
# 1 180.4364 73.1383 75.7289 0.0000 0.0000 0.0000
# 2 73.1383 80.0246 57.7008 0.0000 0.0000 0.0000
# 3 75.7289 57.7008 115.5484 0.0000 0.0000 0.0000
# 4 0.0000 0.0000 0.0000 13.0441 0.0000 0.0000
# 5 0.0000 0.0000 0.0000 0.0000 -10.2173 0.0000
# 6 0.0000 0.0000 0.0000 0.0000 0.0000 28.0484
#
#
#
# Elastic Compliance Matrix: (Units=1/GPa)
#
#
# Indices 1 2 3 4 5 6 
#
# 1 0.009395 -0.006480 -0.002921 0.000000 0.000000 0.000000
# 2 -0.006480 0.023997 -0.007736 0.000000 0.000000 0.000000
# 3 -0.002921 -0.007736 0.014432 0.000000 0.000000 0.000000
# 4 0.000000 0.000000 0.000000 0.076663 0.000000 0.000000
# 5 0.000000 0.000000 0.000000 0.000000 -0.097873 0.000000
# 6 0.000000 0.000000 0.000000 0.000000 0.000000 0.035653
#
#
# Mechanical properties :
#
#
# Convention : Reuss Voigt Hill
#
# Bulk Modulus (GPa) = 73.80849 87.68283 80.74566
# Shear Modulus (GPa) = 49.47665 17.47112 33.47388
#
# Velocity S-wave (km/s) = 5.17146 3.07308 4.25369
# Velocity P-wave (km/s) = 8.69223 7.74516 8.23233
#
# Compressibility (1/GPa) = 0.01354858
#
# Stress axis : x y z
#
# Youngs Moduli (GPa) = 106.44178 41.67261 69.28954
#
# Poissons Ratio (x) = 0.27004 0.20242
# Poissons Ratio (y) = 0.68974 0.53604
# Poissons Ratio (z) = 0.31096 0.32239
#
# Static dielectric constant tensor:
#      x y z
#    x 4.247200 0.000000 0.000000 
#    y 0.000000 3.376600 0.000000 
#    z 0.000000 0.000000 3.172820 
# 
# 
# High freq. dielectric constant tensor:
#      x y z
#    x 1.749690 0.000000 0.000000 
#    y 0.000000 1.715820 0.000000 
#    z 0.000000 0.000000 1.690970 
# 
# From -- ./inp_files/6350.got.cif
#   From: 2010.03.12/outbox.cif.g09.slc.cpg/sg59_4_cif.got.tgz:6350.got - 2010.04.16 16:29:54.
