data_PCOD8240737
_publ_section_title
;
Structure prediction by ZEFSAII (Michael W. Deem and Ramdas Pophale) SiO2 
 PCOD8240737
Probable space group: P M M N
;
_chemical_formula_sum "Si O2"
_cell_formula_units_Z 64
_cell_length_a 9.198094
_cell_length_b 17.926847
_cell_length_c 22.933872
_cell_angle_alpha 90.000000
_cell_angle_beta 90.000000
_cell_angle_gamma 90.000000
_cell_volume 3781.630915
_symmetry_space_group_name_H-M "P M M N"
_symmetry_group_IT_number 59
_space_group.IT_coordinate_system_code '2'
_symmetry_cell_setting 'orthorhombic'
loop_
_space_group_symop_operation_xyz
x,y,z
1/2-x,1/2-y,z
1/2+x,-y,-z
-x,1/2+y,-z
-x,-y,-z
1/2+x,1/2+y,-z
1/2-x,y,z
x,1/2-y,z
loop_
_atom_site_type_symbol
_atom_site_label
_atom_site_fract_x
_atom_site_fract_y
_atom_site_fract_z
Si Si1 0.084974 0.561483 0.533214
Si Si2 0.585861 0.835039 0.187701
Si Si3 0.578505 0.831972 0.949030
Si Si4 0.579251 0.534031 0.363254
Si Si5 0.421253 0.664588 0.434994
Si Si6 0.582148 0.904067 0.066700
Si Si7 0.920591 0.462334 0.755149
Si Si8 0.080950 0.466399 0.125859
O O1 0.250000 0.543349 0.519794
O O2 0.053262 0.544498 0.601397
O O3 0.047741 0.641932 0.503665
O O4 0.000000 0.500000 0.500000
O O5 0.750000 0.861022 0.203566
O O6 0.561504 0.750000 0.204664
O O7 0.559056 0.845230 0.118900
O O8 0.469437 0.880134 0.225417
O O9 0.750000 0.824702 0.957139
O O10 0.509581 0.750000 0.939378
O O11 0.540784 0.881980 0.892395
O O12 0.514682 0.868456 0.008111
O O13 0.750000 0.551652 0.356448
O O14 0.505695 0.607485 0.392365
O O15 0.508021 0.514394 0.301833
O O16 0.250000 0.659036 0.420760
O O17 0.475660 0.750000 0.426217
O O18 0.750000 0.924412 0.057700
O O19 0.500755 0.980246 0.081049
O O20 0.750000 0.462247 0.741676
O O21 0.963516 0.520084 0.806840
O O22 0.250000 0.483575 0.117733
#
# Coordination Sequence:
#
# PCOD8240737 Si02
#       8
#     8   8   8   8   8   8   8   8
#     4   8  15  28  46  68  91 116 146 176 208 249
#     4   9  17  29  44  63  88 116 146 181 221 267
#     4   9  16  27  46  70  91 112 143 184 229 277
#     4  10  19  31  48  68  90 119 155 189 217 251
#     4   9  17  30  49  73 100 124 143 171 216 265
#     4   9  16  27  46  69  90 114 144 179 223 276
#     4  10  20  32  45  62  86 118 156 191 222 259
#     4   9  18  31  46  65  89 118 151 187 226 267
#
# _framework density 16.923914
#
# number of rings (size 3 to 8) (size 9 to 14) (size 15 to 20)
#    0.000    2.875    0.000    1.500    0.000    3.500 
#    0.000    0.000    0.000    3.000    0.000    0.000 
#    0.000    0.000    0.000    0.000    0.000    0.750 
#
# Total GULP energy -792922.012583 kJ/mol
# GULP energy per Si atom -12389.406447 kJ/mol
# Density = 1.688539 g / cm^3
# Si number density = 16.923914 Si / 1000 Ang^3
#
#
#
# Elastic Constant Matrix: (Units=GPa)
#
#
# Indices 1 2 3 4 5 6 
#
# 1 47.3345 30.7082 40.1698 0.0000 0.0000 0.0000
# 2 30.7082 90.9068 58.2117 0.0000 0.0000 0.0000
# 3 40.1698 58.2117 118.4823 0.0000 0.0000 0.0000
# 4 0.0000 0.0000 0.0000 16.0151 0.0000 0.0000
# 5 0.0000 0.0000 0.0000 0.0000 19.9324 0.0000
# 6 0.0000 0.0000 0.0000 0.0000 0.0000 17.4250
#
#
#
# Elastic Compliance Matrix: (Units=1/GPa)
#
#
# Indices 1 2 3 4 5 6 
#
# 1 0.031463 -0.005541 -0.007945 0.000000 0.000000 0.000000
# 2 -0.005541 0.017025 -0.006486 0.000000 0.000000 0.000000
# 3 -0.007945 -0.006486 0.014320 0.000000 0.000000 0.000000
# 4 0.000000 0.000000 0.000000 0.062441 0.000000 0.000000
# 5 0.000000 0.000000 0.000000 0.000000 0.050170 0.000000
# 6 0.000000 0.000000 0.000000 0.000000 0.000000 0.057389
#
#
# Mechanical properties :
#
#
# Convention : Reuss Voigt Hill
#
# Bulk Modulus (GPa) = 43.73463 57.21145 50.47304
# Shear Modulus (GPa) = 17.83333 19.18343 18.50838
#
# Velocity S-wave (km/s) = 3.24965 3.37042 3.31058
# Velocity P-wave (km/s) = 6.32284 7.00177 6.67095
#
# Compressibility (1/GPa) = 0.02286517
#
# Stress axis : x y z
#
# Youngs Moduli (GPa) = 31.78324 58.73593 69.83018
#
# Poissons Ratio (x) = 0.32544 0.55480
# Poissons Ratio (y) = 0.17610 0.45294
# Poissons Ratio (z) = 0.25252 0.38098
#
# Static dielectric constant tensor:
#      x y z
#    x 3.095240 0.000000 0.000000 
#    y 0.000000 2.598890 0.000000 
#    z 0.000000 0.000000 4.487970 
# 
# 
# High freq. dielectric constant tensor:
#      x y z
#    x 1.643670 0.000000 0.000000 
#    y 0.000000 1.634320 0.000000 
#    z 0.000000 0.000000 1.650100 
# 
# From -- ./inp_files/31741.got.cif
#   From: 2010.03.12/outbox.cif.g09.slc.cpg/sg59_16_cif.got.tgz:31741.got - 2010.04.16 16:29:54.
