data_PCOD8240866
_publ_section_title
;
Structure prediction by ZEFSAII (Michael W. Deem and Ramdas Pophale) SiO2 
 PCOD8240866
Probable space group: P M M N
;
_chemical_formula_sum "Si O2"
_cell_formula_units_Z 64
_cell_length_a 24.149215
_cell_length_b 9.458105
_cell_length_c 14.998800
_cell_angle_alpha 90.000000
_cell_angle_beta 90.000000
_cell_angle_gamma 90.000000
_cell_volume 3425.813080
_symmetry_space_group_name_H-M "P M M N"
_symmetry_group_IT_number 59
_space_group.IT_coordinate_system_code '2'
_symmetry_cell_setting 'orthorhombic'
loop_
_space_group_symop_operation_xyz
x,y,z
1/2-x,1/2-y,z
1/2+x,-y,-z
-x,1/2+y,-z
-x,-y,-z
1/2+x,1/2+y,-z
1/2-x,y,z
x,1/2-y,z
loop_
_atom_site_type_symbol
_atom_site_label
_atom_site_fract_x
_atom_site_fract_y
_atom_site_fract_z
Si Si1 0.508626 0.081296 0.242477
Si Si2 0.467154 0.598564 0.562325
Si Si3 0.113250 0.416140 0.781172
Si Si4 0.856026 0.405764 0.536974
Si Si5 0.813478 0.587139 0.049781
Si Si6 0.812482 0.586948 0.386331
Si Si7 0.898360 0.415595 0.729799
Si Si8 0.686878 0.412612 0.883428
O O1 0.505804 0.250000 0.222305
O O2 0.529888 0.038404 0.339611
O O3 0.558065 0.003925 0.188947
O O4 0.448748 0.009065 0.230938
O O5 0.500000 0.500000 0.500000
O O6 0.497353 0.750000 0.559879
O O7 0.404934 0.612148 0.532607
O O8 0.098620 0.250000 0.776360
O O9 0.155234 0.451144 0.860252
O O10 0.143826 0.465727 0.689212
O O11 0.828887 0.250000 0.553772
O O12 0.815242 0.508971 0.483091
O O13 0.878714 0.466978 0.631317
O O14 0.750000 0.544816 0.065744
O O15 0.820386 0.750000 0.024580
O O16 0.837869 0.500184 0.966191
O O17 0.750000 0.565612 0.349407
O O18 0.824679 0.750000 0.406542
O O19 0.915737 0.250000 0.726574
O O20 0.847241 0.444461 0.794491
O O21 0.750000 0.457427 0.862780
O O22 0.682470 0.250000 0.910726
#
# Coordination Sequence:
#
# PCOD8240866 Si02
#       8
#     8   8   8   8   8   8   8   8
#     4  11  22  34  51  79 113 143 179 225 268 312
#     4  10  19  31  49  73 101 136 180 224 262 304
#     4  10  20  35  56  79 108 145 180 216 265 325
#     4  10  20  34  51  74 104 140 181 221 262 311
#     4   9  18  35  60  86 108 135 176 223 270 323
#     4  10  21  35  51  75 108 144 181 222 268 319
#     4  10  21  37  57  80 108 144 184 220 262 320
#     4   9  19  37  60  84 108 135 172 221 272 320
#
# _framework density 18.681697
#
# number of rings (size 3 to 8) (size 9 to 14) (size 15 to 20)
#    0.000    2.125    2.500    0.750    0.000    4.750 
#    0.000    1.875    0.000    3.750    0.000    0.000 
#    0.000    0.000    0.000    0.000    0.000    0.000 
#
# Total GULP energy -793102.062427 kJ/mol
# GULP energy per Si atom -12392.219725 kJ/mol
# Density = 1.863918 g / cm^3
# Si number density = 18.681697 Si / 1000 Ang^3
#
#
#
# Elastic Constant Matrix: (Units=GPa)
#
#
# Indices 1 2 3 4 5 6 
#
# 1 86.6290 42.8664 35.8988 0.0000 0.0000 0.0000
# 2 42.8664 66.6272 36.4835 0.0000 0.0000 0.0000
# 3 35.8988 36.4835 83.6035 0.0000 0.0000 0.0000
# 4 0.0000 0.0000 0.0000 29.7134 0.0000 0.0000
# 5 0.0000 0.0000 0.0000 0.0000 24.3187 0.0000
# 6 0.0000 0.0000 0.0000 0.0000 0.0000 27.8602
#
#
#
# Elastic Compliance Matrix: (Units=1/GPa)
#
#
# Indices 1 2 3 4 5 6 
#
# 1 0.017661 -0.009474 -0.003449 0.000000 0.000000 0.000000
# 2 -0.009474 0.024804 -0.006756 0.000000 0.000000 0.000000
# 3 -0.003449 -0.006756 0.016390 0.000000 0.000000 0.000000
# 4 0.000000 0.000000 0.000000 0.033655 0.000000 0.000000
# 5 0.000000 0.000000 0.000000 0.000000 0.041121 0.000000
# 6 0.000000 0.000000 0.000000 0.000000 0.000000 0.035894
#
#
# Mechanical properties :
#
#
# Convention : Reuss Voigt Hill
#
# Bulk Modulus (GPa) = 51.29024 51.92857 51.60941
# Shear Modulus (GPa) = 23.21473 24.48584 23.85029
#
# Velocity S-wave (km/s) = 3.52894 3.62427 3.57692
# Velocity P-wave (km/s) = 6.64221 6.73577 6.68915
#
# Compressibility (1/GPa) = 0.01949689
#
# Stress axis : x y z
#
# Youngs Moduli (GPa) = 56.62298 40.31684 61.01108
#
# Poissons Ratio (x) = 0.38195 0.21043
# Poissons Ratio (y) = 0.53644 0.41219
# Poissons Ratio (z) = 0.19530 0.27238
#
# Static dielectric constant tensor:
#      x y z
#    x 3.394490 0.000000 0.000000 
#    y 0.000000 3.603150 0.000000 
#    z 0.000000 0.000000 3.350400 
# 
# 
# High freq. dielectric constant tensor:
#      x y z
#    x 1.720510 0.000000 0.000000 
#    y 0.000000 1.722210 0.000000 
#    z 0.000000 0.000000 1.714830 
# 
# From -- ./inp_files/21419.got.cif
#   From: 2010.03.12/outbox.cif.g09.slc.cpg/sg59_11_cif.got.tgz:21419.got - 2010.04.16 16:29:54.
