data_PCOD8240967
_publ_section_title
;
Structure prediction by ZEFSAII (Michael W. Deem and Ramdas Pophale) SiO2 
 PCOD8240967
Probable space group: P M M N
;
_chemical_formula_sum "Si O2"
_cell_formula_units_Z 52
_cell_length_a 14.345620
_cell_length_b 17.119528
_cell_length_c 11.253176
_cell_angle_alpha 90.000000
_cell_angle_beta 90.000000
_cell_angle_gamma 90.000000
_cell_volume 2763.670231
_symmetry_space_group_name_H-M "P M M N"
_symmetry_group_IT_number 59
_space_group.IT_coordinate_system_code '2'
_symmetry_cell_setting 'orthorhombic'
loop_
_space_group_symop_operation_xyz
x,y,z
1/2-x,1/2-y,z
1/2+x,-y,-z
-x,1/2+y,-z
-x,-y,-z
1/2+x,1/2+y,-z
1/2-x,y,z
x,1/2-y,z
loop_
_atom_site_type_symbol
_atom_site_label
_atom_site_fract_x
_atom_site_fract_y
_atom_site_fract_z
Si Si1 0.946724 0.995407 0.379130
Si Si2 0.061637 0.335656 0.989292
Si Si3 0.355379 0.494367 0.009024
Si Si4 0.435014 0.893048 0.826622
Si Si5 0.250000 0.658100 0.336477
Si Si6 0.250000 0.665905 0.756940
Si Si7 0.750000 0.038794 0.441588
Si Si8 0.569239 0.097631 0.795228
O O1 0.991317 0.924810 0.303180
O O2 0.956409 0.077145 0.306787
O O3 0.839353 0.982623 0.420621
O O4 0.000000 0.000000 0.500000
O O5 0.106581 0.250000 0.971737
O O6 0.980324 0.347289 0.891738
O O7 0.141420 0.401362 0.986539
O O8 0.017229 0.340039 0.121588
O O9 0.250000 0.522874 0.989276
O O10 0.390508 0.519325 0.140438
O O11 0.423615 0.530663 0.910332
O O12 0.341736 0.841741 0.837243
O O13 0.250000 0.750000 0.379660
O O14 0.250000 0.591111 0.438906
O O15 0.344103 0.644693 0.260886
O O16 0.250000 0.750000 0.693601
O O17 0.250000 0.599245 0.662793
#
# Coordination Sequence:
#
# PCOD8240967 Si02
#       8
#     8   8   8   8   4   4   4   8
#     4  11  20  36  61  84 113 157 202 238 287 339
#     4  11  22  35  55  82 114 151 190 241 301 348
#     4  11  20  36  59  80 111 150 197 242 287 347
#     4  10  19  35  54  81 110 144 185 232 280 349
#     4  12  23  37  58  91 126 151 186 248 312 359
#     4  10  19  31  50  79 114 141 172 223 283 342
#     4  10  23  34  56  86 115 152 198 237 280 355
#     4  11  21  39  58  85 120 155 196 242 297 364
#
# _framework density 18.815557999999999
#
# number of rings (size 3 to 8) (size 9 to 14) (size 15 to 20)
#    0.000    1.231    6.154    2.077    0.000    0.308 
#    0.000    2.308    0.000    0.000    0.000    0.000 
#    0.000    0.000    0.000    0.000    0.000    0.000 
#
# Total GULP energy -644403.774032 kJ/mol
# GULP energy per Si atom -12392.380270 kJ/mol
# Density = 1.877273 g / cm^3
# Si number density = 18.815558 Si / 1000 Ang^3
#
#
#
# Elastic Constant Matrix: (Units=GPa)
#
#
# Indices 1 2 3 4 5 6 
#
# 1 84.7928 21.3640 32.1190 0.0000 0.0000 0.0000
# 2 21.3640 94.4454 14.6813 0.0000 0.0000 0.0000
# 3 32.1190 14.6813 88.6440 0.0000 0.0000 0.0000
# 4 0.0000 0.0000 0.0000 -13.0652 0.0000 0.0000
# 5 0.0000 0.0000 0.0000 0.0000 28.2958 0.0000
# 6 0.0000 0.0000 0.0000 0.0000 0.0000 21.2040
#
#
#
# Elastic Compliance Matrix: (Units=1/GPa)
#
#
# Indices 1 2 3 4 5 6 
#
# 1 0.014213 -0.002478 -0.004739 0.000000 0.000000 0.000000
# 2 -0.002478 0.011300 -0.000974 0.000000 0.000000 0.000000
# 3 -0.004739 -0.000974 0.013160 0.000000 0.000000 0.000000
# 4 0.000000 0.000000 0.000000 -0.076539 0.000000 0.000000
# 5 0.000000 0.000000 0.000000 0.000000 0.035341 0.000000
# 6 0.000000 0.000000 0.000000 0.000000 0.000000 0.047161
#
#
# Mechanical properties :
#
#
# Convention : Reuss Voigt Hill
#
# Bulk Modulus (GPa) = 44.86293 44.91231 44.88762
# Shear Modulus (GPa) = 73.04761 20.60144 46.82452
#
# Velocity S-wave (km/s) = 6.23757 3.31254 4.99401
# Velocity P-wave (km/s) = 8.70469 6.20904 7.56055
#
# Compressibility (1/GPa) = 0.02229012
#
# Stress axis : x y z
#
# Youngs Moduli (GPa) = 70.35721 88.49498 75.99010
#
# Poissons Ratio (x) = 0.21932 0.36015
# Poissons Ratio (y) = 0.17437 0.07398
# Poissons Ratio (z) = 0.33346 0.08615
#
# Static dielectric constant tensor:
#      x y z
#    x 2.668140 0.000000 0.000000 
#    y 0.000000 3.243920 0.000000 
#    z 0.000000 0.000000 3.600280 
# 
# 
# High freq. dielectric constant tensor:
#      x y z
#    x 1.735190 0.000000 0.000000 
#    y 0.000000 1.705220 0.000000 
#    z 0.000000 0.000000 1.729210 
# 
# From -- ./inp_files/17138.got.cif
#   From: 2010.03.12/outbox.cif.g09.slc.cpg/sg59_9_cif.got.tgz:17138.got - 2010.04.16 16:29:54.
