data_PCOD8240781
_publ_section_title
;
Structure prediction by ZEFSAII (Michael W. Deem and Ramdas Pophale) SiO2 
 PCOD8240781
Probable space group: P M M N
;
_chemical_formula_sum "Si O2"
_cell_formula_units_Z 64
_cell_length_a 17.232171
_cell_length_b 9.124540
_cell_length_c 23.119573
_cell_angle_alpha 90.000000
_cell_angle_beta 90.000000
_cell_angle_gamma 90.000000
_cell_volume 3635.220709
_symmetry_space_group_name_H-M "P M M N"
_symmetry_group_IT_number 59
_space_group.IT_coordinate_system_code '2'
_symmetry_cell_setting 'orthorhombic'
loop_
_space_group_symop_operation_xyz
x,y,z
1/2-x,1/2-y,z
1/2+x,-y,-z
-x,1/2+y,-z
-x,-y,-z
1/2+x,1/2+y,-z
1/2-x,y,z
x,1/2-y,z
loop_
_atom_site_type_symbol
_atom_site_label
_atom_site_fract_x
_atom_site_fract_y
_atom_site_fract_z
Si Si1 0.565811 0.416436 0.968317
Si Si2 0.557474 0.078230 0.635329
Si Si3 0.659410 0.918978 0.550234
Si Si4 0.977259 0.577469 0.139267
Si Si5 0.985739 0.076235 0.259261
Si Si6 0.161993 0.922117 0.928253
Si Si7 0.400190 0.079862 0.571700
Si Si8 0.335378 0.917369 0.674648
O O1 0.544157 0.250000 0.978112
O O2 0.555150 0.451625 0.900082
O O3 0.500000 0.500000 0.000000
O O4 0.646354 0.451300 0.002313
O O5 0.565639 0.250000 0.648348
O O6 0.487257 0.042904 0.591455
O O7 0.634498 0.017001 0.604861
O O8 0.546317 0.992957 0.695532
O O9 0.750000 0.940615 0.539672
O O10 0.638543 0.750000 0.563147
O O11 0.614234 0.977024 0.493276
O O12 0.963580 0.750000 0.150033
O O13 0.898517 0.511700 0.111207
O O14 0.999364 0.495844 0.197638
O O15 0.998388 0.250000 0.255699
O O16 0.898579 0.031610 0.278506
O O17 0.250000 0.973988 0.915238
O O18 0.152538 0.750000 0.913722
O O19 0.381289 0.250000 0.574506
O O20 0.340081 0.005113 0.615118
O O21 0.250000 0.940883 0.702034
O O22 0.351029 0.750000 0.658151
#
# Coordination Sequence:
#
# PCOD8240781 Si02
#       8
#     8   8   8   8   8   8   8   8
#     4   8  15  28  46  68  94 124 156 191 230 273
#     4  10  20  34  52  73  97 126 164 208 248 288
#     4  10  20  33  50  73 100 128 157 193 244 304
#     4  10  19  31  48  71  98 127 163 204 241 280
#     4  10  20  34  51  69  93 129 169 204 242 289
#     4   9  17  30  49  73 101 131 160 191 233 286
#     4   9  18  32  50  72  97 126 158 193 239 296
#     4   9  18  31  46  66  93 124 158 197 239 285
#
# _framework density 17.605533000000001
#
# number of rings (size 3 to 8) (size 9 to 14) (size 15 to 20)
#    0.000    2.625    0.000    1.875    0.000    3.750 
#    0.000    1.250    0.000    0.750    0.000    1.750 
#    0.000    0.000    0.000    0.000    0.000    0.000 
#
# Total GULP energy -793108.177638 kJ/mol
# GULP energy per Si atom -12392.315276 kJ/mol
# Density = 1.756546 g / cm^3
# Si number density = 17.605533 Si / 1000 Ang^3
#
#
#
# Elastic Constant Matrix: (Units=GPa)
#
#
# Indices 1 2 3 4 5 6 
#
# 1 34.5399 21.2426 31.3131 0.0000 0.0000 0.0000
# 2 21.2426 67.0626 52.1919 0.0000 0.0000 0.0000
# 3 31.3131 52.1919 128.7852 0.0000 0.0000 0.0000
# 4 0.0000 0.0000 0.0000 30.4163 0.0000 0.0000
# 5 0.0000 0.0000 0.0000 0.0000 19.0318 0.0000
# 6 0.0000 0.0000 0.0000 0.0000 0.0000 22.1305
#
#
#
# Elastic Compliance Matrix: (Units=1/GPa)
#
#
# Indices 1 2 3 4 5 6 
#
# 1 0.039474 -0.007353 -0.006618 0.000000 0.000000 0.000000
# 2 -0.007353 0.023151 -0.007594 0.000000 0.000000 0.000000
# 3 -0.006618 -0.007594 0.012452 0.000000 0.000000 0.000000
# 4 0.000000 0.000000 0.000000 0.032877 0.000000 0.000000
# 5 0.000000 0.000000 0.000000 0.000000 0.052544 0.000000
# 6 0.000000 0.000000 0.000000 0.000000 0.000000 0.045186
#
#
# Mechanical properties :
#
#
# Convention : Reuss Voigt Hill
#
# Bulk Modulus (GPa) = 31.30310 48.87587 40.08948
# Shear Modulus (GPa) = 19.27055 22.69175 20.98115
#
# Velocity S-wave (km/s) = 3.31202 3.59402 3.45590
# Velocity P-wave (km/s) = 5.69604 6.71152 6.22452
#
# Compressibility (1/GPa) = 0.03194572
#
# Stress axis : x y z
#
# Youngs Moduli (GPa) = 25.33311 43.19461 80.31091
#
# Poissons Ratio (x) = 0.31763 0.53147
# Poissons Ratio (y) = 0.18629 0.60991
# Poissons Ratio (z) = 0.16765 0.32803
#
# Static dielectric constant tensor:
#      x y z
#    x 2.951770 0.000000 0.000000 
#    y 0.000000 3.283150 0.000000 
#    z 0.000000 0.000000 -0.909830 
# 
# 
# High freq. dielectric constant tensor:
#      x y z
#    x 1.658310 0.000000 0.000000 
#    y 0.000000 1.685720 0.000000 
#    z 0.000000 0.000000 1.676350 
# 
# From -- ./inp_files/30698.got.cif
#   From: 2010.03.12/outbox.cif.g09.slc.cpg/sg59_16_cif.got.tgz:30698.got - 2010.04.16 16:29:54.
