data_PCOD8240057
_publ_section_title
;
Structure prediction by ZEFSAII (Michael W. Deem and Ramdas Pophale) SiO2 
 PCOD8240057
Probable space group: P M M N
;
_chemical_formula_sum "Si O2"
_cell_formula_units_Z 64
_cell_length_a 23.977761
_cell_length_b 8.840793
_cell_length_c 15.476465
_cell_angle_alpha 90.000000
_cell_angle_beta 90.000000
_cell_angle_gamma 90.000000
_cell_volume 3280.738529
_symmetry_space_group_name_H-M "P M M N"
_symmetry_group_IT_number 59
_space_group.IT_coordinate_system_code '2'
_symmetry_cell_setting 'orthorhombic'
loop_
_space_group_symop_operation_xyz
x,y,z
1/2-x,1/2-y,z
1/2+x,-y,-z
-x,1/2+y,-z
-x,-y,-z
1/2+x,1/2+y,-z
1/2-x,y,z
x,1/2-y,z
loop_
_atom_site_type_symbol
_atom_site_label
_atom_site_fract_x
_atom_site_fract_y
_atom_site_fract_z
Si Si1 0.498791 0.427956 0.907186
Si Si2 0.613518 0.925677 0.348148
Si Si3 0.390108 0.927231 0.345960
Si Si4 0.498644 0.928786 0.593858
Si Si5 0.115761 0.572184 0.155525
Si Si6 0.685500 0.073234 0.493531
Si Si7 0.879233 0.575492 0.153277
Si Si8 0.687465 0.429527 0.002144
O O1 0.501416 0.250000 0.918903
O O2 0.552429 0.487671 0.854462
O O3 0.443311 0.477561 0.856696
O O4 0.500000 0.500000 0.000000
O O5 0.600116 0.750000 0.364318
O O6 0.638201 0.952386 0.252444
O O7 0.556589 0.018100 0.357122
O O8 0.660353 0.980132 0.414528
O O9 0.404858 0.750000 0.351593
O O10 0.363568 0.968541 0.252329
O O11 0.345686 0.974483 0.418507
O O12 0.446913 0.019950 0.354634
O O13 0.497496 0.750000 0.584851
O O14 0.500000 0.000000 0.500000
O O15 0.117096 0.750000 0.141621
O O16 0.155020 0.500559 0.081046
O O17 0.750000 0.030130 0.504369
O O18 0.677328 0.250000 0.474532
O O19 0.872392 0.750000 0.127044
O O20 0.840204 0.478003 0.091773
O O21 0.750000 0.493982 0.998865
O O22 0.687444 0.250000 0.998867
#
# Coordination Sequence:
#
# PCOD8240057 Si02
#       8
#     8   8   8   8   8   8   8   8
#     4  10  18  32  55  81 110 144 180 224 278 335
#     4  11  23  40  62  86 115 154 197 242 293 351
#     4  10  20  37  61  86 118 156 193 238 289 348
#     4  12  23  37  60  90 122 154 188 234 291 353
#     4   9  18  34  57  84 115 149 187 234 285 337
#     4  10  22  39  59  85 116 152 197 245 292 344
#     4  10  22  38  58  84 114 149 191 237 291 348
#     4  10  21  37  58  84 114 152 198 243 285 335
#
# _framework density 19.507802999999999
#
# number of rings (size 3 to 8) (size 9 to 14) (size 15 to 20)
#    0.000    1.750    2.500    2.250    0.000    4.500 
#    0.000    7.500    0.000    0.000    0.000    1.750 
#    0.000    0.000    0.000    0.000    0.000    0.000 
#
# Total GULP energy -793645.675321 kJ/mol
# GULP energy per Si atom -12400.713677 kJ/mol
# Density = 1.946340 g / cm^3
# Si number density = 19.507803 Si / 1000 Ang^3
#
#
#
# Elastic Constant Matrix: (Units=GPa)
#
#
# Indices 1 2 3 4 5 6 
#
# 1 144.1211 36.1029 67.4953 0.0000 0.0000 0.0000
# 2 36.1029 56.1143 34.5891 0.0000 0.0000 0.0000
# 3 67.4953 34.5891 153.9972 0.0000 0.0000 0.0000
# 4 0.0000 0.0000 0.0000 28.2184 0.0000 0.0000
# 5 0.0000 0.0000 0.0000 0.0000 12.6014 0.0000
# 6 0.0000 0.0000 0.0000 0.0000 0.0000 26.7514
#
#
#
# Elastic Compliance Matrix: (Units=1/GPa)
#
#
# Indices 1 2 3 4 5 6 
#
# 1 0.009482 -0.004107 -0.003233 0.000000 0.000000 0.000000
# 2 -0.004107 0.022464 -0.003245 0.000000 0.000000 0.000000
# 3 -0.003233 -0.003245 0.008640 0.000000 0.000000 0.000000
# 4 0.000000 0.000000 0.000000 0.035438 0.000000 0.000000
# 5 0.000000 0.000000 0.000000 0.000000 0.079356 0.000000
# 6 0.000000 0.000000 0.000000 0.000000 0.000000 0.037381
#
#
# Mechanical properties :
#
#
# Convention : Reuss Voigt Hill
#
# Bulk Modulus (GPa) = 51.51101 70.06747 60.78924
# Shear Modulus (GPa) = 22.68571 27.91728 25.30149
#
# Velocity S-wave (km/s) = 3.41384 3.78707 3.60529
# Velocity P-wave (km/s) = 6.48087 7.42416 6.96850
#
# Compressibility (1/GPa) = 0.01941333
#
# Stress axis : x y z
#
# Youngs Moduli (GPa) = 105.46635 44.51598 115.74580
#
# Poissons Ratio (x) = 0.18284 0.37423
# Poissons Ratio (y) = 0.43319 0.37564
# Poissons Ratio (z) = 0.34099 0.14447
#
# Static dielectric constant tensor:
#      x y z
#    x 3.804930 0.000000 0.000000 
#    y 0.000000 3.427820 0.000000 
#    z 0.000000 0.000000 3.703870 
# 
# 
# High freq. dielectric constant tensor:
#      x y z
#    x 1.759310 0.000000 0.000000 
#    y 0.000000 1.737780 0.000000 
#    z 0.000000 0.000000 1.775040 
# 
# From -- ./inp_files/24673.got.cif
#   From: 2010.03.12/outbox.cif.g09.slc.cpg/sg59_13_cif.got.tgz:24673.got - 2010.04.16 16:29:54.
