data_PCOD8240277
_publ_section_title
;
Structure prediction by ZEFSAII (Michael W. Deem and Ramdas Pophale) SiO2 
 PCOD8240277
Probable space group: P M M N
;
_chemical_formula_sum "Si O2"
_cell_formula_units_Z 56
_cell_length_a 9.471962
_cell_length_b 13.556050
_cell_length_c 28.822597
_cell_angle_alpha 90.000000
_cell_angle_beta 90.000000
_cell_angle_gamma 90.000000
_cell_volume 3700.890354
_symmetry_space_group_name_H-M "P M M N"
_symmetry_group_IT_number 59
_space_group.IT_coordinate_system_code '2'
_symmetry_cell_setting 'orthorhombic'
loop_
_space_group_symop_operation_xyz
x,y,z
1/2-x,1/2-y,z
1/2+x,-y,-z
-x,1/2+y,-z
-x,-y,-z
1/2+x,1/2+y,-z
1/2-x,y,z
x,1/2-y,z
loop_
_atom_site_type_symbol
_atom_site_label
_atom_site_fract_x
_atom_site_fract_y
_atom_site_fract_z
Si Si1 0.906007 0.367128 0.753761
Si Si2 0.084582 0.635529 0.349900
Si Si3 0.585331 0.525956 0.068927
Si Si4 0.085890 0.362732 0.024289
Si Si5 0.089588 0.639251 0.512366
Si Si6 0.415060 0.136323 0.839064
Si Si7 0.414740 0.050485 0.568275
O O1 0.750000 0.409304 0.764078
O O2 0.902056 0.250000 0.754897
O O3 0.955156 0.398823 0.702299
O O4 0.010648 0.407912 0.793213
O O5 0.250000 0.618365 0.359522
O O6 0.046099 0.750000 0.358066
O O7 0.990865 0.567461 0.382955
O O8 0.750000 0.500771 0.070653
O O9 0.501243 0.424533 0.062005
O O10 0.532991 0.575388 0.116458
O O11 0.550317 0.601698 0.027615
O O12 0.250000 0.376468 0.035375
O O13 0.038237 0.250000 0.028521
O O14 0.250000 0.625229 0.493897
O O15 0.066077 0.750000 0.531345
O O16 0.060235 0.563618 0.554295
O O17 0.983284 0.621373 0.470130
O O18 0.250000 0.124577 0.831207
O O19 0.456612 0.250000 0.847410
O O20 0.250000 0.076553 0.572541
#
# Coordination Sequence:
#
# PCOD8240277 Si02
#       7
#     8   8   8   8   8   8   8
#     4   8  15  27  41  58  81 109 139 167 197 240
#     4   9  17  29  43  59  84 116 140 160 198 249
#     4   9  17  28  42  61  84 110 139 169 204 246
#     4   9  17  29  43  59  82 111 141 172 204 240
#     4   9  18  32  45  57  81 115 141 163 200 247
#     4   9  16  26  41  61  85 111 136 165 204 245
#     4  10  19  28  42  65  85 104 138 177 204 232
#
# _framework density 15.131493000000001
#
# number of rings (size 3 to 8) (size 9 to 14) (size 15 to 20)
#    0.000    3.000    0.000    2.143    0.000    6.000 
#    0.000    1.429    0.000    2.571    0.000    1.000 
#    0.000    3.429    0.000    0.000    0.000    0.000 
#
# Total GULP energy -694296.747775 kJ/mol
# GULP energy per Si atom -12398.156210 kJ/mol
# Density = 1.509705 g / cm^3
# Si number density = 15.131493 Si / 1000 Ang^3
#
#
#
# Elastic Constant Matrix: (Units=GPa)
#
#
# Indices 1 2 3 4 5 6 
#
# 1 66.6588 44.2764 62.8797 0.0000 0.0000 0.0000
# 2 44.2764 89.1630 53.2688 0.0000 0.0000 0.0000
# 3 62.8797 53.2688 127.9983 0.0000 0.0000 0.0000
# 4 0.0000 0.0000 0.0000 21.7372 0.0000 0.0000
# 5 0.0000 0.0000 0.0000 0.0000 30.5739 0.0000
# 6 0.0000 0.0000 0.0000 0.0000 0.0000 22.0890
#
#
#
# Elastic Compliance Matrix: (Units=1/GPa)
#
#
# Indices 1 2 3 4 5 6 
#
# 1 0.032389 -0.008754 -0.012268 0.000000 0.000000 0.000000
# 2 -0.008754 0.017293 -0.002896 0.000000 0.000000 0.000000
# 3 -0.012268 -0.002896 0.015045 0.000000 0.000000 0.000000
# 4 0.000000 0.000000 0.000000 0.046004 0.000000 0.000000
# 5 0.000000 0.000000 0.000000 0.000000 0.032708 0.000000
# 6 0.000000 0.000000 0.000000 0.000000 0.000000 0.045271
#
#
# Mechanical properties :
#
#
# Convention : Reuss Voigt Hill
#
# Bulk Modulus (GPa) = 59.20818 67.18554 63.19686
# Shear Modulus (GPa) = 20.64609 23.10636 21.87622
#
# Velocity S-wave (km/s) = 3.69785 3.91197 3.80642
# Velocity P-wave (km/s) = 7.57932 8.05619 7.82139
#
# Compressibility (1/GPa) = 0.01688956
#
# Stress axis : x y z
#
# Youngs Moduli (GPa) = 30.87460 57.82715 66.46932
#
# Poissons Ratio (x) = 0.50624 0.81544
# Poissons Ratio (y) = 0.27029 0.19250
# Poissons Ratio (z) = 0.37877 0.16747
#
# Static dielectric constant tensor:
#      x y z
#    x 2.980520 0.000000 0.000000 
#    y 0.000000 2.755650 0.000000 
#    z 0.000000 0.000000 2.981310 
# 
# 
# High freq. dielectric constant tensor:
#      x y z
#    x 1.583590 0.000000 0.000000 
#    y 0.000000 1.550340 0.000000 
#    z 0.000000 0.000000 1.573550 
# 
# From -- ./inp_files/33167.got.cif
#   From: 2010.03.12/outbox.cif.g09.slc.cpg/sg59_17_cif.got.tgz:33167.got - 2010.04.16 16:29:54.
