data_PCOD8240517
_publ_section_title
;
Structure prediction by ZEFSAII (Michael W. Deem and Ramdas Pophale) SiO2 
 PCOD8240517
Probable space group: P M M N
;
_chemical_formula_sum "Si O2"
_cell_formula_units_Z 48
_cell_length_a 13.691089
_cell_length_b 9.257180
_cell_length_c 23.838131
_cell_angle_alpha 90.000000
_cell_angle_beta 90.000000
_cell_angle_gamma 90.000000
_cell_volume 3021.265588
_symmetry_space_group_name_H-M "P M M N"
_symmetry_group_IT_number 59
_space_group.IT_coordinate_system_code '2'
_symmetry_cell_setting 'orthorhombic'
loop_
_space_group_symop_operation_xyz
x,y,z
1/2-x,1/2-y,z
1/2+x,-y,-z
-x,1/2+y,-z
-x,-y,-z
1/2+x,1/2+y,-z
1/2-x,y,z
x,1/2-y,z
loop_
_atom_site_type_symbol
_atom_site_label
_atom_site_fract_x
_atom_site_fract_y
_atom_site_fract_z
Si Si1 0.641874 0.421228 0.806640
Si Si2 0.454596 0.580217 0.082106
Si Si3 0.640767 0.582896 0.016321
Si Si4 0.364619 0.582799 0.318138
Si Si5 0.362292 0.418025 0.528468
Si Si6 0.028887 0.419049 0.415114
O O1 0.750000 0.484634 0.819026
O O2 0.648710 0.250000 0.806833
O O3 0.567337 0.476147 0.854803
O O4 0.606341 0.468497 0.744804
O O5 0.436201 0.750000 0.077902
O O6 0.565809 0.538638 0.065912
O O7 0.379262 0.506994 0.039582
O O8 0.750000 0.549741 0.037973
O O9 0.627315 0.750000 0.000610
O O10 0.250000 0.557662 0.328337
O O11 0.391534 0.750000 0.328314
O O12 0.426902 0.483928 0.358938
O O13 0.250000 0.464378 0.533992
O O14 0.377723 0.250000 0.541898
O O15 0.423807 0.509713 0.573123
O O16 0.397078 0.454387 0.465634
O O17 0.013232 0.250000 0.406808
#
# Coordination Sequence:
#
# PCOD8240517 Si02
#       6
#     8   8   8   8   8   8
#     4   8  14  25  42  63  83 106 142 183 214 244
#     4   9  16  27  44  62  81 111 147 177 208 252
#     4   9  17  27  39  60  89 113 134 170 219 261
#     4   9  17  29  45  64  87 116 147 179 217 259
#     4   9  18  32  48  66  90 119 149 180 213 253
#     4  10  19  30  46  69  94 117 143 178 219 261
#
# _framework density 15.887381
#
# number of rings (size 3 to 8) (size 9 to 14) (size 15 to 20)
#    0.000    3.000    0.000    2.500    0.000    3.000 
#    0.000    0.833    0.000    2.000    0.000    4.667 
#    0.000    0.000    0.000    0.000    0.000    0.000 
#
# Total GULP energy -595047.353322 kJ/mol
# GULP energy per Si atom -12396.819861 kJ/mol
# Density = 1.585122 g / cm^3
# Si number density = 15.887381 Si / 1000 Ang^3
#
#
#
# Elastic Constant Matrix: (Units=GPa)
#
#
# Indices 1 2 3 4 5 6 
#
# 1 115.6756 42.5906 70.9519 0.0000 0.0000 0.0000
# 2 42.5906 44.9811 42.8977 0.0000 0.0000 0.0000
# 3 70.9519 42.8977 130.6238 0.0000 0.0000 0.0000
# 4 0.0000 0.0000 0.0000 22.9427 0.0000 0.0000
# 5 0.0000 0.0000 0.0000 0.0000 24.7136 0.0000
# 6 0.0000 0.0000 0.0000 0.0000 0.0000 20.2112
#
#
#
# Elastic Compliance Matrix: (Units=1/GPa)
#
#
# Indices 1 2 3 4 5 6 
#
# 1 0.015363 -0.009593 -0.005195 0.000000 0.000000 0.000000
# 2 -0.009593 0.038359 -0.007387 0.000000 0.000000 0.000000
# 3 -0.005195 -0.007387 0.012903 0.000000 0.000000 0.000000
# 4 0.000000 0.000000 0.000000 0.043587 0.000000 0.000000
# 5 0.000000 0.000000 0.000000 0.000000 0.040464 0.000000
# 6 0.000000 0.000000 0.000000 0.000000 0.000000 0.049477
#
#
# Mechanical properties :
#
#
# Convention : Reuss Voigt Hill
#
# Bulk Modulus (GPa) = 44.88919 67.12899 56.00909
# Shear Modulus (GPa) = 19.84704 22.56285 21.20495
#
# Velocity S-wave (km/s) = 3.53828 3.77261 3.65732
# Velocity P-wave (km/s) = 6.70884 7.83081 7.29144
#
# Compressibility (1/GPa) = 0.02227708
#
# Stress axis : x y z
#
# Youngs Moduli (GPa) = 65.09175 26.06940 77.50099
#
# Poissons Ratio (x) = 0.25007 0.40258
# Poissons Ratio (y) = 0.62440 0.57250
# Poissons Ratio (z) = 0.33812 0.19257
#
# Static dielectric constant tensor:
#      x y z
#    x 3.073140 0.000000 0.000000 
#    y 0.000000 2.874930 0.000000 
#    z 0.000000 0.000000 3.148100 
# 
# 
# High freq. dielectric constant tensor:
#      x y z
#    x 1.602740 0.000000 0.000000 
#    y 0.000000 1.596800 0.000000 
#    z 0.000000 0.000000 1.602150 
# 
# From -- ./inp_files/31275.got.cif
#   From: 2010.03.12/outbox.cif.g09.slc.cpg/sg59_16_cif.got.tgz:31275.got - 2010.04.16 16:29:54.
