data_PCOD8240368
_publ_section_title
;
Structure prediction by ZEFSAII (Michael W. Deem and Ramdas Pophale) SiO2 
 PCOD8240368
Probable space group: P M M N
;
_chemical_formula_sum "Si O2"
_cell_formula_units_Z 48
_cell_length_a 9.005113
_cell_length_b 23.900814
_cell_length_c 13.516663
_cell_angle_alpha 90.000000
_cell_angle_beta 90.000000
_cell_angle_gamma 90.000000
_cell_volume 2909.185036
_symmetry_space_group_name_H-M "P M M N"
_symmetry_group_IT_number 59
_space_group.IT_coordinate_system_code '2'
_symmetry_cell_setting 'orthorhombic'
loop_
_space_group_symop_operation_xyz
x,y,z
1/2-x,1/2-y,z
1/2+x,-y,-z
-x,1/2+y,-z
-x,-y,-z
1/2+x,1/2+y,-z
1/2-x,y,z
x,1/2-y,z
loop_
_atom_site_type_symbol
_atom_site_label
_atom_site_fract_x
_atom_site_fract_y
_atom_site_fract_z
Si Si1 0.577047 0.685984 0.126156
Si Si2 0.423491 0.516848 0.850349
Si Si3 0.422757 0.477963 0.348254
Si Si4 0.423235 0.421062 0.548272
Si Si5 0.923434 0.082497 0.953734
Si Si6 0.574115 0.689239 0.349610
O O1 0.750000 0.671497 0.115235
O O2 0.546322 0.750000 0.094365
O O3 0.484085 0.645464 0.054680
O O4 0.520893 0.675763 0.238308
O O5 0.250000 0.507123 0.835931
O O6 0.492658 0.541665 0.750052
O O7 0.495662 0.456911 0.874134
O O8 0.459133 0.561378 0.935914
O O9 0.250000 0.483948 0.324658
O O10 0.453375 0.431407 0.432394
O O11 0.482794 0.537437 0.384314
O O12 0.250000 0.429873 0.573945
O O13 0.478865 0.358524 0.574344
O O14 0.750000 0.080737 0.930795
O O15 0.750000 0.692808 0.347757
O O16 0.510342 0.750000 0.383448
#
# Coordination Sequence:
#
# PCOD8240368 Si02
#       6
#     8   8   8   8   8   8
#     4   9  17  29  47  71  97 125 153 182 224 278
#     4  10  20  33  48  66  91 123 154 188 235 284
#     4  10  19  29  44  68  94 120 152 188 225 270
#     4   9  17  29  46  68  93 121 150 184 227 269
#     4  10  20  32  48  70  92 118 154 194 234 276
#     4   8  14  26  45  67  89 115 147 179 215 264
#
# _framework density 16.499466999999999
#
# number of rings (size 3 to 8) (size 9 to 14) (size 15 to 20)
#    0.000    2.667    0.000    3.500    0.000    4.333 
#    0.000    0.000    0.000    2.500    0.000    2.333 
#    0.000    0.000    0.000    0.000    0.000    0.000 
#
# Total GULP energy -595165.419644 kJ/mol
# GULP energy per Si atom -12399.279576 kJ/mol
# Density = 1.646191 g / cm^3
# Si number density = 16.499467 Si / 1000 Ang^3
#
#
#
# Elastic Constant Matrix: (Units=GPa)
#
#
# Indices 1 2 3 4 5 6 
#
# 1 70.2354 44.2510 46.9322 0.0000 0.0000 0.0000
# 2 44.2510 123.8820 58.4361 0.0000 0.0000 0.0000
# 3 46.9322 58.4361 98.4962 0.0000 0.0000 0.0000
# 4 0.0000 0.0000 0.0000 22.9333 0.0000 0.0000
# 5 0.0000 0.0000 0.0000 0.0000 27.4858 0.0000
# 6 0.0000 0.0000 0.0000 0.0000 0.0000 24.3676
#
#
#
# Elastic Compliance Matrix: (Units=1/GPa)
#
#
# Indices 1 2 3 4 5 6 
#
# 1 0.022294 -0.004100 -0.008190 0.000000 0.000000 0.000000
# 2 -0.004100 0.011963 -0.005144 0.000000 0.000000 0.000000
# 3 -0.008190 -0.005144 0.017107 0.000000 0.000000 0.000000
# 4 0.000000 0.000000 0.000000 0.043605 0.000000 0.000000
# 5 0.000000 0.000000 0.000000 0.000000 0.036382 0.000000
# 6 0.000000 0.000000 0.000000 0.000000 0.000000 0.041038
#
#
# Mechanical properties :
#
#
# Convention : Reuss Voigt Hill
#
# Bulk Modulus (GPa) = 60.62214 65.76135 63.19175
# Shear Modulus (GPa) = 23.50105 24.49028 23.99567
#
# Velocity S-wave (km/s) = 3.77815 3.85685 3.81770
# Velocity P-wave (km/s) = 7.47357 7.73155 7.60365
#
# Compressibility (1/GPa) = 0.01649562
#
# Stress axis : x y z
#
# Youngs Moduli (GPa) = 44.85541 83.58982 58.45543
#
# Poissons Ratio (x) = 0.34272 0.47877
# Poissons Ratio (y) = 0.18391 0.30069
# Poissons Ratio (z) = 0.36738 0.42998
#
# Static dielectric constant tensor:
#      x y z
#    x 3.009570 0.000000 0.000000 
#    y 0.000000 3.252220 0.000000 
#    z 0.000000 0.000000 3.098840 
# 
# 
# High freq. dielectric constant tensor:
#      x y z
#    x 1.628920 0.000000 0.000000 
#    y 0.000000 1.626990 0.000000 
#    z 0.000000 0.000000 1.624640 
# 
# From -- ./inp_files/14364.got.cif
#   From: 2010.03.12/outbox.cif.g09.slc.cpg/sg59_8_cif.got.tgz:14364.got - 2010.04.16 16:29:54.
