data_PCOD8240884
_publ_section_title
;
Structure prediction by ZEFSAII (Michael W. Deem and Ramdas Pophale) SiO2 
 PCOD8240884
Probable space group: P M M N
;
_chemical_formula_sum "Si O2"
_cell_formula_units_Z 56
_cell_length_a 9.658547
_cell_length_b 22.314285
_cell_length_c 14.593946
_cell_angle_alpha 90.000000
_cell_angle_beta 90.000000
_cell_angle_gamma 90.000000
_cell_volume 3145.339349
_symmetry_space_group_name_H-M "P M M N"
_symmetry_group_IT_number 59
_space_group.IT_coordinate_system_code '2'
_symmetry_cell_setting 'orthorhombic'
loop_
_space_group_symop_operation_xyz
x,y,z
1/2-x,1/2-y,z
1/2+x,-y,-z
-x,1/2+y,-z
-x,-y,-z
1/2+x,1/2+y,-z
1/2-x,y,z
x,1/2-y,z
loop_
_atom_site_type_symbol
_atom_site_label
_atom_site_fract_x
_atom_site_fract_y
_atom_site_fract_z
Si Si1 0.589026 0.143945 0.121933
Si Si2 0.590609 0.817214 0.711913
Si Si3 0.088941 0.430250 0.407797
Si Si4 0.409743 0.043335 0.613526
Si Si5 0.906635 0.010644 0.086715
Si Si6 0.405761 0.679824 0.078821
Si Si7 0.407626 0.103479 0.795022
O O1 0.750000 0.161815 0.133495
O O2 0.500780 0.178888 0.196841
O O3 0.562094 0.073575 0.135562
O O4 0.535002 0.162195 0.020838
O O5 0.750000 0.827891 0.739599
O O6 0.570738 0.750000 0.670766
O O7 0.543962 0.866844 0.637190
O O8 0.250000 0.443637 0.389734
O O9 0.055926 0.426825 0.515898
O O10 0.001533 0.484744 0.365313
O O11 0.250000 0.022733 0.620429
O O12 0.441518 0.095349 0.687533
O O13 0.750000 0.009014 0.050510
O O14 0.937284 0.960937 0.161520
O O15 0.000000 0.000000 0.000000
O O16 0.250000 0.654549 0.087573
O O17 0.409658 0.750000 0.091622
O O18 0.495447 0.652981 0.160660
O O19 0.250000 0.124134 0.810782
#
# Coordination Sequence:
#
# PCOD8240884 Si02
#       7
#     8   8   8   8   8   8   8
#     4  10  20  35  54  75 101 136 174 210 253 305
#     4  10  21  35  51  75 106 138 173 213 256 305
#     4   9  18  34  55  79 105 134 167 207 258 311
#     4   9  18  34  56  80 105 132 167 211 259 309
#     4  10  19  31  49  74 102 130 163 205 251 297
#     4  10  21  36  52  70  97 136 177 212 247 295
#     4  10  20  33  51  77 105 132 166 210 254 299
#
# _framework density 17.804120999999999
#
# number of rings (size 3 to 8) (size 9 to 14) (size 15 to 20)
#    0.000    2.286    1.429    1.286    0.000    4.571 
#    0.000    0.714    0.000    2.571    0.000    0.000 
#    0.000    0.000    0.000    0.000    0.000    0.000 
#
# Total GULP energy -694438.198632 kJ/mol
# GULP energy per Si atom -12400.682118 kJ/mol
# Density = 1.776360 g / cm^3
# Si number density = 17.804121 Si / 1000 Ang^3
#
#
#
# Elastic Constant Matrix: (Units=GPa)
#
#
# Indices 1 2 3 4 5 6 
#
# 1 57.0257 30.5447 41.3705 0.0000 0.0000 0.0000
# 2 30.5447 69.0440 32.9951 0.0000 0.0000 0.0000
# 3 41.3705 32.9951 92.2911 0.0000 0.0000 0.0000
# 4 0.0000 0.0000 0.0000 26.3667 0.0000 0.0000
# 5 0.0000 0.0000 0.0000 0.0000 27.5592 0.0000
# 6 0.0000 0.0000 0.0000 0.0000 0.0000 28.6173
#
#
#
# Elastic Compliance Matrix: (Units=1/GPa)
#
#
# Indices 1 2 3 4 5 6 
#
# 1 0.029286 -0.008059 -0.010247 0.000000 0.000000 0.000000
# 2 -0.008059 0.019686 -0.003425 0.000000 0.000000 0.000000
# 3 -0.010247 -0.003425 0.016653 0.000000 0.000000 0.000000
# 4 0.000000 0.000000 0.000000 0.037927 0.000000 0.000000
# 5 0.000000 0.000000 0.000000 0.000000 0.036286 0.000000
# 6 0.000000 0.000000 0.000000 0.000000 0.000000 0.034944
#
#
# Mechanical properties :
#
#
# Convention : Reuss Voigt Hill
#
# Bulk Modulus (GPa) = 45.12073 47.57571 46.34822
# Shear Modulus (GPa) = 22.16005 24.07201 23.11603
#
# Velocity S-wave (km/s) = 3.53180 3.68101 3.60718
# Velocity P-wave (km/s) = 6.48300 6.69673 6.59073
#
# Compressibility (1/GPa) = 0.02216276
#
# Stress axis : x y z
#
# Youngs Moduli (GPa) = 34.14549 50.79805 60.04929
#
# Poissons Ratio (x) = 0.40940 0.61530
# Poissons Ratio (y) = 0.27519 0.20568
# Poissons Ratio (z) = 0.34988 0.17399
#
# Static dielectric constant tensor:
#      x y z
#    x 3.143480 0.000000 0.000000 
#    y 0.000000 3.307280 0.000000 
#    z 0.000000 0.000000 3.180830 
# 
# 
# High freq. dielectric constant tensor:
#      x y z
#    x 1.686360 0.000000 0.000000 
#    y 0.000000 1.685560 0.000000 
#    z 0.000000 0.000000 1.685290 
# 
# From -- ./inp_files/21021.got.cif
#   From: 2010.03.12/outbox.cif.g09.slc.cpg/sg59_11_cif.got.tgz:21021.got - 2010.04.16 16:29:54.
