data_PCOD8240066
_publ_section_title
;
Structure prediction by ZEFSAII (Michael W. Deem and Ramdas Pophale) SiO2 
 PCOD8240066
Probable space group: P M M N
;
_chemical_formula_sum "Si O2"
_cell_formula_units_Z 48
_cell_length_a 17.882162
_cell_length_b 9.547613
_cell_length_c 15.831825
_cell_angle_alpha 90.000000
_cell_angle_beta 90.000000
_cell_angle_gamma 90.000000
_cell_volume 2702.998550
_symmetry_space_group_name_H-M "P M M N"
_symmetry_group_IT_number 59
_space_group.IT_coordinate_system_code '2'
_symmetry_cell_setting 'orthorhombic'
loop_
_space_group_symop_operation_xyz
x,y,z
1/2-x,1/2-y,z
1/2+x,-y,-z
-x,1/2+y,-z
-x,-y,-z
1/2+x,1/2+y,-z
1/2-x,y,z
x,1/2-y,z
loop_
_atom_site_type_symbol
_atom_site_label
_atom_site_fract_x
_atom_site_fract_y
_atom_site_fract_z
Si Si1 0.018896 0.912079 0.129255
Si Si2 0.250000 0.082938 0.720265
Si Si3 0.390002 0.415587 0.612691
Si Si4 0.405195 0.908232 0.959188
Si Si5 0.550067 0.084856 0.681138
Si Si6 0.837891 0.914671 0.570987
Si Si7 0.750000 0.406231 0.115030
O O1 0.996745 0.750000 0.128279
O O2 0.052682 0.951834 0.219737
O O3 0.076923 0.953709 0.055337
O O4 0.943406 0.996851 0.112104
O O5 0.250000 0.250000 0.725339
O O6 0.175840 0.026219 0.672816
O O7 0.250000 0.021927 0.813329
O O8 0.388247 0.250000 0.618308
O O9 0.471375 0.470362 0.642123
O O10 0.372731 0.465048 0.517827
O O11 0.432573 0.750000 0.943723
O O12 0.317854 0.927118 0.948567
O O13 0.560288 0.250000 0.664228
O O14 0.619581 0.001689 0.642447
O O15 0.750000 0.950432 0.573608
O O16 0.851106 0.750000 0.585404
O O17 0.750000 0.250000 0.155694
#
# Coordination Sequence:
#
# PCOD8240066 Si02
#       7
#     8   4   8   8   8   8   4
#     4   9  18  34  53  76 101 131 171 212 251 297
#     4  10  18  32  56  79 102 134 170 213 256 298
#     4   9  17  32  54  77 102 133 169 209 256 306
#     4   9  18  33  52  72 102 138 167 203 254 306
#     4  10  20  33  52  80 105 129 171 218 254 297
#     4  10  20  36  54  72 100 139 175 206 252 310
#     4  10  20  32  46  73 106 134 164 201 252 310
#
# _framework density 17.758056
#
# number of rings (size 3 to 8) (size 9 to 14) (size 15 to 20)
#    0.000    2.500    0.833    1.500    0.000    3.000 
#    1.500    1.667    0.000    0.000    0.000    0.000 
#    0.000    0.000    0.000    0.000    0.000    0.000 
#
# Total GULP energy -595153.476354 kJ/mol
# GULP energy per Si atom -12399.030757 kJ/mol
# Density = 1.771764 g / cm^3
# Si number density = 17.758056 Si / 1000 Ang^3
#
#
#
# Elastic Constant Matrix: (Units=GPa)
#
#
# Indices 1 2 3 4 5 6 
#
# 1 106.7540 42.1303 62.3934 0.0000 0.0000 0.0000
# 2 42.1303 42.3273 44.9845 0.0000 0.0000 0.0000
# 3 62.3934 44.9845 120.1652 0.0000 0.0000 0.0000
# 4 0.0000 0.0000 0.0000 26.8269 0.0000 0.0000
# 5 0.0000 0.0000 0.0000 0.0000 22.8827 0.0000
# 6 0.0000 0.0000 0.0000 0.0000 0.0000 27.6243
#
#
#
# Elastic Compliance Matrix: (Units=1/GPa)
#
#
# Indices 1 2 3 4 5 6 
#
# 1 0.016521 -0.012169 -0.004023 0.000000 0.000000 0.000000
# 2 -0.012169 0.048199 -0.011725 0.000000 0.000000 0.000000
# 3 -0.004023 -0.011725 0.014800 0.000000 0.000000 0.000000
# 4 0.000000 0.000000 0.000000 0.037276 0.000000 0.000000
# 5 0.000000 0.000000 0.000000 0.000000 0.043701 0.000000
# 6 0.000000 0.000000 0.000000 0.000000 0.000000 0.036200
#
#
# Mechanical properties :
#
#
# Convention : Reuss Voigt Hill
#
# Bulk Modulus (GPa) = 42.21823 63.14033 52.67928
# Shear Modulus (GPa) = 19.19940 23.44933 21.32437
#
# Velocity S-wave (km/s) = 3.29168 3.63780 3.46906
# Velocity P-wave (km/s) = 6.18648 7.29917 6.76574
#
# Compressibility (1/GPa) = 0.02368645
#
# Stress axis : x y z
#
# Youngs Moduli (GPa) = 60.52986 20.74749 67.56798
#
# Poissons Ratio (x) = 0.25247 0.27180
# Poissons Ratio (y) = 0.73657 0.79224
# Poissons Ratio (z) = 0.24349 0.24327
#
# Static dielectric constant tensor:
#      x y z
#    x 3.400680 0.000000 0.000000 
#    y 0.000000 3.117650 0.000000 
#    z 0.000000 0.000000 3.374590 
# 
# 
# High freq. dielectric constant tensor:
#      x y z
#    x 1.690900 0.000000 0.000000 
#    y 0.000000 1.665830 0.000000 
#    z 0.000000 0.000000 1.692250 
# 
# From -- ./inp_files/23698.got.cif
#   From: 2010.03.12/outbox.cif.g09.slc.cpg/sg59_12_cif.got.tgz:23698.got - 2010.04.16 16:29:54.
