data_PCOD8240317
_publ_section_title
;
Structure prediction by ZEFSAII (Michael W. Deem and Ramdas Pophale) SiO2 
 PCOD8240317
Probable space group: P M M N
;
_chemical_formula_sum "Si O2"
_cell_formula_units_Z 48
_cell_length_a 26.875196
_cell_length_b 9.049107
_cell_length_c 11.420790
_cell_angle_alpha 90.000000
_cell_angle_beta 90.000000
_cell_angle_gamma 90.000000
_cell_volume 2777.496432
_symmetry_space_group_name_H-M "P M M N"
_symmetry_group_IT_number 59
_space_group.IT_coordinate_system_code '2'
_symmetry_cell_setting 'orthorhombic'
loop_
_space_group_symop_operation_xyz
x,y,z
1/2-x,1/2-y,z
1/2+x,-y,-z
-x,1/2+y,-z
-x,-y,-z
1/2+x,1/2+y,-z
1/2-x,y,z
x,1/2-y,z
loop_
_atom_site_type_symbol
_atom_site_label
_atom_site_fract_x
_atom_site_fract_y
_atom_site_fract_z
Si Si1 0.450535 0.587080 0.510137
Si Si2 0.049351 0.422553 0.866927
Si Si3 0.623493 0.576906 0.329382
Si Si4 0.307418 0.576554 0.506433
Si Si5 0.119551 0.588195 0.306043
Si Si6 0.052216 0.423059 0.136794
O O1 0.500000 0.500000 0.500000
O O2 0.456191 0.750000 0.570235
O O3 0.416182 0.473927 0.577246
O O4 0.429827 0.610827 0.381227
O O5 0.038358 0.250000 0.849101
O O6 0.099846 0.468276 0.796634
O O7 0.000110 0.506686 0.819262
O O8 0.059690 0.463471 0.000961
O O9 0.633527 0.750000 0.335830
O O10 0.674531 0.496442 0.370346
O O11 0.250000 0.538158 0.488534
O O12 0.318192 0.750000 0.519090
O O13 0.336662 0.519922 0.389479
O O14 0.136349 0.750000 0.257162
O O15 0.102316 0.482547 0.200147
O O16 0.048786 0.250000 0.159843
#
# Coordination Sequence:
#
# PCOD8240317 Si02
#       6
#     8   8   8   8   8   8
#     4  10  19  29  42  64  95 126 155 190 233 280
#     4   9  19  33  46  66  99 133 161 192 231 272
#     4  10  19  31  48  69  94 124 157 193 235 285
#     4   9  19  36  55  73  94 120 152 196 248 293
#     4   9  18  31  46  66  93 123 152 188 237 284
#     4  10  19  30  47  70  96 129 166 197 224 265
#
# _framework density 17.281751
#
# number of rings (size 3 to 8) (size 9 to 14) (size 15 to 20)
#    0.000    2.500    0.000    3.500    0.000    9.667 
#    0.000    0.000    0.000    1.000    0.000    4.667 
#    0.000    0.000    0.000    0.000    0.000    0.000 
#
# Total GULP energy -594639.300767 kJ/mol
# GULP energy per Si atom -12388.318766 kJ/mol
# Density = 1.724242 g / cm^3
# Si number density = 17.281751 Si / 1000 Ang^3
#
#
#
# Elastic Constant Matrix: (Units=GPa)
#
#
# Indices 1 2 3 4 5 6 
#
# 1 110.8750 43.3765 46.4294 0.0000 0.0000 0.0000
# 2 43.3765 56.0765 36.2385 0.0000 0.0000 0.0000
# 3 46.4294 36.2385 77.3184 0.0000 0.0000 0.0000
# 4 0.0000 0.0000 0.0000 25.9013 0.0000 0.0000
# 5 0.0000 0.0000 0.0000 0.0000 26.2302 0.0000
# 6 0.0000 0.0000 0.0000 0.0000 0.0000 24.7425
#
#
#
# Elastic Compliance Matrix: (Units=1/GPa)
#
#
# Indices 1 2 3 4 5 6 
#
# 1 0.014076 -0.007783 -0.004805 0.000000 0.000000 0.000000
# 2 -0.007783 0.029884 -0.009333 0.000000 0.000000 0.000000
# 3 -0.004805 -0.009333 0.020193 0.000000 0.000000 0.000000
# 4 0.000000 0.000000 0.000000 0.038608 0.000000 0.000000
# 5 0.000000 0.000000 0.000000 0.000000 0.038124 0.000000
# 6 0.000000 0.000000 0.000000 0.000000 0.000000 0.040416
#
#
# Mechanical properties :
#
#
# Convention : Reuss Voigt Hill
#
# Bulk Modulus (GPa) = 49.23193 55.15097 52.19145
# Shear Modulus (GPa) = 21.55972 23.25651 22.40811
#
# Velocity S-wave (km/s) = 3.53589 3.67239 3.60479
# Velocity P-wave (km/s) = 6.72456 7.06853 6.89869
#
# Compressibility (1/GPa) = 0.02031202
#
# Stress axis : x y z
#
# Youngs Moduli (GPa) = 71.04233 33.46226 49.52231
#
# Poissons Ratio (x) = 0.26044 0.23794
# Poissons Ratio (y) = 0.55294 0.46218
# Poissons Ratio (z) = 0.34134 0.31230
#
# Static dielectric constant tensor:
#      x y z
#    x 2.953150 0.000000 0.000000 
#    y 0.000000 3.382400 0.000000 
#    z 0.000000 0.000000 3.279300 
# 
# 
# High freq. dielectric constant tensor:
#      x y z
#    x 1.644900 0.000000 0.000000 
#    y 0.000000 1.673350 0.000000 
#    z 0.000000 0.000000 1.654680 
# 
# From -- ./inp_files/14495.got.cif
#   From: 2010.03.12/outbox.cif.g09.slc.cpg/sg59_8_cif.got.tgz:14495.got - 2010.04.16 16:29:54.
