data_PCOD8240422
_publ_section_title
;
Structure prediction by ZEFSAII (Michael W. Deem and Ramdas Pophale) SiO2 
 PCOD8240422
Probable space group: P M M N
;
_chemical_formula_sum "Si O2"
_cell_formula_units_Z 64
_cell_length_a 9.084071
_cell_length_b 28.372195
_cell_length_c 15.582004
_cell_angle_alpha 90.000000
_cell_angle_beta 90.000000
_cell_angle_gamma 90.000000
_cell_volume 4016.028328
_symmetry_space_group_name_H-M "P M M N"
_symmetry_group_IT_number 59
_space_group.IT_coordinate_system_code '2'
_symmetry_cell_setting 'orthorhombic'
loop_
_space_group_symop_operation_xyz
x,y,z
1/2-x,1/2-y,z
1/2+x,-y,-z
-x,1/2+y,-z
-x,-y,-z
1/2+x,1/2+y,-z
1/2-x,y,z
x,1/2-y,z
loop_
_atom_site_type_symbol
_atom_site_label
_atom_site_fract_x
_atom_site_fract_y
_atom_site_fract_z
Si Si1 0.577853 0.050307 0.407472
Si Si2 0.084117 0.194010 0.993215
Si Si3 0.919321 0.194577 0.502124
Si Si4 0.922139 0.304985 0.162558
Si Si5 0.423433 0.855470 0.669328
Si Si6 0.921928 0.650470 0.337595
Si Si7 0.080000 0.053728 0.582904
Si Si8 0.077390 0.804934 0.177135
O O1 0.750000 0.053431 0.423507
O O2 0.532293 0.089012 0.335854
O O3 0.507102 0.065470 0.497001
O O4 0.530446 0.997416 0.379000
O O5 0.250000 0.174218 0.989227
O O6 0.082737 0.250000 0.994458
O O7 0.005497 0.175249 0.078989
O O8 0.995143 0.176087 0.910421
O O9 0.750000 0.179656 0.519895
O O10 0.932824 0.250000 0.490623
O O11 0.982377 0.170989 0.415407
O O12 0.019901 0.178580 0.580576
O O13 0.750000 0.314643 0.148729
O O14 0.953073 0.250000 0.177999
O O15 0.989487 0.333029 0.244040
O O16 0.250000 0.847569 0.673274
O O17 0.750000 0.661899 0.326002
O O18 0.950477 0.594425 0.347911
O O19 0.009686 0.665751 0.254242
O O20 0.250000 0.052211 0.556858
O O21 0.250000 0.814384 0.171964
O O22 0.042656 0.750000 0.192255
#
# Coordination Sequence:
#
# PCOD8240422 Si02
#       8
#     8   8   8   8   8   8   8   8
#     4   9  16  29  48  65  84 114 154 194 230 266
#     4   9  17  30  47  67  91 118 147 181 223 266
#     4  10  19  30  43  61  88 122 159 191 217 254
#     4   9  16  27  44  66  92 120 150 183 218 260
#     4   9  16  27  45  67  88 117 154 189 223 260
#     4  11  21  31  43  63  92 122 151 184 228 275
#     4   9  18  30  44  64  88 115 149 192 234 270
#     4  10  20  33  49  68  89 116 152 189 222 262
#
# _framework density 15.936142
#
# number of rings (size 3 to 8) (size 9 to 14) (size 15 to 20)
#    0.000    2.500    1.250    1.875    0.000    6.000 
#    0.000    1.250    0.000    1.500    0.000    0.875 
#    0.000    0.000    0.000    0.000    0.000    0.000 
#
# Total GULP energy -793433.413014 kJ/mol
# GULP energy per Si atom -12397.397078 kJ/mol
# Density = 1.589987 g / cm^3
# Si number density = 15.936142 Si / 1000 Ang^3
#
#
#
# Elastic Constant Matrix: (Units=GPa)
#
#
# Indices 1 2 3 4 5 6 
#
# 1 62.7184 34.6750 49.9817 0.0000 0.0000 0.0000
# 2 34.6750 78.8281 55.0945 0.0000 0.0000 0.0000
# 3 49.9817 55.0945 140.1170 0.0000 0.0000 0.0000
# 4 0.0000 0.0000 0.0000 9.6134 0.0000 0.0000
# 5 0.0000 0.0000 0.0000 0.0000 17.7346 0.0000
# 6 0.0000 0.0000 0.0000 0.0000 0.0000 16.3325
#
#
#
# Elastic Compliance Matrix: (Units=1/GPa)
#
#
# Indices 1 2 3 4 5 6 
#
# 1 0.024425 -0.006418 -0.006189 0.000000 0.000000 0.000000
# 2 -0.006418 0.019180 -0.005252 0.000000 0.000000 0.000000
# 3 -0.006189 -0.005252 0.011410 0.000000 0.000000 0.000000
# 4 0.000000 0.000000 0.000000 0.104022 0.000000 0.000000
# 5 0.000000 0.000000 0.000000 0.000000 0.056387 0.000000
# 6 0.000000 0.000000 0.000000 0.000000 0.000000 0.061228
#
#
# Mechanical properties :
#
#
# Convention : Reuss Voigt Hill
#
# Bulk Modulus (GPa) = 51.82521 62.35175 57.08848
# Shear Modulus (GPa) = 15.68372 18.19692 16.94032
#
# Velocity S-wave (km/s) = 3.14054 3.38282 3.26392
# Velocity P-wave (km/s) = 6.76327 7.38030 7.07851
#
# Compressibility (1/GPa) = 0.01929563
#
# Stress axis : x y z
#
# Youngs Moduli (GPa) = 40.94168 52.13775 87.64469
#
# Poissons Ratio (x) = 0.33465 0.54243
# Poissons Ratio (y) = 0.26278 0.46031
# Poissons Ratio (z) = 0.25339 0.27383
#
# Static dielectric constant tensor:
#      x y z
#    x 3.029130 0.000000 0.000000 
#    y 0.000000 3.142660 0.000000 
#    z 0.000000 0.000000 3.081880 
# 
# 
# High freq. dielectric constant tensor:
#      x y z
#    x 1.607890 0.000000 0.000000 
#    y 0.000000 1.596270 0.000000 
#    z 0.000000 0.000000 1.601390 
# 
# From -- ./inp_files/21819.got.cif
#   From: 2010.03.12/outbox.cif.g09.slc.cpg/sg59_11_cif.got.tgz:21819.got - 2010.04.16 16:29:54.
