data_PCOD8240955
_publ_section_title
;
Structure prediction by ZEFSAII (Michael W. Deem and Ramdas Pophale) SiO2 
 PCOD8240955
Probable space group: P M M N
;
_chemical_formula_sum "Si O2"
_cell_formula_units_Z 56
_cell_length_a 9.161178
_cell_length_b 22.384631
_cell_length_c 14.649727
_cell_angle_alpha 90.000000
_cell_angle_beta 90.000000
_cell_angle_gamma 90.000000
_cell_volume 3004.213496
_symmetry_space_group_name_H-M "P M M N"
_symmetry_group_IT_number 59
_space_group.IT_coordinate_system_code '2'
_symmetry_cell_setting 'orthorhombic'
loop_
_space_group_symop_operation_xyz
x,y,z
1/2-x,1/2-y,z
1/2+x,-y,-z
-x,1/2+y,-z
-x,-y,-z
1/2+x,1/2+y,-z
1/2-x,y,z
x,1/2-y,z
loop_
_atom_site_type_symbol
_atom_site_label
_atom_site_fract_x
_atom_site_fract_y
_atom_site_fract_z
Si Si1 0.415470 0.816653 0.567237
Si Si2 0.417031 0.019403 0.588826
Si Si3 0.919857 0.089376 0.285715
Si Si4 0.419611 0.317187 0.813548
Si Si5 0.078985 0.445302 0.110172
Si Si6 0.420123 0.347519 0.612201
Si Si7 0.078460 0.919591 0.074557
O O1 0.250000 0.836685 0.546938
O O2 0.423314 0.750000 0.607891
O O3 0.481096 0.861248 0.643235
O O4 0.499615 0.817199 0.472118
O O5 0.250000 0.019871 0.559809
O O6 0.470027 0.083947 0.621450
O O7 0.500000 0.000000 0.500000
O O8 0.446407 0.975518 0.672216
O O9 0.750000 0.100838 0.262448
O O10 0.015008 0.091927 0.194626
O O11 0.250000 0.335472 0.824785
O O12 0.447549 0.250000 0.851800
O O13 0.462837 0.315962 0.706746
O O14 0.517517 0.365536 0.864992
O O15 0.250000 0.432733 0.101732
O O16 0.046775 0.516155 0.121461
O O17 0.001120 0.418074 0.022166
O O18 0.250000 0.340826 0.592104
O O19 0.250000 0.909973 0.059663
#
# Coordination Sequence:
#
# PCOD8240955 Si02
#       7
#     8   8   8   8   8   8   8
#     4  10  21  36  53  74 104 144 187 227 267 317
#     4  10  19  31  50  77 107 141 180 223 272 321
#     4  10  20  35  54  78 109 144 181 225 276 326
#     4  10  21  37  57  82 114 151 189 229 274 329
#     4  10  21  37  60  87 111 140 180 227 280 336
#     4  10  20  34  54  79 108 145 186 226 272 325
#     4  10  21  38  60  86 113 142 178 225 279 336
#
# _framework density 18.640485999999999
#
# number of rings (size 3 to 8) (size 9 to 14) (size 15 to 20)
#    0.000    2.000    1.429    2.143    0.000    5.714 
#    0.000    0.714    0.000    2.571    0.000    0.000 
#    0.000    0.000    0.000    0.000    0.000    0.000 
#
# Total GULP energy -694438.627361 kJ/mol
# GULP energy per Si atom -12400.689774 kJ/mol
# Density = 1.859806 g / cm^3
# Si number density = 18.640486 Si / 1000 Ang^3
#
#
#
# Elastic Constant Matrix: (Units=GPa)
#
#
# Indices 1 2 3 4 5 6 
#
# 1 77.0548 35.8790 58.8253 0.0000 0.0000 0.0000
# 2 35.8790 96.5731 42.7430 0.0000 0.0000 0.0000
# 3 58.8253 42.7430 113.8228 0.0000 0.0000 0.0000
# 4 0.0000 0.0000 0.0000 22.6860 0.0000 0.0000
# 5 0.0000 0.0000 0.0000 0.0000 37.7080 0.0000
# 6 0.0000 0.0000 0.0000 0.0000 0.0000 25.8005
#
#
#
# Elastic Compliance Matrix: (Units=1/GPa)
#
#
# Indices 1 2 3 4 5 6 
#
# 1 0.022578 -0.003866 -0.010217 0.000000 0.000000 0.000000
# 2 -0.003866 0.013081 -0.002914 0.000000 0.000000 0.000000
# 3 -0.010217 -0.002914 0.015160 0.000000 0.000000 0.000000
# 4 0.000000 0.000000 0.000000 0.044080 0.000000 0.000000
# 5 0.000000 0.000000 0.000000 0.000000 0.026520 0.000000
# 6 0.000000 0.000000 0.000000 0.000000 0.000000 0.038759
#
#
# Mechanical properties :
#
#
# Convention : Reuss Voigt Hill
#
# Bulk Modulus (GPa) = 59.43616 62.48280 60.95948
# Shear Modulus (GPa) = 25.02765 27.23913 26.13339
#
# Velocity S-wave (km/s) = 3.66819 3.82683 3.74835
# Velocity P-wave (km/s) = 7.06368 7.28827 7.17685
#
# Compressibility (1/GPa) = 0.01682477
#
# Stress axis : x y z
#
# Youngs Moduli (GPa) = 44.29183 76.44675 65.96332
#
# Poissons Ratio (x) = 0.29556 0.67392
# Poissons Ratio (y) = 0.17124 0.19222
# Poissons Ratio (z) = 0.45251 0.22277
#
# Static dielectric constant tensor:
#      x y z
#    x 3.357550 0.000000 0.000000 
#    y 0.000000 3.534260 0.000000 
#    z 0.000000 0.000000 3.236900 
# 
# 
# High freq. dielectric constant tensor:
#      x y z
#    x 1.719220 0.000000 0.000000 
#    y 0.000000 1.727650 0.000000 
#    z 0.000000 0.000000 1.718230 
# 
# From -- ./inp_files/21010.got.cif
#   From: 2010.03.12/outbox.cif.g09.slc.cpg/sg59_11_cif.got.tgz:21010.got - 2010.04.16 16:29:54.
