data_PCOD8240646
_publ_section_title
;
Structure prediction by ZEFSAII (Michael W. Deem and Ramdas Pophale) SiO2 
 PCOD8240646
Probable space group: P M M N
;
_chemical_formula_sum "Si O2"
_cell_formula_units_Z 64
_cell_length_a 29.297988
_cell_length_b 8.741231
_cell_length_c 14.964381
_cell_angle_alpha 90.000000
_cell_angle_beta 90.000000
_cell_angle_gamma 90.000000
_cell_volume 3832.385171
_symmetry_space_group_name_H-M "P M M N"
_symmetry_group_IT_number 59
_space_group.IT_coordinate_system_code '2'
_symmetry_cell_setting 'orthorhombic'
loop_
_space_group_symop_operation_xyz
x,y,z
1/2-x,1/2-y,z
1/2+x,-y,-z
-x,1/2+y,-z
-x,-y,-z
1/2+x,1/2+y,-z
1/2-x,y,z
x,1/2-y,z
loop_
_atom_site_type_symbol
_atom_site_label
_atom_site_fract_x
_atom_site_fract_y
_atom_site_fract_z
Si Si1 0.392073 0.569643 0.039211
Si Si2 0.029139 0.428815 0.369248
Si Si3 0.441659 0.428213 0.871951
Si Si4 0.122870 0.423792 0.708481
Si Si5 0.037163 0.432230 0.171608
Si Si6 0.059686 0.427422 0.554809
Si Si7 0.198943 0.922663 0.807148
Si Si8 0.698384 0.571455 0.006699
O O1 0.397736 0.750000 0.047196
O O2 0.418815 0.488388 0.118837
O O3 0.410407 0.513205 0.943945
O O4 0.338707 0.523513 0.049831
O O5 0.029541 0.250000 0.356308
O O6 0.978581 0.476348 0.395601
O O7 0.042900 0.497747 0.272961
O O8 0.063656 0.477189 0.450140
O O9 0.444727 0.250000 0.897206
O O10 0.419341 0.455249 0.775137
O O11 0.492055 0.498531 0.873707
O O12 0.139740 0.250000 0.718818
O O13 0.106913 0.457430 0.606849
O O14 0.164972 0.535245 0.727160
O O15 0.033755 0.250000 0.167004
O O16 0.045403 0.250000 0.561620
O O17 0.250000 0.938325 0.769092
O O18 0.189371 0.750000 0.840467
O O19 0.190835 0.037299 0.888833
O O20 0.750000 0.523577 0.978168
O O21 0.690077 0.750000 0.990794
#
# Coordination Sequence:
#
# PCOD8240646 Si02
#       8
#     8   8   8   8   8   8   8   8
#     4  12  24  36  51  71  97 133 170 206 245 290
#     4   9  18  31  49  71  95 125 160 200 243 284
#     4  11  21  34  49  70 100 135 171 204 240 285
#     4  10  19  30  49  72  99 133 164 198 240 289
#     4  11  22  35  50  70  99 134 171 209 248 291
#     4   9  17  31  49  71  97 124 158 198 240 286
#     4  10  20  32  48  71  99 129 162 201 241 287
#     4  10  20  35  54  74  97 125 159 201 248 295
#
# _framework density 16.699784000000001
#
# number of rings (size 3 to 8) (size 9 to 14) (size 15 to 20)
#    0.000    1.750    2.500    3.000    0.000    3.000 
#    0.000    0.000    0.000    0.000    0.000    0.875 
#    0.000    3.000    0.000    0.000    0.000    0.000 
#
# Total GULP energy -793508.482398 kJ/mol
# GULP energy per Si atom -12398.570037 kJ/mol
# Density = 1.666177 g / cm^3
# Si number density = 16.699784 Si / 1000 Ang^3
#
#
#
# Elastic Constant Matrix: (Units=GPa)
#
#
# Indices 1 2 3 4 5 6 
#
# 1 90.5484 10.7408 24.8451 0.0000 0.0000 0.0000
# 2 10.7408 17.0095 -1.0956 0.0000 0.0000 0.0000
# 3 24.8451 -1.0956 58.9219 0.0000 0.0000 0.0000
# 4 0.0000 0.0000 0.0000 16.7066 0.0000 0.0000
# 5 0.0000 0.0000 0.0000 0.0000 18.4161 0.0000
# 6 0.0000 0.0000 0.0000 0.0000 0.0000 28.9690
#
#
#
# Elastic Compliance Matrix: (Units=1/GPa)
#
#
# Indices 1 2 3 4 5 6 
#
# 1 0.013758 -0.009072 -0.005970 0.000000 0.000000 0.000000
# 2 -0.009072 0.064844 0.005031 0.000000 0.000000 0.000000
# 3 -0.005970 0.005031 0.019582 0.000000 0.000000 0.000000
# 4 0.000000 0.000000 0.000000 0.059857 0.000000 0.000000
# 5 0.000000 0.000000 0.000000 0.000000 0.054300 0.000000
# 6 0.000000 0.000000 0.000000 0.000000 0.000000 0.034520
#
#
# Mechanical properties :
#
#
# Convention : Reuss Voigt Hill
#
# Bulk Modulus (GPa) = 12.79394 26.16226 19.47810
# Shear Modulus (GPa) = 17.06853 21.61762 19.34307
#
# Velocity S-wave (km/s) = 3.20047 3.60180 3.40705
# Velocity P-wave (km/s) = 4.61899 5.74435 5.21213
#
# Compressibility (1/GPa) = 0.07816202
#
# Stress axis : x y z
#
# Youngs Moduli (GPa) = 72.68496 15.42173 51.06612
#
# Poissons Ratio (x) = 0.13991 0.30486
# Poissons Ratio (y) = 0.65941 -0.25692
# Poissons Ratio (z) = 0.43392 -0.07759
#
# Static dielectric constant tensor:
#      x y z
#    x 3.118250 0.000000 0.000000 
#    y 0.000000 3.188990 0.000000 
#    z 0.000000 0.000000 3.304740 
# 
# 
# High freq. dielectric constant tensor:
#      x y z
#    x 1.629250 0.000000 0.000000 
#    y 0.000000 1.653080 0.000000 
#    z 0.000000 0.000000 1.624700 
# 
# From -- ./inp_files/25100.got.cif
#   From: 2010.03.12/outbox.cif.g09.slc.cpg/sg59_13_cif.got.tgz:25100.got - 2010.04.16 16:29:54.
