data_PCOD8240677
_publ_section_title
;
Structure prediction by ZEFSAII (Michael W. Deem and Ramdas Pophale) SiO2 
 PCOD8240677
Probable space group: P M M N
;
_chemical_formula_sum "Si O2"
_cell_formula_units_Z 56
_cell_length_a 15.070183
_cell_length_b 9.121420
_cell_length_c 21.578505
_cell_angle_alpha 90.000000
_cell_angle_beta 90.000000
_cell_angle_gamma 90.000000
_cell_volume 2966.212988
_symmetry_space_group_name_H-M "P M M N"
_symmetry_group_IT_number 59
_space_group.IT_coordinate_system_code '2'
_symmetry_cell_setting 'orthorhombic'
loop_
_space_group_symop_operation_xyz
x,y,z
1/2-x,1/2-y,z
1/2+x,-y,-z
-x,1/2+y,-z
-x,-y,-z
1/2+x,1/2+y,-z
1/2-x,y,z
x,1/2-y,z
loop_
_atom_site_type_symbol
_atom_site_label
_atom_site_fract_x
_atom_site_fract_y
_atom_site_fract_z
Si Si1 0.655125 0.577333 0.696504
Si Si2 0.488895 0.421882 0.909179
Si Si3 0.152076 0.914100 0.685028
Si Si4 0.084437 0.418971 0.433649
Si Si5 0.504854 0.424953 0.221926
Si Si6 0.402306 0.418472 0.569283
Si Si7 0.645328 0.421150 0.002312
O O1 0.750000 0.513950 0.718541
O O2 0.652251 0.750000 0.704456
O O3 0.646096 0.538166 0.623919
O O4 0.579581 0.512453 0.740509
O O5 0.472013 0.250000 0.902887
O O6 0.493909 0.496285 0.843093
O O7 0.402370 0.488513 0.943189
O O8 0.584285 0.453186 0.941884
O O9 0.250000 0.916264 0.713945
O O10 0.119417 0.750000 0.669742
O O11 0.088158 0.980088 0.737388
O O12 0.155488 0.999288 0.620260
O O13 0.051925 0.250000 0.428998
O O14 0.135493 0.443098 0.499265
O O15 0.002148 0.526364 0.429019
O O16 0.504755 0.250000 0.211995
O O17 0.400261 0.250000 0.587896
O O18 0.750000 0.468184 0.992832
O O19 0.641571 0.250000 0.019612
#
# Coordination Sequence:
#
# PCOD8240677 Si02
#       7
#     8   8   8   8   8   8   8
#     4   9  17  31  53  77 100 133 180 227 266 314
#     4  10  21  36  57  87 118 146 179 223 271 309
#     4  10  21  37  55  73  99 141 187 227 271 326
#     4   9  17  32  52  74 102 137 175 218 273 336
#     4  10  20  36  55  76 107 146 187 222 260 319
#     4  10  19  30  51  78 103 132 172 226 284 331
#     4   9  19  38  62  86 115 151 185 214 254 316
#
# _framework density 18.879290000000001
#
# number of rings (size 3 to 8) (size 9 to 14) (size 15 to 20)
#    0.000    2.429    1.429    0.857    0.000    4.000 
#    0.000    2.857    0.000    1.286    0.000    0.000 
#    0.000    0.000    0.000    0.000    0.000    0.000 
#
# Total GULP energy -693955.543447 kJ/mol
# GULP energy per Si atom -12392.063276 kJ/mol
# Density = 1.883632 g / cm^3
# Si number density = 18.879290 Si / 1000 Ang^3
#
#
#
# Elastic Constant Matrix: (Units=GPa)
#
#
# Indices 1 2 3 4 5 6 
#
# 1 138.9909 36.0254 72.6535 0.0000 0.0000 0.0000
# 2 36.0254 59.1728 53.1616 0.0000 0.0000 0.0000
# 3 72.6535 53.1616 157.1382 0.0000 0.0000 0.0000
# 4 0.0000 0.0000 0.0000 31.7522 0.0000 0.0000
# 5 0.0000 0.0000 0.0000 0.0000 -0.7733 0.0000
# 6 0.0000 0.0000 0.0000 0.0000 0.0000 15.9816
#
#
#
# Elastic Compliance Matrix: (Units=1/GPa)
#
#
# Indices 1 2 3 4 5 6 
#
# 1 0.009783 -0.002719 -0.003603 0.000000 0.000000 0.000000
# 2 -0.002719 0.025035 -0.007213 0.000000 0.000000 0.000000
# 3 -0.003603 -0.007213 0.010470 0.000000 0.000000 0.000000
# 4 0.000000 0.000000 0.000000 0.031494 0.000000 0.000000
# 5 0.000000 0.000000 0.000000 0.000000 -1.293208 0.000000
# 6 0.000000 0.000000 0.000000 0.000000 0.000000 0.062572
#
#
# Mechanical properties :
#
#
# Convention : Reuss Voigt Hill
#
# Bulk Modulus (GPa) = 54.88973 75.44255 65.16614
# Shear Modulus (GPa) = -4.46145 22.28954 8.91405
#
# Velocity S-wave (km/s) = -1.53892 3.43976 2.17528
# Velocity P-wave (km/s) = 5.09701 7.47149 6.39541
#
# Compressibility (1/GPa) = 0.01821834
#
# Stress axis : x y z
#
# Youngs Moduli (GPa) = 102.21840 39.94465 95.51131
#
# Poissons Ratio (x) = 0.10860 0.34417
# Poissons Ratio (y) = 0.27790 0.68888
# Poissons Ratio (z) = 0.36834 0.28810
#
# Static dielectric constant tensor:
#      x y z
#    x 3.638890 0.000000 0.000000 
#    y 0.000000 3.315900 0.000000 
#    z 0.000000 0.000000 3.534900 
# 
# 
# High freq. dielectric constant tensor:
#      x y z
#    x 1.734210 0.000000 0.000000 
#    y 0.000000 1.713130 0.000000 
#    z 0.000000 0.000000 1.734820 
# 
# From -- ./inp_files/30298.got.cif
#   From: 2010.03.12/outbox.cif.g09.slc.cpg/sg59_16_cif.got.tgz:30298.got - 2010.04.16 16:29:54.
