data_PCOD8240172
_publ_section_title
;
Structure prediction by ZEFSAII (Michael W. Deem and Ramdas Pophale) SiO2 
 PCOD8240172
Probable space group: P M M N
;
_chemical_formula_sum "Si O2"
_cell_formula_units_Z 48
_cell_length_a 9.065332
_cell_length_b 9.750814
_cell_length_c 28.841194
_cell_angle_alpha 90.000000
_cell_angle_beta 90.000000
_cell_angle_gamma 90.000000
_cell_volume 2549.399064
_symmetry_space_group_name_H-M "P M M N"
_symmetry_group_IT_number 59
_space_group.IT_coordinate_system_code '2'
_symmetry_cell_setting 'orthorhombic'
loop_
_space_group_symop_operation_xyz
x,y,z
1/2-x,1/2-y,z
1/2+x,-y,-z
-x,1/2+y,-z
-x,-y,-z
1/2+x,1/2+y,-z
1/2-x,y,z
x,1/2-y,z
loop_
_atom_site_type_symbol
_atom_site_label
_atom_site_fract_x
_atom_site_fract_y
_atom_site_fract_z
Si Si1 0.075130 0.750000 0.034026
Si Si2 0.576665 0.750000 0.935542
Si Si3 0.421530 0.908508 0.358358
Si Si4 0.423871 0.530757 0.105959
Si Si5 0.921644 0.402895 0.535793
Si Si6 0.576623 0.405704 0.792207
Si Si7 0.575325 0.409820 0.283210
O O1 0.250000 0.750000 0.027190
O O2 0.016631 0.879893 0.063150
O O3 0.002682 0.750000 0.984310
O O4 0.750000 0.750000 0.945643
O O5 0.526574 0.623227 0.904202
O O6 0.250000 0.927847 0.345606
O O7 0.466580 0.750000 0.348922
O O8 0.452139 0.948813 0.411545
O O9 0.518062 0.013210 0.328802
O O10 0.250000 0.549974 0.108081
O O11 0.486314 0.578733 0.155549
O O12 0.750000 0.407039 0.525143
O O13 0.983452 0.250000 0.528334
O O14 0.000000 0.500000 0.500000
O O15 0.750000 0.438795 0.789705
O O16 0.545974 0.250000 0.775035
O O17 0.492511 0.515964 0.761341
O O18 0.750000 0.423256 0.281181
O O19 0.526829 0.250000 0.284143
#
# Coordination Sequence:
#
# PCOD8240172 Si02
#       7
#     4   4   8   8   8   8   8
#     4  10  18  34  54  74 104 138 172 212 259 310
#     4  10  20  32  50  78 108 136 172 214 255 308
#     4   9  19  38  61  83 109 146 193 236 272 322
#     4   9  18  33  54  78 103 134 174 217 259 310
#     4   9  19  35  55  82 116 151 189 234 279 323
#     4  10  20  37  61  84 104 136 184 229 269 322
#     4  11  25  40  54  80 116 146 175 222 282 337
#
# _framework density 18.827967000000001
#
# number of rings (size 3 to 8) (size 9 to 14) (size 15 to 20)
#    0.000    2.333    0.833    2.500    1.167    5.667 
#    0.000    6.667    0.000    0.000    0.000    0.000 
#    0.000    0.000    0.000    0.000    0.000    0.000 
#
# Total GULP energy -595111.054511 kJ/mol
# GULP energy per Si atom -12398.146969 kJ/mol
# Density = 1.878511 g / cm^3
# Si number density = 18.827967 Si / 1000 Ang^3
#
#
#
# Elastic Constant Matrix: (Units=GPa)
#
#
# Indices 1 2 3 4 5 6 
#
# 1 52.3074 49.6296 43.0947 0.0000 0.0000 0.0000
# 2 49.6296 141.8044 63.1715 0.0000 0.0000 0.0000
# 3 43.0947 63.1715 117.5214 0.0000 0.0000 0.0000
# 4 0.0000 0.0000 0.0000 39.2487 0.0000 0.0000
# 5 0.0000 0.0000 0.0000 0.0000 33.0302 0.0000
# 6 0.0000 0.0000 0.0000 0.0000 0.0000 26.0842
#
#
#
# Elastic Compliance Matrix: (Units=1/GPa)
#
#
# Indices 1 2 3 4 5 6 
#
# 1 0.033322 -0.008177 -0.007824 0.000000 0.000000 0.000000
# 2 -0.008177 0.011279 -0.003064 0.000000 0.000000 0.000000
# 3 -0.007824 -0.003064 0.013025 0.000000 0.000000 0.000000
# 4 0.000000 0.000000 0.000000 0.025479 0.000000 0.000000
# 5 0.000000 0.000000 0.000000 0.000000 0.030275 0.000000
# 6 0.000000 0.000000 0.000000 0.000000 0.000000 0.038337
#
#
# Mechanical properties :
#
#
# Convention : Reuss Voigt Hill
#
# Bulk Modulus (GPa) = 51.29234 69.26943 60.28088
# Shear Modulus (GPa) = 25.46536 30.05512 27.76024
#
# Velocity S-wave (km/s) = 3.68166 3.99971 3.84398
# Velocity P-wave (km/s) = 6.73607 7.62895 7.19637
#
# Compressibility (1/GPa) = 0.01949609
#
# Stress axis : x y z
#
# Youngs Moduli (GPa) = 30.01054 88.66149 76.77450
#
# Poissons Ratio (x) = 0.72497 0.60065
# Poissons Ratio (y) = 0.24539 0.23526
# Poissons Ratio (z) = 0.23479 0.27169
#
# Static dielectric constant tensor:
#      x y z
#    x 3.160530 0.000000 0.000000 
#    y 0.000000 3.668900 0.000000 
#    z 0.000000 0.000000 3.485250 
# 
# 
# High freq. dielectric constant tensor:
#      x y z
#    x 1.702220 0.000000 0.000000 
#    y 0.000000 1.742720 0.000000 
#    z 0.000000 0.000000 1.744960 
# 
# From -- ./inp_files/32996.got.cif
#   From: 2010.03.12/outbox.cif.g09.slc.cpg/sg59_17_cif.got.tgz:32996.got - 2010.04.16 16:29:54.
