data_PCOD8240932
_publ_section_title
;
Structure prediction by ZEFSAII (Michael W. Deem and Ramdas Pophale) SiO2 
 PCOD8240932
Probable space group: P M M N
;
_chemical_formula_sum "Si O2"
_cell_formula_units_Z 48
_cell_length_a 19.234071
_cell_length_b 8.630444
_cell_length_c 15.641319
_cell_angle_alpha 90.000000
_cell_angle_beta 90.000000
_cell_angle_gamma 90.000000
_cell_volume 2596.436628
_symmetry_space_group_name_H-M "P M M N"
_symmetry_group_IT_number 59
_space_group.IT_coordinate_system_code '2'
_symmetry_cell_setting 'orthorhombic'
loop_
_space_group_symop_operation_xyz
x,y,z
1/2-x,1/2-y,z
1/2+x,-y,-z
-x,1/2+y,-z
-x,-y,-z
1/2+x,1/2+y,-z
1/2-x,y,z
x,1/2-y,z
loop_
_atom_site_type_symbol
_atom_site_label
_atom_site_fract_x
_atom_site_fract_y
_atom_site_fract_z
Si Si1 0.069251 0.930793 0.913232
Si Si2 0.670443 0.569323 0.580364
Si Si3 0.572374 0.930719 0.733597
Si Si4 0.420955 0.069429 0.744008
Si Si5 0.420621 0.927032 0.096979
Si Si6 0.169066 0.928818 0.598043
O O1 0.047520 0.750000 0.908914
O O2 0.110796 0.978920 0.827324
O O3 0.111952 0.961836 0.002104
O O4 0.002463 0.041584 0.912149
O O5 0.750000 0.532021 0.604098
O O6 0.659982 0.750000 0.560975
O O7 0.623728 0.512981 0.659331
O O8 0.646290 0.474188 0.497567
O O9 0.557129 0.750000 0.727148
O O10 0.499937 0.019978 0.724333
O O11 0.609047 0.968392 0.825524
O O12 0.418283 0.250000 0.762758
O O13 0.373596 0.032209 0.663420
O O14 0.407747 0.750000 0.122841
O O15 0.250000 0.965467 0.611389
O O16 0.151417 0.750000 0.613559
#
# Coordination Sequence:
#
# PCOD8240932 Si02
#       6
#     8   8   8   8   8   8
#     4   9  16  27  44  67  97 130 164 202 243 288
#     4   9  19  36  55  74  97 128 166 204 244 292
#     4  10  19  31  50  75 103 132 163 204 249 291
#     4  11  21  32  50  75 103 132 163 203 246 290
#     4   9  16  26  43  68  98 130 163 200 242 289
#     4  10  21  37  56  75  96 126 163 202 246 297
#
# _framework density 18.486875999999999
#
# number of rings (size 3 to 8) (size 9 to 14) (size 15 to 20)
#    0.000    2.333    0.000    5.500    0.000    5.000 
#    0.000    0.000    0.000    1.000    0.000    4.667 
#    0.000    0.000    0.000    0.000    0.000    0.000 
#
# Total GULP energy -594902.572604 kJ/mol
# GULP energy per Si atom -12393.803596 kJ/mol
# Density = 1.844480 g / cm^3
# Si number density = 18.486876 Si / 1000 Ang^3
#
#
#
# Elastic Constant Matrix: (Units=GPa)
#
#
# Indices 1 2 3 4 5 6 
#
# 1 42.1405 23.5639 54.4054 0.0000 0.0000 0.0000
# 2 23.5639 72.0619 43.6370 0.0000 0.0000 0.0000
# 3 54.4054 43.6370 162.7211 0.0000 0.0000 0.0000
# 4 0.0000 0.0000 0.0000 36.6517 0.0000 0.0000
# 5 0.0000 0.0000 0.0000 0.0000 -1.2162 0.0000
# 6 0.0000 0.0000 0.0000 0.0000 0.0000 14.5788
#
#
#
# Elastic Compliance Matrix: (Units=1/GPa)
#
#
# Indices 1 2 3 4 5 6 
#
# 1 0.044216 -0.006574 -0.013021 0.000000 0.000000 0.000000
# 2 -0.006574 0.017545 -0.002507 0.000000 0.000000 0.000000
# 3 -0.013021 -0.002507 0.011171 0.000000 0.000000 0.000000
# 4 0.000000 0.000000 0.000000 0.027284 0.000000 0.000000
# 5 0.000000 0.000000 0.000000 0.000000 -0.822262 0.000000
# 6 0.000000 0.000000 0.000000 0.000000 0.000000 0.068593
#
#
# Mechanical properties :
#
#
# Convention : Reuss Voigt Hill
#
# Bulk Modulus (GPa) = 34.80789 57.79290 46.30039
# Shear Modulus (GPa) = -8.33788 20.35734 6.00973
#
# Velocity S-wave (km/s) = -2.12602 3.32200 1.80496
# Velocity P-wave (km/s) = 3.58367 6.78555 5.42616
#
# Compressibility (1/GPa) = 0.02872912
#
# Stress axis : x y z
#
# Youngs Moduli (GPa) = 22.61602 56.99720 89.51560
#
# Poissons Ratio (x) = 0.37469 1.16556
# Poissons Ratio (y) = 0.14868 0.22442
# Poissons Ratio (z) = 0.29448 0.14289
#
# Static dielectric constant tensor:
#      x y z
#    x 2.943100 0.000000 0.000000 
#    y 0.000000 3.392390 0.000000 
#    z 0.000000 0.000000 4.083420 
# 
# 
# High freq. dielectric constant tensor:
#      x y z
#    x 1.655450 0.000000 0.000000 
#    y 0.000000 1.727780 0.000000 
#    z 0.000000 0.000000 1.745160 
# 
# From -- ./inp_files/24088.got.cif
#   From: 2010.03.12/outbox.cif.g09.slc.cpg/sg59_13_cif.got.tgz:24088.got - 2010.04.16 16:29:54.
