data_PCOD8240774
_publ_section_title
;
Structure prediction by ZEFSAII (Michael W. Deem and Ramdas Pophale) SiO2 
 PCOD8240774
Probable space group: P M M N
;
_chemical_formula_sum "Si O2"
_cell_formula_units_Z 64
_cell_length_a 9.141217
_cell_length_b 19.685253
_cell_length_c 19.761745
_cell_angle_alpha 90.000000
_cell_angle_beta 90.000000
_cell_angle_gamma 90.000000
_cell_volume 3556.070075
_symmetry_space_group_name_H-M "P M M N"
_symmetry_group_IT_number 59
_space_group.IT_coordinate_system_code '2'
_symmetry_cell_setting 'orthorhombic'
loop_
_space_group_symop_operation_xyz
x,y,z
1/2-x,1/2-y,z
1/2+x,-y,-z
-x,1/2+y,-z
-x,-y,-z
1/2+x,1/2+y,-z
1/2-x,y,z
x,1/2-y,z
loop_
_atom_site_type_symbol
_atom_site_label
_atom_site_fract_x
_atom_site_fract_y
_atom_site_fract_z
Si Si1 0.919052 0.171042 0.117998
Si Si2 0.580404 0.884471 0.395119
Si Si3 0.084318 0.965213 0.660279
Si Si4 0.079972 0.930492 0.515351
Si Si5 0.423012 0.060889 0.203893
Si Si6 0.424126 0.674316 0.033827
Si Si7 0.423731 0.916491 0.154331
Si Si8 0.583939 0.173571 0.723353
O O1 0.750000 0.150865 0.126081
O O2 0.942599 0.250000 0.135052
O O3 0.013178 0.127828 0.170043
O O4 0.974975 0.155100 0.041909
O O5 0.750000 0.869937 0.407315
O O6 0.497237 0.874727 0.467221
O O7 0.514780 0.830036 0.343420
O O8 0.550748 0.958498 0.363656
O O9 0.250000 0.959732 0.687659
O O10 0.062347 0.914848 0.595606
O O11 0.974593 0.943356 0.718823
O O12 0.250000 0.937275 0.496218
O O13 0.000000 0.000000 0.500000
O O14 0.250000 0.065925 0.204337
O O15 0.475648 0.994461 0.161460
O O16 0.250000 0.675563 0.035706
O O17 0.481655 0.750000 0.052977
O O18 0.487880 0.618181 0.086032
O O19 0.250000 0.911120 0.152766
O O20 0.482915 0.875025 0.218923
O O21 0.750000 0.151859 0.705387
O O22 0.579672 0.250000 0.751608
#
# Coordination Sequence:
#
# PCOD8240774 Si02
#       8
#     8   8   8   8   8   8   8   8
#     4   9  19  36  56  75  96 129 172 213 256 312
#     4  10  19  31  48  71 101 136 173 215 258 300
#     4   9  18  32  49  72 101 134 168 205 251 302
#     4   9  17  29  48  73  99 129 167 209 253 300
#     4  11  21  31  50  78 108 137 163 208 265 309
#     4   8  14  28  51  74  98 133 176 216 250 295
#     4   9  17  29  46  75 107 133 170 216 257 300
#     4  10  19  31  49  72 102 143 183 218 257 305
#
# _framework density 17.997395999999998
#
# number of rings (size 3 to 8) (size 9 to 14) (size 15 to 20)
#    0.000    2.625    1.250    3.000    0.000    5.000 
#    0.000    0.000    0.000    2.250    0.000    7.000 
#    0.000    0.000    0.000    0.000    0.000    0.000 
#
# Total GULP energy -793335.540745 kJ/mol
# GULP energy per Si atom -12395.867824 kJ/mol
# Density = 1.795643 g / cm^3
# Si number density = 17.997396 Si / 1000 Ang^3
#
#
#
# Elastic Constant Matrix: (Units=GPa)
#
#
# Indices 1 2 3 4 5 6 
#
# 1 78.7911 34.0628 48.8446 0.0000 0.0000 0.0000
# 2 34.0628 67.9065 47.6085 0.0000 0.0000 0.0000
# 3 48.8446 47.6085 107.6091 0.0000 0.0000 0.0000
# 4 0.0000 0.0000 0.0000 26.6522 0.0000 0.0000
# 5 0.0000 0.0000 0.0000 0.0000 21.7670 0.0000
# 6 0.0000 0.0000 0.0000 0.0000 0.0000 20.2525
#
#
#
# Elastic Compliance Matrix: (Units=1/GPa)
#
#
# Indices 1 2 3 4 5 6 
#
# 1 0.018758 -0.004987 -0.006308 0.000000 0.000000 0.000000
# 2 -0.004987 0.022673 -0.007768 0.000000 0.000000 0.000000
# 3 -0.006308 -0.007768 0.015593 0.000000 0.000000 0.000000
# 4 0.000000 0.000000 0.000000 0.037520 0.000000 0.000000
# 5 0.000000 0.000000 0.000000 0.000000 0.045941 0.000000
# 6 0.000000 0.000000 0.000000 0.000000 0.000000 0.049377
#
#
# Mechanical properties :
#
#
# Convention : Reuss Voigt Hill
#
# Bulk Modulus (GPa) = 52.91246 57.25984 55.08615
# Shear Modulus (GPa) = 21.34129 21.98707 21.66418
#
# Velocity S-wave (km/s) = 3.44728 3.49905 3.47326
# Velocity P-wave (km/s) = 6.73119 6.94328 6.83805
#
# Compressibility (1/GPa) = 0.01889914
#
# Stress axis : x y z
#
# Youngs Moduli (GPa) = 53.30968 44.10466 64.13190
#
# Poissons Ratio (x) = 0.21994 0.40456
# Poissons Ratio (y) = 0.26584 0.49815
# Poissons Ratio (z) = 0.33629 0.34259
#
# Static dielectric constant tensor:
#      x y z
#    x 3.122920 0.000000 0.000000 
#    y 0.000000 3.213790 0.000000 
#    z 0.000000 0.000000 4.079200 
# 
# 
# High freq. dielectric constant tensor:
#      x y z
#    x 1.675520 0.000000 0.000000 
#    y 0.000000 1.669520 0.000000 
#    z 0.000000 0.000000 1.704320 
# 
# From -- ./inp_files/29766.got.cif
#   From: 2010.03.12/outbox.cif.g09.slc.cpg/sg59_15_cif.got.tgz:29766.got - 2010.04.16 16:29:54.
