data_PCOD8240663
_publ_section_title
;
Structure prediction by ZEFSAII (Michael W. Deem and Ramdas Pophale) SiO2 
 PCOD8240663
Probable space group: P M M N
;
_chemical_formula_sum "Si O2"
_cell_formula_units_Z 64
_cell_length_a 19.533412
_cell_length_b 8.843076
_cell_length_c 18.889828
_cell_angle_alpha 90.000000
_cell_angle_beta 90.000000
_cell_angle_gamma 90.000000
_cell_volume 3262.942881
_symmetry_space_group_name_H-M "P M M N"
_symmetry_group_IT_number 59
_space_group.IT_coordinate_system_code '2'
_symmetry_cell_setting 'orthorhombic'
loop_
_space_group_symop_operation_xyz
x,y,z
1/2-x,1/2-y,z
1/2+x,-y,-z
-x,1/2+y,-z
-x,-y,-z
1/2+x,1/2+y,-z
1/2-x,y,z
x,1/2-y,z
loop_
_atom_site_type_symbol
_atom_site_label
_atom_site_fract_x
_atom_site_fract_y
_atom_site_fract_z
Si Si1 0.824509 0.921154 0.676377
Si Si2 0.328364 0.426260 0.027142
Si Si3 0.055620 0.926738 0.948057
Si Si4 0.371913 0.076836 0.177238
Si Si5 0.979831 0.428582 0.210180
Si Si6 0.923950 0.074253 0.580176
Si Si7 0.435068 0.069765 0.645405
Si Si8 0.829823 0.069581 0.452628
O O1 0.750000 0.953793 0.642624
O O2 0.848736 0.750000 0.658463
O O3 0.816248 0.941426 0.760904
O O4 0.879786 0.039700 0.649562
O O5 0.250000 0.453233 0.009551
O O6 0.347722 0.250000 0.022562
O O7 0.345202 0.497062 0.104714
O O8 0.369264 0.520689 0.969557
O O9 0.045510 0.750000 0.956478
O O10 0.050886 0.973671 0.865935
O O11 0.000000 0.000000 0.000000
O O12 0.386271 0.250000 0.158083
O O13 0.442660 0.009388 0.206800
O O14 0.974647 0.250000 0.225810
O O15 0.942583 0.515774 0.273832
O O16 0.929709 0.250000 0.567519
O O17 0.879539 0.004081 0.515272
O O18 0.001105 0.011351 0.594884
O O19 0.431534 0.250000 0.643968
O O20 0.363447 0.999787 0.618038
O O21 0.750000 0.016511 0.460938
O O22 0.832058 0.250000 0.449659
#
# Coordination Sequence:
#
# PCOD8240663 Si02
#       8
#     8   8   8   8   8   8   8   8
#     4  10  19  30  49  79 113 151 191 229 270 323
#     4  10  20  36  58  84 116 153 193 238 291 348
#     4  11  22  37  59  85 115 151 195 241 287 340
#     4   9  16  31  53  78 111 150 191 229 272 334
#     4  10  20  37  60  83 111 154 198 234 280 342
#     4  10  21  37  57  84 117 151 185 225 281 341
#     4  11  23  38  60  90 119 147 186 241 292 333
#     4  10  22  41  63  84 111 153 196 231 279 345
#
# _framework density 19.614197000000001
#
# number of rings (size 3 to 8) (size 9 to 14) (size 15 to 20)
#    0.000    1.875    2.500    1.875    0.000    4.750 
#    0.000    1.250    0.000    2.250    0.000    0.000 
#    0.000    0.000    0.000    0.000    0.000    0.000 
#
# Total GULP energy -793123.326191 kJ/mol
# GULP energy per Si atom -12392.551972 kJ/mol
# Density = 1.956955 g / cm^3
# Si number density = 19.614197 Si / 1000 Ang^3
#
#
#
# Elastic Constant Matrix: (Units=GPa)
#
#
# Indices 1 2 3 4 5 6 
#
# 1 105.5935 27.6870 62.2133 0.0000 0.0000 0.0000
# 2 27.6870 29.0475 34.4574 0.0000 0.0000 0.0000
# 3 62.2133 34.4574 113.3044 0.0000 0.0000 0.0000
# 4 0.0000 0.0000 0.0000 28.4956 0.0000 0.0000
# 5 0.0000 0.0000 0.0000 0.0000 31.0657 0.0000
# 6 0.0000 0.0000 0.0000 0.0000 0.0000 25.9350
#
#
#
# Elastic Compliance Matrix: (Units=1/GPa)
#
#
# Indices 1 2 3 4 5 6 
#
# 1 0.014860 -0.007016 -0.006026 0.000000 0.000000 0.000000
# 2 -0.007016 0.057167 -0.013533 0.000000 0.000000 0.000000
# 3 -0.006026 -0.013533 0.016250 0.000000 0.000000 0.000000
# 4 0.000000 0.000000 0.000000 0.035093 0.000000 0.000000
# 5 0.000000 0.000000 0.000000 0.000000 0.032190 0.000000
# 6 0.000000 0.000000 0.000000 0.000000 0.000000 0.038558
#
#
# Mechanical properties :
#
#
# Convention : Reuss Voigt Hill
#
# Bulk Modulus (GPa) = 28.46754 55.18451 41.82603
# Shear Modulus (GPa) = 19.30675 25.33844 22.32259
#
# Velocity S-wave (km/s) = 3.14080 3.59812 3.37721
# Velocity P-wave (km/s) = 5.26290 6.74226 6.04798
#
# Compressibility (1/GPa) = 0.03512773
#
# Stress axis : x y z
#
# Youngs Moduli (GPa) = 67.29402 17.49258 61.53878
#
# Poissons Ratio (x) = 0.12273 0.37082
# Poissons Ratio (y) = 0.47215 0.83279
# Poissons Ratio (z) = 0.40550 0.23672
#
# Static dielectric constant tensor:
#      x y z
#    x 3.706650 0.000000 0.000000 
#    y 0.000000 3.271920 0.000000 
#    z 0.000000 0.000000 3.634490 
# 
# 
# High freq. dielectric constant tensor:
#      x y z
#    x 1.765720 0.000000 0.000000 
#    y 0.000000 1.735910 0.000000 
#    z 0.000000 0.000000 1.766830 
# 
# From -- ./inp_files/28172.got.cif
#   From: 2010.03.12/outbox.cif.g09.slc.cpg/sg59_15_cif.got.tgz:28172.got - 2010.04.16 16:29:54.
