data_PCOD8240264
_publ_section_title
;
Structure prediction by ZEFSAII (Michael W. Deem and Ramdas Pophale) SiO2 
 PCOD8240264
Probable space group: P M M N
;
_chemical_formula_sum "Si O2"
_cell_formula_units_Z 56
_cell_length_a 9.197335
_cell_length_b 13.654267
_cell_length_c 29.642604
_cell_angle_alpha 90.000000
_cell_angle_beta 90.000000
_cell_angle_gamma 90.000000
_cell_volume 3722.603219
_symmetry_space_group_name_H-M "P M M N"
_symmetry_group_IT_number 59
_space_group.IT_coordinate_system_code '2'
_symmetry_cell_setting 'orthorhombic'
loop_
_space_group_symop_operation_xyz
x,y,z
1/2-x,1/2-y,z
1/2+x,-y,-z
-x,1/2+y,-z
-x,-y,-z
1/2+x,1/2+y,-z
1/2-x,y,z
x,1/2-y,z
loop_
_atom_site_type_symbol
_atom_site_label
_atom_site_fract_x
_atom_site_fract_y
_atom_site_fract_z
Si Si1 0.423270 0.637596 0.149212
Si Si2 0.923712 0.360210 0.656796
Si Si3 0.909005 0.134025 0.752997
Si Si4 0.079085 0.953600 0.433674
Si Si5 0.918111 0.640643 0.513636
Si Si6 0.419374 0.452584 0.932452
Si Si7 0.416148 0.860109 0.987333
O O1 0.250000 0.624465 0.147365
O O2 0.464449 0.750000 0.137838
O O3 0.485604 0.607626 0.199228
O O4 0.499227 0.565010 0.114379
O O5 0.750000 0.361471 0.660471
O O6 0.977570 0.250000 0.645982
O O7 0.987946 0.397351 0.705714
O O8 0.978984 0.431391 0.616815
O O9 0.750000 0.084619 0.754115
O O10 0.890405 0.250000 0.751070
O O11 0.250000 0.935043 0.436072
O O12 0.007741 0.878221 0.468403
O O13 0.036742 0.064965 0.446798
O O14 0.750000 0.626659 0.501146
O O15 0.951018 0.750000 0.531356
O O16 0.250000 0.430705 0.926219
O O17 0.449999 0.565018 0.946705
O O18 0.480254 0.379691 0.970371
O O19 0.250000 0.873770 0.003883
O O20 0.443749 0.750000 0.969540
#
# Coordination Sequence:
#
# PCOD8240264 Si02
#       7
#     8   8   8   8   8   8   8
#     4   9  16  26  40  57  79 107 132 151 180 228
#     4   8  12  19  34  56  76  91 117 160 194 213
#     4   7  11  20  34  53  75  97 122 152 185 221
#     4   9  16  25  39  57  73  95 130 162 186 218
#     4   9  17  27  36  50  77 106 126 150 188 230
#     4  10  19  28  41  62  82 100 127 161 192 219
#     4   9  18  32  45  56  76 106 134 157 184 223
#
# _framework density 15.043237
#
# number of rings (size 3 to 8) (size 9 to 14) (size 15 to 20)
#    0.000    3.286    0.000    3.000    0.000    3.714 
#    0.000    0.000    0.000    0.857    0.000    3.000 
#    0.000    3.429    0.000    0.286    0.000    0.286 
#
# Total GULP energy -693769.667292 kJ/mol
# GULP energy per Si atom -12388.744059 kJ/mol
# Density = 1.500900 g / cm^3
# Si number density = 15.043237 Si / 1000 Ang^3
#
#
#
# Elastic Constant Matrix: (Units=GPa)
#
#
# Indices 1 2 3 4 5 6 
#
# 1 29.0841 22.7904 34.2120 0.0000 0.0000 0.0000
# 2 22.7904 83.8244 59.0768 0.0000 0.0000 0.0000
# 3 34.2120 59.0768 153.5701 0.0000 0.0000 0.0000
# 4 0.0000 0.0000 0.0000 21.5149 0.0000 0.0000
# 5 0.0000 0.0000 0.0000 0.0000 15.6820 0.0000
# 6 0.0000 0.0000 0.0000 0.0000 0.0000 15.7866
#
#
#
# Elastic Compliance Matrix: (Units=1/GPa)
#
#
# Indices 1 2 3 4 5 6 
#
# 1 0.050138 -0.007902 -0.008130 0.000000 0.000000 0.000000
# 2 -0.007902 0.017612 -0.005015 0.000000 0.000000 0.000000
# 3 -0.008130 -0.005015 0.010252 0.000000 0.000000 0.000000
# 4 0.000000 0.000000 0.000000 0.046479 0.000000 0.000000
# 5 0.000000 0.000000 0.000000 0.000000 0.063768 0.000000
# 6 0.000000 0.000000 0.000000 0.000000 0.000000 0.063345
#
#
# Mechanical properties :
#
#
# Convention : Reuss Voigt Hill
#
# Bulk Modulus (GPa) = 27.84807 55.40412 41.62609
# Shear Modulus (GPa) = 16.35814 20.62333 18.49074
#
# Velocity S-wave (km/s) = 3.30117 3.70663 3.50976
# Velocity P-wave (km/s) = 5.75174 7.43160 6.64497
#
# Compressibility (1/GPa) = 0.03590913
#
# Stress axis : x y z
#
# Youngs Moduli (GPa) = 19.94481 56.77788 97.54166
#
# Poissons Ratio (x) = 0.44866 0.79300
# Poissons Ratio (y) = 0.15761 0.48916
# Poissons Ratio (z) = 0.16215 0.28474
#
# Static dielectric constant tensor:
#      x y z
#    x 2.675150 0.000000 0.000000 
#    y 0.000000 2.796280 0.000000 
#    z 0.000000 0.000000 3.233170 
# 
# 
# High freq. dielectric constant tensor:
#      x y z
#    x 1.549810 0.000000 0.000000 
#    y 0.000000 1.547330 0.000000 
#    z 0.000000 0.000000 1.579330 
# 
# From -- ./inp_files/33169.got.cif
#   From: 2010.03.12/outbox.cif.g09.slc.cpg/sg59_17_cif.got.tgz:33169.got - 2010.04.16 16:29:54.
