data_PCOD8240169
_publ_section_title
;
Structure prediction by ZEFSAII (Michael W. Deem and Ramdas Pophale) SiO2 
 PCOD8240169
Probable space group: P M M N
;
_chemical_formula_sum "Si O2"
_cell_formula_units_Z 48
_cell_length_a 9.699894
_cell_length_b 9.213040
_cell_length_c 28.891491
_cell_angle_alpha 90.000000
_cell_angle_beta 90.000000
_cell_angle_gamma 90.000000
_cell_volume 2581.902869
_symmetry_space_group_name_H-M "P M M N"
_symmetry_group_IT_number 59
_space_group.IT_coordinate_system_code '2'
_symmetry_cell_setting 'orthorhombic'
loop_
_space_group_symop_operation_xyz
x,y,z
1/2-x,1/2-y,z
1/2+x,-y,-z
-x,1/2+y,-z
-x,-y,-z
1/2+x,1/2+y,-z
1/2-x,y,z
x,1/2-y,z
loop_
_atom_site_type_symbol
_atom_site_label
_atom_site_fract_x
_atom_site_fract_y
_atom_site_fract_z
Si Si1 0.589566 0.920406 0.538419
Si Si2 0.250000 0.077855 0.033845
Si Si3 0.407656 0.082376 0.207382
Si Si4 0.907271 0.082076 0.373945
Si Si5 0.590686 0.581215 0.280791
Si Si6 0.531520 0.579889 0.894102
Si Si7 0.750000 0.419034 0.062832
O O1 0.750000 0.972217 0.538677
O O2 0.581466 0.750000 0.528486
O O3 0.517340 0.959636 0.586864
O O4 0.500000 0.000000 0.500000
O O5 0.250000 0.250000 0.026598
O O6 0.380160 0.019487 0.063022
O O7 0.250000 0.006929 0.984093
O O8 0.250000 0.066920 0.223240
O O9 0.455678 0.250000 0.209255
O O10 0.424750 0.016407 0.155642
O O11 0.501638 0.989515 0.240812
O O12 0.750000 0.047081 0.390335
O O13 0.920190 0.250000 0.360204
O O14 0.949041 0.988440 0.329723
O O15 0.750000 0.552248 0.269140
O O16 0.555881 0.750000 0.283669
O O17 0.559179 0.750000 0.891628
O O18 0.375921 0.537145 0.904633
O O19 0.750000 0.250000 0.049629
#
# Coordination Sequence:
#
# PCOD8240169 Si02
#       7
#     8   4   8   8   8   8   4
#     4  10  21  36  56  84 117 152 191 235 280 325
#     4  10  18  34  54  72 102 136 168 208 259 314
#     4  10  20  36  58  81 104 138 184 228 270 321
#     4   9  18  35  57  80 109 148 192 233 272 322
#     4  10  22  38  56  82 115 146 177 222 279 335
#     4   9  18  33  53  76 101 132 172 216 259 310
#     4  10  20  32  50  78 104 130 170 214 255 310
#
# _framework density 18.59094
#
# number of rings (size 3 to 8) (size 9 to 14) (size 15 to 20)
#    0.000    2.333    0.833    1.500    1.167    3.667 
#    0.000    5.000    0.000    0.000    0.000    0.000 
#    0.000    0.000    0.000    0.000    0.000    0.000 
#
# Total GULP energy -595158.115796 kJ/mol
# GULP energy per Si atom -12399.127412 kJ/mol
# Density = 1.854863 g / cm^3
# Si number density = 18.590940 Si / 1000 Ang^3
#
#
#
# Elastic Constant Matrix: (Units=GPa)
#
#
# Indices 1 2 3 4 5 6 
#
# 1 120.8292 41.4616 65.8923 0.0000 0.0000 0.0000
# 2 41.4616 61.3816 58.8944 0.0000 0.0000 0.0000
# 3 65.8923 58.8944 132.2293 0.0000 0.0000 0.0000
# 4 0.0000 0.0000 0.0000 30.9353 0.0000 0.0000
# 5 0.0000 0.0000 0.0000 0.0000 44.0954 0.0000
# 6 0.0000 0.0000 0.0000 0.0000 0.0000 20.9902
#
#
#
# Elastic Compliance Matrix: (Units=1/GPa)
#
#
# Indices 1 2 3 4 5 6 
#
# 1 0.011930 -0.004111 -0.004114 0.000000 0.000000 0.000000
# 2 -0.004111 0.029866 -0.011253 0.000000 0.000000 0.000000
# 3 -0.004114 -0.011253 0.014625 0.000000 0.000000 0.000000
# 4 0.000000 0.000000 0.000000 0.032326 0.000000 0.000000
# 5 0.000000 0.000000 0.000000 0.000000 0.022678 0.000000
# 6 0.000000 0.000000 0.000000 0.000000 0.000000 0.047641
#
#
# Mechanical properties :
#
#
# Convention : Reuss Voigt Hill
#
# Bulk Modulus (GPa) = 57.26116 71.88183 64.57149
# Shear Modulus (GPa) = 24.52839 29.08362 26.80600
#
# Velocity S-wave (km/s) = 3.63626 3.95954 3.80134
# Velocity P-wave (km/s) = 6.96400 7.72352 7.35357
#
# Compressibility (1/GPa) = 0.01746385
#
# Stress axis : x y z
#
# Youngs Moduli (GPa) = 83.81931 33.48270 68.37645
#
# Poissons Ratio (x) = 0.13766 0.28130
# Poissons Ratio (y) = 0.34462 0.76947
# Poissons Ratio (z) = 0.34483 0.37680
#
# Static dielectric constant tensor:
#      x y z
#    x 3.559460 0.000000 0.000000 
#    y 0.000000 3.207950 0.000000 
#    z 0.000000 0.000000 3.474600 
# 
# 
# High freq. dielectric constant tensor:
#      x y z
#    x 1.733820 0.000000 0.000000 
#    y 0.000000 1.696180 0.000000 
#    z 0.000000 0.000000 1.729770 
# 
# From -- ./inp_files/33049.got.cif
#   From: 2010.03.12/outbox.cif.g09.slc.cpg/sg59_17_cif.got.tgz:33049.got - 2010.04.16 16:29:54.
