data_PCOD8240619
_publ_section_title
;
Structure prediction by ZEFSAII (Michael W. Deem and Ramdas Pophale) SiO2 
 PCOD8240619
Probable space group: P M M N
;
_chemical_formula_sum "Si O2"
_cell_formula_units_Z 56
_cell_length_a 9.478232
_cell_length_b 15.104217
_cell_length_c 21.810172
_cell_angle_alpha 90.000000
_cell_angle_beta 90.000000
_cell_angle_gamma 90.000000
_cell_volume 3122.371986
_symmetry_space_group_name_H-M "P M M N"
_symmetry_group_IT_number 59
_space_group.IT_coordinate_system_code '2'
_symmetry_cell_setting 'orthorhombic'
loop_
_space_group_symop_operation_xyz
x,y,z
1/2-x,1/2-y,z
1/2+x,-y,-z
-x,1/2+y,-z
-x,-y,-z
1/2+x,1/2+y,-z
1/2-x,y,z
x,1/2-y,z
loop_
_atom_site_type_symbol
_atom_site_label
_atom_site_fract_x
_atom_site_fract_y
_atom_site_fract_z
Si Si1 0.417047 0.999974 0.786088
Si Si2 0.917312 0.347532 0.435459
Si Si3 0.581561 0.348582 0.126256
Si Si4 0.593736 0.355124 0.991471
Si Si5 0.911593 0.353201 0.573780
Si Si6 0.584990 0.851267 0.122366
Si Si7 0.418422 0.492317 0.647617
O O1 0.250000 0.992270 0.784838
O O2 0.463456 0.090768 0.819404
O O3 0.474707 0.999282 0.717014
O O4 0.479617 0.915731 0.822890
O O5 0.750000 0.343437 0.433055
O O6 0.977083 0.250000 0.417346
O O7 0.963808 0.372223 0.504437
O O8 0.974424 0.421129 0.388555
O O9 0.750000 0.346138 0.127336
O O10 0.522207 0.250000 0.140174
O O11 0.534751 0.382822 0.058599
O O12 0.750000 0.394762 0.980028
O O13 0.601640 0.250000 0.990144
O O14 0.490313 0.389456 0.938341
O O15 0.750000 0.384481 0.582422
O O16 0.925688 0.250000 0.589219
O O17 0.013439 0.405019 0.619334
O O18 0.750000 0.860985 0.109907
O O19 0.542283 0.750000 0.136529
O O20 0.250000 0.483076 0.644023
#
# Coordination Sequence:
#
# PCOD8240619 Si02
#       7
#     8   8   8   8   8   8   8
#     4   9  18  29  41  63  92 120 149 177 215 268
#     4   8  15  29  49  73  98 122 151 189 233 277
#     4   8  14  26  44  65  89 114 141 180 227 268
#     4   8  14  26  45  66  84 106 143 189 227 256
#     4   9  18  33  51  69  93 126 157 187 231 281
#     4   9  17  29  43  59  85 119 147 175 218 268
#     4  10  19  30  48  73  97 122 155 195 230 264
#
# _framework density 17.935084
#
# number of rings (size 3 to 8) (size 9 to 14) (size 15 to 20)
#    0.000    3.286    0.000    2.143    0.000    2.000 
#    0.000    5.000    0.000    3.857    0.000    0.000 
#    0.000    0.000    0.000    0.000    0.000    0.000 
#
# Total GULP energy -694100.513491 kJ/mol
# GULP energy per Si atom -12394.652027 kJ/mol
# Density = 1.789426 g / cm^3
# Si number density = 17.935084 Si / 1000 Ang^3
#
#
#
# Elastic Constant Matrix: (Units=GPa)
#
#
# Indices 1 2 3 4 5 6 
#
# 1 26.5976 26.1028 32.9539 0.0000 0.0000 0.0000
# 2 26.1028 102.9463 81.5006 0.0000 0.0000 0.0000
# 3 32.9539 81.5006 164.9346 0.0000 0.0000 0.0000
# 4 0.0000 0.0000 0.0000 26.8773 0.0000 0.0000
# 5 0.0000 0.0000 0.0000 0.0000 22.3226 0.0000
# 6 0.0000 0.0000 0.0000 0.0000 0.0000 16.6647
#
#
#
# Elastic Compliance Matrix: (Units=1/GPa)
#
#
# Indices 1 2 3 4 5 6 
#
# 1 0.054127 -0.008480 -0.006624 0.000000 0.000000 0.000000
# 2 -0.008480 0.017284 -0.006846 0.000000 0.000000 0.000000
# 3 -0.006624 -0.006846 0.010770 0.000000 0.000000 0.000000
# 4 0.000000 0.000000 0.000000 0.037206 0.000000 0.000000
# 5 0.000000 0.000000 0.000000 0.000000 0.044798 0.000000
# 6 0.000000 0.000000 0.000000 0.000000 0.000000 0.060007
#
#
# Mechanical properties :
#
#
# Convention : Reuss Voigt Hill
#
# Bulk Modulus (GPa) = 26.12373 63.95480 45.03926
# Shear Modulus (GPa) = 17.80289 23.43432 20.61860
#
# Velocity S-wave (km/s) = 3.15402 3.61864 3.39429
# Velocity P-wave (km/s) = 5.27836 7.29355 6.36620
#
# Compressibility (1/GPa) = 0.03827938
#
# Stress axis : x y z
#
# Youngs Moduli (GPa) = 18.47502 57.85621 92.85346
#
# Poissons Ratio (x) = 0.49062 0.61509
# Poissons Ratio (y) = 0.15667 0.63572
# Poissons Ratio (z) = 0.12238 0.39611
#
# Static dielectric constant tensor:
#      x y z
#    x 2.916970 0.000000 0.000000 
#    y 0.000000 3.472410 0.000000 
#    z 0.000000 0.000000 3.577600 
# 
# 
# High freq. dielectric constant tensor:
#      x y z
#    x 1.640160 0.000000 0.000000 
#    y 0.000000 1.697460 0.000000 
#    z 0.000000 0.000000 1.696690 
# 
# From -- ./inp_files/29100.got.cif
#   From: 2010.03.12/outbox.cif.g09.slc.cpg/sg59_15_cif.got.tgz:29100.got - 2010.04.16 16:29:54.
