data_PCOD8240504
_publ_section_title
;
Structure prediction by ZEFSAII (Michael W. Deem and Ramdas Pophale) SiO2 
 PCOD8240504
Probable space group: P M M N
;
_chemical_formula_sum "Si O2"
_cell_formula_units_Z 64
_cell_length_a 8.982968
_cell_length_b 29.779117
_cell_length_c 14.749556
_cell_angle_alpha 90.000000
_cell_angle_beta 90.000000
_cell_angle_gamma 90.000000
_cell_volume 3945.577840
_symmetry_space_group_name_H-M "P M M N"
_symmetry_group_IT_number 59
_space_group.IT_coordinate_system_code '2'
_symmetry_cell_setting 'orthorhombic'
loop_
_space_group_symop_operation_xyz
x,y,z
1/2-x,1/2-y,z
1/2+x,-y,-z
-x,1/2+y,-z
-x,-y,-z
1/2+x,1/2+y,-z
1/2-x,y,z
x,1/2-y,z
loop_
_atom_site_type_symbol
_atom_site_label
_atom_site_fract_x
_atom_site_fract_y
_atom_site_fract_z
Si Si1 0.573344 0.298490 0.293130
Si Si2 0.420466 0.063976 0.056167
Si Si3 0.920306 0.522011 0.126554
Si Si4 0.926306 0.113457 0.200255
Si Si5 0.425595 0.699891 0.501854
Si Si6 0.924420 0.611285 0.464132
Si Si7 0.426381 0.441401 0.356318
Si Si8 0.423197 0.033001 0.667745
O O1 0.750000 0.299563 0.294810
O O2 0.517712 0.250000 0.256202
O O3 0.511440 0.337707 0.228897
O O4 0.515691 0.305418 0.395244
O O5 0.250000 0.073145 0.080723
O O6 0.518802 0.104320 0.097831
O O7 0.467622 0.017798 0.104099
O O8 0.445176 0.061488 0.947669
O O9 0.750000 0.504043 0.120102
O O10 0.954908 0.541254 0.225846
O O11 0.750000 0.110589 0.206087
O O12 0.993978 0.075778 0.265717
O O13 0.250000 0.693867 0.496248
O O14 0.469960 0.750000 0.465868
O O15 0.500331 0.659686 0.445284
O O16 0.750000 0.619263 0.464047
O O17 0.976395 0.589440 0.559275
O O18 0.973345 0.578179 0.383303
O O19 0.250000 0.440920 0.343489
O O20 0.481083 0.492122 0.372738
O O21 0.250000 0.022531 0.648994
#
# Coordination Sequence:
#
# PCOD8240504 Si02
#       8
#     8   8   8   8   8   8   8   8
#     4   8  15  28  46  67  89 116 153 191 224 269
#     4  10  19  30  46  68  93 117 149 194 233 273
#     4   9  18  32  48  65  88 121 157 191 230 271
#     4  11  19  29  48  69  92 125 157 188 228 281
#     4   9  17  31  50  69  90 120 158 194 229 275
#     4  10  21  33  46  68  97 125 156 195 235 276
#     4  11  21  31  43  66  97 127 158 192 228 267
#     4  10  20  34  49  65  90 127 165 194 227 275
#
# _framework density 16.220690999999999
#
# number of rings (size 3 to 8) (size 9 to 14) (size 15 to 20)
#    0.000    2.250    2.500    2.250    0.000    1.750 
#    0.000    0.000    0.000    1.500    0.000    0.875 
#    0.000    5.000    0.000    0.000    0.000    0.000 
#
# Total GULP energy -793412.729856 kJ/mol
# GULP energy per Si atom -12397.073904 kJ/mol
# Density = 1.618377 g / cm^3
# Si number density = 16.220691 Si / 1000 Ang^3
#
#
#
# Elastic Constant Matrix: (Units=GPa)
#
#
# Indices 1 2 3 4 5 6 
#
# 1 50.5489 36.0279 23.7974 0.0000 0.0000 0.0000
# 2 36.0279 128.1533 41.2905 0.0000 0.0000 0.0000
# 3 23.7974 41.2905 64.0283 0.0000 0.0000 0.0000
# 4 0.0000 0.0000 0.0000 22.4730 0.0000 0.0000
# 5 0.0000 0.0000 0.0000 0.0000 19.5697 0.0000
# 6 0.0000 0.0000 0.0000 0.0000 0.0000 23.0568
#
#
#
# Elastic Compliance Matrix: (Units=1/GPa)
#
#
# Indices 1 2 3 4 5 6 
#
# 1 0.026673 -0.005433 -0.006410 0.000000 0.000000 0.000000
# 2 -0.005433 0.010957 -0.005046 0.000000 0.000000 0.000000
# 3 -0.006410 -0.005046 0.021255 0.000000 0.000000 0.000000
# 4 0.000000 0.000000 0.000000 0.044498 0.000000 0.000000
# 5 0.000000 0.000000 0.000000 0.000000 0.051099 0.000000
# 6 0.000000 0.000000 0.000000 0.000000 0.000000 0.043371
#
#
# Mechanical properties :
#
#
# Convention : Reuss Voigt Hill
#
# Bulk Modulus (GPa) = 39.83188 49.44023 44.63605
# Shear Modulus (GPa) = 20.83339 22.46088 21.64713
#
# Velocity S-wave (km/s) = 3.58770 3.72520 3.65710
# Velocity P-wave (km/s) = 6.46310 7.00348 6.73871
#
# Compressibility (1/GPa) = 0.02510552
#
# Stress axis : x y z
#
# Youngs Moduli (GPa) = 37.49121 91.26971 47.04878
#
# Poissons Ratio (x) = 0.49591 0.30156
# Poissons Ratio (y) = 0.20371 0.23742
# Poissons Ratio (z) = 0.24030 0.46056
#
# Static dielectric constant tensor:
#      x y z
#    x 2.960940 0.000000 0.000000 
#    y 0.000000 3.245490 0.000000 
#    z 0.000000 0.000000 3.094520 
# 
# 
# High freq. dielectric constant tensor:
#      x y z
#    x 1.618660 0.000000 0.000000 
#    y 0.000000 1.612650 0.000000 
#    z 0.000000 0.000000 1.603780 
# 
# From -- ./inp_files/21857.got.cif
#   From: 2010.03.12/outbox.cif.g09.slc.cpg/sg59_11_cif.got.tgz:21857.got - 2010.04.16 16:29:54.
