data_PCOD8240596
_publ_section_title
;
Structure prediction by ZEFSAII (Michael W. Deem and Ramdas Pophale) SiO2 
 PCOD8240596
Probable space group: P M M N
;
_chemical_formula_sum "Si O2"
_cell_formula_units_Z 56
_cell_length_a 20.968299
_cell_length_b 9.040474
_cell_length_c 14.515873
_cell_angle_alpha 90.000000
_cell_angle_beta 90.000000
_cell_angle_gamma 90.000000
_cell_volume 2751.677687
_symmetry_space_group_name_H-M "P M M N"
_symmetry_group_IT_number 59
_space_group.IT_coordinate_system_code '2'
_symmetry_cell_setting 'orthorhombic'
loop_
_space_group_symop_operation_xyz
x,y,z
1/2-x,1/2-y,z
1/2+x,-y,-z
-x,1/2+y,-z
-x,-y,-z
1/2+x,1/2+y,-z
1/2-x,y,z
x,1/2-y,z
loop_
_atom_site_type_symbol
_atom_site_label
_atom_site_fract_x
_atom_site_fract_y
_atom_site_fract_z
Si Si1 0.378956 0.579092 0.864869
Si Si2 0.321614 0.923840 0.053715
Si Si3 0.321326 0.090029 0.716040
Si Si4 0.103892 0.920196 0.575281
Si Si5 0.625646 0.425521 0.753436
Si Si6 0.822447 0.922774 0.580034
Si Si7 0.006195 0.920424 0.729354
O O1 0.360447 0.750000 0.848715
O O2 0.327248 0.470777 0.819347
O O3 0.446940 0.545538 0.816083
O O4 0.373039 0.538451 0.973041
O O5 0.250000 0.988149 0.035083
O O6 0.315563 0.750000 0.064149
O O7 0.350174 0.987923 0.148444
O O8 0.250000 0.122803 0.690259
O O9 0.357488 0.250000 0.703557
O O10 0.343991 0.958185 0.651291
O O11 0.108814 0.750000 0.545763
O O12 0.037130 0.953988 0.628064
O O13 0.120846 0.018582 0.486455
O O14 0.630552 0.250000 0.746016
O O15 0.671335 0.497133 0.677516
O O16 0.552883 0.471856 0.738765
O O17 0.750000 0.952071 0.542924
O O18 0.834801 0.750000 0.592771
O O19 0.984462 0.750000 0.733097
#
# Coordination Sequence:
#
# PCOD8240596 Si02
#       7
#     8   8   8   8   8   8   8
#     4   9  18  34  57  81 108 147 191 233 280 336
#     4   9  18  34  57  85 114 145 189 243 289 331
#     4  10  19  30  47  77 116 150 181 225 281 337
#     4  10  21  37  59  84 111 147 189 232 279 337
#     4  11  23  38  59  84 112 153 199 239 281 334
#     4  11  24  41  61  86 116 149 185 232 290 341
#     4   9  20  38  57  83 117 149 186 232 284 339
#
# _framework density 20.351220999999999
#
# number of rings (size 3 to 8) (size 9 to 14) (size 15 to 20)
#    0.000    2.143    0.000    3.857    0.000    9.143 
#    0.000    1.429    0.000    3.429    0.000    0.000 
#    0.000    0.000    0.000    0.000    0.000    0.000 
#
# Total GULP energy -693852.482134 kJ/mol
# GULP energy per Si atom -12390.222895 kJ/mol
# Density = 2.030490 g / cm^3
# Si number density = 20.351221 Si / 1000 Ang^3
#
#
#
# Elastic Constant Matrix: (Units=GPa)
#
#
# Indices 1 2 3 4 5 6 
#
# 1 77.1341 28.8506 23.4385 0.0000 0.0000 0.0000
# 2 28.8506 67.6938 22.2966 0.0000 0.0000 0.0000
# 3 23.4385 22.2966 110.7826 0.0000 0.0000 0.0000
# 4 0.0000 0.0000 0.0000 -1.1176 0.0000 0.0000
# 5 0.0000 0.0000 0.0000 0.0000 22.0699 0.0000
# 6 0.0000 0.0000 0.0000 0.0000 0.0000 28.1882
#
#
#
# Elastic Compliance Matrix: (Units=1/GPa)
#
#
# Indices 1 2 3 4 5 6 
#
# 1 0.015883 -0.006064 -0.002140 0.000000 0.000000 0.000000
# 2 -0.006064 0.018137 -0.002367 0.000000 0.000000 0.000000
# 3 -0.002140 -0.002367 0.009956 0.000000 0.000000 0.000000
# 4 0.000000 0.000000 0.000000 -0.894739 0.000000 0.000000
# 5 0.000000 0.000000 0.000000 0.000000 0.045311 0.000000
# 6 0.000000 0.000000 0.000000 0.000000 0.000000 0.035476
#
#
# Mechanical properties :
#
#
# Convention : Reuss Voigt Hill
#
# Bulk Modulus (GPa) = 43.79701 44.97577 44.38639
# Shear Modulus (GPa) = -6.74561 21.89640 7.57540
#
# Velocity S-wave (km/s) = -1.82258 3.28369 1.93143
# Velocity P-wave (km/s) = 4.13984 6.04356 5.17990
#
# Compressibility (1/GPa) = 0.02283261
#
# Stress axis : x y z
#
# Youngs Moduli (GPa) = 62.96072 55.13684 100.44340
#
# Poissons Ratio (x) = 0.33437 0.21493
# Poissons Ratio (y) = 0.38182 0.23777
# Poissons Ratio (z) = 0.13473 0.13052
#
# Static dielectric constant tensor:
#      x y z
#    x 3.633790 0.000000 0.000000 
#    y 0.000000 4.451590 0.000000 
#    z 0.000000 0.000000 4.026310 
# 
# 
# High freq. dielectric constant tensor:
#      x y z
#    x 1.783620 0.000000 0.000000 
#    y 0.000000 1.787730 0.000000 
#    z 0.000000 0.000000 1.801110 
# 
# From -- ./inp_files/24231.got.cif
#   From: 2010.03.12/outbox.cif.g09.slc.cpg/sg59_13_cif.got.tgz:24231.got - 2010.04.16 16:29:54.
