data_PCOD8240283
_publ_section_title
;
Structure prediction by ZEFSAII (Michael W. Deem and Ramdas Pophale) SiO2 
 PCOD8240283
Probable space group: P M M N
;
_chemical_formula_sum "Si O2"
_cell_formula_units_Z 32
_cell_length_a 14.693736
_cell_length_b 14.278507
_cell_length_c 9.185086
_cell_angle_alpha 90.000000
_cell_angle_beta 90.000000
_cell_angle_gamma 90.000000
_cell_volume 1927.073407
_symmetry_space_group_name_H-M "P M M N"
_symmetry_group_IT_number 59
_space_group.IT_coordinate_system_code '2'
_symmetry_cell_setting 'orthorhombic'
loop_
_space_group_symop_operation_xyz
x,y,z
1/2-x,1/2-y,z
1/2+x,-y,-z
-x,1/2+y,-z
-x,-y,-z
1/2+x,1/2+y,-z
1/2-x,y,z
x,1/2-y,z
loop_
_atom_site_type_symbol
_atom_site_label
_atom_site_fract_x
_atom_site_fract_y
_atom_site_fract_z
Si Si1 0.990707 0.750000 0.309184
Si Si2 0.146309 0.750000 0.544573
Si Si3 0.345913 0.250000 0.012103
Si Si4 0.854985 0.393775 0.206472
Si Si5 0.538933 0.250000 0.029082
Si Si6 0.352015 0.105760 0.758838
O O1 0.926452 0.840546 0.340586
O O2 0.078124 0.750000 0.410386
O O3 0.027485 0.750000 0.144159
O O4 0.250000 0.750000 0.485437
O O5 0.127760 0.841956 0.640823
O O6 0.250000 0.250000 0.102710
O O7 0.438124 0.250000 0.107185
O O8 0.347409 0.156906 0.913701
O O9 0.750000 0.387770 0.161368
O O10 0.909718 0.343807 0.077164
O O11 0.887552 0.500315 0.220378
O O12 0.250000 0.106815 0.687850
#
# Coordination Sequence:
#
# PCOD8240283 Si02
#       6
#     4   4   4   8   4   8
#     4  10  19  28  46  71  92 113 141 186 228 255
#     4   9  19  32  43  62  92 121 146 177 221 263
#     4   8  15  26  41  65  92 115 142 182 225 255
#     4   9  17  31  49  65  86 119 152 178 211 263
#     4   9  17  28  46  68  88 113 149 181 214 261
#     4   8  15  29  48  67  87 114 149 182 214 260
#
# _framework density 16.605491000000001
#
# number of rings (size 3 to 8) (size 9 to 14) (size 15 to 20)
#    0.000    3.500    0.000    2.250    0.000    6.000 
#    0.000    0.000    0.000    7.500    0.000    0.000 
#    0.000    0.000    0.000    0.000    0.000    0.000 
#
# Total GULP energy -396457.316522 kJ/mol
# GULP energy per Si atom -12389.291141 kJ/mol
# Density = 1.656770 g / cm^3
# Si number density = 16.605491 Si / 1000 Ang^3
#
#
#
# Elastic Constant Matrix: (Units=GPa)
#
#
# Indices 1 2 3 4 5 6 
#
# 1 116.4301 56.9876 45.5632 0.0000 0.0000 0.0000
# 2 56.9876 162.3747 33.4412 0.0000 0.0000 0.0000
# 3 45.5632 33.4412 51.5368 0.0000 0.0000 0.0000
# 4 0.0000 0.0000 0.0000 5.8086 0.0000 0.0000
# 5 0.0000 0.0000 0.0000 0.0000 23.9238 0.0000
# 6 0.0000 0.0000 0.0000 0.0000 0.0000 15.7104
#
#
#
# Elastic Compliance Matrix: (Units=1/GPa)
#
#
# Indices 1 2 3 4 5 6 
#
# 1 0.014124 -0.002753 -0.010700 0.000000 0.000000 0.000000
# 2 -0.002753 0.007645 -0.002527 0.000000 0.000000 0.000000
# 3 -0.010700 -0.002527 0.030503 0.000000 0.000000 0.000000
# 4 0.000000 0.000000 0.000000 0.172160 0.000000 0.000000
# 5 0.000000 0.000000 0.000000 0.000000 0.041799 0.000000
# 6 0.000000 0.000000 0.000000 0.000000 0.000000 0.063652
#
#
# Mechanical properties :
#
#
# Convention : Reuss Voigt Hill
#
# Bulk Modulus (GPa) = 49.23245 66.92508 58.07876
# Shear Modulus (GPa) = 13.56431 22.04520 17.80475
#
# Velocity S-wave (km/s) = 2.86117 3.64756 3.27803
# Velocity P-wave (km/s) = 6.37399 7.62431 7.02701
#
# Compressibility (1/GPa) = 0.02031181
#
# Stress axis : x y z
#
# Youngs Moduli (GPa) = 70.80239 130.79986 32.78350
#
# Poissons Ratio (x) = 0.36012 0.35079
# Poissons Ratio (y) = 0.19494 0.08284
# Poissons Ratio (z) = 0.75760 0.33050
#
# Static dielectric constant tensor:
#      x y z
#    x 3.578330 0.000000 0.000000 
#    y 0.000000 3.354220 0.000000 
#    z 0.000000 0.000000 2.554090 
# 
# 
# High freq. dielectric constant tensor:
#      x y z
#    x 1.659740 0.000000 0.000000 
#    y 0.000000 1.650960 0.000000 
#    z 0.000000 0.000000 1.577080 
# 
# From -- ./inp_files/8325.got.cif
#   From: 2010.03.12/outbox.cif.g09.slc.cpg/sg59_5_cif.got.tgz:8325.got - 2010.04.16 16:29:54.
