data_PCOD8240249
_publ_section_title
;
Structure prediction by ZEFSAII (Michael W. Deem and Ramdas Pophale) SiO2 
 PCOD8240249
Probable space group: P M M N
;
_chemical_formula_sum "Si O2"
_cell_formula_units_Z 64
_cell_length_a 9.276813
_cell_length_b 25.040989
_cell_length_c 18.424751
_cell_angle_alpha 90.000000
_cell_angle_beta 90.000000
_cell_angle_gamma 90.000000
_cell_volume 4280.080202
_symmetry_space_group_name_H-M "P M M N"
_symmetry_group_IT_number 59
_space_group.IT_coordinate_system_code '2'
_symmetry_cell_setting 'orthorhombic'
loop_
_space_group_symop_operation_xyz
x,y,z
1/2-x,1/2-y,z
1/2+x,-y,-z
-x,1/2+y,-z
-x,-y,-z
1/2+x,1/2+y,-z
1/2-x,y,z
x,1/2-y,z
loop_
_atom_site_type_symbol
_atom_site_label
_atom_site_fract_x
_atom_site_fract_y
_atom_site_fract_z
Si Si1 0.914328 0.473812 0.406220
Si Si2 0.581109 0.418555 0.002660
Si Si3 0.585380 0.882283 0.329614
Si Si4 0.578609 0.308743 0.938378
Si Si5 0.411549 0.003679 0.745294
Si Si6 0.089837 0.811695 0.223785
Si Si7 0.918403 0.990413 0.889871
Si Si8 0.414731 0.574823 0.451878
O O1 0.750000 0.497277 0.415812
O O2 0.934866 0.460454 0.320275
O O3 0.931601 0.422199 0.459600
O O4 0.035054 0.515985 0.428902
O O5 0.750000 0.420252 0.020787
O O6 0.526449 0.357727 0.988948
O O7 0.546765 0.454511 0.931868
O O8 0.495124 0.440571 0.071428
O O9 0.750000 0.867497 0.342069
O O10 0.563475 0.938671 0.290241
O O11 0.516971 0.837158 0.280641
O O12 0.509834 0.881759 0.409016
O O13 0.750000 0.307539 0.935752
O O14 0.522788 0.250000 0.965790
O O15 0.523996 0.319828 0.856758
O O16 0.250000 0.999106 0.777783
O O17 0.526101 0.994334 0.808104
O O18 0.250000 0.837645 0.229010
O O19 0.100737 0.750000 0.242812
O O20 0.750000 0.978443 0.888287
O O21 0.250000 0.583243 0.428264
#
# Coordination Sequence:
#
# PCOD8240249 Si02
#       8
#     8   8   8   8   8   8   8   8
#     4   8  15  26  38  55  79 104 130 162 197 231
#     4   9  17  29  43  58  80 108 135 167 206 245
#     4  10  19  28  39  57  82 110 139 170 202 240
#     4   8  14  26  45  65  81 101 134 173 208 244
#     4   9  17  28  40  56  80 108 136 166 202 240
#     4   9  17  29  44  61  81 105 135 171 206 239
#     4  10  19  28  40  59  81 108 141 171 201 243
#     4   9  15  24  39  56  76 104 135 163 192 229
#
# _framework density 14.952991000000001
#
# number of rings (size 3 to 8) (size 9 to 14) (size 15 to 20)
#    0.000    3.000    0.000    3.375    0.000    4.750 
#    0.000    0.625    0.000    1.125    0.000    0.000 
#    0.000    1.000    0.000    8.000    0.000    3.875 
#
# Total GULP energy -792995.033672 kJ/mol
# GULP energy per Si atom -12390.547401 kJ/mol
# Density = 1.491896 g / cm^3
# Si number density = 14.952991 Si / 1000 Ang^3
#
#
#
# Elastic Constant Matrix: (Units=GPa)
#
#
# Indices 1 2 3 4 5 6 
#
# 1 71.0930 24.7565 37.9560 0.0000 0.0000 0.0000
# 2 24.7565 59.5308 28.5288 0.0000 0.0000 0.0000
# 3 37.9560 28.5288 80.3946 0.0000 0.0000 0.0000
# 4 0.0000 0.0000 0.0000 22.4168 0.0000 0.0000
# 5 0.0000 0.0000 0.0000 0.0000 23.2885 0.0000
# 6 0.0000 0.0000 0.0000 0.0000 0.0000 16.0551
#
#
#
# Elastic Compliance Matrix: (Units=1/GPa)
#
#
# Indices 1 2 3 4 5 6 
#
# 1 0.019765 -0.004515 -0.007729 0.000000 0.000000 0.000000
# 2 -0.004515 0.021272 -0.005417 0.000000 0.000000 0.000000
# 3 -0.007729 -0.005417 0.018010 0.000000 0.000000 0.000000
# 4 0.000000 0.000000 0.000000 0.044609 0.000000 0.000000
# 5 0.000000 0.000000 0.000000 0.000000 0.042940 0.000000
# 6 0.000000 0.000000 0.000000 0.000000 0.000000 0.062286
#
#
# Mechanical properties :
#
#
# Convention : Reuss Voigt Hill
#
# Bulk Modulus (GPa) = 42.15123 43.72236 42.93680
# Shear Modulus (GPa) = 19.83248 20.33720 20.08484
#
# Velocity S-wave (km/s) = 3.64582 3.69192 3.66894
# Velocity P-wave (km/s) = 6.78034 6.89036 6.83557
#
# Compressibility (1/GPa) = 0.02372410
#
# Stress axis : x y z
#
# Youngs Moduli (GPa) = 50.59440 47.01099 55.52512
#
# Poissons Ratio (x) = 0.21228 0.42916
# Poissons Ratio (y) = 0.22846 0.30076
# Poissons Ratio (z) = 0.39105 0.25464
#
# Static dielectric constant tensor:
#      x y z
#    x 2.899700 0.000000 0.000000 
#    y 0.000000 2.754430 0.000000 
#    z 0.000000 0.000000 3.048640 
# 
# 
# High freq. dielectric constant tensor:
#      x y z
#    x 1.573210 0.000000 0.000000 
#    y 0.000000 1.529140 0.000000 
#    z 0.000000 0.000000 1.567590 
# 
# From -- ./inp_files/26643.got.cif
#   From: 2010.03.12/outbox.cif.g09.slc.cpg/sg59_14_cif.got.tgz:26643.got - 2010.04.16 16:29:54.
