data_PCOD8240466
_publ_section_title
;
Structure prediction by ZEFSAII (Michael W. Deem and Ramdas Pophale) SiO2 
 PCOD8240466
Probable space group: P M M N
;
_chemical_formula_sum "Si O2"
_cell_formula_units_Z 64
_cell_length_a 9.309564
_cell_length_b 21.718213
_cell_length_c 18.928455
_cell_angle_alpha 90.000000
_cell_angle_beta 90.000000
_cell_angle_gamma 90.000000
_cell_volume 3827.089308
_symmetry_space_group_name_H-M "P M M N"
_symmetry_group_IT_number 59
_space_group.IT_coordinate_system_code '2'
_symmetry_cell_setting 'orthorhombic'
loop_
_space_group_symop_operation_xyz
x,y,z
1/2-x,1/2-y,z
1/2+x,-y,-z
-x,1/2+y,-z
-x,-y,-z
1/2+x,1/2+y,-z
1/2-x,y,z
x,1/2-y,z
loop_
_atom_site_type_symbol
_atom_site_label
_atom_site_fract_x
_atom_site_fract_y
_atom_site_fract_z
Si Si1 0.583331 0.870591 0.661650
Si Si2 0.415258 0.507118 0.314759
Si Si3 0.081470 0.555942 0.461462
Si Si4 0.418485 0.680964 0.535577
Si Si5 0.581978 0.941350 0.029575
Si Si6 0.581718 0.114738 0.085226
Si Si7 0.909914 0.819613 0.808893
Si Si8 0.086169 0.006892 0.826993
O O1 0.750000 0.855972 0.648163
O O2 0.544071 0.941862 0.649475
O O3 0.492486 0.826784 0.611203
O O4 0.538618 0.858975 0.742241
O O5 0.250000 0.507289 0.292132
O O6 0.449220 0.555755 0.376998
O O7 0.498852 0.522671 0.243208
O O8 0.250000 0.545963 0.476583
O O9 0.029220 0.624248 0.485868
O O10 0.000000 0.500000 0.500000
O O11 0.250000 0.676022 0.547425
O O12 0.457385 0.750000 0.505811
O O13 0.750000 0.945299 0.009587
O O14 0.564236 0.938472 0.114867
O O15 0.503738 0.884924 0.989687
O O16 0.500000 0.000000 0.000000
O O17 0.750000 0.119274 0.069744
O O18 0.523382 0.173373 0.127675
O O19 0.540303 0.056234 0.134193
O O20 0.750000 0.840446 0.833415
O O21 0.908123 0.750000 0.783479
O O22 0.250000 0.002080 0.802850
#
# Coordination Sequence:
#
# PCOD8240466 Si02
#       8
#     8   8   8   8   8   8   8   8
#     4  10  19  32  49  70  96 128 166 204 243 291
#     4  10  19  30  48  71  95 126 161 198 245 293
#     4  10  20  34  50  71  98 127 163 204 249 300
#     4  10  21  35  51  71  96 129 166 205 249 297
#     4   9  17  29  45  67  93 120 152 188 229 279
#     4  10  19  30  45  66  92 124 159 195 237 279
#     4  10  20  32  45  63  91 129 166 199 237 282
#     4   9  18  30  45  68  95 122 152 189 236 287
#
# _framework density 16.722891000000001
#
# number of rings (size 3 to 8) (size 9 to 14) (size 15 to 20)
#    0.000    2.250    2.500    1.875    0.000    5.000 
#    0.000    0.000    0.000    0.000    0.000    0.875 
#    0.000    3.000    0.000    0.000    0.000    0.000 
#
# Total GULP energy -793127.410612 kJ/mol
# GULP energy per Si atom -12392.615791 kJ/mol
# Density = 1.668483 g / cm^3
# Si number density = 16.722891 Si / 1000 Ang^3
#
#
#
# Elastic Constant Matrix: (Units=GPa)
#
#
# Indices 1 2 3 4 5 6 
#
# 1 69.7458 30.6608 47.8363 0.0000 0.0000 0.0000
# 2 30.6608 75.2157 42.1924 0.0000 0.0000 0.0000
# 3 47.8363 42.1924 91.8631 0.0000 0.0000 0.0000
# 4 0.0000 0.0000 0.0000 22.4551 0.0000 0.0000
# 5 0.0000 0.0000 0.0000 0.0000 31.9972 0.0000
# 6 0.0000 0.0000 0.0000 0.0000 0.0000 18.7759
#
#
#
# Elastic Compliance Matrix: (Units=1/GPa)
#
#
# Indices 1 2 3 4 5 6 
#
# 1 0.022997 -0.003579 -0.010332 0.000000 0.000000 0.000000
# 2 -0.003579 0.018466 -0.006618 0.000000 0.000000 0.000000
# 3 -0.010332 -0.006618 0.019305 0.000000 0.000000 0.000000
# 4 0.000000 0.000000 0.000000 0.044533 0.000000 0.000000
# 5 0.000000 0.000000 0.000000 0.000000 0.031253 0.000000
# 6 0.000000 0.000000 0.000000 0.000000 0.000000 0.053260
#
#
# Mechanical properties :
#
#
# Convention : Reuss Voigt Hill
#
# Bulk Modulus (GPa) = 50.73048 53.13373 51.93211
# Shear Modulus (GPa) = 21.05775 22.38797 21.72286
#
# Velocity S-wave (km/s) = 3.55239 3.66288 3.60806
# Velocity P-wave (km/s) = 6.87225 7.05202 6.96271
#
# Compressibility (1/GPa) = 0.01971201
#
# Stress axis : x y z
#
# Youngs Moduli (GPa) = 43.48339 54.15267 51.79916
#
# Poissons Ratio (x) = 0.19381 0.53517
# Poissons Ratio (y) = 0.15563 0.34280
# Poissons Ratio (z) = 0.44926 0.35837
#
# Static dielectric constant tensor:
#      x y z
#    x 3.165640 0.000000 0.000000 
#    y 0.000000 3.142900 0.000000 
#    z 0.000000 0.000000 3.355560 
# 
# 
# High freq. dielectric constant tensor:
#      x y z
#    x 1.648310 0.000000 0.000000 
#    y 0.000000 1.611070 0.000000 
#    z 0.000000 0.000000 1.639610 
# 
# From -- ./inp_files/26553.got.cif
#   From: 2010.03.12/outbox.cif.g09.slc.cpg/sg59_14_cif.got.tgz:26553.got - 2010.04.16 16:29:54.
