data_PCOD8240876
_publ_section_title
;
Structure prediction by ZEFSAII (Michael W. Deem and Ramdas Pophale) SiO2 
 PCOD8240876
Probable space group: P M M N
;
_chemical_formula_sum "Si O2"
_cell_formula_units_Z 40
_cell_length_a 20.278898
_cell_length_b 9.026588
_cell_length_c 13.776595
_cell_angle_alpha 90.000000
_cell_angle_beta 90.000000
_cell_angle_gamma 90.000000
_cell_volume 2521.795483
_symmetry_space_group_name_H-M "P M M N"
_symmetry_group_IT_number 59
_space_group.IT_coordinate_system_code '2'
_symmetry_cell_setting 'orthorhombic'
loop_
_space_group_symop_operation_xyz
x,y,z
1/2-x,1/2-y,z
1/2+x,-y,-z
-x,1/2+y,-z
-x,-y,-z
1/2+x,1/2+y,-z
1/2-x,y,z
x,1/2-y,z
loop_
_atom_site_type_symbol
_atom_site_label
_atom_site_fract_x
_atom_site_fract_y
_atom_site_fract_z
Si Si1 0.986110 0.917447 0.401004
Si Si2 0.326715 0.080813 0.894668
Si Si3 0.824851 0.922169 0.882546
Si Si4 0.559065 0.083212 0.783517
Si Si5 0.932052 0.074965 0.230267
O O1 0.962370 0.750000 0.422617
O O2 0.052578 0.916707 0.334412
O O3 0.929583 0.003659 0.338944
O O4 0.000000 0.000000 0.500000
O O5 0.250000 0.055337 0.873552
O O6 0.346564 0.250000 0.871167
O O7 0.366750 0.969423 0.827214
O O8 0.343001 0.043775 0.006190
O O9 0.750000 0.971230 0.861151
O O10 0.834052 0.750000 0.859869
O O11 0.871438 0.014166 0.811877
O O12 0.554373 0.250000 0.824784
O O13 0.497089 0.988387 0.826104
O O14 0.936844 0.250000 0.238493
#
# Coordination Sequence:
#
# PCOD8240876 Si02
#       5
#     8   8   8   8   8
#     4   9  18  32  51  74  97 123 157 198 246 291
#     4   9  18  33  50  69  98 133 165 199 239 285
#     4   9  18  32  50  71  97 131 166 198 238 287
#     4   9  19  32  48  72  98 126 161 200 241 286
#     4  10  19  31  49  73  98 127 162 202 241 283
#
# _framework density 15.861713999999999
#
# number of rings (size 3 to 8) (size 9 to 14) (size 15 to 20)
#    1.200    1.600    0.000    3.600    0.000    2.400 
#    0.000    2.000    0.000    1.200    0.000    5.600 
#    0.000    0.000    0.000    0.000    0.000    0.000 
#
# Total GULP energy -495658.731776 kJ/mol
# GULP energy per Si atom -12391.468294 kJ/mol
# Density = 1.582561 g / cm^3
# Si number density = 15.861714 Si / 1000 Ang^3
#
#
#
# Elastic Constant Matrix: (Units=GPa)
#
#
# Indices 1 2 3 4 5 6 
#
# 1 72.2452 48.9530 41.6362 0.0000 0.0000 0.0000
# 2 48.9530 128.5792 49.6153 0.0000 0.0000 0.0000
# 3 41.6362 49.6153 71.6169 0.0000 0.0000 0.0000
# 4 0.0000 0.0000 0.0000 28.9636 0.0000 0.0000
# 5 0.0000 0.0000 0.0000 0.0000 7.2450 0.0000
# 6 0.0000 0.0000 0.0000 0.0000 0.0000 31.3024
#
#
#
# Elastic Compliance Matrix: (Units=1/GPa)
#
#
# Indices 1 2 3 4 5 6 
#
# 1 0.022859 -0.004879 -0.009909 0.000000 0.000000 0.000000
# 2 -0.004879 0.011656 -0.005239 0.000000 0.000000 0.000000
# 3 -0.009909 -0.005239 0.023354 0.000000 0.000000 0.000000
# 4 0.000000 0.000000 0.000000 0.034526 0.000000 0.000000
# 5 0.000000 0.000000 0.000000 0.000000 0.138026 0.000000
# 6 0.000000 0.000000 0.000000 0.000000 0.000000 0.031946
#
#
# Mechanical properties :
#
#
# Convention : Reuss Voigt Hill
#
# Bulk Modulus (GPa) = 56.13477 61.42782 58.78130
# Shear Modulus (GPa) = 16.21485 22.31799 19.26642
#
# Velocity S-wave (km/s) = 3.20075 3.75512 3.48896
# Velocity P-wave (km/s) = 7.00904 7.59028 7.30545
#
# Compressibility (1/GPa) = 0.01781427
#
# Stress axis : x y z
#
# Youngs Moduli (GPa) = 43.74711 85.78961 42.82004
#
# Poissons Ratio (x) = 0.41858 0.42431
# Poissons Ratio (y) = 0.21345 0.22433
# Poissons Ratio (z) = 0.43350 0.44944
#
# Static dielectric constant tensor:
#      x y z
#    x 2.807620 0.000000 0.000000 
#    y 0.000000 3.030990 0.000000 
#    z 0.000000 0.000000 2.782290 
# 
# 
# High freq. dielectric constant tensor:
#      x y z
#    x 1.590390 0.000000 0.000000 
#    y 0.000000 1.622070 0.000000 
#    z 0.000000 0.000000 1.588330 
# 
# From -- ./inp_files/24061.got.cif
#   From: 2010.03.12/outbox.cif.g09.slc.cpg/sg59_13_cif.got.tgz:24061.got - 2010.04.16 16:29:54.
