data_PCOD8240490
_publ_section_title
;
Structure prediction by ZEFSAII (Michael W. Deem and Ramdas Pophale) SiO2 
 PCOD8240490
Probable space group: P M M N
;
_chemical_formula_sum "Si O2"
_cell_formula_units_Z 48
_cell_length_a 23.607582
_cell_length_b 9.144252
_cell_length_c 13.756736
_cell_angle_alpha 90.000000
_cell_angle_beta 90.000000
_cell_angle_gamma 90.000000
_cell_volume 2969.717210
_symmetry_space_group_name_H-M "P M M N"
_symmetry_group_IT_number 59
_space_group.IT_coordinate_system_code '2'
_symmetry_cell_setting 'orthorhombic'
loop_
_space_group_symop_operation_xyz
x,y,z
1/2-x,1/2-y,z
1/2+x,-y,-z
-x,1/2+y,-z
-x,-y,-z
1/2+x,1/2+y,-z
1/2-x,y,z
x,1/2-y,z
loop_
_atom_site_type_symbol
_atom_site_label
_atom_site_fract_x
_atom_site_fract_y
_atom_site_fract_z
Si Si1 0.914245 0.421062 0.955203
Si Si2 0.481070 0.919920 0.642630
Si Si3 0.813628 0.419164 0.662764
Si Si4 0.015353 0.919016 0.859799
Si Si5 0.815144 0.921225 0.860745
Si Si6 0.580486 0.420207 0.545225
O O1 0.906761 0.250000 0.935371
O O2 0.854270 0.500961 0.940931
O O3 0.960500 0.482805 0.880158
O O4 0.934269 0.454470 0.065138
O O5 0.493887 0.750000 0.630789
O O6 0.461312 0.956504 0.752201
O O7 0.432291 0.969754 0.566065
O O8 0.539471 0.000766 0.620765
O O9 0.750000 0.454329 0.627483
O O10 0.819952 0.250000 0.693438
O O11 0.830377 0.516061 0.755065
O O12 0.854905 0.459394 0.573099
O O13 0.996719 0.750000 0.868981
O O14 0.750000 0.954919 0.887580
O O15 0.827920 0.750000 0.860124
O O16 0.568773 0.250000 0.557651
#
# Coordination Sequence:
#
# PCOD8240490 Si02
#       6
#     8   8   8   8   8   8
#     4  10  19  30  46  67  90 116 147 183 220 259
#     4   9  17  29  44  62  87 116 143 173 210 254
#     4   9  17  29  45  65  88 113 141 175 215 257
#     4   9  18  31  46  65  90 119 148 179 218 262
#     4  10  20  32  46  65  89 117 147 179 218 263
#     4   9  17  28  43  64  88 113 142 175 211 252
#
# _framework density 16.163153999999999
#
# number of rings (size 3 to 8) (size 9 to 14) (size 15 to 20)
#    0.000    2.667    0.000    2.000    0.000    5.667 
#    0.000    0.000    0.000    1.000    0.000    4.667 
#    0.000    2.667    0.000    0.000    0.000    0.000 
#
# Total GULP energy -595131.435443 kJ/mol
# GULP energy per Si atom -12398.571572 kJ/mol
# Density = 1.612637 g / cm^3
# Si number density = 16.163154 Si / 1000 Ang^3
#
#
#
# Elastic Constant Matrix: (Units=GPa)
#
#
# Indices 1 2 3 4 5 6 
#
# 1 112.8555 47.7948 69.0475 0.0000 0.0000 0.0000
# 2 47.7948 63.3413 42.0594 0.0000 0.0000 0.0000
# 3 69.0475 42.0594 119.6992 0.0000 0.0000 0.0000
# 4 0.0000 0.0000 0.0000 19.6210 0.0000 0.0000
# 5 0.0000 0.0000 0.0000 0.0000 24.2323 0.0000
# 6 0.0000 0.0000 0.0000 0.0000 0.0000 26.1854
#
#
#
# Elastic Compliance Matrix: (Units=1/GPa)
#
#
# Indices 1 2 3 4 5 6 
#
# 1 0.016228 -0.007864 -0.006598 0.000000 0.000000 0.000000
# 2 -0.007864 0.024403 -0.004038 0.000000 0.000000 0.000000
# 3 -0.006598 -0.004038 0.013579 0.000000 0.000000 0.000000
# 4 0.000000 0.000000 0.000000 0.050966 0.000000 0.000000
# 5 0.000000 0.000000 0.000000 0.000000 0.041267 0.000000
# 6 0.000000 0.000000 0.000000 0.000000 0.000000 0.038189
#
#
# Mechanical properties :
#
#
# Convention : Reuss Voigt Hill
#
# Bulk Modulus (GPa) = 58.10638 68.18883 63.14761
# Shear Modulus (GPa) = 21.99069 23.14068 22.56569
#
# Velocity S-wave (km/s) = 3.69256 3.78788 3.74052
# Velocity P-wave (km/s) = 7.36260 7.83646 7.60322
#
# Compressibility (1/GPa) = 0.01720981
#
# Stress axis : x y z
#
# Youngs Moduli (GPa) = 61.62199 40.97890 73.64261
#
# Poissons Ratio (x) = 0.32226 0.48588
# Poissons Ratio (y) = 0.48459 0.29739
# Poissons Ratio (z) = 0.40657 0.16548
#
# Static dielectric constant tensor:
#      x y z
#    x 3.105820 0.000000 0.000000 
#    y 0.000000 3.124910 0.000000 
#    z 0.000000 0.000000 3.161060 
# 
# 
# High freq. dielectric constant tensor:
#      x y z
#    x 1.609390 0.000000 0.000000 
#    y 0.000000 1.627670 0.000000 
#    z 0.000000 0.000000 1.611750 
# 
# From -- ./inp_files/21259.got.cif
#   From: 2010.03.12/outbox.cif.g09.slc.cpg/sg59_11_cif.got.tgz:21259.got - 2010.04.16 16:29:54.
