data_PCOD8240379
_publ_section_title
;
Structure prediction by ZEFSAII (Michael W. Deem and Ramdas Pophale) SiO2 
 PCOD8240379
Probable space group: P M M N
;
_chemical_formula_sum "Si O2"
_cell_formula_units_Z 64
_cell_length_a 21.792644
_cell_length_b 9.338127
_cell_length_c 20.259452
_cell_angle_alpha 90.000000
_cell_angle_beta 90.000000
_cell_angle_gamma 90.000000
_cell_volume 4122.848672
_symmetry_space_group_name_H-M "P M M N"
_symmetry_group_IT_number 59
_space_group.IT_coordinate_system_code '2'
_symmetry_cell_setting 'orthorhombic'
loop_
_space_group_symop_operation_xyz
x,y,z
1/2-x,1/2-y,z
1/2+x,-y,-z
-x,1/2+y,-z
-x,-y,-z
1/2+x,1/2+y,-z
1/2-x,y,z
x,1/2-y,z
loop_
_atom_site_type_symbol
_atom_site_label
_atom_site_fract_x
_atom_site_fract_y
_atom_site_fract_z
Si Si1 0.908919 0.414229 0.618087
Si Si2 0.965284 0.412555 0.235532
Si Si3 0.321113 0.083249 0.127163
Si Si4 0.029586 0.585392 0.909202
Si Si5 0.413295 0.916081 0.044438
Si Si6 0.447017 0.091502 0.645672
Si Si7 0.064131 0.080179 0.502734
Si Si8 0.393370 0.416020 0.257233
O O1 0.887170 0.250000 0.610213
O O2 0.892078 0.504726 0.551692
O O3 0.874418 0.487851 0.679779
O O4 0.981225 0.425207 0.630219
O O5 0.953398 0.250000 0.253437
O O6 0.940535 0.450756 0.162150
O O7 0.037305 0.449452 0.235586
O O8 0.927696 0.494648 0.292393
O O9 0.250000 0.043837 0.128340
O O10 0.332738 0.250000 0.113378
O O11 0.349618 0.038291 0.197291
O O12 0.351835 0.994176 0.068086
O O13 0.005492 0.750000 0.909325
O O14 0.972123 0.482750 0.920023
O O15 0.080872 0.562277 0.965367
O O16 0.409978 0.750000 0.063665
O O17 0.431382 0.250000 0.669163
O O18 0.410128 0.056799 0.577596
O O19 0.056046 0.250000 0.487845
O O20 0.000000 0.000000 0.500000
O O21 0.384665 0.250000 0.276134
#
# Coordination Sequence:
#
# PCOD8240379 Si02
#       8
#     8   8   8   8   8   8   8   8
#     4   9  16  24  35  51  71  97 129 168 203 234
#     4   9  15  24  39  55  75 104 135 168 201 244
#     4  10  20  34  49  62  82 112 143 177 217 263
#     4   9  17  30  44  61  85 111 140 173 213 259
#     4  10  19  29  45  65  84 107 137 178 218 255
#     4   8  15  23  31  48  74  99 128 163 197 233
#     4   9  15  23  33  47  69  99 132 165 196 231
#     4   9  16  27  41  56  74 101 136 170 205 247
#
# _framework density 15.523247
#
# number of rings (size 3 to 8) (size 9 to 14) (size 15 to 20)
#    0.000    2.875    1.250    1.875    0.000    5.250 
#    0.000    0.000    0.000    0.000    0.000    0.000 
#    0.000    0.000    0.000    1.125    0.000   17.625 
#
# Total GULP energy -793144.928447 kJ/mol
# GULP energy per Si atom -12392.889507 kJ/mol
# Density = 1.548792 g / cm^3
# Si number density = 15.523247 Si / 1000 Ang^3
#
#
#
# Elastic Constant Matrix: (Units=GPa)
#
#
# Indices 1 2 3 4 5 6 
#
# 1 31.6311 25.2036 31.7316 0.0000 0.0000 0.0000
# 2 25.2036 95.3290 77.3044 0.0000 0.0000 0.0000
# 3 31.7316 77.3044 152.2834 0.0000 0.0000 0.0000
# 4 0.0000 0.0000 0.0000 31.9343 0.0000 0.0000
# 5 0.0000 0.0000 0.0000 0.0000 10.3076 0.0000
# 6 0.0000 0.0000 0.0000 0.0000 0.0000 12.0856
#
#
#
# Elastic Compliance Matrix: (Units=1/GPa)
#
#
# Indices 1 2 3 4 5 6 
#
# 1 0.042474 -0.006888 -0.005354 0.000000 0.000000 0.000000
# 2 -0.006888 0.018947 -0.008183 0.000000 0.000000 0.000000
# 3 -0.005354 -0.008183 0.011836 0.000000 0.000000 0.000000
# 4 0.000000 0.000000 0.000000 0.031314 0.000000 0.000000
# 5 0.000000 0.000000 0.000000 0.000000 0.097016 0.000000
# 6 0.000000 0.000000 0.000000 0.000000 0.000000 0.082743
#
#
# Mechanical properties :
#
#
# Convention : Reuss Voigt Hill
#
# Bulk Modulus (GPa) = 30.85707 60.85808 45.85758
# Shear Modulus (GPa) = 14.88178 20.53241 17.70710
#
# Velocity S-wave (km/s) = 3.09961 3.64082 3.38106
# Velocity P-wave (km/s) = 5.72112 7.54743 6.69683
#
# Compressibility (1/GPa) = 0.03240748
#
# Stress axis : x y z
#
# Youngs Moduli (GPa) = 23.54407 52.77997 84.48725
#
# Poissons Ratio (x) = 0.36354 0.45232
# Poissons Ratio (y) = 0.16217 0.69133
# Poissons Ratio (z) = 0.12605 0.43188
#
# Static dielectric constant tensor:
#      x y z
#    x 2.364450 0.000000 0.000000 
#    y 0.000000 3.081710 0.000000 
#    z 0.000000 0.000000 3.487750 
# 
# 
# High freq. dielectric constant tensor:
#      x y z
#    x 1.508410 0.000000 0.000000 
#    y 0.000000 1.605960 0.000000 
#    z 0.000000 0.000000 1.615370 
# 
# From -- ./inp_files/31041.got.cif
#   From: 2010.03.12/outbox.cif.g09.slc.cpg/sg59_16_cif.got.tgz:31041.got - 2010.04.16 16:29:54.
