data_PCOD8240042
_publ_section_title
;
Structure prediction by ZEFSAII (Michael W. Deem and Ramdas Pophale) SiO2 
 PCOD8240042
Probable space group: P M M N
;
_chemical_formula_sum "Si O2"
_cell_formula_units_Z 48
_cell_length_a 8.942670
_cell_length_b 14.870280
_cell_length_c 18.825792
_cell_angle_alpha 90.000000
_cell_angle_beta 90.000000
_cell_angle_gamma 90.000000
_cell_volume 2503.453949
_symmetry_space_group_name_H-M "P M M N"
_symmetry_group_IT_number 59
_space_group.IT_coordinate_system_code '2'
_symmetry_cell_setting 'orthorhombic'
loop_
_space_group_symop_operation_xyz
x,y,z
1/2-x,1/2-y,z
1/2+x,-y,-z
-x,1/2+y,-z
-x,-y,-z
1/2+x,1/2+y,-z
1/2-x,y,z
x,1/2-y,z
loop_
_atom_site_type_symbol
_atom_site_label
_atom_site_fract_x
_atom_site_fract_y
_atom_site_fract_z
Si Si1 0.573937 0.486488 0.246367
Si Si2 0.081370 0.149276 0.147857
Si Si3 0.574169 0.995880 0.604717
Si Si4 0.427353 0.347234 0.842675
Si Si5 0.425971 0.145280 0.515575
Si Si6 0.424598 0.405496 0.993826
O O1 0.750000 0.489474 0.261327
O O2 0.538411 0.407307 0.191569
O O3 0.487379 0.469456 0.318844
O O4 0.511021 0.578049 0.211168
O O5 0.250000 0.110756 0.158286
O O6 0.072527 0.250000 0.177188
O O7 0.038969 0.151222 0.064405
O O8 0.750000 0.010307 0.607332
O O9 0.502798 0.090754 0.579872
O O10 0.531856 0.910203 0.555473
O O11 0.250000 0.354180 0.844470
O O12 0.480174 0.250000 0.814187
O O13 0.489072 0.358051 0.923058
O O14 0.250000 0.144202 0.529466
O O15 0.481749 0.250000 0.511010
O O16 0.250000 0.420449 0.984569
O O17 0.500000 0.500000 0.000000
#
# Coordination Sequence:
#
# PCOD8240042 Si02
#       6
#     8   8   8   8   8   8
#     4  11  22  36  55  81 113 149 186 228 276 328
#     4  10  21  36  55  78 106 144 188 234 285 337
#     4  10  21  37  58  86 118 149 182 225 273 325
#     4   9  18  33  53  76 103 140 185 228 273 329
#     4   9  19  38  63  87 111 144 185 225 269 325
#     4  10  18  32  55  78 102 136 182 234 285 334
#
# _framework density 19.173511000000001
#
# number of rings (size 3 to 8) (size 9 to 14) (size 15 to 20)
#    0.000    2.167    1.667    1.500    0.000    4.667 
#    0.000    3.333    0.000    5.000    0.000    0.000 
#    0.000    0.000    0.000    0.000    0.000    0.000 
#
# Total GULP energy -595041.035641 kJ/mol
# GULP energy per Si atom -12396.688243 kJ/mol
# Density = 1.912987 g / cm^3
# Si number density = 19.173511 Si / 1000 Ang^3
#
#
#
# Elastic Constant Matrix: (Units=GPa)
#
#
# Indices 1 2 3 4 5 6 
#
# 1 24.3008 22.8564 20.7821 0.0000 0.0000 0.0000
# 2 22.8564 120.1690 18.7588 0.0000 0.0000 0.0000
# 3 20.7821 18.7588 75.4003 0.0000 0.0000 0.0000
# 4 0.0000 0.0000 0.0000 5.0122 0.0000 0.0000
# 5 0.0000 0.0000 0.0000 0.0000 26.3743 0.0000
# 6 0.0000 0.0000 0.0000 0.0000 0.0000 27.7623
#
#
#
# Elastic Compliance Matrix: (Units=1/GPa)
#
#
# Indices 1 2 3 4 5 6 
#
# 1 0.063033 -0.009652 -0.014972 0.000000 0.000000 0.000000
# 2 -0.009652 0.010136 0.000139 0.000000 0.000000 0.000000
# 3 -0.014972 0.000139 0.017355 0.000000 0.000000 0.000000
# 4 0.000000 0.000000 0.000000 0.199513 0.000000 0.000000
# 5 0.000000 0.000000 0.000000 0.000000 0.037916 0.000000
# 6 0.000000 0.000000 0.000000 0.000000 0.000000 0.036020
#
#
# Mechanical properties :
#
#
# Convention : Reuss Voigt Hill
#
# Bulk Modulus (GPa) = 24.06566 38.29609 31.18087
# Shear Modulus (GPa) = 11.71525 22.32794 17.02160
#
# Velocity S-wave (km/s) = 2.47455 3.41621 2.98277
# Velocity P-wave (km/s) = 4.55448 5.96468 5.30663
#
# Compressibility (1/GPa) = 0.04155299
#
# Stress axis : x y z
#
# Youngs Moduli (GPa) = 15.86463 98.66041 57.62119
#
# Poissons Ratio (x) = 0.95226 0.86271
# Poissons Ratio (y) = 0.15312 -0.00799
# Poissons Ratio (z) = 0.23753 -0.01367
#
# Static dielectric constant tensor:
#      x y z
#    x 3.307330 0.000000 0.000000 
#    y 0.000000 3.643330 0.000000 
#    z 0.000000 0.000000 3.696660 
# 
# 
# High freq. dielectric constant tensor:
#      x y z
#    x 1.724190 0.000000 0.000000 
#    y 0.000000 1.752520 0.000000 
#    z 0.000000 0.000000 1.746990 
# 
# From -- ./inp_files/25452.got.cif
#   From: 2010.03.12/outbox.cif.g09.slc.cpg/sg59_13_cif.got.tgz:25452.got - 2010.04.16 16:29:54.
