data_PCOD8240168
_publ_section_title
;
Structure prediction by ZEFSAII (Michael W. Deem and Ramdas Pophale) SiO2 
 PCOD8240168
Probable space group: P M M N
;
_chemical_formula_sum "Si O2"
_cell_formula_units_Z 48
_cell_length_a 8.912869
_cell_length_b 9.932662
_cell_length_c 29.224488
_cell_angle_alpha 90.000000
_cell_angle_beta 90.000000
_cell_angle_gamma 90.000000
_cell_volume 2587.200531
_symmetry_space_group_name_H-M "P M M N"
_symmetry_group_IT_number 59
_space_group.IT_coordinate_system_code '2'
_symmetry_cell_setting 'orthorhombic'
loop_
_space_group_symop_operation_xyz
x,y,z
1/2-x,1/2-y,z
1/2+x,-y,-z
-x,1/2+y,-z
-x,-y,-z
1/2+x,1/2+y,-z
1/2-x,y,z
x,1/2-y,z
loop_
_atom_site_type_symbol
_atom_site_label
_atom_site_fract_x
_atom_site_fract_y
_atom_site_fract_z
Si Si1 0.073079 0.906068 0.962238
Si Si2 0.571979 0.250000 0.534965
Si Si3 0.425433 0.904248 0.295641
Si Si4 0.573585 0.094554 0.222518
Si Si5 0.427493 0.250000 0.436319
Si Si6 0.918252 0.909509 0.869592
Si Si7 0.072468 0.973032 0.396173
O O1 0.250000 0.925683 0.962837
O O2 0.029168 0.750000 0.971142
O O3 0.011712 0.957669 0.913512
O O4 0.000000 0.000000 0.000000
O O5 0.750000 0.250000 0.529066
O O6 0.498800 0.250000 0.485835
O O7 0.512779 0.121193 0.563106
O O8 0.250000 0.940837 0.292181
O O9 0.453971 0.750000 0.281025
O O10 0.488308 0.926022 0.346969
O O11 0.517856 0.004169 0.263987
O O12 0.750000 0.079299 0.216555
O O13 0.528849 0.250000 0.231874
O O14 0.497392 0.037939 0.176367
O O15 0.250000 0.250000 0.442898
O O16 0.483242 0.377066 0.407075
O O17 0.750000 0.969067 0.872253
O O18 0.914610 0.750000 0.868451
O O19 0.250000 0.961460 0.394740
#
# Coordination Sequence:
#
# PCOD8240168 Si02
#       7
#     8   4   8   8   4   8   8
#     4  10  20  34  54  81 114 151 189 231 278 326
#     4  10  18  34  54  72 100 136 168 204 255 312
#     4  10  20  36  57  79 103 137 180 221 264 319
#     4  10  21  36  55  81 111 140 173 219 272 325
#     4  10  20  32  50  78 104 128 168 214 253 302
#     4   9  17  32  55  81 108 142 184 227 272 324
#     4   9  18  33  53  75 100 132 170 211 256 308
#
# _framework density 18.552872000000001
#
# number of rings (size 3 to 8) (size 9 to 14) (size 15 to 20)
#    0.000    2.333    0.833    2.000    1.167    4.333 
#    0.000    2.500    0.000    5.000    0.000    0.000 
#    0.000    0.000    0.000    0.000    0.000    0.000 
#
# Total GULP energy -595199.223368 kJ/mol
# GULP energy per Si atom -12399.983820 kJ/mol
# Density = 1.851065 g / cm^3
# Si number density = 18.552872 Si / 1000 Ang^3
#
#
#
# Elastic Constant Matrix: (Units=GPa)
#
#
# Indices 1 2 3 4 5 6 
#
# 1 72.5369 35.0846 44.1222 0.0000 0.0000 0.0000
# 2 35.0846 94.9605 47.0380 0.0000 0.0000 0.0000
# 3 44.1222 47.0380 128.0518 0.0000 0.0000 0.0000
# 4 0.0000 0.0000 0.0000 26.2264 0.0000 0.0000
# 5 0.0000 0.0000 0.0000 0.0000 37.1265 0.0000
# 6 0.0000 0.0000 0.0000 0.0000 0.0000 20.8131
#
#
#
# Elastic Compliance Matrix: (Units=1/GPa)
#
#
# Indices 1 2 3 4 5 6 
#
# 1 0.018959 -0.004607 -0.004840 0.000000 0.000000 0.000000
# 2 -0.004607 0.013993 -0.003553 0.000000 0.000000 0.000000
# 3 -0.004840 -0.003553 0.010782 0.000000 0.000000 0.000000
# 4 0.000000 0.000000 0.000000 0.038129 0.000000 0.000000
# 5 0.000000 0.000000 0.000000 0.000000 0.026935 0.000000
# 6 0.000000 0.000000 0.000000 0.000000 0.000000 0.048047
#
#
# Mechanical properties :
#
#
# Convention : Reuss Voigt Hill
#
# Bulk Modulus (GPa) = 56.38961 60.89321 58.64141
# Shear Modulus (GPa) = 26.48940 28.12018 27.30479
#
# Velocity S-wave (km/s) = 3.78270 3.89739 3.84047
# Velocity P-wave (km/s) = 7.03835 7.29010 7.16533
#
# Compressibility (1/GPa) = 0.01773376
#
# Stress axis : x y z
#
# Youngs Moduli (GPa) = 52.74679 71.46664 92.74668
#
# Poissons Ratio (x) = 0.32925 0.44891
# Poissons Ratio (y) = 0.24300 0.32949
# Poissons Ratio (z) = 0.25530 0.25389
#
# Static dielectric constant tensor:
#      x y z
#    x 3.253350 0.000000 0.000000 
#    y 0.000000 3.441370 0.000000 
#    z 0.000000 0.000000 3.583070 
# 
# 
# High freq. dielectric constant tensor:
#      x y z
#    x 1.706350 0.000000 0.000000 
#    y 0.000000 1.708040 0.000000 
#    z 0.000000 0.000000 1.732220 
# 
# From -- ./inp_files/33008.got.cif
#   From: 2010.03.12/outbox.cif.g09.slc.cpg/sg59_17_cif.got.tgz:33008.got - 2010.04.16 16:29:54.
