data_PCOD8240056
_publ_section_title
;
Structure prediction by ZEFSAII (Michael W. Deem and Ramdas Pophale) SiO2 
 PCOD8240056
Probable space group: P M M N
;
_chemical_formula_sum "Si O2"
_cell_formula_units_Z 48
_cell_length_a 10.039158
_cell_length_b 17.418019
_cell_length_c 14.923799
_cell_angle_alpha 90.000000
_cell_angle_beta 90.000000
_cell_angle_gamma 90.000000
_cell_volume 2609.608994
_symmetry_space_group_name_H-M "P M M N"
_symmetry_group_IT_number 59
_space_group.IT_coordinate_system_code '2'
_symmetry_cell_setting 'orthorhombic'
loop_
_space_group_symop_operation_xyz
x,y,z
1/2-x,1/2-y,z
1/2+x,-y,-z
-x,1/2+y,-z
-x,-y,-z
1/2+x,1/2+y,-z
1/2-x,y,z
x,1/2-y,z
loop_
_atom_site_type_symbol
_atom_site_label
_atom_site_fract_x
_atom_site_fract_y
_atom_site_fract_z
Si Si1 0.750000 0.010435 0.626596
Si Si2 0.403182 0.839800 0.842424
Si Si3 0.474742 0.387015 0.808629
Si Si4 0.750000 0.161674 0.736587
Si Si5 0.750000 0.988161 0.416965
Si Si6 0.750000 0.833913 0.318648
Si Si7 0.480248 0.960769 0.705891
Si Si8 0.598775 0.660825 0.998548
O O1 0.750000 0.100914 0.654090
O O2 0.750000 0.006088 0.520732
O O3 0.626523 0.963848 0.665467
O O4 0.250000 0.860645 0.864870
O O5 0.422078 0.750000 0.826449
O O6 0.450719 0.879088 0.750632
O O7 0.496722 0.868889 0.923281
O O8 0.622587 0.353072 0.799065
O O9 0.379333 0.338871 0.743918
O O10 0.462817 0.475816 0.782716
O O11 0.428989 0.384593 0.910705
O O12 0.750000 0.250000 0.700926
O O13 0.750000 0.896762 0.397523
O O14 0.619949 0.026699 0.375689
O O15 0.750000 0.750000 0.364751
O O16 0.750000 0.645097 0.966037
O O17 0.575231 0.750000 0.018791
#
# Coordination Sequence:
#
# PCOD8240056 Si02
#       8
#     4   8   8   4   4   4   8   8
#     4  10  22  38  59  85 111 141 181 230 282 332
#     4  10  22  39  57  79 110 150 191 227 265 318
#     4  10  20  33  54  81 112 147 181 221 273 328
#     4  10  20  34  53  81 115 147 179 221 273 328
#     4  10  20  38  61  81 109 143 181 228 282 334
#     4  10  18  32  55  81 109 141 177 223 277 334
#     4  10  21  39  58  80 110 146 182 225 282 333
#     4  10  20  33  52  81 113 145 183 226 270 315
#
# _framework density 18.393560000000001
#
# number of rings (size 3 to 8) (size 9 to 14) (size 15 to 20)
#    0.000    2.000    1.667    2.000    2.333    0.667 
#    0.000    1.667    0.000    0.000    0.000    0.000 
#    0.000    0.000    0.000    0.000    0.000    0.000 
#
# Total GULP energy -595318.673694 kJ/mol
# GULP energy per Si atom -12402.472369 kJ/mol
# Density = 1.835170 g / cm^3
# Si number density = 18.393560 Si / 1000 Ang^3
#
#
#
# Elastic Constant Matrix: (Units=GPa)
#
#
# Indices 1 2 3 4 5 6 
#
# 1 148.9411 34.5582 53.0533 0.0000 0.0000 0.0000
# 2 34.5582 65.7044 48.7811 0.0000 0.0000 0.0000
# 3 53.0533 48.7811 117.1642 0.0000 0.0000 0.0000
# 4 0.0000 0.0000 0.0000 20.7267 0.0000 0.0000
# 5 0.0000 0.0000 0.0000 0.0000 21.0341 0.0000
# 6 0.0000 0.0000 0.0000 0.0000 0.0000 31.1506
#
#
#
# Elastic Compliance Matrix: (Units=1/GPa)
#
#
# Indices 1 2 3 4 5 6 
#
# 1 0.008231 -0.002261 -0.002786 0.000000 0.000000 0.000000
# 2 -0.002261 0.022650 -0.008407 0.000000 0.000000 0.000000
# 3 -0.002786 -0.008407 0.013296 0.000000 0.000000 0.000000
# 4 0.000000 0.000000 0.000000 0.048247 0.000000 0.000000
# 5 0.000000 0.000000 0.000000 0.000000 0.047542 0.000000
# 6 0.000000 0.000000 0.000000 0.000000 0.000000 0.032102
#
#
# Mechanical properties :
#
#
# Convention : Reuss Voigt Hill
#
# Bulk Modulus (GPa) = 57.90017 67.17719 62.53868
# Shear Modulus (GPa) = 24.42215 27.61007 26.01611
#
# Velocity S-wave (km/s) = 3.64779 3.87857 3.76495
# Velocity P-wave (km/s) = 7.02059 7.52723 7.27832
#
# Compressibility (1/GPa) = 0.01727111
#
# Stress axis : x y z
#
# Youngs Moduli (GPa) = 121.49263 44.14977 75.20787
#
# Poissons Ratio (x) = 0.09982 0.20951
# Poissons Ratio (y) = 0.27469 0.63224
# Poissons Ratio (z) = 0.33844 0.37115
#
# Static dielectric constant tensor:
#      x y z
#    x 3.707460 0.000000 0.000000 
#    y 0.000000 3.317090 0.000000 
#    z 0.000000 0.000000 3.122520 
# 
# 
# High freq. dielectric constant tensor:
#      x y z
#    x 1.737370 0.000000 0.000000 
#    y 0.000000 1.705870 0.000000 
#    z 0.000000 0.000000 1.694160 
# 
# From -- ./inp_files/20635.got.cif
#   From: 2010.03.12/outbox.cif.g09.slc.cpg/sg59_11_cif.got.tgz:20635.got - 2010.04.16 16:29:54.
