data_PCOD8240280
_publ_section_title
;
Structure prediction by ZEFSAII (Michael W. Deem and Ramdas Pophale) SiO2 
 PCOD8240280
Probable space group: P M M N
;
_chemical_formula_sum "Si O2"
_cell_formula_units_Z 64
_cell_length_a 13.743462
_cell_length_b 9.355151
_cell_length_c 31.218885
_cell_angle_alpha 90.000000
_cell_angle_beta 90.000000
_cell_angle_gamma 90.000000
_cell_volume 4013.879548
_symmetry_space_group_name_H-M "P M M N"
_symmetry_group_IT_number 59
_space_group.IT_coordinate_system_code '2'
_symmetry_cell_setting 'orthorhombic'
loop_
_space_group_symop_operation_xyz
x,y,z
1/2-x,1/2-y,z
1/2+x,-y,-z
-x,1/2+y,-z
-x,-y,-z
1/2+x,1/2+y,-z
1/2-x,y,z
x,1/2-y,z
loop_
_atom_site_type_symbol
_atom_site_label
_atom_site_fract_x
_atom_site_fract_y
_atom_site_fract_z
Si Si1 0.363629 0.083196 0.314849
Si Si2 0.048425 0.083119 0.062926
Si Si3 0.141799 0.085749 0.560131
Si Si4 0.637692 0.417734 0.861420
Si Si5 0.042920 0.584981 0.391280
Si Si6 0.635017 0.088310 0.520663
Si Si7 0.134747 0.592416 0.234239
Si Si8 0.140219 0.913486 0.987681
O O1 0.250000 0.049599 0.322104
O O2 0.385245 0.250000 0.314374
O O3 0.425092 0.012212 0.352273
O O4 0.401443 0.019765 0.269728
O O5 0.072196 0.250000 0.066629
O O6 0.935503 0.055200 0.050652
O O7 0.067798 0.008016 0.108025
O O8 0.119472 0.016408 0.027461
O O9 0.250000 0.029729 0.572058
O O10 0.144754 0.250000 0.546320
O O11 0.072919 0.064586 0.601439
O O12 0.096212 0.003816 0.519323
O O13 0.750000 0.462425 0.868704
O O14 0.624855 0.250000 0.870526
O O15 0.602282 0.455669 0.813257
O O16 0.069932 0.750000 0.381527
O O17 0.095758 0.529918 0.434236
O O18 0.750000 0.077321 0.522244
O O19 0.598281 0.250000 0.514006
O O20 0.250000 0.601794 0.234135
O O21 0.092286 0.750000 0.245091
O O22 0.250000 0.941649 0.970962
O O23 0.128202 0.750000 0.003603
#
# Coordination Sequence:
#
# PCOD8240280 Si02
#       8
#     8   8   8   8   8   8   8   8
#     4  10  20  31  44  66  93 115 137 171 213 253
#     4  10  19  28  42  66  89 112 149 192 226 255
#     4   9  18  31  45  62  84 110 143 182 217 245
#     4   9  17  29  45  65  90 120 148 172 207 258
#     4  10  19  30  45  63  85 116 147 172 205 253
#     4   9  17  28  42  61  84 111 143 175 207 247
#     4   8  15  29  47  64  85 116 147 170 201 254
#     4   9  18  32  45  57  83 123 157 184 220 265
#
# _framework density 15.944673
#
# number of rings (size 3 to 8) (size 9 to 14) (size 15 to 20)
#    0.000    2.750    0.000    2.625    0.000    5.250 
#    0.000    2.500    0.000    0.000    0.000    0.875 
#    0.000    1.000    0.000    0.000    0.000    0.000 
#
# Total GULP energy -793454.420048 kJ/mol
# GULP energy per Si atom -12397.725313 kJ/mol
# Density = 1.590838 g / cm^3
# Si number density = 15.944673 Si / 1000 Ang^3
#
#
#
# Elastic Constant Matrix: (Units=GPa)
#
#
# Indices 1 2 3 4 5 6 
#
# 1 63.7061 38.1540 49.6469 0.0000 0.0000 0.0000
# 2 38.1540 83.0835 71.3531 0.0000 0.0000 0.0000
# 3 49.6469 71.3531 128.1740 0.0000 0.0000 0.0000
# 4 0.0000 0.0000 0.0000 31.4925 0.0000 0.0000
# 5 0.0000 0.0000 0.0000 0.0000 21.7036 0.0000
# 6 0.0000 0.0000 0.0000 0.0000 0.0000 18.9773
#
#
#
# Elastic Compliance Matrix: (Units=1/GPa)
#
#
# Indices 1 2 3 4 5 6 
#
# 1 0.023852 -0.005785 -0.006019 0.000000 0.000000 0.000000
# 2 -0.005785 0.024464 -0.011379 0.000000 0.000000 0.000000
# 3 -0.006019 -0.011379 0.016467 0.000000 0.000000 0.000000
# 4 0.000000 0.000000 0.000000 0.031754 0.000000 0.000000
# 5 0.000000 0.000000 0.000000 0.000000 0.046075 0.000000
# 6 0.000000 0.000000 0.000000 0.000000 0.000000 0.052694
#
#
# Mechanical properties :
#
#
# Convention : Reuss Voigt Hill
#
# Bulk Modulus (GPa) = 54.28743 65.91906 60.10324
# Shear Modulus (GPa) = 20.17670 22.15533 21.16601
#
# Velocity S-wave (km/s) = 3.56113 3.73166 3.64739
# Velocity P-wave (km/s) = 7.14354 7.74591 7.45082
#
# Compressibility (1/GPa) = 0.01842047
#
# Stress axis : x y z
#
# Youngs Moduli (GPa) = 41.92558 40.87559 60.72591
#
# Poissons Ratio (x) = 0.23644 0.36548
# Poissons Ratio (y) = 0.24252 0.69097
# Poissons Ratio (z) = 0.25233 0.46510
#
# Static dielectric constant tensor:
#      x y z
#    x 2.981970 0.000000 0.000000 
#    y 0.000000 3.181570 0.000000 
#    z 0.000000 0.000000 3.025710 
# 
# 
# High freq. dielectric constant tensor:
#      x y z
#    x 1.591390 0.000000 0.000000 
#    y 0.000000 1.615900 0.000000 
#    z 0.000000 0.000000 1.600480 
# 
# From -- ./inp_files/33330.got.cif
#   From: 2010.03.12/outbox.cif.g09.slc.cpg/sg59_17_cif.got.tgz:33330.got - 2010.04.16 16:29:54.
