data_PCOD8240787
_publ_section_title
;
Structure prediction by ZEFSAII (Michael W. Deem and Ramdas Pophale) SiO2 
 PCOD8240787
Probable space group: P M M N
;
_chemical_formula_sum "Si O2"
_cell_formula_units_Z 48
_cell_length_a 23.145748
_cell_length_b 17.404777
_cell_length_c 6.584600
_cell_angle_alpha 90.000000
_cell_angle_beta 90.000000
_cell_angle_gamma 90.000000
_cell_volume 2652.583607
_symmetry_space_group_name_H-M "P M M N"
_symmetry_group_IT_number 59
_space_group.IT_coordinate_system_code '2'
_symmetry_cell_setting 'orthorhombic'
loop_
_space_group_symop_operation_xyz
x,y,z
1/2-x,1/2-y,z
1/2+x,-y,-z
-x,1/2+y,-z
-x,-y,-z
1/2+x,1/2+y,-z
1/2-x,y,z
x,1/2-y,z
loop_
_atom_site_type_symbol
_atom_site_label
_atom_site_fract_x
_atom_site_fract_y
_atom_site_fract_z
Si Si1 0.512236 0.661238 0.167569
Si Si2 0.812613 0.167022 0.106117
Si Si3 0.184706 0.951849 0.543687
Si Si4 0.422331 0.040197 0.570280
Si Si5 0.996631 0.941950 0.811897
Si Si6 0.615439 0.164472 0.723932
O O1 0.529987 0.750000 0.179008
O O2 0.560560 0.612385 0.288209
O O3 0.452378 0.644547 0.285672
O O4 0.505726 0.640295 0.926451
O O5 0.750000 0.163629 0.992125
O O6 0.816788 0.250000 0.221342
O O7 0.815509 0.095104 0.251022
O O8 0.866547 0.162360 0.957717
O O9 0.250000 0.973735 0.477536
O O10 0.153942 0.899567 0.378204
O O11 0.147156 0.029745 0.571462
O O12 0.440914 0.050415 0.334603
O O13 0.448935 0.960579 0.664762
O O14 0.000000 0.000000 0.000000
O O15 0.626427 0.250000 0.633023
#
# Coordination Sequence:
#
# PCOD8240787 Si02
#       6
#     8   8   8   8   8   8
#     4  10  21  35  54  78 100 129 168 210 263 315
#     4   9  18  31  46  67  99 138 174 205 238 285
#     4  11  21  32  49  72 100 138 175 204 241 291
#     4  10  20  34  51  74 104 133 167 211 253 297
#     4   9  17  32  54  75 102 133 160 202 259 308
#     4  10  19  31  48  72 102 132 164 203 245 296
#
# _framework density 18.095566000000002
#
# number of rings (size 3 to 8) (size 9 to 14) (size 15 to 20)
#    0.000    2.167    0.000    5.000    0.000    3.667 
#    0.000    4.167    0.000    0.500    0.000    0.000 
#    0.000    0.000    0.000    0.000    0.000    0.000 
#
# Total GULP energy -594626.963175 kJ/mol
# GULP energy per Si atom -12388.061733 kJ/mol
# Density = 1.805438 g / cm^3
# Si number density = 18.095566 Si / 1000 Ang^3
#
#
#
# Elastic Constant Matrix: (Units=GPa)
#
#
# Indices 1 2 3 4 5 6 
#
# 1 124.9222 61.8372 31.2054 0.0000 0.0000 0.0000
# 2 61.8372 96.9183 39.1138 0.0000 0.0000 0.0000
# 3 31.2054 39.1138 75.7639 0.0000 0.0000 0.0000
# 4 0.0000 0.0000 0.0000 33.2118 0.0000 0.0000
# 5 0.0000 0.0000 0.0000 0.0000 19.9669 0.0000
# 6 0.0000 0.0000 0.0000 0.0000 0.0000 29.3228
#
#
#
# Elastic Compliance Matrix: (Units=1/GPa)
#
#
# Indices 1 2 3 4 5 6 
#
# 1 0.011790 -0.007027 -0.001228 0.000000 0.000000 0.000000
# 2 -0.007027 0.017221 -0.005997 0.000000 0.000000 0.000000
# 3 -0.001228 -0.005997 0.016801 0.000000 0.000000 0.000000
# 4 0.000000 0.000000 0.000000 0.030110 0.000000 0.000000
# 5 0.000000 0.000000 0.000000 0.000000 0.050083 0.000000
# 6 0.000000 0.000000 0.000000 0.000000 0.000000 0.034103
#
#
# Mechanical properties :
#
#
# Convention : Reuss Voigt Hill
#
# Bulk Modulus (GPa) = 57.77458 62.43524 60.10491
# Shear Modulus (GPa) = 25.72268 27.53015 26.62642
#
# Velocity S-wave (km/s) = 3.77436 3.90471 3.84009
# Velocity P-wave (km/s) = 7.14081 7.40993 7.27661
#
# Compressibility (1/GPa) = 0.01730865
#
# Stress axis : x y z
#
# Youngs Moduli (GPa) = 84.81681 58.06757 59.52159
#
# Poissons Ratio (x) = 0.40803 0.07312
# Poissons Ratio (y) = 0.59598 0.35692
# Poissons Ratio (z) = 0.10419 0.34820
#
# Static dielectric constant tensor:
#      x y z
#    x 3.422500 0.000000 0.000000 
#    y 0.000000 3.357300 0.000000 
#    z 0.000000 0.000000 3.448190 
# 
# 
# High freq. dielectric constant tensor:
#      x y z
#    x 1.685410 0.000000 0.000000 
#    y 0.000000 1.677160 0.000000 
#    z 0.000000 0.000000 1.702200 
# 
# From -- ./inp_files/2843.got.cif
#   From: 2010.03.12/outbox.cif.g09.slc.cpg/sg59_2_cif.got.tgz:2843.got - 2010.04.16 16:29:54.
