data_PCOD8240186
_publ_section_title
;
Structure prediction by ZEFSAII (Michael W. Deem and Ramdas Pophale) SiO2 
 PCOD8240186
Probable space group: P M M N
;
_chemical_formula_sum "Si O2"
_cell_formula_units_Z 56
_cell_length_a 8.706230
_cell_length_b 22.036065
_cell_length_c 15.056989
_cell_angle_alpha 90.000000
_cell_angle_beta 90.000000
_cell_angle_gamma 90.000000
_cell_volume 2888.699152
_symmetry_space_group_name_H-M "P M M N"
_symmetry_group_IT_number 59
_space_group.IT_coordinate_system_code '2'
_symmetry_cell_setting 'orthorhombic'
loop_
_space_group_symop_operation_xyz
x,y,z
1/2-x,1/2-y,z
1/2+x,-y,-z
-x,1/2+y,-z
-x,-y,-z
1/2+x,1/2+y,-z
1/2-x,y,z
x,1/2-y,z
loop_
_atom_site_type_symbol
_atom_site_label
_atom_site_fract_x
_atom_site_fract_y
_atom_site_fract_z
Si Si1 0.073913 0.250000 0.249601
Si Si2 0.428034 0.954163 0.801533
Si Si3 0.570524 0.180791 0.702151
Si Si4 0.568745 0.079684 0.838399
Si Si5 0.066538 0.881042 0.972063
Si Si6 0.427699 0.641424 0.654369
Si Si7 0.929126 0.679511 0.484268
Si Si8 0.571173 0.250000 0.064886
O O1 0.250000 0.250000 0.217064
O O2 0.042967 0.308763 0.307956
O O3 0.954937 0.250000 0.169567
O O4 0.250000 0.965678 0.818828
O O5 0.496543 0.915444 0.884462
O O6 0.457269 0.920630 0.708039
O O7 0.509681 0.018510 0.793931
O O8 0.750000 0.172184 0.682102
O O9 0.534298 0.250000 0.730424
O O10 0.513054 0.137440 0.781401
O O11 0.477297 0.161793 0.614927
O O12 0.750000 0.077970 0.840583
O O13 0.506013 0.085556 0.939367
O O14 0.250000 0.878436 0.967745
O O15 0.999838 0.812043 0.975001
O O16 0.250000 0.661103 0.663980
O O17 0.474579 0.635967 0.550917
O O18 0.750000 0.666739 0.496667
O O19 0.970066 0.750000 0.502728
O O20 0.750000 0.250000 0.044740
#
# Coordination Sequence:
#
# PCOD8240186 Si02
#       8
#     4   8   8   8   8   8   8   4
#     4  12  22  32  50  81 118 147 180 229 280 326
#     4  10  21  37  55  79 111 151 191 223 270 335
#     4   9  19  36  57  82 110 142 183 230 279 334
#     4  10  21  36  57  83 109 143 189 236 280 324
#     4   9  18  33  56  83 110 145 189 230 274 326
#     4  11  21  35  57  82 111 150 189 223 269 331
#     4  10  20  34  55  85 115 142 177 227 284 334
#     4  10  18  34  56  79 112 149 186 229 274 326
#
# _framework density 19.385888999999999
#
# number of rings (size 3 to 8) (size 9 to 14) (size 15 to 20)
#    0.000    2.000    2.143    1.929    1.000    2.286 
#    0.000    1.429    0.000    0.000    0.000    0.000 
#    0.000    0.000    0.000    0.000    0.000    0.000 
#
# Total GULP energy -694372.132426 kJ/mol
# GULP energy per Si atom -12399.502365 kJ/mol
# Density = 1.934177 g / cm^3
# Si number density = 19.385889 Si / 1000 Ang^3
#
#
#
# Elastic Constant Matrix: (Units=GPa)
#
#
# Indices 1 2 3 4 5 6 
#
# 1 31.7821 25.7816 29.9942 0.0000 0.0000 0.0000
# 2 25.7816 119.3570 53.4953 0.0000 0.0000 0.0000
# 3 29.9942 53.4953 116.0622 0.0000 0.0000 0.0000
# 4 0.0000 0.0000 0.0000 -13.2605 0.0000 0.0000
# 5 0.0000 0.0000 0.0000 0.0000 20.7049 0.0000
# 6 0.0000 0.0000 0.0000 0.0000 0.0000 24.2346
#
#
#
# Elastic Compliance Matrix: (Units=1/GPa)
#
#
# Indices 1 2 3 4 5 6 
#
# 1 0.044403 -0.005606 -0.008891 0.000000 0.000000 0.000000
# 2 -0.005606 0.011268 -0.003745 0.000000 0.000000 0.000000
# 3 -0.008891 -0.003745 0.012640 0.000000 0.000000 0.000000
# 4 0.000000 0.000000 0.000000 -0.075412 0.000000 0.000000
# 5 0.000000 0.000000 0.000000 0.000000 0.048298 0.000000
# 6 0.000000 0.000000 0.000000 0.000000 0.000000 0.041263
#
#
# Mechanical properties :
#
#
# Convention : Reuss Voigt Hill
#
# Bulk Modulus (GPa) = 31.42046 53.97147 42.69597
# Shear Modulus (GPa) = 38.59452 16.86449 27.72951
#
# Velocity S-wave (km/s) = 4.46674 2.95267 3.78616
# Velocity P-wave (km/s) = 6.54565 6.28692 6.41759
#
# Compressibility (1/GPa) = 0.03182639
#
# Stress axis : x y z
#
# Youngs Moduli (GPa) = 22.52096 88.75078 79.11539
#
# Poissons Ratio (x) = 0.49756 0.70343
# Poissons Ratio (y) = 0.12626 0.29625
# Poissons Ratio (z) = 0.20024 0.33233
#
# Static dielectric constant tensor:
#      x y z
#    x 3.258220 0.000000 0.000000 
#    y 0.000000 3.539590 0.000000 
#    z 0.000000 0.000000 3.694650 
# 
# 
# High freq. dielectric constant tensor:
#      x y z
#    x 1.731420 0.000000 0.000000 
#    y 0.000000 1.743640 0.000000 
#    z 0.000000 0.000000 1.759650 
# 
# From -- ./inp_files/21160.got.cif
#   From: 2010.03.12/outbox.cif.g09.slc.cpg/sg59_11_cif.got.tgz:21160.got - 2010.04.16 16:29:54.
