data_PCOD8240947
_publ_section_title
;
Structure prediction by ZEFSAII (Michael W. Deem and Ramdas Pophale) SiO2 
 PCOD8240947
Probable space group: P M M N
;
_chemical_formula_sum "Si O2"
_cell_formula_units_Z 56
_cell_length_a 19.654225
_cell_length_b 8.649925
_cell_length_c 17.655601
_cell_angle_alpha 90.000000
_cell_angle_beta 90.000000
_cell_angle_gamma 90.000000
_cell_volume 3001.585861
_symmetry_space_group_name_H-M "P M M N"
_symmetry_group_IT_number 59
_space_group.IT_coordinate_system_code '2'
_symmetry_cell_setting 'orthorhombic'
loop_
_space_group_symop_operation_xyz
x,y,z
1/2-x,1/2-y,z
1/2+x,-y,-z
-x,1/2+y,-z
-x,-y,-z
1/2+x,1/2+y,-z
1/2-x,y,z
x,1/2-y,z
loop_
_atom_site_type_symbol
_atom_site_label
_atom_site_fract_x
_atom_site_fract_y
_atom_site_fract_z
Si Si1 0.327671 0.433687 0.018436
Si Si2 0.421723 0.567749 0.141021
Si Si3 0.946019 0.570787 0.702952
Si Si4 0.431853 0.067037 0.465715
Si Si5 0.573385 0.570923 0.110339
Si Si6 0.087020 0.071341 0.721336
Si Si7 0.823968 0.932428 0.416722
O O1 0.250000 0.497049 0.010863
O O2 0.326005 0.250000 0.014211
O O3 0.360023 0.486220 0.097592
O O4 0.376631 0.504900 0.952332
O O5 0.416741 0.750000 0.130009
O O6 0.412303 0.528397 0.229768
O O7 0.495682 0.504174 0.111272
O O8 0.931400 0.750000 0.718883
O O9 0.916968 0.518068 0.621176
O O10 0.026267 0.541607 0.699264
O O11 0.437702 0.250000 0.471735
O O12 0.371023 0.999417 0.516948
O O13 0.500000 0.000000 0.500000
O O14 0.566924 0.750000 0.091382
O O15 0.608752 0.543134 0.191711
O O16 0.063514 0.250000 0.710461
O O17 0.149116 0.027440 0.667124
O O18 0.750000 0.009469 0.424627
O O19 0.819287 0.750000 0.426545
#
# Coordination Sequence:
#
# PCOD8240947 Si02
#       7
#     8   8   8   8   8   8   8
#     4  10  20  34  52  75 105 137 169 211 263 315
#     4  10  20  35  55  76 101 134 174 220 261 307
#     4  10  19  31  50  77 103 130 170 217 263 308
#     4  10  19  31  51  76 102 134 174 215 257 305
#     4   8  16  30  50  77 103 130 167 206 253 306
#     4   9  16  29  50  75 102 132 167 207 254 309
#     4   9  17  29  47  73 104 136 170 209 253 303
#
# _framework density 18.656804000000001
#
# number of rings (size 3 to 8) (size 9 to 14) (size 15 to 20)
#    0.000    2.571    1.429    2.143    0.000    1.429 
#    0.000    6.429    0.000    4.286    0.000    0.000 
#    0.000    0.000    0.000    0.000    0.000    0.000 
#
# Total GULP energy -694087.817315 kJ/mol
# GULP energy per Si atom -12394.425309 kJ/mol
# Density = 1.861434 g / cm^3
# Si number density = 18.656804 Si / 1000 Ang^3
#
#
#
# Elastic Constant Matrix: (Units=GPa)
#
#
# Indices 1 2 3 4 5 6 
#
# 1 113.7411 11.5839 69.1682 0.0000 0.0000 0.0000
# 2 11.5839 15.0704 15.8264 0.0000 0.0000 0.0000
# 3 69.1682 15.8264 131.3875 0.0000 0.0000 0.0000
# 4 0.0000 0.0000 0.0000 22.0119 0.0000 0.0000
# 5 0.0000 0.0000 0.0000 0.0000 26.1635 0.0000
# 6 0.0000 0.0000 0.0000 0.0000 0.0000 19.2663
#
#
#
# Elastic Compliance Matrix: (Units=1/GPa)
#
#
# Indices 1 2 3 4 5 6 
#
# 1 0.013068 -0.003228 -0.006491 0.000000 0.000000 0.000000
# 2 -0.003228 0.076762 -0.007547 0.000000 0.000000 0.000000
# 3 -0.006491 -0.007547 0.011937 0.000000 0.000000 0.000000
# 4 0.000000 0.000000 0.000000 0.045430 0.000000 0.000000
# 5 0.000000 0.000000 0.000000 0.000000 0.038221 0.000000
# 6 0.000000 0.000000 0.000000 0.000000 0.000000 0.051904
#
#
# Mechanical properties :
#
#
# Convention : Reuss Voigt Hill
#
# Bulk Modulus (GPa) = 14.87314 50.37290 32.62302
# Shear Modulus (GPa) = 16.99145 24.39638 20.69392
#
# Velocity S-wave (km/s) = 3.02112 3.62005 3.33406
# Velocity P-wave (km/s) = 4.48986 6.67319 5.68728
#
# Compressibility (1/GPa) = 0.06723530
#
# Stress axis : x y z
#
# Youngs Moduli (GPa) = 76.52444 13.02724 83.77269
#
# Poissons Ratio (x) = 0.04206 0.54373
# Poissons Ratio (y) = 0.24705 0.63223
# Poissons Ratio (z) = 0.49669 0.09832
#
# Static dielectric constant tensor:
#      x y z
#    x 3.631890 0.000000 0.000000 
#    y 0.000000 3.093330 0.000000 
#    z 0.000000 0.000000 3.746470 
# 
# 
# High freq. dielectric constant tensor:
#      x y z
#    x 1.704520 0.000000 0.000000 
#    y 0.000000 1.690270 0.000000 
#    z 0.000000 0.000000 1.740510 
# 
# From -- ./inp_files/28063.got.cif
#   From: 2010.03.12/outbox.cif.g09.slc.cpg/sg59_15_cif.got.tgz:28063.got - 2010.04.16 16:29:54.
