data_PCOD8240995
_publ_section_title
;
Structure prediction by ZEFSAII (Michael W. Deem and Ramdas Pophale) SiO2 
 PCOD8240995
Probable space group: P M M N
;
_chemical_formula_sum "Si O2"
_cell_formula_units_Z 48
_cell_length_a 14.767659
_cell_length_b 14.219125
_cell_length_c 12.375346
_cell_angle_alpha 90.000000
_cell_angle_beta 90.000000
_cell_angle_gamma 90.000000
_cell_volume 2598.614622
_symmetry_space_group_name_H-M "P M M N"
_symmetry_group_IT_number 59
_space_group.IT_coordinate_system_code '2'
_symmetry_cell_setting 'orthorhombic'
loop_
_space_group_symop_operation_xyz
x,y,z
1/2-x,1/2-y,z
1/2+x,-y,-z
-x,1/2+y,-z
-x,-y,-z
1/2+x,1/2+y,-z
1/2-x,y,z
x,1/2-y,z
loop_
_atom_site_type_symbol
_atom_site_label
_atom_site_fract_x
_atom_site_fract_y
_atom_site_fract_z
Si Si1 0.908184 0.018607 0.062493
Si Si2 0.351096 0.638037 0.507280
Si Si3 0.349667 0.643640 0.121979
Si Si4 0.855929 0.358620 0.250410
Si Si5 0.649131 0.642157 0.205143
Si Si6 0.970887 0.139427 0.684838
O O1 0.919273 0.079936 0.171845
O O2 0.864618 0.918953 0.096650
O O3 0.844482 0.077598 0.982760
O O4 0.000000 0.000000 0.000000
O O5 0.250000 0.601044 0.477441
O O6 0.349476 0.750000 0.504774
O O7 0.377821 0.606406 0.628140
O O8 0.425843 0.595862 0.423568
O O9 0.250000 0.644730 0.175121
O O10 0.377682 0.750000 0.087384
O O11 0.419684 0.600862 0.208742
O O12 0.750000 0.376139 0.224380
O O13 0.881143 0.250000 0.234885
O O14 0.750000 0.625302 0.252242
O O15 0.634775 0.750000 0.169613
O O16 0.577401 0.615044 0.300206
O O17 0.954163 0.250000 0.679305
#
# Coordination Sequence:
#
# PCOD8240995 Si02
#       6
#     8   8   8   8   8   8
#     4  12  22  33  50  71 103 136 173 216 260 300
#     4   8  14  27  50  79 109 136 159 196 257 319
#     4  10  19  31  51  78 105 131 160 206 268 320
#     4   9  18  33  54  81 109 135 165 205 261 321
#     4  10  21  36  51  68  97 140 184 219 249 291
#     4   9  16  29  49  76 105 130 166 208 249 304
#
# _framework density 18.471381000000001
#
# number of rings (size 3 to 8) (size 9 to 14) (size 15 to 20)
#    0.000    2.333    1.667    3.500    0.000    4.000 
#    0.000    0.833    0.000    0.000    0.000    2.333 
#    0.000    5.333    0.000    0.000    0.000    0.000 
#
# Total GULP energy -594851.329337 kJ/mol
# GULP energy per Si atom -12392.736028 kJ/mol
# Density = 1.842934 g / cm^3
# Si number density = 18.471381 Si / 1000 Ang^3
#
#
#
# Elastic Constant Matrix: (Units=GPa)
#
#
# Indices 1 2 3 4 5 6 
#
# 1 130.7426 32.1112 71.8701 0.0000 0.0000 0.0000
# 2 32.1112 66.6162 40.6093 0.0000 0.0000 0.0000
# 3 71.8701 40.6093 134.3226 0.0000 0.0000 0.0000
# 4 0.0000 0.0000 0.0000 17.9859 0.0000 0.0000
# 5 0.0000 0.0000 0.0000 0.0000 34.4781 0.0000
# 6 0.0000 0.0000 0.0000 0.0000 0.0000 16.6582
#
#
#
# Elastic Compliance Matrix: (Units=1/GPa)
#
#
# Indices 1 2 3 4 5 6 
#
# 1 0.011074 -0.002116 -0.005285 0.000000 0.000000 0.000000
# 2 -0.002116 0.018807 -0.004554 0.000000 0.000000 0.000000
# 3 -0.005285 -0.004554 0.011649 0.000000 0.000000 0.000000
# 4 0.000000 0.000000 0.000000 0.055599 0.000000 0.000000
# 5 0.000000 0.000000 0.000000 0.000000 0.029004 0.000000
# 6 0.000000 0.000000 0.000000 0.000000 0.000000 0.060031
#
#
# Mechanical properties :
#
#
# Convention : Reuss Voigt Hill
#
# Bulk Modulus (GPa) = 56.75274 68.98472 62.86873
# Shear Modulus (GPa) = 23.15378 26.29718 24.72548
#
# Velocity S-wave (km/s) = 3.54431 3.77725 3.66263
# Velocity P-wave (km/s) = 6.89499 7.51341 7.21084
#
# Compressibility (1/GPa) = 0.01762030
#
# Stress axis : x y z
#
# Youngs Moduli (GPa) = 90.30421 53.17082 85.84103
#
# Poissons Ratio (x) = 0.11251 0.45370
# Poissons Ratio (y) = 0.19108 0.39090
# Poissons Ratio (z) = 0.47729 0.24213
#
# Static dielectric constant tensor:
#      x y z
#    x 3.449060 0.000000 0.000000 
#    y 0.000000 3.277990 0.000000 
#    z 0.000000 0.000000 3.543780 
# 
# 
# High freq. dielectric constant tensor:
#      x y z
#    x 1.710660 0.000000 0.000000 
#    y 0.000000 1.692460 0.000000 
#    z 0.000000 0.000000 1.708730 
# 
# From -- ./inp_files/16817.got.cif
#   From: 2010.03.12/outbox.cif.g09.slc.cpg/sg59_9_cif.got.tgz:16817.got - 2010.04.16 16:29:54.
