data_PCOD8240924
_publ_section_title
;
Structure prediction by ZEFSAII (Michael W. Deem and Ramdas Pophale) SiO2 
 PCOD8240924
Probable space group: P M M N
;
_chemical_formula_sum "Si O2"
_cell_formula_units_Z 56
_cell_length_a 19.355138
_cell_length_b 9.132910
_cell_length_c 17.827196
_cell_angle_alpha 90.000000
_cell_angle_beta 90.000000
_cell_angle_gamma 90.000000
_cell_volume 3151.290857
_symmetry_space_group_name_H-M "P M M N"
_symmetry_group_IT_number 59
_space_group.IT_coordinate_system_code '2'
_symmetry_cell_setting 'orthorhombic'
loop_
_space_group_symop_operation_xyz
x,y,z
1/2-x,1/2-y,z
1/2+x,-y,-z
-x,1/2+y,-z
-x,-y,-z
1/2+x,1/2+y,-z
1/2-x,y,z
x,1/2-y,z
loop_
_atom_site_type_symbol
_atom_site_label
_atom_site_fract_x
_atom_site_fract_y
_atom_site_fract_z
Si Si1 0.172652 0.076024 0.421709
Si Si2 0.827512 0.423078 0.996684
Si Si3 0.572388 0.423705 0.864210
Si Si4 0.929849 0.422744 0.125065
Si Si5 0.418761 0.584915 0.705359
Si Si6 0.421711 0.419063 0.288863
Si Si7 0.172401 0.423018 0.587572
O O1 0.250000 0.020481 0.404286
O O2 0.170334 0.250000 0.420783
O O3 0.122175 0.014178 0.357698
O O4 0.149604 0.020994 0.504570
O O5 0.750000 0.491361 0.997265
O O6 0.821876 0.250000 0.001091
O O7 0.867350 0.470399 0.921547
O O8 0.870732 0.479049 0.068624
O O9 0.563097 0.250000 0.859712
O O10 0.500736 0.493072 0.892744
O O11 0.595370 0.485727 0.784012
O O12 0.945320 0.250000 0.116803
O O13 0.903732 0.459654 0.208706
O O14 0.394181 0.750000 0.690488
O O15 0.499119 0.566059 0.687590
O O16 0.377980 0.480168 0.650777
O O17 0.403128 0.250000 0.271497
O O18 0.250000 0.478024 0.604380
O O19 0.169619 0.250000 0.589613
#
# Coordination Sequence:
#
# PCOD8240924 Si02
#       7
#     8   8   8   8   8   8   8
#     4   8  15  30  51  71  92 124 163 196 230 278
#     4   9  18  32  50  73  99 127 160 196 235 280
#     4  10  19  31  50  74  99 126 156 195 241 284
#     4   9  18  34  54  71  92 127 165 196 229 279
#     4   9  18  30  46  71  97 121 155 198 237 274
#     4   9  18  33  51  71  96 125 160 198 232 276
#     4   9  18  32  49  69  94 125 159 194 236 285
#
# _framework density 17.770495
#
# number of rings (size 3 to 8) (size 9 to 14) (size 15 to 20)
#    0.000    3.000    0.000    2.571    0.000    4.286 
#    0.000    2.857    0.000    4.286    0.000    0.000 
#    0.000    0.000    0.000    0.000    0.000    0.000 
#
# Total GULP energy -694226.068777 kJ/mol
# GULP energy per Si atom -12396.894085 kJ/mol
# Density = 1.773005 g / cm^3
# Si number density = 17.770495 Si / 1000 Ang^3
#
#
#
# Elastic Constant Matrix: (Units=GPa)
#
#
# Indices 1 2 3 4 5 6 
#
# 1 116.8210 32.4700 93.8592 0.0000 0.0000 0.0000
# 2 32.4700 35.5429 36.2170 0.0000 0.0000 0.0000
# 3 93.8592 36.2170 141.7691 0.0000 0.0000 0.0000
# 4 0.0000 0.0000 0.0000 21.1322 0.0000 0.0000
# 5 0.0000 0.0000 0.0000 0.0000 24.7115 0.0000
# 6 0.0000 0.0000 0.0000 0.0000 0.0000 21.0438
#
#
#
# Elastic Compliance Matrix: (Units=1/GPa)
#
#
# Indices 1 2 3 4 5 6 
#
# 1 0.019254 -0.006219 -0.011158 0.000000 0.000000 0.000000
# 2 -0.006219 0.040045 -0.006113 0.000000 0.000000 0.000000
# 3 -0.011158 -0.006113 0.016003 0.000000 0.000000 0.000000
# 4 0.000000 0.000000 0.000000 0.047321 0.000000 0.000000
# 5 0.000000 0.000000 0.000000 0.000000 0.040467 0.000000
# 6 0.000000 0.000000 0.000000 0.000000 0.000000 0.047520
#
#
# Mechanical properties :
#
#
# Convention : Reuss Voigt Hill
#
# Bulk Modulus (GPa) = 35.30915 68.80282 52.05599
# Shear Modulus (GPa) = 18.72444 22.14994 20.43719
#
# Velocity S-wave (km/s) = 3.24957 3.53433 3.39494
# Velocity P-wave (km/s) = 5.83029 7.44693 6.68764
#
# Compressibility (1/GPa) = 0.02832127
#
# Stress axis : x y z
#
# Youngs Moduli (GPa) = 51.93773 24.97187 62.48931
#
# Poissons Ratio (x) = 0.15531 0.69728
# Poissons Ratio (y) = 0.32301 0.38197
# Poissons Ratio (z) = 0.57954 0.15264
#
# Static dielectric constant tensor:
#      x y z
#    x 3.466130 0.000000 0.000000 
#    y 0.000000 2.975020 0.000000 
#    z 0.000000 0.000000 3.509660 
# 
# 
# High freq. dielectric constant tensor:
#      x y z
#    x 1.685740 0.000000 0.000000 
#    y 0.000000 1.654800 0.000000 
#    z 0.000000 0.000000 1.700080 
# 
# From -- ./inp_files/24200.got.cif
#   From: 2010.03.12/outbox.cif.g09.slc.cpg/sg59_13_cif.got.tgz:24200.got - 2010.04.16 16:29:54.
