data_PCOD8240289
_publ_section_title
;
Structure prediction by ZEFSAII (Michael W. Deem and Ramdas Pophale) SiO2 
 PCOD8240289
Probable space group: P M M N
;
_chemical_formula_sum "Si O2"
_cell_formula_units_Z 64
_cell_length_a 9.230547
_cell_length_b 25.091933
_cell_length_c 18.568667
_cell_angle_alpha 90.000000
_cell_angle_beta 90.000000
_cell_angle_gamma 90.000000
_cell_volume 4300.731057
_symmetry_space_group_name_H-M "P M M N"
_symmetry_group_IT_number 59
_space_group.IT_coordinate_system_code '2'
_symmetry_cell_setting 'orthorhombic'
loop_
_space_group_symop_operation_xyz
x,y,z
1/2-x,1/2-y,z
1/2+x,-y,-z
-x,1/2+y,-z
-x,-y,-z
1/2+x,1/2+y,-z
1/2-x,y,z
x,1/2-y,z
loop_
_atom_site_type_symbol
_atom_site_label
_atom_site_fract_x
_atom_site_fract_y
_atom_site_fract_z
Si Si1 0.581295 0.080696 0.001120
Si Si2 0.918726 0.495548 0.739125
Si Si3 0.411877 0.689107 0.777201
Si Si4 0.088462 0.113192 0.318400
Si Si5 0.577763 0.308636 0.063756
Si Si6 0.583923 0.967184 0.392563
Si Si7 0.418943 0.488774 0.888771
Si Si8 0.414685 0.062229 0.458353
O O1 0.750000 0.077941 0.978669
O O2 0.529344 0.141864 0.013980
O O3 0.555501 0.045996 0.073357
O O4 0.482709 0.058497 0.937487
O O5 0.750000 0.482436 0.748530
O O6 0.949213 0.555199 0.713093
O O7 0.985877 0.456048 0.677997
O O8 0.998613 0.486739 0.813884
O O9 0.250000 0.666758 0.781980
O O10 0.415267 0.750000 0.753063
O O11 0.487259 0.657002 0.714721
O O12 0.486037 0.682192 0.855850
O O13 0.250000 0.128987 0.296373
O O14 0.068222 0.113184 0.405448
O O15 0.750000 0.307624 0.070099
O O16 0.525492 0.250000 0.034394
O O17 0.750000 0.971781 0.366937
O O18 0.565632 0.922552 0.456560
O O19 0.536512 0.020787 0.433454
O O20 0.250000 0.477815 0.876235
O O21 0.250000 0.039038 0.446530
#
# Coordination Sequence:
#
# PCOD8240289 Si02
#       8
#     8   8   8   8   8   8   8   8
#     4   9  17  29  44  61  82 107 136 172 209 245
#     4  10  19  29  40  57  82 108 136 170 205 241
#     4   9  17  28  41  58  80 105 135 171 204 233
#     4   9  17  27  39  56  79 107 136 166 200 238
#     4   8  14  26  44  62  79 103 136 171 206 244
#     4   9  15  24  39  56  76 103 133 163 194 231
#     4  10  19  29  42  60  82 111 143 170 203 249
#     4   8  15  26  37  53  78 105 132 162 195 229
#
# _framework density 14.881192
#
# number of rings (size 3 to 8) (size 9 to 14) (size 15 to 20)
#    0.000    3.000    0.000    3.375    0.000    4.750 
#    0.000    0.625    0.000    1.125    0.000    0.000 
#    0.000    1.000    0.000    7.250    0.000    3.875 
#
# Total GULP energy -792901.689427 kJ/mol
# GULP energy per Si atom -12389.088897 kJ/mol
# Density = 1.484732 g / cm^3
# Si number density = 14.881192 Si / 1000 Ang^3
#
#
#
# Elastic Constant Matrix: (Units=GPa)
#
#
# Indices 1 2 3 4 5 6 
#
# 1 74.2962 30.3449 56.0356 0.0000 0.0000 0.0000
# 2 30.3449 67.4181 38.9162 0.0000 0.0000 0.0000
# 3 56.0356 38.9162 111.8550 0.0000 0.0000 0.0000
# 4 0.0000 0.0000 0.0000 18.7083 0.0000 0.0000
# 5 0.0000 0.0000 0.0000 0.0000 26.3538 0.0000
# 6 0.0000 0.0000 0.0000 0.0000 0.0000 17.0553
#
#
#
# Elastic Compliance Matrix: (Units=1/GPa)
#
#
# Indices 1 2 3 4 5 6 
#
# 1 0.022707 -0.004572 -0.009785 0.000000 0.000000 0.000000
# 2 -0.004572 0.019481 -0.004487 0.000000 0.000000 0.000000
# 3 -0.009785 -0.004487 0.015403 0.000000 0.000000 0.000000
# 4 0.000000 0.000000 0.000000 0.053452 0.000000 0.000000
# 5 0.000000 0.000000 0.000000 0.000000 0.037945 0.000000
# 6 0.000000 0.000000 0.000000 0.000000 0.000000 0.058633
#
#
# Mechanical properties :
#
#
# Convention : Reuss Voigt Hill
#
# Bulk Modulus (GPa) = 50.24443 56.01809 53.13126
# Shear Modulus (GPa) = 19.84572 20.97498 20.41035
#
# Velocity S-wave (km/s) = 3.65583 3.75840 3.70747
# Velocity P-wave (km/s) = 7.18729 7.52060 7.35583
#
# Compressibility (1/GPa) = 0.01990270
#
# Stress axis : x y z
#
# Youngs Moduli (GPa) = 44.03960 51.33207 64.92229
#
# Poissons Ratio (x) = 0.23471 0.63524
# Poissons Ratio (y) = 0.20137 0.29132
# Poissons Ratio (z) = 0.43091 0.23034
#
# Static dielectric constant tensor:
#      x y z
#    x 2.878820 0.000000 0.000000 
#    y 0.000000 2.697530 0.000000 
#    z 0.000000 0.000000 3.052010 
# 
# 
# High freq. dielectric constant tensor:
#      x y z
#    x 1.570360 0.000000 0.000000 
#    y 0.000000 1.522930 0.000000 
#    z 0.000000 0.000000 1.570340 
# 
# From -- ./inp_files/26685.got.cif
#   From: 2010.03.12/outbox.cif.g09.slc.cpg/sg59_14_cif.got.tgz:26685.got - 2010.04.16 16:29:54.
