data_PCOD8240338
_publ_section_title
;
Structure prediction by ZEFSAII (Michael W. Deem and Ramdas Pophale) SiO2 
 PCOD8240338
Probable space group: P M M N
;
_chemical_formula_sum "Si O2"
_cell_formula_units_Z 56
_cell_length_a 18.466398
_cell_length_b 9.169566
_cell_length_c 18.688507
_cell_angle_alpha 90.000000
_cell_angle_beta 90.000000
_cell_angle_gamma 90.000000
_cell_volume 3164.503497
_symmetry_space_group_name_H-M "P M M N"
_symmetry_group_IT_number 59
_space_group.IT_coordinate_system_code '2'
_symmetry_cell_setting 'orthorhombic'
loop_
_space_group_symop_operation_xyz
x,y,z
1/2-x,1/2-y,z
1/2+x,-y,-z
-x,1/2+y,-z
-x,-y,-z
1/2+x,1/2+y,-z
1/2-x,y,z
x,1/2-y,z
loop_
_atom_site_type_symbol
_atom_site_label
_atom_site_fract_x
_atom_site_fract_y
_atom_site_fract_z
Si Si1 0.398141 0.079909 0.279773
Si Si2 0.832800 0.918573 0.871771
Si Si3 0.036108 0.920662 0.066018
Si Si4 0.670427 0.922921 0.294322
Si Si5 0.970694 0.919960 0.217185
Si Si6 0.835953 0.413449 0.586433
Si Si7 0.835724 0.588141 0.451835
O O1 0.407545 0.250000 0.294068
O O2 0.347698 0.048142 0.211315
O O3 0.476740 0.010727 0.268174
O O4 0.360301 0.009295 0.347263
O O5 0.750000 0.958863 0.889046
O O6 0.849266 0.750000 0.889082
O O7 0.883340 0.017422 0.921798
O O8 0.042028 0.750000 0.050135
O O9 0.985767 0.954601 0.134399
O O10 0.000000 0.000000 0.000000
O O11 0.750000 0.987090 0.273533
O O12 0.676714 0.750000 0.298712
O O13 0.611397 0.969990 0.235171
O O14 0.645505 0.977406 0.373266
O O15 0.982997 0.750000 0.233834
O O16 0.750000 0.411306 0.584351
O O17 0.867010 0.250000 0.593732
O O18 0.867523 0.482716 0.513174
O O19 0.750000 0.599152 0.459322
O O20 0.869479 0.750000 0.461727
#
# Coordination Sequence:
#
# PCOD8240338 Si02
#       7
#     8   8   8   8   8   8   8
#     4  10  19  31  48  70  98 131 165 200 242 292
#     4   9  18  33  53  76 100 128 165 207 248 291
#     4  10  20  34  53  76 104 137 167 197 239 291
#     4   8  14  28  52  76  94 117 155 203 249 291
#     4   9  18  33  52  74  98 124 159 201 244 291
#     4  10  19  29  43  66  96 128 162 201 242 284
#     4   8  14  26  45  67  90 119 156 197 242 290
#
# _framework density 17.696300000000001
#
# number of rings (size 3 to 8) (size 9 to 14) (size 15 to 20)
#    0.000    2.857    0.000    2.571    0.000    2.857 
#    0.000    2.143    0.000    3.857    0.000    0.000 
#    0.000    0.000    0.000    0.000    0.000    0.000 
#
# Total GULP energy -694252.710154 kJ/mol
# GULP energy per Si atom -12397.369824 kJ/mol
# Density = 1.765602 g / cm^3
# Si number density = 17.696300 Si / 1000 Ang^3
#
#
#
# Elastic Constant Matrix: (Units=GPa)
#
#
# Indices 1 2 3 4 5 6 
#
# 1 94.8365 47.6684 56.7086 0.0000 0.0000 0.0000
# 2 47.6684 81.0496 49.1360 0.0000 0.0000 0.0000
# 3 56.7086 49.1360 96.1254 0.0000 0.0000 0.0000
# 4 0.0000 0.0000 0.0000 22.8509 0.0000 0.0000
# 5 0.0000 0.0000 0.0000 0.0000 25.0357 0.0000
# 6 0.0000 0.0000 0.0000 0.0000 0.0000 23.6302
#
#
#
# Elastic Compliance Matrix: (Units=1/GPa)
#
#
# Indices 1 2 3 4 5 6 
#
# 1 0.018135 -0.006057 -0.007603 0.000000 0.000000 0.000000
# 2 -0.006057 0.019901 -0.006600 0.000000 0.000000 0.000000
# 3 -0.007603 -0.006600 0.018262 0.000000 0.000000 0.000000
# 4 0.000000 0.000000 0.000000 0.043762 0.000000 0.000000
# 5 0.000000 0.000000 0.000000 0.000000 0.039943 0.000000
# 6 0.000000 0.000000 0.000000 0.000000 0.000000 0.042319
#
#
# Mechanical properties :
#
#
# Convention : Reuss Voigt Hill
#
# Bulk Modulus (GPa) = 63.37202 64.33751 63.85476
# Shear Modulus (GPa) = 21.92024 22.20327 22.06176
#
# Velocity S-wave (km/s) = 3.52332 3.54600 3.53468
# Velocity P-wave (km/s) = 7.24157 7.29389 7.26778
#
# Compressibility (1/GPa) = 0.01577984
#
# Stress axis : x y z
#
# Youngs Moduli (GPa) = 55.14241 50.24761 54.75937
#
# Poissons Ratio (x) = 0.30434 0.41631
# Poissons Ratio (y) = 0.33399 0.36140
# Poissons Ratio (z) = 0.41922 0.33162
#
# Static dielectric constant tensor:
#      x y z
#    x 3.322430 0.000000 0.000000 
#    y 0.000000 3.347850 0.000000 
#    z 0.000000 0.000000 3.293540 
# 
# 
# High freq. dielectric constant tensor:
#      x y z
#    x 1.667930 0.000000 0.000000 
#    y 0.000000 1.676100 0.000000 
#    z 0.000000 0.000000 1.679020 
# 
# From -- ./inp_files/30627.got.cif
#   From: 2010.03.12/outbox.cif.g09.slc.cpg/sg59_16_cif.got.tgz:30627.got - 2010.04.16 16:29:54.
