data_PCOD8240524
_publ_section_title
;
Structure prediction by ZEFSAII (Michael W. Deem and Ramdas Pophale) SiO2 
 PCOD8240524
Probable space group: P M M N
;
_chemical_formula_sum "Si O2"
_cell_formula_units_Z 64
_cell_length_a 8.912323
_cell_length_b 13.872260
_cell_length_c 31.450611
_cell_angle_alpha 90.000000
_cell_angle_beta 90.000000
_cell_angle_gamma 90.000000
_cell_volume 3888.366786
_symmetry_space_group_name_H-M "P M M N"
_symmetry_group_IT_number 59
_space_group.IT_coordinate_system_code '2'
_symmetry_cell_setting 'orthorhombic'
loop_
_space_group_symop_operation_xyz
x,y,z
1/2-x,1/2-y,z
1/2+x,-y,-z
-x,1/2+y,-z
-x,-y,-z
1/2+x,1/2+y,-z
1/2-x,y,z
x,1/2-y,z
loop_
_atom_site_type_symbol
_atom_site_label
_atom_site_fract_x
_atom_site_fract_y
_atom_site_fract_z
Si Si1 0.927400 0.855305 0.437575
Si Si2 0.424927 0.966826 0.935192
Si Si3 0.417598 0.363897 0.469102
Si Si4 0.081083 0.635518 0.772247
Si Si5 0.927138 0.639538 0.857849
Si Si6 0.924875 0.360974 0.978195
Si Si7 0.925479 0.042086 0.392132
Si Si8 0.073606 0.360731 0.312921
O O1 0.750000 0.846280 0.441432
O O2 0.996110 0.750000 0.426147
O O3 0.982097 0.892476 0.484103
O O4 0.971248 0.930871 0.400937
O O5 0.250000 0.969821 0.924528
O O6 0.513348 0.927563 0.895040
O O7 0.480617 0.074991 0.945221
O O8 0.460924 0.895519 0.974144
O O9 0.250000 0.407042 0.460844
O O10 0.406796 0.250000 0.466636
O O11 0.534738 0.398068 0.433968
O O12 0.250000 0.595337 0.773640
O O13 0.077582 0.750000 0.771509
O O14 0.993632 0.598725 0.813799
O O15 0.001174 0.596785 0.729759
O O16 0.750000 0.631846 0.855373
O O17 0.978617 0.750000 0.865824
O O18 0.750000 0.374440 0.967949
O O19 0.974934 0.250000 0.973561
O O20 0.750000 0.054766 0.382305
O O21 0.020435 0.076005 0.352187
O O22 0.250000 0.369901 0.307610
O O23 0.025517 0.250000 0.320888
#
# Coordination Sequence:
#
# PCOD8240524 Si02
#       8
#     8   8   8   8   8   8   8   8
#     4   8  16  31  47  62  83 113 148 183 219 259
#     4  10  19  30  46  69  95 124 162 204 241 279
#     4   9  17  30  46  62  85 118 148 174 212 262
#     4   9  17  30  48  69  93 119 148 185 225 264
#     4  10  19  30  46  69  97 128 159 189 226 276
#     4   9  18  32  47  64  92 129 165 202 244 285
#     4  11  20  28  44  68  89 112 145 184 220 255
#     4  10  20  33  47  64  91 124 150 173 211 268
#
# _framework density 16.459351999999999
#
# number of rings (size 3 to 8) (size 9 to 14) (size 15 to 20)
#    0.000    2.500    0.000    3.750    0.000    6.000 
#    0.000    0.625    0.000    3.000    0.000    0.875 
#    0.000    5.000    0.000    0.000    0.000    0.000 
#
# Total GULP energy -793524.508513 kJ/mol
# GULP energy per Si atom -12398.820446 kJ/mol
# Density = 1.642189 g / cm^3
# Si number density = 16.459352 Si / 1000 Ang^3
#
#
#
# Elastic Constant Matrix: (Units=GPa)
#
#
# Indices 1 2 3 4 5 6 
#
# 1 64.3332 29.4357 42.6184 0.0000 0.0000 0.0000
# 2 29.4357 69.0730 52.2788 0.0000 0.0000 0.0000
# 3 42.6184 52.2788 116.3620 0.0000 0.0000 0.0000
# 4 0.0000 0.0000 0.0000 16.8680 0.0000 0.0000
# 5 0.0000 0.0000 0.0000 0.0000 30.7198 0.0000
# 6 0.0000 0.0000 0.0000 0.0000 0.0000 19.4865
#
#
#
# Elastic Compliance Matrix: (Units=1/GPa)
#
#
# Indices 1 2 3 4 5 6 
#
# 1 0.021551 -0.004864 -0.005708 0.000000 0.000000 0.000000
# 2 -0.004864 0.023035 -0.008568 0.000000 0.000000 0.000000
# 3 -0.005708 -0.008568 0.014534 0.000000 0.000000 0.000000
# 4 0.000000 0.000000 0.000000 0.059284 0.000000 0.000000
# 5 0.000000 0.000000 0.000000 0.000000 0.032552 0.000000
# 6 0.000000 0.000000 0.000000 0.000000 0.000000 0.051317
#
#
# Mechanical properties :
#
#
# Convention : Reuss Voigt Hill
#
# Bulk Modulus (GPa) = 47.98348 55.38158 51.68253
# Shear Modulus (GPa) = 20.20217 21.77721 20.98969
#
# Velocity S-wave (km/s) = 3.50722 3.64138 3.57493
# Velocity P-wave (km/s) = 6.75402 7.16938 6.96480
#
# Compressibility (1/GPa) = 0.02084050
#
# Stress axis : x y z
#
# Youngs Moduli (GPa) = 46.40191 43.41291 68.80592
#
# Poissons Ratio (x) = 0.21115 0.39274
# Poissons Ratio (y) = 0.22569 0.58950
# Poissons Ratio (z) = 0.26486 0.37194
#
# Static dielectric constant tensor:
#      x y z
#    x 3.154510 0.000000 0.000000 
#    y 0.000000 3.118370 0.000000 
#    z 0.000000 0.000000 3.110980 
# 
# 
# High freq. dielectric constant tensor:
#      x y z
#    x 1.636580 0.000000 0.000000 
#    y 0.000000 1.607540 0.000000 
#    z 0.000000 0.000000 1.627300 
# 
# From -- ./inp_files/33202.got.cif
#   From: 2010.03.12/outbox.cif.g09.slc.cpg/sg59_17_cif.got.tgz:33202.got - 2010.04.16 16:29:54.
