data_PCOD8240560
_publ_section_title
;
Structure prediction by ZEFSAII (Michael W. Deem and Ramdas Pophale) SiO2 
 PCOD8240560
Probable space group: P M M N
;
_chemical_formula_sum "Si O2"
_cell_formula_units_Z 40
_cell_length_a 9.041372
_cell_length_b 27.858769
_cell_length_c 10.134488
_cell_angle_alpha 90.000000
_cell_angle_beta 90.000000
_cell_angle_gamma 90.000000
_cell_volume 2552.689978
_symmetry_space_group_name_H-M "P M M N"
_symmetry_group_IT_number 59
_space_group.IT_coordinate_system_code '2'
_symmetry_cell_setting 'orthorhombic'
loop_
_space_group_symop_operation_xyz
x,y,z
1/2-x,1/2-y,z
1/2+x,-y,-z
-x,1/2+y,-z
-x,-y,-z
1/2+x,1/2+y,-z
1/2-x,y,z
x,1/2-y,z
loop_
_atom_site_type_symbol
_atom_site_label
_atom_site_fract_x
_atom_site_fract_y
_atom_site_fract_z
Si Si1 0.075698 0.194919 0.982915
Si Si2 0.076405 0.050722 0.649908
Si Si3 0.416977 0.613008 0.137372
Si Si4 0.576082 0.059113 0.384596
Si Si5 0.083171 0.873799 0.849622
O O1 0.250000 0.188410 0.972301
O O2 0.027413 0.250000 0.972555
O O3 0.997081 0.165516 0.863115
O O4 0.018841 0.173240 0.123950
O O5 0.250000 0.059730 0.649499
O O6 0.006977 0.075470 0.776833
O O7 0.008512 0.073812 0.517602
O O8 0.034784 0.994768 0.657924
O O9 0.250000 0.618290 0.192005
O O10 0.416400 0.594385 0.984938
O O11 0.750000 0.064125 0.409187
O O12 0.519281 0.094461 0.269574
O O13 0.250000 0.856775 0.817081
#
# Coordination Sequence:
#
# PCOD8240560 Si02
#       5
#     8   8   8   8   8
#     4   9  17  30  49  72  95 118 148 191 240 282
#     4  10  19  30  47  70  96 128 161 193 232 274
#     4   9  18  31  48  70  94 124 157 191 231 276
#     4   9  18  33  48  66  96 130 161 192 229 277
#     4   8  17  31  48  70  93 123 158 191 228 274
#
# _framework density 15.669745000000001
#
# number of rings (size 3 to 8) (size 9 to 14) (size 15 to 20)
#    1.200    1.800    0.000    1.200    0.000    4.000 
#    0.000    0.000    0.000    1.200    0.000    5.600 
#    0.000    0.000    0.000    0.000    0.000    0.000 
#
# Total GULP energy -495612.463223 kJ/mol
# GULP energy per Si atom -12390.311581 kJ/mol
# Density = 1.563408 g / cm^3
# Si number density = 15.669745 Si / 1000 Ang^3
#
#
#
# Elastic Constant Matrix: (Units=GPa)
#
#
# Indices 1 2 3 4 5 6 
#
# 1 56.3272 21.5782 15.6321 0.0000 0.0000 0.0000
# 2 21.5782 40.1324 6.1676 0.0000 0.0000 0.0000
# 3 15.6321 6.1676 37.8917 0.0000 0.0000 0.0000
# 4 0.0000 0.0000 0.0000 9.2298 0.0000 0.0000
# 5 0.0000 0.0000 0.0000 0.0000 27.2209 0.0000
# 6 0.0000 0.0000 0.0000 0.0000 0.0000 25.4484
#
#
#
# Elastic Compliance Matrix: (Units=1/GPa)
#
#
# Indices 1 2 3 4 5 6 
#
# 1 0.024619 -0.011976 -0.008207 0.000000 0.000000 0.000000
# 2 -0.011976 0.031382 -0.000168 0.000000 0.000000 0.000000
# 3 -0.008207 -0.000168 0.029804 0.000000 0.000000 0.000000
# 4 0.000000 0.000000 0.000000 0.108344 0.000000 0.000000
# 5 0.000000 0.000000 0.000000 0.000000 0.036737 0.000000
# 6 0.000000 0.000000 0.000000 0.000000 0.000000 0.039295
#
#
# Mechanical properties :
#
#
# Convention : Reuss Voigt Hill
#
# Bulk Modulus (GPa) = 22.17070 24.56743 23.36906
# Shear Modulus (GPa) = 15.34134 18.44472 16.89303
#
# Velocity S-wave (km/s) = 3.13236 3.43460 3.28695
# Velocity P-wave (km/s) = 5.22127 5.60722 5.41768
#
# Compressibility (1/GPa) = 0.04510458
#
# Stress axis : x y z
#
# Youngs Moduli (GPa) = 40.61939 31.86513 33.55237
#
# Poissons Ratio (x) = 0.38160 0.27537
# Poissons Ratio (y) = 0.48644 0.00562
# Poissons Ratio (z) = 0.33337 0.00534
#
# Static dielectric constant tensor:
#      x y z
#    x 3.014670 0.000000 0.000000 
#    y 0.000000 2.804350 0.000000 
#    z 0.000000 0.000000 2.868880 
# 
# 
# High freq. dielectric constant tensor:
#      x y z
#    x 1.613170 0.000000 0.000000 
#    y 0.000000 1.578430 0.000000 
#    z 0.000000 0.000000 1.585300 
# 
# From -- ./inp_files/6045.got.cif
#   From: 2010.03.12/outbox.cif.g09.slc.cpg/sg59_4_cif.got.tgz:6045.got - 2010.04.16 16:29:54.
