data_PCOD8240225
_publ_section_title
;
Structure prediction by ZEFSAII (Michael W. Deem and Ramdas Pophale) SiO2 
 PCOD8240225
Probable space group: P M M N
;
_chemical_formula_sum "Si O2"
_cell_formula_units_Z 64
_cell_length_a 8.917234
_cell_length_b 30.798846
_cell_length_c 11.852818
_cell_angle_alpha 90.000000
_cell_angle_beta 90.000000
_cell_angle_gamma 90.000000
_cell_volume 3255.264060
_symmetry_space_group_name_H-M "P M M N"
_symmetry_group_IT_number 59
_space_group.IT_coordinate_system_code '2'
_symmetry_cell_setting 'orthorhombic'
loop_
_space_group_symop_operation_xyz
x,y,z
1/2-x,1/2-y,z
1/2+x,-y,-z
-x,1/2+y,-z
-x,-y,-z
1/2+x,1/2+y,-z
1/2-x,y,z
x,1/2-y,z
loop_
_atom_site_type_symbol
_atom_site_label
_atom_site_fract_x
_atom_site_fract_y
_atom_site_fract_z
Si Si1 0.575805 0.375721 0.864990
Si Si2 0.575079 0.120817 0.127911
Si Si3 0.927754 0.545979 0.264063
Si Si4 0.422589 0.299420 0.740835
Si Si5 0.426153 0.173701 0.493222
Si Si6 0.072288 0.423702 0.494930
Si Si7 0.927739 0.957294 0.744029
Si Si8 0.424152 0.702112 0.728321
O O1 0.750000 0.384128 0.839719
O O2 0.478210 0.413412 0.809641
O O3 0.528737 0.329268 0.816071
O O4 0.541135 0.374685 0.996780
O O5 0.750000 0.112773 0.151939
O O6 0.481561 0.080523 0.174042
O O7 0.515858 0.164943 0.187284
O O8 0.750000 0.542025 0.256945
O O9 0.985155 0.552052 0.392865
O O10 0.001550 0.502470 0.214376
O O11 0.250000 0.314185 0.756229
O O12 0.446247 0.250000 0.780247
O O13 0.468849 0.303371 0.610155
O O14 0.250000 0.173091 0.473298
O O15 0.492944 0.124977 0.493860
O O16 0.497089 0.200518 0.392241
O O17 0.250000 0.421308 0.496998
O O18 0.014878 0.448363 0.383528
O O19 0.750000 0.960408 0.750679
O O20 0.250000 0.694830 0.707267
O O21 0.455630 0.750000 0.780824
#
# Coordination Sequence:
#
# PCOD8240225 Si02
#       8
#     8   8   8   8   8   8   8   8
#     4  11  24  41  61  85 114 152 201 250 290 335
#     4  10  23  42  60  81 113 156 199 239 292 346
#     4  11  22  40  63  87 119 156 190 231 290 352
#     4  10  21  38  61  88 120 157 193 233 288 351
#     4  10  18  35  60  87 118 153 189 229 285 347
#     4   9  18  34  59  88 118 151 185 229 286 346
#     4  11  22  38  61  91 120 148 190 240 287 341
#     4  10  21  37  58  86 118 151 190 237 288 342
#
# _framework density 19.660463
#
# number of rings (size 3 to 8) (size 9 to 14) (size 15 to 20)
#    0.000    1.750    2.500    1.875    0.000    3.500 
#    0.000    3.125    0.000    0.000    0.000    0.000 
#    0.000    0.000    0.000    0.000    0.000    0.000 
#
# Total GULP energy -793787.685598 kJ/mol
# GULP energy per Si atom -12402.932587 kJ/mol
# Density = 1.961571 g / cm^3
# Si number density = 19.660463 Si / 1000 Ang^3
#
#
#
# Elastic Constant Matrix: (Units=GPa)
#
#
# Indices 1 2 3 4 5 6 
#
# 1 56.6787 40.8035 41.4177 0.0000 0.0000 0.0000
# 2 40.8035 139.9197 48.5405 0.0000 0.0000 0.0000
# 3 41.4177 48.5405 109.3538 0.0000 0.0000 0.0000
# 4 0.0000 0.0000 0.0000 5.6796 0.0000 0.0000
# 5 0.0000 0.0000 0.0000 0.0000 28.0829 0.0000
# 6 0.0000 0.0000 0.0000 0.0000 0.0000 30.3338
#
#
#
# Elastic Compliance Matrix: (Units=1/GPa)
#
#
# Indices 1 2 3 4 5 6 
#
# 1 0.027214 -0.005154 -0.008019 0.000000 0.000000 0.000000
# 2 -0.005154 0.009424 -0.002231 0.000000 0.000000 0.000000
# 3 -0.008019 -0.002231 0.013172 0.000000 0.000000 0.000000
# 4 0.000000 0.000000 0.000000 0.176070 0.000000 0.000000
# 5 0.000000 0.000000 0.000000 0.000000 0.035609 0.000000
# 6 0.000000 0.000000 0.000000 0.000000 0.000000 0.032967
#
#
# Mechanical properties :
#
#
# Convention : Reuss Voigt Hill
#
# Bulk Modulus (GPa) = 52.62859 63.05285 57.84072
# Shear Modulus (GPa) = 15.07846 24.49861 19.78854
#
# Velocity S-wave (km/s) = 2.77238 3.53382 3.17600
# Velocity P-wave (km/s) = 6.08892 6.98506 6.55233
#
# Compressibility (1/GPa) = 0.01900108
#
# Stress axis : x y z
#
# Youngs Moduli (GPa) = 36.74587 106.11218 75.91667
#
# Poissons Ratio (x) = 0.54691 0.60881
# Poissons Ratio (y) = 0.18939 0.16938
# Poissons Ratio (z) = 0.29468 0.23674
#
# Static dielectric constant tensor:
#      x y z
#    x 3.401160 0.000000 0.000000 
#    y 0.000000 3.716030 0.000000 
#    z 0.000000 0.000000 3.588040 
# 
# 
# High freq. dielectric constant tensor:
#      x y z
#    x 1.751890 0.000000 0.000000 
#    y 0.000000 1.782770 0.000000 
#    z 0.000000 0.000000 1.762070 
# 
# From -- ./inp_files/14976.got.cif
#   From: 2010.03.12/outbox.cif.g09.slc.cpg/sg59_8_cif.got.tgz:14976.got - 2010.04.16 16:29:54.
