data_PCOD8240161
_publ_section_title
;
Structure prediction by ZEFSAII (Michael W. Deem and Ramdas Pophale) SiO2 
 PCOD8240161
Probable space group: P M M N
;
_chemical_formula_sum "Si O2"
_cell_formula_units_Z 48
_cell_length_a 28.080065
_cell_length_b 8.761088
_cell_length_c 10.140158
_cell_angle_alpha 90.000000
_cell_angle_beta 90.000000
_cell_angle_gamma 90.000000
_cell_volume 2494.599744
_symmetry_space_group_name_H-M "P M M N"
_symmetry_group_IT_number 59
_space_group.IT_coordinate_system_code '2'
_symmetry_cell_setting 'orthorhombic'
loop_
_space_group_symop_operation_xyz
x,y,z
1/2-x,1/2-y,z
1/2+x,-y,-z
-x,1/2+y,-z
-x,-y,-z
1/2+x,1/2+y,-z
1/2-x,y,z
x,1/2-y,z
loop_
_atom_site_type_symbol
_atom_site_label
_atom_site_fract_x
_atom_site_fract_y
_atom_site_fract_z
Si Si1 0.606206 0.571006 0.755474
Si Si2 0.250000 0.430724 0.622410
Si Si3 0.496710 0.070945 0.355148
Si Si4 0.354544 0.572604 0.983465
Si Si5 0.750000 0.074098 0.096641
Si Si6 0.346864 0.069155 0.510400
Si Si7 0.588271 0.569518 0.254243
O O1 0.611677 0.750000 0.786818
O O2 0.552708 0.529107 0.715002
O O3 0.640318 0.517941 0.636412
O O4 0.622190 0.473005 0.879173
O O5 0.250000 0.250000 0.609888
O O6 0.250000 0.470430 0.775052
O O7 0.204085 0.501417 0.549716
O O8 0.502056 0.250000 0.373320
O O9 0.500000 0.000000 0.500000
O O10 0.536571 0.007999 0.255115
O O11 0.363651 0.750000 0.956763
O O12 0.297771 0.535826 0.986572
O O13 0.380490 0.477532 0.870375
O O14 0.750000 0.250000 0.140885
O O15 0.345696 0.250000 0.521246
O O16 0.386026 0.009593 0.613465
O O17 0.581531 0.750000 0.252048
#
# Coordination Sequence:
#
# PCOD8240161 Si02
#       7
#     8   4   8   8   4   8   8
#     4  10  22  41  60  86 122 158 197 245 297 355
#     4  10  18  33  62  92 116 148 196 249 300 354
#     4  11  22  38  62  91 123 158 200 250 304 361
#     4  11  24  41  60  88 123 160 201 247 300 360
#     4  10  22  39  58  84 122 158 194 243 298 358
#     4   9  18  34  58  89 118 146 192 247 292 346
#     4  11  21  38  63  90 119 156 201 249 297 354
#
# _framework density 19.241562999999999
#
# number of rings (size 3 to 8) (size 9 to 14) (size 15 to 20)
#    0.000    1.667    3.333    1.500    0.000    3.333 
#    0.000    1.667    0.000    0.000    0.000    0.000 
#    0.000    0.000    0.000    0.000    0.000    0.000 
#
# Total GULP energy -595252.574132 kJ/mol
# GULP energy per Si atom -12401.095294 kJ/mol
# Density = 1.919777 g / cm^3
# Si number density = 19.241563 Si / 1000 Ang^3
#
#
#
# Elastic Constant Matrix: (Units=GPa)
#
#
# Indices 1 2 3 4 5 6 
#
# 1 145.8840 45.9888 43.9783 0.0000 0.0000 0.0000
# 2 45.9888 45.0574 18.8174 0.0000 0.0000 0.0000
# 3 43.9783 18.8174 91.3943 0.0000 0.0000 0.0000
# 4 0.0000 0.0000 0.0000 27.9217 0.0000 0.0000
# 5 0.0000 0.0000 0.0000 0.0000 34.9010 0.0000
# 6 0.0000 0.0000 0.0000 0.0000 0.0000 25.1195
#
#
#
# Elastic Compliance Matrix: (Units=1/GPa)
#
#
# Indices 1 2 3 4 5 6 
#
# 1 0.010917 -0.009791 -0.003237 0.000000 0.000000 0.000000
# 2 -0.009791 0.033063 -0.002096 0.000000 0.000000 0.000000
# 3 -0.003237 -0.002096 0.012931 0.000000 0.000000 0.000000
# 4 0.000000 0.000000 0.000000 0.035814 0.000000 0.000000
# 5 0.000000 0.000000 0.000000 0.000000 0.028652 0.000000
# 6 0.000000 0.000000 0.000000 0.000000 0.000000 0.039810
#
#
# Mechanical properties :
#
#
# Convention : Reuss Voigt Hill
#
# Bulk Modulus (GPa) = 37.50642 55.54499 46.52571
# Shear Modulus (GPa) = 24.95966 29.15854 27.05910
#
# Velocity S-wave (km/s) = 3.60554 3.89703 3.75411
# Velocity P-wave (km/s) = 6.07190 7.01277 6.55923
#
# Compressibility (1/GPa) = 0.02666210
#
# Stress axis : x y z
#
# Youngs Moduli (GPa) = 91.59856 30.24571 77.33364
#
# Poissons Ratio (x) = 0.29613 0.25036
# Poissons Ratio (y) = 0.89683 0.16210
# Poissons Ratio (z) = 0.29654 0.06340
#
# Static dielectric constant tensor:
#      x y z
#    x 4.024760 0.000000 0.000000 
#    y 0.000000 3.374560 0.000000 
#    z 0.000000 0.000000 3.467630 
# 
# 
# High freq. dielectric constant tensor:
#      x y z
#    x 1.768370 0.000000 0.000000 
#    y 0.000000 1.735720 0.000000 
#    z 0.000000 0.000000 1.745040 
# 
# From -- ./inp_files/13040.got.cif
#   From: 2010.03.12/outbox.cif.g09.slc.cpg/sg59_7_cif.got.tgz:13040.got - 2010.04.16 16:29:54.
