data_PCOD8240514
_publ_section_title
;
Structure prediction by ZEFSAII (Michael W. Deem and Ramdas Pophale) SiO2 
 PCOD8240514
Probable space group: P M M N
;
_chemical_formula_sum "Si O2"
_cell_formula_units_Z 64
_cell_length_a 18.549586
_cell_length_b 9.158436
_cell_length_c 20.780364
_cell_angle_alpha 90.000000
_cell_angle_beta 90.000000
_cell_angle_gamma 90.000000
_cell_volume 3530.276215
_symmetry_space_group_name_H-M "P M M N"
_symmetry_group_IT_number 59
_space_group.IT_coordinate_system_code '2'
_symmetry_cell_setting 'orthorhombic'
loop_
_space_group_symop_operation_xyz
x,y,z
1/2-x,1/2-y,z
1/2+x,-y,-z
-x,1/2+y,-z
-x,-y,-z
1/2+x,1/2+y,-z
1/2-x,y,z
x,1/2-y,z
loop_
_atom_site_type_symbol
_atom_site_label
_atom_site_fract_x
_atom_site_fract_y
_atom_site_fract_z
Si Si1 0.587650 0.418655 0.744682
Si Si2 0.335762 0.585173 0.494766
Si Si3 0.666434 0.580126 0.379446
Si Si4 0.914762 0.588266 0.867381
Si Si5 0.075489 0.421042 0.992887
Si Si6 0.081068 0.419079 0.745942
Si Si7 0.086540 0.585206 0.871364
Si Si8 0.335235 0.417953 0.369391
O O1 0.607964 0.250000 0.737067
O O2 0.613107 0.471012 0.815630
O O3 0.503246 0.448267 0.735374
O O4 0.630067 0.510851 0.692759
O O5 0.250000 0.581737 0.494421
O O6 0.365474 0.750000 0.492316
O O7 0.364075 0.508037 0.559438
O O8 0.365320 0.498870 0.432806
O O9 0.750000 0.545616 0.366750
O O10 0.653920 0.750000 0.393849
O O11 0.622156 0.527193 0.317588
O O12 0.891409 0.750000 0.844174
O O13 0.882236 0.557241 0.938941
O O14 0.000616 0.581142 0.873274
O O15 0.063409 0.250000 0.978325
O O16 0.117657 0.495711 0.933071
O O17 0.000000 0.500000 0.000000
O O18 0.096366 0.250000 0.760118
O O19 0.113127 0.509722 0.805652
O O20 0.116341 0.750000 0.873948
O O21 0.250000 0.435582 0.363769
O O22 0.358462 0.250000 0.373888
#
# Coordination Sequence:
#
# PCOD8240514 Si02
#       8
#     8   8   8   8   8   8   8   8
#     4  10  19  30  46  68  95 124 152 187 230 274
#     4   9  17  30  49  72  95 117 147 190 233 270
#     4   9  17  31  51  72  94 122 156 191 227 271
#     4   8  15  26  39  58  86 119 152 185 225 273
#     4   9  15  23  37  58  85 117 153 192 230 270
#     4   9  18  31  46  67  96 127 156 188 230 276
#     4   9  16  25  39  60  87 120 155 191 232 274
#     4  10  20  34  52  71  91 118 152 188 226 272
#
# _framework density 18.128893000000001
#
# number of rings (size 3 to 8) (size 9 to 14) (size 15 to 20)
#    0.000    2.875    0.000    2.625    0.000    6.750 
#    0.000    0.625    0.000    0.000    0.000    0.875 
#    0.000    3.000    0.000    0.000    0.000    0.000 
#
# Total GULP energy -793367.316888 kJ/mol
# GULP energy per Si atom -12396.364326 kJ/mol
# Density = 1.808763 g / cm^3
# Si number density = 18.128893 Si / 1000 Ang^3
#
#
#
# Elastic Constant Matrix: (Units=GPa)
#
#
# Indices 1 2 3 4 5 6 
#
# 1 13.2455 25.8994 26.5294 0.0000 0.0000 0.0000
# 2 25.8994 138.9525 98.8945 0.0000 0.0000 0.0000
# 3 26.5294 98.8945 180.8544 0.0000 0.0000 0.0000
# 4 0.0000 0.0000 0.0000 39.8329 0.0000 0.0000
# 5 0.0000 0.0000 0.0000 0.0000 -17.0861 0.0000
# 6 0.0000 0.0000 0.0000 0.0000 0.0000 14.7056
#
#
#
# Elastic Compliance Matrix: (Units=1/GPa)
#
#
# Indices 1 2 3 4 5 6 
#
# 1 0.127800 -0.017154 -0.009367 0.000000 0.000000 0.000000
# 2 -0.017154 0.014085 -0.005185 0.000000 0.000000 0.000000
# 3 -0.009367 -0.005185 0.009739 0.000000 0.000000 0.000000
# 4 0.000000 0.000000 0.000000 0.025105 0.000000 0.000000
# 5 0.000000 0.000000 0.000000 0.000000 -0.058527 0.000000
# 6 0.000000 0.000000 0.000000 0.000000 0.000000 0.068001
#
#
# Mechanical properties :
#
#
# Convention : Reuss Voigt Hill
#
# Bulk Modulus (GPa) = 11.33648 70.63321 40.98485
# Shear Modulus (GPa) = 17.91997 19.60576 18.76286
#
# Velocity S-wave (km/s) = 3.14741 3.29213 3.22059
# Velocity P-wave (km/s) = 4.41306 7.31417 6.04037
#
# Compressibility (1/GPa) = 0.08821077
#
# Stress axis : x y z
#
# Youngs Moduli (GPa) = 7.82472 70.99955 102.68266
#
# Poissons Ratio (x) = 1.21795 0.96179
# Poissons Ratio (y) = 0.13423 0.53245
# Poissons Ratio (z) = 0.07329 0.36816
#
# Static dielectric constant tensor:
#      x y z
#    x 2.774180 0.000000 0.000000 
#    y 0.000000 3.529350 0.000000 
#    z 0.000000 0.000000 3.866720 
# 
# 
# High freq. dielectric constant tensor:
#      x y z
#    x 1.630450 0.000000 0.000000 
#    y 0.000000 1.713960 0.000000 
#    z 0.000000 0.000000 1.724910 
# 
# From -- ./inp_files/30926.got.cif
#   From: 2010.03.12/outbox.cif.g09.slc.cpg/sg59_16_cif.got.tgz:30926.got - 2010.04.16 16:29:54.
