data_PCOD8240835
_publ_section_title
;
Structure prediction by ZEFSAII (Michael W. Deem and Ramdas Pophale) SiO2 
 PCOD8240835
Probable space group: P M M N
;
_chemical_formula_sum "Si O2"
_cell_formula_units_Z 56
_cell_length_a 22.161061
_cell_length_b 8.850845
_cell_length_c 16.973671
_cell_angle_alpha 90.000000
_cell_angle_beta 90.000000
_cell_angle_gamma 90.000000
_cell_volume 3329.285693
_symmetry_space_group_name_H-M "P M M N"
_symmetry_group_IT_number 59
_space_group.IT_coordinate_system_code '2'
_symmetry_cell_setting 'orthorhombic'
loop_
_space_group_symop_operation_xyz
x,y,z
1/2-x,1/2-y,z
1/2+x,-y,-z
-x,1/2+y,-z
-x,-y,-z
1/2+x,1/2+y,-z
1/2-x,y,z
x,1/2-y,z
loop_
_atom_site_type_symbol
_atom_site_label
_atom_site_fract_x
_atom_site_fract_y
_atom_site_fract_z
Si Si1 0.915365 0.924615 0.495195
Si Si2 0.036116 0.924636 0.765021
Si Si3 0.183119 0.573583 0.909699
Si Si4 0.980585 0.074013 0.627156
Si Si5 0.684189 0.416825 0.408182
Si Si6 0.659826 0.927328 0.252701
Si Si7 0.450349 0.577494 0.945758
O O1 0.920511 0.750000 0.516931
O O2 0.961254 0.968550 0.425348
O O3 0.924129 0.019960 0.575163
O O4 0.850121 0.965786 0.463304
O O5 0.051371 0.750000 0.747641
O O6 0.024518 0.947707 0.857593
O O7 0.089605 0.034958 0.739537
O O8 0.981053 0.981268 0.709903
O O9 0.250000 0.549381 0.952252
O O10 0.174084 0.750000 0.889450
O O11 0.187205 0.480545 0.829731
O O12 0.120786 0.520860 0.955170
O O13 0.975138 0.250000 0.646401
O O14 0.750000 0.400803 0.445803
O O15 0.653071 0.250000 0.405403
O O16 0.693160 0.483097 0.321069
O O17 0.670362 0.750000 0.262720
O O18 0.451259 0.750000 0.970985
O O19 0.500000 0.500000 0.000000
#
# Coordination Sequence:
#
# PCOD8240835 Si02
#       7
#     8   8   8   8   8   8   8
#     4  10  20  32  47  68  94 124 159 200 242 282
#     4  10  19  32  50  70  96 129 164 199 240 290
#     4   9  18  33  50  68  94 130 168 200 236 289
#     4  10  19  31  49  72  95 122 156 198 244 286
#     4  11  22  33  45  62  90 129 166 201 241 285
#     4  11  20  29  43  67  96 126 162 200 237 281
#     4   9  19  33  50  74 101 132 163 200 249 297
#
# _framework density 16.820425
#
# number of rings (size 3 to 8) (size 9 to 14) (size 15 to 20)
#    0.000    2.000    1.429    4.286    0.000    7.143 
#    0.000    0.000    0.000    0.000    0.000    1.000 
#    0.000    3.429    0.000    0.000    0.000    0.000 
#
# Total GULP energy -693830.900288 kJ/mol
# GULP energy per Si atom -12389.837505 kJ/mol
# Density = 1.678214 g / cm^3
# Si number density = 16.820425 Si / 1000 Ang^3
#
#
#
# Elastic Constant Matrix: (Units=GPa)
#
#
# Indices 1 2 3 4 5 6 
#
# 1 96.3169 22.5458 45.4439 0.0000 0.0000 0.0000
# 2 22.5458 65.0280 25.5155 0.0000 0.0000 0.0000
# 3 45.4439 25.5155 64.0229 0.0000 0.0000 0.0000
# 4 0.0000 0.0000 0.0000 28.7597 0.0000 0.0000
# 5 0.0000 0.0000 0.0000 0.0000 14.6155 0.0000
# 6 0.0000 0.0000 0.0000 0.0000 0.0000 21.7147
#
#
#
# Elastic Compliance Matrix: (Units=1/GPa)
#
#
# Indices 1 2 3 4 5 6 
#
# 1 0.015698 -0.001269 -0.010637 0.000000 0.000000 0.000000
# 2 -0.001269 0.018331 -0.006405 0.000000 0.000000 0.000000
# 3 -0.010637 -0.006405 0.025722 0.000000 0.000000 0.000000
# 4 0.000000 0.000000 0.000000 0.034771 0.000000 0.000000
# 5 0.000000 0.000000 0.000000 0.000000 0.068421 0.000000
# 6 0.000000 0.000000 0.000000 0.000000 0.000000 0.046052
#
#
# Mechanical properties :
#
#
# Convention : Reuss Voigt Hill
#
# Bulk Modulus (GPa) = 43.23426 45.81981 44.52704
# Shear Modulus (GPa) = 19.73740 21.80881 20.77310
#
# Velocity S-wave (km/s) = 3.42924 3.60469 3.51806
# Velocity P-wave (km/s) = 6.43730 6.68018 6.55986
#
# Compressibility (1/GPa) = 0.02312980
#
# Stress axis : x y z
#
# Youngs Moduli (GPa) = 63.70195 54.55206 38.87698
#
# Poissons Ratio (x) = 0.06923 0.41353
# Poissons Ratio (y) = 0.08084 0.24900
# Poissons Ratio (z) = 0.67759 0.34940
#
# Static dielectric constant tensor:
#      x y z
#    x 3.240670 0.000000 0.000000 
#    y 0.000000 3.160650 0.000000 
#    z 0.000000 0.000000 2.962770 
# 
# 
# High freq. dielectric constant tensor:
#      x y z
#    x 1.632910 0.000000 0.000000 
#    y 0.000000 1.659970 0.000000 
#    z 0.000000 0.000000 1.611640 
# 
# From -- ./inp_files/28067.got.cif
#   From: 2010.03.12/outbox.cif.g09.slc.cpg/sg59_15_cif.got.tgz:28067.got - 2010.04.16 16:29:54.
