data_PCOD8240017
_publ_section_title
;
Structure prediction by ZEFSAII (Michael W. Deem and Ramdas Pophale) SiO2 
 PCOD8240017
Probable space group: P M M N
;
_chemical_formula_sum "Si O2"
_cell_formula_units_Z 56
_cell_length_a 8.768712
_cell_length_b 24.267500
_cell_length_c 14.261886
_cell_angle_alpha 90.000000
_cell_angle_beta 90.000000
_cell_angle_gamma 90.000000
_cell_volume 3034.854016
_symmetry_space_group_name_H-M "P M M N"
_symmetry_group_IT_number 59
_space_group.IT_coordinate_system_code '2'
_symmetry_cell_setting 'orthorhombic'
loop_
_space_group_symop_operation_xyz
x,y,z
1/2-x,1/2-y,z
1/2+x,-y,-z
-x,1/2+y,-z
-x,-y,-z
1/2+x,1/2+y,-z
1/2-x,y,z
x,1/2-y,z
loop_
_atom_site_type_symbol
_atom_site_label
_atom_site_fract_x
_atom_site_fract_y
_atom_site_fract_z
Si Si1 0.576864 0.813755 0.350690
Si Si2 0.431393 0.188975 0.202660
Si Si3 0.431038 0.089934 0.327513
Si Si4 0.930112 0.029568 0.705262
Si Si5 0.572144 0.686778 0.009574
Si Si6 0.069969 0.867901 0.180187
Si Si7 0.571021 0.098356 0.529331
O O1 0.750000 0.836033 0.356565
O O2 0.571004 0.750000 0.373986
O O3 0.512437 0.823822 0.246689
O O4 0.471298 0.842419 0.428208
O O5 0.250000 0.189229 0.207018
O O6 0.491376 0.250000 0.232526
O O7 0.500671 0.142178 0.271212
O O8 0.482507 0.175765 0.096600
O O9 0.250000 0.092921 0.323416
O O10 0.480869 0.089886 0.434263
O O11 0.491239 0.032778 0.280230
O O12 0.750000 0.028796 0.703057
O O13 0.983741 0.070279 0.789135
O O14 0.985540 0.052637 0.604370
O O15 0.750000 0.674016 0.021382
O O16 0.537154 0.750000 0.037461
O O17 0.478483 0.644463 0.074009
O O18 0.250000 0.861365 0.192119
O O19 0.750000 0.095367 0.509381
#
# Coordination Sequence:
#
# PCOD8240017 Si02
#       7
#     8   8   8   8   8   8   8
#     4  10  20  33  49  71  98 128 164 201 237 286
#     4   8  16  31  51  74  96 120 158 206 244 278
#     4  10  18  32  54  72  91 127 170 206 242 283
#     4   8  17  32  48  69  97 129 162 197 239 290
#     4   9  17  31  50  71  96 126 160 196 237 289
#     4  10  19  31  48  72 101 128 157 196 243 292
#     4  10  20  33  48  70 101 131 161 200 247 294
#
# _framework density 18.452287999999999
#
# number of rings (size 3 to 8) (size 9 to 14) (size 15 to 20)
#    0.000    2.714    0.000    3.857    0.000    3.714 
#    0.000    6.429    0.000    0.857    0.000    0.000 
#    0.000    0.000    0.000    0.000    0.000    0.000 
#
# Total GULP energy -694153.271059 kJ/mol
# GULP energy per Si atom -12395.594126 kJ/mol
# Density = 1.841029 g / cm^3
# Si number density = 18.452288 Si / 1000 Ang^3
#
#
#
# Elastic Constant Matrix: (Units=GPa)
#
#
# Indices 1 2 3 4 5 6 
#
# 1 15.0292 20.7798 13.6696 0.0000 0.0000 0.0000
# 2 20.7798 143.7021 74.1905 0.0000 0.0000 0.0000
# 3 13.6696 74.1905 93.8592 0.0000 0.0000 0.0000
# 4 0.0000 0.0000 0.0000 19.8127 0.0000 0.0000
# 5 0.0000 0.0000 0.0000 0.0000 23.0513 0.0000
# 6 0.0000 0.0000 0.0000 0.0000 0.0000 17.5999
#
#
#
# Elastic Compliance Matrix: (Units=1/GPa)
#
#
# Indices 1 2 3 4 5 6 
#
# 1 0.084256 -0.009881 -0.004461 0.000000 0.000000 0.000000
# 2 -0.009881 0.012915 -0.008770 0.000000 0.000000 0.000000
# 3 -0.004461 -0.008770 0.018236 0.000000 0.000000 0.000000
# 4 0.000000 0.000000 0.000000 0.050473 0.000000 0.000000
# 5 0.000000 0.000000 0.000000 0.000000 0.043382 0.000000
# 6 0.000000 0.000000 0.000000 0.000000 0.000000 0.056818
#
#
# Mechanical properties :
#
#
# Convention : Reuss Voigt Hill
#
# Bulk Modulus (GPa) = 14.45411 52.20782 33.33096
# Shear Modulus (GPa) = 14.90918 21.68949 18.29933
#
# Velocity S-wave (km/s) = 2.84559 3.43218 3.15256
# Velocity P-wave (km/s) = 4.31819 6.63787 5.59947
#
# Compressibility (1/GPa) = 0.06918449
#
# Stress axis : x y z
#
# Youngs Moduli (GPa) = 11.86860 77.42766 54.83660
#
# Poissons Ratio (x) = 0.76503 0.24462
# Poissons Ratio (y) = 0.11727 0.48091
# Poissons Ratio (z) = 0.05295 0.67903
#
# Static dielectric constant tensor:
#      x y z
#    x 3.147560 0.000000 0.000000 
#    y 0.000000 3.847380 0.000000 
#    z 0.000000 0.000000 3.356780 
# 
# 
# High freq. dielectric constant tensor:
#      x y z
#    x 1.690320 0.000000 0.000000 
#    y 0.000000 1.718840 0.000000 
#    z 0.000000 0.000000 1.706890 
# 
# From -- ./inp_files/21065.got.cif
#   From: 2010.03.12/outbox.cif.g09.slc.cpg/sg59_11_cif.got.tgz:21065.got - 2010.04.16 16:29:54.
