data_PCOD8240877
_publ_section_title
;
Structure prediction by ZEFSAII (Michael W. Deem and Ramdas Pophale) SiO2 
 PCOD8240877
Probable space group: P M M N
;
_chemical_formula_sum "Si O2"
_cell_formula_units_Z 64
_cell_length_a 9.190329
_cell_length_b 13.772746
_cell_length_c 30.410238
_cell_angle_alpha 90.000000
_cell_angle_beta 90.000000
_cell_angle_gamma 90.000000
_cell_volume 3849.208322
_symmetry_space_group_name_H-M "P M M N"
_symmetry_group_IT_number 59
_space_group.IT_coordinate_system_code '2'
_symmetry_cell_setting 'orthorhombic'
loop_
_space_group_symop_operation_xyz
x,y,z
1/2-x,1/2-y,z
1/2+x,-y,-z
-x,1/2+y,-z
-x,-y,-z
1/2+x,1/2+y,-z
1/2-x,y,z
x,1/2-y,z
loop_
_atom_site_type_symbol
_atom_site_label
_atom_site_fract_x
_atom_site_fract_y
_atom_site_fract_z
Si Si1 0.079044 0.362707 0.625163
Si Si2 0.420648 0.521196 0.933561
Si Si3 0.915251 0.990518 0.684344
Si Si4 0.579144 0.138155 0.246860
Si Si5 0.421826 0.643191 0.852980
Si Si6 0.579909 0.139867 0.980395
Si Si7 0.411926 0.360149 0.398978
Si Si8 0.419630 0.498914 0.545896
O O1 0.250000 0.377324 0.633140
O O2 0.034654 0.250000 0.623837
O O3 0.034306 0.409518 0.577934
O O4 0.995925 0.413684 0.665679
O O5 0.250000 0.500816 0.931028
O O6 0.482999 0.565390 0.887945
O O7 0.499333 0.419158 0.941995
O O8 0.459618 0.597033 0.971977
O O9 0.750000 0.019305 0.696892
O O10 0.918362 0.907768 0.648216
O O11 0.994919 0.943759 0.725942
O O12 0.750000 0.126822 0.256034
O O13 0.532302 0.250000 0.257568
O O14 0.539412 0.112480 0.196577
O O15 0.250000 0.649815 0.858868
O O16 0.487888 0.750000 0.862925
O O17 0.750000 0.133109 0.971160
O O18 0.523944 0.250000 0.978951
O O19 0.250000 0.373440 0.419661
O O20 0.453277 0.250000 0.391623
O O21 0.534669 0.401944 0.430703
O O22 0.500000 0.500000 0.500000
O O23 0.250000 0.497838 0.536403
#
# Coordination Sequence:
#
# PCOD8240877 Si02
#       8
#     8   8   8   8   8   8   8   8
#     4   9  19  36  55  72  92 123 162 200 235 270
#     4   9  16  27  45  66  87 115 153 194 230 268
#     4  10  19  31  49  73  99 123 149 186 230 276
#     4   9  17  29  47  71  97 125 155 187 227 277
#     4   8  14  26  45  68  92 119 153 190 226 268
#     4   9  17  28  42  62  89 120 151 185 231 281
#     4   9  18  32  48  66  91 123 153 181 218 263
#     4  10  20  33  49  71  97 124 155 189 227 270
#
# _framework density 16.626795000000001
#
# number of rings (size 3 to 8) (size 9 to 14) (size 15 to 20)
#    0.000    2.875    0.000    2.250    0.000    4.500 
#    0.000    1.875    0.000    2.625    0.000    1.750 
#    0.000    0.000    0.000    0.000    0.000    0.000 
#
# Total GULP energy -793340.255224 kJ/mol
# GULP energy per Si atom -12395.941488 kJ/mol
# Density = 1.658895 g / cm^3
# Si number density = 16.626795 Si / 1000 Ang^3
#
#
#
# Elastic Constant Matrix: (Units=GPa)
#
#
# Indices 1 2 3 4 5 6 
#
# 1 53.0084 44.2972 42.6761 0.0000 0.0000 0.0000
# 2 44.2972 129.6199 56.8607 0.0000 0.0000 0.0000
# 3 42.6761 56.8607 100.8418 0.0000 0.0000 0.0000
# 4 0.0000 0.0000 0.0000 20.1590 0.0000 0.0000
# 5 0.0000 0.0000 0.0000 0.0000 24.5382 0.0000
# 6 0.0000 0.0000 0.0000 0.0000 0.0000 25.2729
#
#
#
# Elastic Compliance Matrix: (Units=1/GPa)
#
#
# Indices 1 2 3 4 5 6 
#
# 1 0.032519 -0.006744 -0.009959 0.000000 0.000000 0.000000
# 2 -0.006744 0.011649 -0.003714 0.000000 0.000000 0.000000
# 3 -0.009959 -0.003714 0.016225 0.000000 0.000000 0.000000
# 4 0.000000 0.000000 0.000000 0.049606 0.000000 0.000000
# 5 0.000000 0.000000 0.000000 0.000000 0.040753 0.000000
# 6 0.000000 0.000000 0.000000 0.000000 0.000000 0.039568
#
#
# Mechanical properties :
#
#
# Convention : Reuss Voigt Hill
#
# Bulk Modulus (GPa) = 51.12987 63.45979 57.29483
# Shear Modulus (GPa) = 21.03717 23.30309 22.17013
#
# Velocity S-wave (km/s) = 3.56090 3.74777 3.65553
# Velocity P-wave (km/s) = 6.90833 7.54836 7.23543
#
# Compressibility (1/GPa) = 0.01955804
#
# Stress axis : x y z
#
# Youngs Moduli (GPa) = 30.75144 85.84362 61.63161
#
# Poissons Ratio (x) = 0.57897 0.61379
# Poissons Ratio (y) = 0.20740 0.22891
# Poissons Ratio (z) = 0.30625 0.31884
#
# Static dielectric constant tensor:
#      x y z
#    x 3.594270 0.000000 0.000000 
#    y 0.000000 3.210070 0.000000 
#    z 0.000000 0.000000 3.192730 
# 
# 
# High freq. dielectric constant tensor:
#      x y z
#    x 1.629620 0.000000 0.000000 
#    y 0.000000 1.633820 0.000000 
#    z 0.000000 0.000000 1.632830 
# 
# From -- ./inp_files/33198.got.cif
#   From: 2010.03.12/outbox.cif.g09.slc.cpg/sg59_17_cif.got.tgz:33198.got - 2010.04.16 16:29:54.
