data_PCOD8240436
_publ_section_title
;
Structure prediction by ZEFSAII (Michael W. Deem and Ramdas Pophale) SiO2 
 PCOD8240436
Probable space group: P M M N
;
_chemical_formula_sum "Si O2"
_cell_formula_units_Z 56
_cell_length_a 17.777007
_cell_length_b 8.963760
_cell_length_c 20.613717
_cell_angle_alpha 90.000000
_cell_angle_beta 90.000000
_cell_angle_gamma 90.000000
_cell_volume 3284.771568
_symmetry_space_group_name_H-M "P M M N"
_symmetry_group_IT_number 59
_space_group.IT_coordinate_system_code '2'
_symmetry_cell_setting 'orthorhombic'
loop_
_space_group_symop_operation_xyz
x,y,z
1/2-x,1/2-y,z
1/2+x,-y,-z
-x,1/2+y,-z
-x,-y,-z
1/2+x,1/2+y,-z
1/2-x,y,z
x,1/2-y,z
loop_
_atom_site_type_symbol
_atom_site_label
_atom_site_fract_x
_atom_site_fract_y
_atom_site_fract_z
Si Si1 0.024230 0.072447 0.149827
Si Si2 0.167655 0.918131 0.367941
Si Si3 0.390198 0.417231 0.482894
Si Si4 0.333709 0.424705 0.066214
Si Si5 0.025980 0.926487 0.288306
Si Si6 0.955317 0.418558 0.404554
Si Si7 0.938844 0.574742 0.044766
O O1 0.019640 0.250000 0.147216
O O2 0.102573 0.014094 0.116443
O O3 0.017962 0.015110 0.222281
O O4 0.949905 0.004672 0.114269
O O5 0.250000 0.928535 0.335483
O O6 0.146335 0.750000 0.388270
O O7 0.107931 0.973756 0.315167
O O8 0.169977 0.013173 0.433806
O O9 0.366129 0.250000 0.500194
O O10 0.391151 0.508841 0.550207
O O11 0.469159 0.422120 0.446073
O O12 0.250000 0.496236 0.077515
O O13 0.327876 0.250000 0.078223
O O14 0.358829 0.455176 0.991129
O O15 0.017040 0.750000 0.277328
O O16 0.963469 0.983782 0.339224
O O17 0.932694 0.250000 0.385869
O O18 0.953990 0.750000 0.051990
O O19 0.000000 0.500000 0.000000
#
# Coordination Sequence:
#
# PCOD8240436 Si02
#       7
#     8   8   8   8   8   8   8
#     4  10  19  30  45  65  92 124 155 187 225 272
#     4   9  18  31  44  60  87 122 154 184 222 267
#     4   9  16  26  42  63  84 108 142 183 222 258
#     4   8  15  28  46  68  91 116 149 187 224 263
#     4  10  19  30  44  63  89 119 152 187 221 262
#     4   9  16  27  43  62  84 109 140 179 222 263
#     4   9  16  28  47  67  89 117 149 187 227 267
#
# _framework density 17.048370999999999
#
# number of rings (size 3 to 8) (size 9 to 14) (size 15 to 20)
#    0.000    2.857    0.000    3.000    0.000    4.857 
#    0.000    0.000    0.000   15.000    0.000    1.000 
#    0.000    5.714    0.000    0.000    0.000    0.000 
#
# Total GULP energy -693889.054083 kJ/mol
# GULP energy per Si atom -12390.875966 kJ/mol
# Density = 1.700957 g / cm^3
# Si number density = 17.048371 Si / 1000 Ang^3
#
#
#
# Elastic Constant Matrix: (Units=GPa)
#
#
# Indices 1 2 3 4 5 6 
#
# 1 12.1368 6.8265 19.5130 0.0000 0.0000 0.0000
# 2 6.8265 80.2832 36.0613 0.0000 0.0000 0.0000
# 3 19.5130 36.0613 109.4486 0.0000 0.0000 0.0000
# 4 0.0000 0.0000 0.0000 31.8413 0.0000 0.0000
# 5 0.0000 0.0000 0.0000 0.0000 16.4233 0.0000
# 6 0.0000 0.0000 0.0000 0.0000 0.0000 15.0019
#
#
#
# Elastic Compliance Matrix: (Units=1/GPa)
#
#
# Indices 1 2 3 4 5 6 
#
# 1 0.115532 -0.000671 -0.020376 0.000000 0.000000 0.000000
# 2 -0.000671 0.014623 -0.004699 0.000000 0.000000 0.000000
# 3 -0.020376 -0.004699 0.014318 0.000000 0.000000 0.000000
# 4 0.000000 0.000000 0.000000 0.031406 0.000000 0.000000
# 5 0.000000 0.000000 0.000000 0.000000 0.060889 0.000000
# 6 0.000000 0.000000 0.000000 0.000000 0.000000 0.066658
#
#
# Mechanical properties :
#
#
# Convention : Reuss Voigt Hill
#
# Bulk Modulus (GPa) = 10.75491 36.29668 23.52579
# Shear Modulus (GPa) = 12.95633 21.95115 17.45374
#
# Velocity S-wave (km/s) = 2.75975 3.59218 3.20312
# Velocity P-wave (km/s) = 4.05921 6.20819 5.24494
#
# Compressibility (1/GPa) = 0.09298081
#
# Stress axis : x y z
#
# Youngs Moduli (GPa) = 8.65562 68.38338 69.84421
#
# Poissons Ratio (x) = 0.04589 1.42317
# Poissons Ratio (y) = 0.00581 0.32816
# Poissons Ratio (z) = 0.17637 0.32130
#
# Static dielectric constant tensor:
#      x y z
#    x 3.196880 0.000000 0.000000 
#    y 0.000000 3.343320 0.000000 
#    z 0.000000 0.000000 3.267090 
# 
# 
# High freq. dielectric constant tensor:
#      x y z
#    x 1.617400 0.000000 0.000000 
#    y 0.000000 1.660870 0.000000 
#    z 0.000000 0.000000 1.649120 
# 
# From -- ./inp_files/30592.got.cif
#   From: 2010.03.12/outbox.cif.g09.slc.cpg/sg59_16_cif.got.tgz:30592.got - 2010.04.16 16:29:54.
