data_PCOD8240552
_publ_section_title
;
Structure prediction by ZEFSAII (Michael W. Deem and Ramdas Pophale) SiO2 
 PCOD8240552
Probable space group: P M M N
;
_chemical_formula_sum "Si O2"
_cell_formula_units_Z 56
_cell_length_a 9.250072
_cell_length_b 19.162680
_cell_length_c 18.039750
_cell_angle_alpha 90.000000
_cell_angle_beta 90.000000
_cell_angle_gamma 90.000000
_cell_volume 3197.656988
_symmetry_space_group_name_H-M "P M M N"
_symmetry_group_IT_number 59
_space_group.IT_coordinate_system_code '2'
_symmetry_cell_setting 'orthorhombic'
loop_
_space_group_symop_operation_xyz
x,y,z
1/2-x,1/2-y,z
1/2+x,-y,-z
-x,1/2+y,-z
-x,-y,-z
1/2+x,1/2+y,-z
1/2-x,y,z
x,1/2-y,z
loop_
_atom_site_type_symbol
_atom_site_label
_atom_site_fract_x
_atom_site_fract_y
_atom_site_fract_z
Si Si1 0.083250 0.169868 0.852802
Si Si2 0.418056 0.169774 0.137703
Si Si3 0.086746 0.666972 0.005100
Si Si4 0.919769 0.928920 0.727864
Si Si5 0.080004 0.071384 0.716362
Si Si6 0.090336 0.415725 0.434709
Si Si7 0.411376 0.581592 0.428771
O O1 0.250000 0.162459 0.875199
O O2 0.042331 0.250000 0.836587
O O3 0.045556 0.126841 0.779869
O O4 0.991274 0.138814 0.921103
O O5 0.250000 0.161566 0.118952
O O6 0.458574 0.250000 0.153479
O O7 0.462811 0.126502 0.209906
O O8 0.505823 0.138980 0.067990
O O9 0.250000 0.638717 0.004252
O O10 0.079888 0.750000 0.005105
O O11 0.750000 0.948745 0.729422
O O12 0.958951 0.894013 0.648265
O O13 0.011684 0.998322 0.741330
O O14 0.250000 0.061329 0.702533
O O15 0.008208 0.101833 0.641834
O O16 0.250000 0.386002 0.452163
O O17 0.094237 0.499012 0.436907
O O18 0.981240 0.385726 0.496506
O O19 0.250000 0.612327 0.419360
#
# Coordination Sequence:
#
# PCOD8240552 Si02
#       7
#     8   8   8   8   8   8   8
#     4   9  18  33  51  69  90 118 153 190 227 270
#     4   9  17  31  51  71  92 121 155 188 224 268
#     4   9  17  29  47  71  94 117 150 190 228 267
#     4   9  18  31  47  69  96 123 151 187 229 270
#     4  10  19  30  47  70  94 120 150 187 231 274
#     4   8  14  25  41  62  88 118 152 187 222 262
#     4   9  16  26  42  64  90 120 152 186 224 266
#
# _framework density 17.512822
#
# number of rings (size 3 to 8) (size 9 to 14) (size 15 to 20)
#    0.000    3.000    0.000    2.143    0.000    6.857 
#    0.000    0.714    0.000    0.857    0.000    4.000 
#    0.000    0.000    0.000    0.000    0.000    0.000 
#
# Total GULP energy -694273.186438 kJ/mol
# GULP energy per Si atom -12397.735472 kJ/mol
# Density = 1.747296 g / cm^3
# Si number density = 17.512822 Si / 1000 Ang^3
#
#
#
# Elastic Constant Matrix: (Units=GPa)
#
#
# Indices 1 2 3 4 5 6 
#
# 1 111.8961 36.4814 92.1351 0.0000 0.0000 0.0000
# 2 36.4814 38.8697 51.3862 0.0000 0.0000 0.0000
# 3 92.1351 51.3862 178.4283 0.0000 0.0000 0.0000
# 4 0.0000 0.0000 0.0000 6.7313 0.0000 0.0000
# 5 0.0000 0.0000 0.0000 0.0000 32.4651 0.0000
# 6 0.0000 0.0000 0.0000 0.0000 0.0000 16.3320
#
#
#
# Elastic Compliance Matrix: (Units=1/GPa)
#
#
# Indices 1 2 3 4 5 6 
#
# 1 0.016609 -0.006863 -0.006600 0.000000 0.000000 0.000000
# 2 -0.006863 0.044380 -0.009237 0.000000 0.000000 0.000000
# 3 -0.006600 -0.009237 0.011673 0.000000 0.000000 0.000000
# 4 0.000000 0.000000 0.000000 0.148561 0.000000 0.000000
# 5 0.000000 0.000000 0.000000 0.000000 0.030802 0.000000
# 6 0.000000 0.000000 0.000000 0.000000 0.000000 0.061229
#
#
# Mechanical properties :
#
#
# Convention : Reuss Voigt Hill
#
# Bulk Modulus (GPa) = 36.68215 76.57774 56.62994
# Shear Modulus (GPa) = 13.59651 21.05177 17.32414
#
# Velocity S-wave (km/s) = 2.78937 3.47086 3.14861
# Velocity P-wave (km/s) = 5.60049 7.73848 6.75461
#
# Compressibility (1/GPa) = 0.02726122
#
# Stress axis : x y z
#
# Youngs Moduli (GPa) = 60.20967 22.53245 85.67077
#
# Poissons Ratio (x) = 0.15465 0.56539
# Poissons Ratio (y) = 0.41324 0.79136
# Poissons Ratio (z) = 0.39736 0.20814
#
# Static dielectric constant tensor:
#      x y z
#    x 3.411970 0.000000 0.000000 
#    y 0.000000 2.777440 0.000000 
#    z 0.000000 0.000000 3.535040 
# 
# 
# High freq. dielectric constant tensor:
#      x y z
#    x 1.683110 0.000000 0.000000 
#    y 0.000000 1.618260 0.000000 
#    z 0.000000 0.000000 1.693900 
# 
# From -- ./inp_files/26123.got.cif
#   From: 2010.03.12/outbox.cif.g09.slc.cpg/sg59_14_cif.got.tgz:26123.got - 2010.04.16 16:29:54.
