data_PCOD8240012
_publ_section_title
;
Structure prediction by ZEFSAII (Michael W. Deem and Ramdas Pophale) SiO2 
 PCOD8240012
Probable space group: P M M N
;
_chemical_formula_sum "Si O2"
_cell_formula_units_Z 56
_cell_length_a 9.114549
_cell_length_b 22.767432
_cell_length_c 14.810446
_cell_angle_alpha 90.000000
_cell_angle_beta 90.000000
_cell_angle_gamma 90.000000
_cell_volume 3073.387844
_symmetry_space_group_name_H-M "P M M N"
_symmetry_group_IT_number 59
_space_group.IT_coordinate_system_code '2'
_symmetry_cell_setting 'orthorhombic'
loop_
_space_group_symop_operation_xyz
x,y,z
1/2-x,1/2-y,z
1/2+x,-y,-z
-x,1/2+y,-z
-x,-y,-z
1/2+x,1/2+y,-z
1/2-x,y,z
x,1/2-y,z
loop_
_atom_site_type_symbol
_atom_site_label
_atom_site_fract_x
_atom_site_fract_y
_atom_site_fract_z
Si Si1 0.583675 0.591444 0.784912
Si Si2 0.916149 0.019405 0.911363
Si Si3 0.424496 0.184599 0.071405
Si Si4 0.076999 0.079050 0.569847
Si Si5 0.923061 0.634795 0.118535
Si Si6 0.078003 0.947503 0.611616
Si Si7 0.423222 0.314676 0.692714
O O1 0.750000 0.606305 0.754650
O O2 0.580679 0.531447 0.838751
O O3 0.517867 0.642584 0.848995
O O4 0.481207 0.586608 0.698337
O O5 0.750000 0.035695 0.937952
O O6 0.996519 0.073646 0.864988
O O7 0.000000 0.000000 0.000000
O O8 0.250000 0.182703 0.068732
O O9 0.483350 0.250000 0.090384
O O10 0.482564 0.163703 0.973761
O O11 0.250000 0.084843 0.553532
O O12 0.013615 0.132704 0.630549
O O13 0.997060 0.082371 0.474351
O O14 0.039878 0.016925 0.617928
O O15 0.750000 0.622702 0.113897
O O16 0.965066 0.676085 0.202525
O O17 0.250000 0.937193 0.604028
O O18 0.250000 0.315763 0.682202
O O19 0.483722 0.250000 0.663593
#
# Coordination Sequence:
#
# PCOD8240012 Si02
#       7
#     8   8   8   8   8   8   8
#     4  10  20  34  51  76 105 134 172 214 256 303
#     4  11  21  33  50  76 107 139 173 213 261 309
#     4   9  17  31  51  73 100 137 179 216 249 293
#     4   9  18  34  54  78 106 133 167 213 261 315
#     4  10  18  32  53  79 108 138 175 216 259 308
#     4  10  20  34  55  80 102 132 170 212 267 319
#     4   9  17  30  53  83 109 137 177 221 261 306
#
# _framework density 18.220935999999998
#
# number of rings (size 3 to 8) (size 9 to 14) (size 15 to 20)
#    0.000    2.286    1.429    2.143    0.000    4.571 
#    0.000    1.429    0.000    8.571    0.000    0.000 
#    0.000    0.000    0.000    0.000    0.000    0.000 
#
# Total GULP energy -694341.772325 kJ/mol
# GULP energy per Si atom -12398.960220 kJ/mol
# Density = 1.817946 g / cm^3
# Si number density = 18.220936 Si / 1000 Ang^3
#
#
#
# Elastic Constant Matrix: (Units=GPa)
#
#
# Indices 1 2 3 4 5 6 
#
# 1 44.0899 27.5461 37.4655 0.0000 0.0000 0.0000
# 2 27.5461 141.4967 69.9724 0.0000 0.0000 0.0000
# 3 37.4655 69.9724 137.2417 0.0000 0.0000 0.0000
# 4 0.0000 0.0000 0.0000 27.3859 0.0000 0.0000
# 5 0.0000 0.0000 0.0000 0.0000 22.4173 0.0000
# 6 0.0000 0.0000 0.0000 0.0000 0.0000 19.9726
#
#
#
# Elastic Compliance Matrix: (Units=1/GPa)
#
#
# Indices 1 2 3 4 5 6 
#
# 1 0.030131 -0.002404 -0.007000 0.000000 0.000000 0.000000
# 2 -0.002404 0.009642 -0.004259 0.000000 0.000000 0.000000
# 3 -0.007000 -0.004259 0.011369 0.000000 0.000000 0.000000
# 4 0.000000 0.000000 0.000000 0.036515 0.000000 0.000000
# 5 0.000000 0.000000 0.000000 0.000000 0.044608 0.000000
# 6 0.000000 0.000000 0.000000 0.000000 0.000000 0.050069
#
#
# Mechanical properties :
#
#
# Convention : Reuss Voigt Hill
#
# Bulk Modulus (GPa) = 41.99061 65.86626 53.92844
# Shear Modulus (GPa) = 22.97804 26.47811 24.72807
#
# Velocity S-wave (km/s) = 3.55502 3.81618 3.68791
# Velocity P-wave (km/s) = 6.32030 7.45954 6.91343
#
# Compressibility (1/GPa) = 0.02381485
#
# Stress axis : x y z
#
# Youngs Moduli (GPa) = 33.18833 103.71562 87.95932
#
# Poissons Ratio (x) = 0.24938 0.61568
# Poissons Ratio (y) = 0.07980 0.37466
# Poissons Ratio (z) = 0.23230 0.44177
#
# Static dielectric constant tensor:
#      x y z
#    x 3.376590 0.000000 0.000000 
#    y 0.000000 3.602930 0.000000 
#    z 0.000000 0.000000 3.511770 
# 
# 
# High freq. dielectric constant tensor:
#      x y z
#    x 1.674710 0.000000 0.000000 
#    y 0.000000 1.707550 0.000000 
#    z 0.000000 0.000000 1.707870 
# 
# From -- ./inp_files/20937.got.cif
#   From: 2010.03.12/outbox.cif.g09.slc.cpg/sg59_11_cif.got.tgz:20937.got - 2010.04.16 16:29:54.
