data_PCOD8240595
_publ_section_title
;
Structure prediction by ZEFSAII (Michael W. Deem and Ramdas Pophale) SiO2 
 PCOD8240595
Probable space group: P M M N
;
_chemical_formula_sum "Si O2"
_cell_formula_units_Z 56
_cell_length_a 21.252388
_cell_length_b 9.369945
_cell_length_c 14.397371
_cell_angle_alpha 90.000000
_cell_angle_beta 90.000000
_cell_angle_gamma 90.000000
_cell_volume 2867.001854
_symmetry_space_group_name_H-M "P M M N"
_symmetry_group_IT_number 59
_space_group.IT_coordinate_system_code '2'
_symmetry_cell_setting 'orthorhombic'
loop_
_space_group_symop_operation_xyz
x,y,z
1/2-x,1/2-y,z
1/2+x,-y,-z
-x,1/2+y,-z
-x,-y,-z
1/2+x,1/2+y,-z
1/2-x,y,z
x,1/2-y,z
loop_
_atom_site_type_symbol
_atom_site_label
_atom_site_fract_x
_atom_site_fract_y
_atom_site_fract_z
Si Si1 0.821951 0.415606 0.558964
Si Si2 0.679078 0.095640 0.263383
Si Si3 0.627757 0.083986 0.759930
Si Si4 0.619353 0.914393 0.119689
Si Si5 0.988751 0.916742 0.258660
Si Si6 0.110445 0.419632 0.593037
Si Si7 0.321542 0.088268 0.070978
O O1 0.750000 0.461747 0.534748
O O2 0.832192 0.250000 0.533201
O O3 0.832397 0.442827 0.667472
O O4 0.876031 0.506343 0.505964
O O5 0.750000 0.136189 0.274642
O O6 0.642652 0.250000 0.272616
O O7 0.668584 0.023089 0.164049
O O8 0.664645 0.978649 0.341037
O O9 0.622379 0.250000 0.783492
O O10 0.557883 0.014136 0.749680
O O11 0.664871 0.013200 0.843473
O O12 0.636130 0.750000 0.143958
O O13 0.551194 0.952727 0.165010
O O14 0.626287 0.940322 0.009574
O O15 0.997384 0.750000 0.269279
O O16 0.954234 0.968316 0.354342
O O17 0.114714 0.250000 0.581789
O O18 0.250000 0.060863 0.034962
O O19 0.328327 0.250000 0.105936
#
# Coordination Sequence:
#
# PCOD8240595 Si02
#       7
#     8   8   8   8   8   8   8
#     4  10  21  36  53  76 106 139 177 221 268 316
#     4  10  19  30  47  75 109 140 173 217 264 312
#     4  10  21  38  58  77 104 144 183 222 267 314
#     4   9  18  34  55  77 106 143 177 214 265 320
#     4   8  17  35  56  80 108 137 175 219 262 315
#     4  10  20  34  54  78 105 138 174 215 265 320
#     4  10  21  36  54  79 110 142 179 224 269 313
#
# _framework density 19.532598
#
# number of rings (size 3 to 8) (size 9 to 14) (size 15 to 20)
#    0.000    2.429    0.000    3.000    0.000    6.857 
#    0.000    3.571    0.000    0.000    0.000    0.000 
#    0.000    0.000    0.000    0.000    0.000    0.000 
#
# Total GULP energy -693802.201727 kJ/mol
# GULP energy per Si atom -12389.325031 kJ/mol
# Density = 1.948814 g / cm^3
# Si number density = 19.532598 Si / 1000 Ang^3
#
#
#
# Elastic Constant Matrix: (Units=GPa)
#
#
# Indices 1 2 3 4 5 6 
#
# 1 80.9542 19.2972 24.8448 0.0000 0.0000 0.0000
# 2 19.2972 60.9016 38.8122 0.0000 0.0000 0.0000
# 3 24.8448 38.8122 97.1482 0.0000 0.0000 0.0000
# 4 0.0000 0.0000 0.0000 58.0379 0.0000 0.0000
# 5 0.0000 0.0000 0.0000 0.0000 20.1363 0.0000
# 6 0.0000 0.0000 0.0000 0.0000 0.0000 20.0043
#
#
#
# Elastic Compliance Matrix: (Units=1/GPa)
#
#
# Indices 1 2 3 4 5 6 
#
# 1 0.013762 -0.002841 -0.002384 0.000000 0.000000 0.000000
# 2 -0.002841 0.022615 -0.008309 0.000000 0.000000 0.000000
# 3 -0.002384 -0.008309 0.014223 0.000000 0.000000 0.000000
# 4 0.000000 0.000000 0.000000 0.017230 0.000000 0.000000
# 5 0.000000 0.000000 0.000000 0.000000 0.049662 0.000000
# 6 0.000000 0.000000 0.000000 0.000000 0.000000 0.049989
#
#
# Mechanical properties :
#
#
# Convention : Reuss Voigt Hill
#
# Bulk Modulus (GPa) = 42.49587 44.99026 43.74307
# Shear Modulus (GPa) = 24.70453 30.03902 27.37178
#
# Velocity S-wave (km/s) = 3.56024 3.92585 3.74751
# Velocity P-wave (km/s) = 6.22126 6.60554 6.41628
#
# Compressibility (1/GPa) = 0.02353170
#
# Stress axis : x y z
#
# Youngs Moduli (GPa) = 72.66573 44.21830 70.30994
#
# Poissons Ratio (x) = 0.12562 0.16765
# Poissons Ratio (y) = 0.20644 0.58417
# Poissons Ratio (z) = 0.17327 0.36739
#
# Static dielectric constant tensor:
#      x y z
#    x 3.820320 0.000000 0.000000 
#    y 0.000000 3.608240 0.000000 
#    z 0.000000 0.000000 3.546360 
# 
# 
# High freq. dielectric constant tensor:
#      x y z
#    x 1.752300 0.000000 0.000000 
#    y 0.000000 1.750020 0.000000 
#    z 0.000000 0.000000 1.758170 
# 
# From -- ./inp_files/24221.got.cif
#   From: 2010.03.12/outbox.cif.g09.slc.cpg/sg59_13_cif.got.tgz:24221.got - 2010.04.16 16:29:54.
