data_PCOD8240114
_publ_section_title
;
Structure prediction by ZEFSAII (Michael W. Deem and Ramdas Pophale) SiO2 
 PCOD8240114
Probable space group: P M M N
;
_chemical_formula_sum "Si O2"
_cell_formula_units_Z 40
_cell_length_a 10.254689
_cell_length_b 8.946539
_cell_length_c 24.670333
_cell_angle_alpha 90.000000
_cell_angle_beta 90.000000
_cell_angle_gamma 90.000000
_cell_volume 2263.354416
_symmetry_space_group_name_H-M "P M M N"
_symmetry_group_IT_number 59
_space_group.IT_coordinate_system_code '2'
_symmetry_cell_setting 'orthorhombic'
loop_
_space_group_symop_operation_xyz
x,y,z
1/2-x,1/2-y,z
1/2+x,-y,-z
-x,1/2+y,-z
-x,-y,-z
1/2+x,1/2+y,-z
1/2-x,y,z
x,1/2-y,z
loop_
_atom_site_type_symbol
_atom_site_label
_atom_site_fract_x
_atom_site_fract_y
_atom_site_fract_z
Si Si1 0.900295 0.925785 0.458764
Si Si2 0.250000 0.427019 0.064011
Si Si3 0.105325 0.572947 0.766195
Si Si4 0.488991 0.572614 0.880108
Si Si5 0.750000 0.927695 0.059133
Si Si6 0.595478 0.416194 0.350595
O O1 0.750000 0.977137 0.469815
O O2 0.912847 0.750000 0.464225
O O3 0.946215 0.973248 0.398634
O O4 0.000000 0.000000 0.500000
O O5 0.250000 0.250000 0.064796
O O6 0.124040 0.487278 0.095690
O O7 0.250000 0.486221 0.002698
O O8 0.250000 0.504778 0.775912
O O9 0.117148 0.750000 0.762964
O O10 0.045135 0.520442 0.707945
O O11 0.014632 0.525364 0.816613
O O12 0.470640 0.750000 0.886940
O O13 0.376670 0.490715 0.912370
O O14 0.750000 0.750000 0.062157
O O15 0.750000 0.406603 0.345746
O O16 0.539032 0.250000 0.362859
#
# Coordination Sequence:
#
# PCOD8240114 Si02
#       6
#     8   4   8   8   4   8
#     4  10  20  33  51  76 104 135 171 206 244 294
#     4   9  20  33  49  73 101 129 164 207 250 299
#     4   8  13  24  47  74  93 117 162 210 244 284
#     4  10  18  33  54  73  95 130 169 205 247 298
#     4  11  21  33  47  73 103 127 164 211 252 295
#     4   8  14  26  46  71  98 126 159 205 252 288
#
# _framework density 17.672884
#
# number of rings (size 3 to 8) (size 9 to 14) (size 15 to 20)
#    0.000    2.800    1.000    2.700    0.000    1.200 
#    0.000    2.500    2.200    0.000    0.000    0.000 
#    0.000    0.000    0.000    0.000    0.000    0.000 
#
# Total GULP energy -495707.346853 kJ/mol
# GULP energy per Si atom -12392.683671 kJ/mol
# Density = 1.763266 g / cm^3
# Si number density = 17.672884 Si / 1000 Ang^3
#
#
#
# Elastic Constant Matrix: (Units=GPa)
#
#
# Indices 1 2 3 4 5 6 
#
# 1 103.9012 32.2890 79.3770 0.0000 0.0000 0.0000
# 2 32.2890 45.7372 42.9635 0.0000 0.0000 0.0000
# 3 79.3770 42.9635 192.8325 0.0000 0.0000 0.0000
# 4 0.0000 0.0000 0.0000 25.1809 0.0000 0.0000
# 5 0.0000 0.0000 0.0000 0.0000 22.8160 0.0000
# 6 0.0000 0.0000 0.0000 0.0000 0.0000 166.7506
#
#
#
# Elastic Compliance Matrix: (Units=1/GPa)
#
#
# Indices 1 2 3 4 5 6 
#
# 1 0.015307 -0.006181 -0.004924 0.000000 0.000000 0.000000
# 2 -0.006181 0.030147 -0.004172 0.000000 0.000000 0.000000
# 3 -0.004924 -0.004172 0.008142 0.000000 0.000000 0.000000
# 4 0.000000 0.000000 0.000000 0.039713 0.000000 0.000000
# 5 0.000000 0.000000 0.000000 0.000000 0.043829 0.000000
# 6 0.000000 0.000000 0.000000 0.000000 0.000000 0.005997
#
#
# Mechanical properties :
#
#
# Convention : Reuss Voigt Hill
#
# Bulk Modulus (GPa) = 43.39948 72.41441 57.90694
# Shear Modulus (GPa) = 27.56794 55.47227 41.52010
#
# Velocity S-wave (km/s) = 3.95384 5.60861 4.85229
# Velocity P-wave (km/s) = 6.74198 9.11075 8.01436
#
# Compressibility (1/GPa) = 0.02304175
#
# Stress axis : x y z
#
# Youngs Moduli (GPa) = 65.32968 33.17069 122.81555
#
# Poissons Ratio (x) = 0.20503 0.60472
# Poissons Ratio (y) = 0.40381 0.51245
# Poissons Ratio (z) = 0.32167 0.13840
#
# Static dielectric constant tensor:
#      x y z
#    x 2.693510 0.000000 0.000000 
#    y 0.000000 3.043840 0.000000 
#    z 0.000000 0.000000 3.886920 
# 
# 
# High freq. dielectric constant tensor:
#      x y z
#    x 1.650200 0.000000 0.000000 
#    y 0.000000 1.652080 0.000000 
#    z 0.000000 0.000000 1.706800 
# 
# From -- ./inp_files/32405.got.cif
#   From: 2010.03.12/outbox.cif.g09.slc.cpg/sg59_17_cif.got.tgz:32405.got - 2010.04.16 16:29:54.
