data_PCOD8240077
_publ_section_title
;
Structure prediction by ZEFSAII (Michael W. Deem and Ramdas Pophale) SiO2 
 PCOD8240077
Probable space group: P M M N
;
_chemical_formula_sum "Si O2"
_cell_formula_units_Z 48
_cell_length_a 13.497897
_cell_length_b 19.626042
_cell_length_c 9.991664
_cell_angle_alpha 90.000000
_cell_angle_beta 90.000000
_cell_angle_gamma 90.000000
_cell_volume 2646.894642
_symmetry_space_group_name_H-M "P M M N"
_symmetry_group_IT_number 59
_space_group.IT_coordinate_system_code '2'
_symmetry_cell_setting 'orthorhombic'
loop_
_space_group_symop_operation_xyz
x,y,z
1/2-x,1/2-y,z
1/2+x,-y,-z
-x,1/2+y,-z
-x,-y,-z
1/2+x,1/2+y,-z
1/2-x,y,z
x,1/2-y,z
loop_
_atom_site_type_symbol
_atom_site_label
_atom_site_fract_x
_atom_site_fract_y
_atom_site_fract_z
Si Si1 0.054134 0.083468 0.232035
Si Si2 0.364692 0.936832 0.209029
Si Si3 0.863179 0.613943 0.047242
Si Si4 0.363652 0.329384 0.464618
Si Si5 0.362259 0.542383 0.901236
Si Si6 0.515988 0.672925 0.273964
O O1 0.068557 0.130215 0.360432
O O2 0.936697 0.078805 0.201129
O O3 0.098489 0.009341 0.262956
O O4 0.110720 0.118537 0.108746
O O5 0.250000 0.929077 0.244061
O O6 0.422000 0.876743 0.285005
O O7 0.383768 0.930528 0.050268
O O8 0.750000 0.635559 0.064763
O O9 0.883129 0.538063 0.102060
O O10 0.929704 0.665604 0.131518
O O11 0.250000 0.354458 0.458086
O O12 0.371374 0.250000 0.430116
O O13 0.404935 0.345417 0.611630
O O14 0.250000 0.559124 0.857405
O O15 0.476995 0.750000 0.288279
#
# Coordination Sequence:
#
# PCOD8240077 Si02
#       6
#     8   8   8   8   8   8
#     4  11  18  36  60  84 111 143 181 225 277 328
#     4  10  19  35  58  85 112 143 184 229 275 324
#     4  10  18  32  56  84 108 137 181 227 270 324
#     4  10  23  40  55  77 113 149 178 223 287 335
#     4   9  17  32  57  85 115 141 169 224 285 320
#     4  11  22  37  54  76 111 152 185 224 274 323
#
# _framework density 18.134457999999999
#
# number of rings (size 3 to 8) (size 9 to 14) (size 15 to 20)
#    0.000    1.833    3.333    4.000    0.000    2.667 
#    0.000    0.833    0.000    1.500    0.000    0.000 
#    0.000    0.000    0.000    0.000    0.000    0.000 
#
# Total GULP energy -595371.999640 kJ/mol
# GULP energy per Si atom -12403.583326 kJ/mol
# Density = 1.809318 g / cm^3
# Si number density = 18.134458 Si / 1000 Ang^3
#
#
#
# Elastic Constant Matrix: (Units=GPa)
#
#
# Indices 1 2 3 4 5 6 
#
# 1 109.2586 43.9666 26.5075 0.0000 0.0000 0.0000
# 2 43.9666 69.5166 46.7631 0.0000 0.0000 0.0000
# 3 26.5075 46.7631 60.2848 0.0000 0.0000 0.0000
# 4 0.0000 0.0000 0.0000 29.1560 0.0000 0.0000
# 5 0.0000 0.0000 0.0000 0.0000 32.0121 0.0000
# 6 0.0000 0.0000 0.0000 0.0000 0.0000 27.3419
#
#
#
# Elastic Compliance Matrix: (Units=1/GPa)
#
#
# Indices 1 2 3 4 5 6 
#
# 1 0.012327 -0.008679 0.001312 0.000000 0.000000 0.000000
# 2 -0.008679 0.036193 -0.024259 0.000000 0.000000 0.000000
# 3 0.001312 -0.024259 0.034828 0.000000 0.000000 0.000000
# 4 0.000000 0.000000 0.000000 0.034298 0.000000 0.000000
# 5 0.000000 0.000000 0.000000 0.000000 0.031238 0.000000
# 6 0.000000 0.000000 0.000000 0.000000 0.000000 0.036574
#
#
# Mechanical properties :
#
#
# Convention : Reuss Voigt Hill
#
# Bulk Modulus (GPa) = 49.75840 52.61493 51.18667
# Shear Modulus (GPa) = 19.57655 25.82352 22.70004
#
# Velocity S-wave (km/s) = 3.28917 3.77769 3.54186
# Velocity P-wave (km/s) = 6.47480 6.93576 6.70924
#
# Compressibility (1/GPa) = 0.02009711
#
# Stress axis : x y z
#
# Youngs Moduli (GPa) = 81.12489 27.63001 28.71213
#
# Poissons Ratio (x) = 0.23979 -0.03767
# Poissons Ratio (y) = 0.70406 0.69652
# Poissons Ratio (z) = -0.10644 0.67026
#
# Static dielectric constant tensor:
#      x y z
#    x 3.461980 0.000000 0.000000 
#    y 0.000000 3.172420 0.000000 
#    z 0.000000 0.000000 3.116460 
# 
# 
# High freq. dielectric constant tensor:
#      x y z
#    x 1.715060 0.000000 0.000000 
#    y 0.000000 1.685670 0.000000 
#    z 0.000000 0.000000 1.684230 
# 
# From -- ./inp_files/8978.got.cif
#   From: 2010.03.12/outbox.cif.g09.slc.cpg/sg59_5_cif.got.tgz:8978.got - 2010.04.16 16:29:54.
