data_PCOD8240260
_publ_section_title
;
Structure prediction by ZEFSAII (Michael W. Deem and Ramdas Pophale) SiO2 
 PCOD8240260
Probable space group: P M M N
;
_chemical_formula_sum "Si O2"
_cell_formula_units_Z 64
_cell_length_a 17.974682
_cell_length_b 9.292391
_cell_length_c 21.549129
_cell_angle_alpha 90.000000
_cell_angle_beta 90.000000
_cell_angle_gamma 90.000000
_cell_volume 3599.303032
_symmetry_space_group_name_H-M "P M M N"
_symmetry_group_IT_number 59
_space_group.IT_coordinate_system_code '2'
_symmetry_cell_setting 'orthorhombic'
loop_
_space_group_symop_operation_xyz
x,y,z
1/2-x,1/2-y,z
1/2+x,-y,-z
-x,1/2+y,-z
-x,-y,-z
1/2+x,1/2+y,-z
1/2-x,y,z
x,1/2-y,z
loop_
_atom_site_type_symbol
_atom_site_label
_atom_site_fract_x
_atom_site_fract_y
_atom_site_fract_z
Si Si1 0.480425 0.918638 0.937687
Si Si2 0.338415 0.411573 0.522895
Si Si3 0.838222 0.912241 0.613346
Si Si4 0.337757 0.583366 0.640984
Si Si5 0.890829 0.915143 0.242186
Si Si6 0.542959 0.414236 0.825790
Si Si7 0.165363 0.581902 0.269608
Si Si8 0.832582 0.086152 0.130206
O O1 0.495903 0.750000 0.945745
O O2 0.393927 0.951440 0.921837
O O3 0.532901 0.979086 0.883386
O O4 0.500000 0.000000 0.000000
O O5 0.250000 0.410220 0.521872
O O6 0.367272 0.250000 0.537393
O O7 0.367487 0.462423 0.454743
O O8 0.366882 0.521312 0.575288
O O9 0.750000 0.923811 0.613845
O O10 0.864558 0.750000 0.625855
O O11 0.869985 0.009638 0.668888
O O12 0.250000 0.558926 0.649431
O O13 0.359165 0.750000 0.643942
O O14 0.380983 0.499540 0.694209
O O15 0.866666 0.750000 0.251227
O O16 0.976396 0.929574 0.223055
O O17 0.838954 0.983268 0.189298
O O18 0.547793 0.250000 0.850463
O O19 0.618138 0.461463 0.790866
O O20 0.250000 0.531411 0.257264
O O21 0.160333 0.750000 0.281904
O O22 0.750000 0.066032 0.101234
O O23 0.844605 0.250000 0.153278
#
# Coordination Sequence:
#
# PCOD8240260 Si02
#       8
#     8   8   8   8   8   8   8   8
#     4  10  20  35  56  78 101 132 164 193 230 276
#     4   8  14  25  40  59  86 120 156 193 236 286
#     4   8  14  25  42  65  92 120 151 192 241 288
#     4  10  19  28  40  62  92 123 156 197 240 280
#     4  10  19  30  46  67  93 126 159 193 235 281
#     4   9  19  35  52  72  98 126 157 192 230 276
#     4   9  17  30  50  74  97 122 154 194 239 284
#     4   9  18  33  52  74  99 126 160 200 236 272
#
# _framework density 17.781220999999999
#
# number of rings (size 3 to 8) (size 9 to 14) (size 15 to 20)
#    0.000    2.875    0.000    2.250    0.000    4.500 
#    0.000    3.125    0.000    4.500    0.000    0.000 
#    0.000    0.000    0.000    0.000    0.000    0.000 
#
# Total GULP energy -793412.591484 kJ/mol
# GULP energy per Si atom -12397.071742 kJ/mol
# Density = 1.774075 g / cm^3
# Si number density = 17.781221 Si / 1000 Ang^3
#
#
#
# Elastic Constant Matrix: (Units=GPa)
#
#
# Indices 1 2 3 4 5 6 
#
# 1 60.7468 38.5480 53.9185 0.0000 0.0000 0.0000
# 2 38.5480 109.3839 85.2081 0.0000 0.0000 0.0000
# 3 53.9185 85.2081 148.7692 0.0000 0.0000 0.0000
# 4 0.0000 0.0000 0.0000 39.1837 0.0000 0.0000
# 5 0.0000 0.0000 0.0000 0.0000 18.0894 0.0000
# 6 0.0000 0.0000 0.0000 0.0000 0.0000 18.8060
#
#
#
# Elastic Compliance Matrix: (Units=1/GPa)
#
#
# Indices 1 2 3 4 5 6 
#
# 1 0.024854 -0.003145 -0.007207 0.000000 0.000000 0.000000
# 2 -0.003145 0.016905 -0.008542 0.000000 0.000000 0.000000
# 3 -0.007207 -0.008542 0.014226 0.000000 0.000000 0.000000
# 4 0.000000 0.000000 0.000000 0.025521 0.000000 0.000000
# 5 0.000000 0.000000 0.000000 0.000000 0.055281 0.000000
# 6 0.000000 0.000000 0.000000 0.000000 0.000000 0.053175
#
#
# Mechanical properties :
#
#
# Convention : Reuss Voigt Hill
#
# Bulk Modulus (GPa) = 54.95343 74.91658 64.93501
# Shear Modulus (GPa) = 21.38439 24.63084 23.00761
#
# Velocity S-wave (km/s) = 3.47167 3.72589 3.60102
# Velocity P-wave (km/s) = 6.85875 7.79317 7.34084
#
# Compressibility (1/GPa) = 0.01819723
#
# Stress axis : x y z
#
# Youngs Moduli (GPa) = 40.23499 59.15441 70.29174
#
# Poissons Ratio (x) = 0.18604 0.50656
# Poissons Ratio (y) = 0.12654 0.60047
# Poissons Ratio (z) = 0.28995 0.50533
#
# Static dielectric constant tensor:
#      x y z
#    x 3.111810 0.000000 0.000000 
#    y 0.000000 3.431200 0.000000 
#    z 0.000000 0.000000 3.399080 
# 
# 
# High freq. dielectric constant tensor:
#      x y z
#    x 1.656330 0.000000 0.000000 
#    y 0.000000 1.692780 0.000000 
#    z 0.000000 0.000000 1.685320 
# 
# From -- ./inp_files/30706.got.cif
#   From: 2010.03.12/outbox.cif.g09.slc.cpg/sg59_16_cif.got.tgz:30706.got - 2010.04.16 16:29:54.
