data_PCOD8240952
_publ_section_title
;
Structure prediction by ZEFSAII (Michael W. Deem and Ramdas Pophale) SiO2 
 PCOD8240952
Probable space group: P M M N
;
_chemical_formula_sum "Si O2"
_cell_formula_units_Z 48
_cell_length_a 18.312244
_cell_length_b 9.103047
_cell_length_c 16.150803
_cell_angle_alpha 90.000000
_cell_angle_beta 90.000000
_cell_angle_gamma 90.000000
_cell_volume 2692.293925
_symmetry_space_group_name_H-M "P M M N"
_symmetry_group_IT_number 59
_space_group.IT_coordinate_system_code '2'
_symmetry_cell_setting 'orthorhombic'
loop_
_space_group_symop_operation_xyz
x,y,z
1/2-x,1/2-y,z
1/2+x,-y,-z
-x,1/2+y,-z
-x,-y,-z
1/2+x,1/2+y,-z
1/2-x,y,z
x,1/2-y,z
loop_
_atom_site_type_symbol
_atom_site_label
_atom_site_fract_x
_atom_site_fract_y
_atom_site_fract_z
Si Si1 0.456248 0.421707 0.248539
Si Si2 0.834901 0.079221 0.841463
Si Si3 0.667478 0.079085 0.323678
Si Si4 0.406840 0.422937 0.821697
Si Si5 0.333885 0.418455 0.993210
Si Si6 0.528521 0.418649 0.420324
O O1 0.455751 0.250000 0.227843
O O2 0.377831 0.492658 0.230064
O O3 0.515700 0.499626 0.190585
O O4 0.474134 0.450951 0.344432
O O5 0.750000 0.047874 0.825860
O O6 0.854069 0.250000 0.836545
O O7 0.859302 0.020514 0.931255
O O8 0.750000 0.051445 0.355041
O O9 0.653465 0.250000 0.302052
O O10 0.610591 0.029690 0.395201
O O11 0.653600 0.986397 0.240993
O O12 0.414039 0.250000 0.806219
O O13 0.382244 0.459788 0.914385
O O14 0.250000 0.448550 0.969806
O O15 0.345524 0.250000 0.019950
O O16 0.500000 0.500000 0.500000
O O17 0.529462 0.250000 0.444535
#
# Coordination Sequence:
#
# PCOD8240952 Si02
#       6
#     8   8   8   8   8   8
#     4  10  21  37  55  75 101 134 169 204 253 312
#     4  10  21  36  54  76 100 130 173 219 257 295
#     4   9  18  33  52  75 105 138 170 206 253 309
#     4  10  19  31  50  77 106 135 171 213 253 297
#     4   9  18  32  49  71 102 139 174 209 253 300
#     4   9  19  35  55  78 102 131 166 205 253 307
#
# _framework density 17.828661
#
# number of rings (size 3 to 8) (size 9 to 14) (size 15 to 20)
#    0.000    2.500    0.000    3.000    0.000    7.333 
#    0.000    2.500    0.000    3.000    0.000    0.000 
#    0.000    0.000    0.000    0.000    0.000    0.000 
#
# Total GULP energy -595268.962939 kJ/mol
# GULP energy per Si atom -12401.436728 kJ/mol
# Density = 1.778808 g / cm^3
# Si number density = 17.828661 Si / 1000 Ang^3
#
#
#
# Elastic Constant Matrix: (Units=GPa)
#
#
# Indices 1 2 3 4 5 6 
#
# 1 106.4758 59.7908 69.2314 0.0000 0.0000 0.0000
# 2 59.7908 96.9461 62.7337 0.0000 0.0000 0.0000
# 3 69.2314 62.7337 102.2269 0.0000 0.0000 0.0000
# 4 0.0000 0.0000 0.0000 34.9103 0.0000 0.0000
# 5 0.0000 0.0000 0.0000 0.0000 24.0178 0.0000
# 6 0.0000 0.0000 0.0000 0.0000 0.0000 31.8353
#
#
#
# Elastic Compliance Matrix: (Units=1/GPa)
#
#
# Indices 1 2 3 4 5 6 
#
# 1 0.018360 -0.005436 -0.009098 0.000000 0.000000 0.000000
# 2 -0.005436 0.018719 -0.007806 0.000000 0.000000 0.000000
# 3 -0.009098 -0.007806 0.020734 0.000000 0.000000 0.000000
# 4 0.000000 0.000000 0.000000 0.028645 0.000000 0.000000
# 5 0.000000 0.000000 0.000000 0.000000 0.041636 0.000000
# 6 0.000000 0.000000 0.000000 0.000000 0.000000 0.031412
#
#
# Mechanical properties :
#
#
# Convention : Reuss Voigt Hill
#
# Bulk Modulus (GPa) = 76.14436 76.57341 76.35889
# Shear Modulus (GPa) = 23.97370 25.74554 24.85962
#
# Velocity S-wave (km/s) = 3.67095 3.80419 3.73817
# Velocity P-wave (km/s) = 7.79548 7.89549 7.84564
#
# Compressibility (1/GPa) = 0.01313295
#
# Stress axis : x y z
#
# Youngs Moduli (GPa) = 54.46617 53.42256 48.23047
#
# Poissons Ratio (x) = 0.29041 0.43880
# Poissons Ratio (y) = 0.29608 0.37647
# Poissons Ratio (z) = 0.49554 0.41700
#
# Static dielectric constant tensor:
#      x y z
#    x 3.407510 0.000000 0.000000 
#    y 0.000000 3.364730 0.000000 
#    z 0.000000 0.000000 3.131440 
# 
# 
# High freq. dielectric constant tensor:
#      x y z
#    x 1.692760 0.000000 0.000000 
#    y 0.000000 1.697590 0.000000 
#    z 0.000000 0.000000 1.674180 
# 
# From -- ./inp_files/20704.got.cif
#   From: 2010.03.12/outbox.cif.g09.slc.cpg/sg59_11_cif.got.tgz:20704.got - 2010.04.16 16:29:54.
