data_PCOD8240891
_publ_section_title
;
Structure prediction by ZEFSAII (Michael W. Deem and Ramdas Pophale) SiO2 
 PCOD8240891
Probable space group: P M M N
;
_chemical_formula_sum "Si O2"
_cell_formula_units_Z 56
_cell_length_a 13.468108
_cell_length_b 15.669287
_cell_length_c 14.759687
_cell_angle_alpha 90.000000
_cell_angle_beta 90.000000
_cell_angle_gamma 90.000000
_cell_volume 3114.820134
_symmetry_space_group_name_H-M "P M M N"
_symmetry_group_IT_number 59
_space_group.IT_coordinate_system_code '2'
_symmetry_cell_setting 'orthorhombic'
loop_
_space_group_symop_operation_xyz
x,y,z
1/2-x,1/2-y,z
1/2+x,-y,-z
-x,1/2+y,-z
-x,-y,-z
1/2+x,1/2+y,-z
1/2-x,y,z
x,1/2-y,z
loop_
_atom_site_type_symbol
_atom_site_label
_atom_site_fract_x
_atom_site_fract_y
_atom_site_fract_z
Si Si1 0.862731 0.654649 0.940455
Si Si2 0.000798 0.079765 0.203029
Si Si3 0.140439 0.850368 0.646427
Si Si4 0.632396 0.155712 0.550592
Si Si5 0.867175 0.434099 0.729073
Si Si6 0.367142 0.655252 0.088514
Si Si7 0.365765 0.988158 0.947704
O O1 0.750000 0.639804 0.905405
O O2 0.873779 0.750000 0.982260
O O3 0.938952 0.647236 0.857417
O O4 0.887311 0.583067 0.015364
O O5 0.937703 0.129991 0.276463
O O6 0.080955 0.023533 0.254421
O O7 0.926494 0.021500 0.144404
O O8 0.250000 0.887051 0.671904
O O9 0.149609 0.750000 0.634231
O O10 0.105838 0.886111 0.547471
O O11 0.750000 0.162333 0.560691
O O12 0.585216 0.250000 0.559583
O O13 0.590672 0.099743 0.633473
O O14 0.750000 0.450232 0.727755
O O15 0.896375 0.368218 0.808848
O O16 0.250000 0.657925 0.078764
O O17 0.410493 0.750000 0.065061
O O18 0.406690 0.582625 0.019459
O O19 0.250000 0.974072 0.927345
#
# Coordination Sequence:
#
# PCOD8240891 Si02
#       7
#     8   8   8   8   8   8   8
#     4  10  21  37  53  68  96 140 181 212 243 290
#     4  12  21  32  50  77 103 132 167 210 258 298
#     4   9  19  35  53  74 100 129 165 208 255 310
#     4   8  15  31  53  74  99 132 165 201 252 309
#     4  10  19  31  49  74 105 134 165 206 250 300
#     4   9  17  30  49  73 101 130 161 206 260 303
#     4  10  21  37  51  71 102 134 172 215 254 301
#
# _framework density 17.978566000000001
#
# number of rings (size 3 to 8) (size 9 to 14) (size 15 to 20)
#    0.000    2.286    1.429    3.000    0.000    3.429 
#    0.000    2.143    0.000    0.000    0.000    0.000 
#    0.000    3.429    0.000    0.000    0.000    0.000 
#
# Total GULP energy -694120.762931 kJ/mol
# GULP energy per Si atom -12395.013624 kJ/mol
# Density = 1.793765 g / cm^3
# Si number density = 17.978566 Si / 1000 Ang^3
#
#
#
# Elastic Constant Matrix: (Units=GPa)
#
#
# Indices 1 2 3 4 5 6 
#
# 1 54.6280 15.4469 32.9210 0.0000 0.0000 0.0000
# 2 15.4469 91.7899 30.0527 0.0000 0.0000 0.0000
# 3 32.9210 30.0527 104.7170 0.0000 0.0000 0.0000
# 4 0.0000 0.0000 0.0000 111.5023 0.0000 0.0000
# 5 0.0000 0.0000 0.0000 0.0000 20.8775 0.0000
# 6 0.0000 0.0000 0.0000 0.0000 0.0000 0.5713
#
#
#
# Elastic Compliance Matrix: (Units=1/GPa)
#
#
# Indices 1 2 3 4 5 6 
#
# 1 0.022807 -0.001645 -0.006698 0.000000 0.000000 0.000000
# 2 -0.001645 0.012143 -0.002968 0.000000 0.000000 0.000000
# 3 -0.006698 -0.002968 0.012507 0.000000 0.000000 0.000000
# 4 0.000000 0.000000 0.000000 0.008968 0.000000 0.000000
# 5 0.000000 0.000000 0.000000 0.000000 0.047899 0.000000
# 6 0.000000 0.000000 0.000000 0.000000 0.000000 1.750453
#
#
# Mechanical properties :
#
#
# Convention : Reuss Voigt Hill
#
# Bulk Modulus (GPa) = 40.26501 45.33069 42.79785
# Shear Modulus (GPa) = 2.65157 38.10450 20.37803
#
# Velocity S-wave (km/s) = 1.21575 4.60873 3.37035
# Velocity P-wave (km/s) = 4.94120 7.32045 6.24518
#
# Compressibility (1/GPa) = 0.02483546
#
# Stress axis : x y z
#
# Youngs Moduli (GPa) = 43.84562 82.35230 79.95536
#
# Poissons Ratio (x) = 0.13548 0.53554
# Poissons Ratio (y) = 0.07213 0.23728
# Poissons Ratio (z) = 0.29368 0.24440
#
# Static dielectric constant tensor:
#      x y z
#    x 3.285180 0.000000 0.000000 
#    y 0.000000 3.328740 0.000000 
#    z 0.000000 0.000000 3.444330 
# 
# 
# High freq. dielectric constant tensor:
#      x y z
#    x 1.682830 0.000000 0.000000 
#    y 0.000000 1.687350 0.000000 
#    z 0.000000 0.000000 1.691580 
# 
# From -- ./inp_files/22486.got.cif
#   From: 2010.03.12/outbox.cif.g09.slc.cpg/sg59_12_cif.got.tgz:22486.got - 2010.04.16 16:29:54.
