data_PCOD8240180
_publ_section_title
;
Structure prediction by ZEFSAII (Michael W. Deem and Ramdas Pophale) SiO2 
 PCOD8240180
Probable space group: P M M N
;
_chemical_formula_sum "Si O2"
_cell_formula_units_Z 48
_cell_length_a 9.418429
_cell_length_b 12.971126
_cell_length_c 21.060645
_cell_angle_alpha 90.000000
_cell_angle_beta 90.000000
_cell_angle_gamma 90.000000
_cell_volume 2572.929071
_symmetry_space_group_name_H-M "P M M N"
_symmetry_group_IT_number 59
_space_group.IT_coordinate_system_code '2'
_symmetry_cell_setting 'orthorhombic'
loop_
_space_group_symop_operation_xyz
x,y,z
1/2-x,1/2-y,z
1/2+x,-y,-z
-x,1/2+y,-z
-x,-y,-z
1/2+x,1/2+y,-z
1/2-x,y,z
x,1/2-y,z
loop_
_atom_site_type_symbol
_atom_site_label
_atom_site_fract_x
_atom_site_fract_y
_atom_site_fract_z
Si Si1 0.417854 0.525831 0.686251
Si Si2 0.414974 0.947414 0.092557
Si Si3 0.908997 0.548605 0.446742
Si Si4 0.095273 0.250000 0.481506
Si Si5 0.084157 0.132672 0.792048
Si Si6 0.581905 0.250000 0.353092
Si Si7 0.587329 0.367906 0.047394
O O1 0.250000 0.517264 0.688827
O O2 0.477260 0.474555 0.621839
O O3 0.476294 0.455362 0.743841
O O4 0.465064 0.647299 0.686495
O O5 0.250000 0.959666 0.110044
O O6 0.493902 0.878186 0.144195
O O7 0.485201 0.060813 0.089601
O O8 0.437138 0.888039 0.026762
O O9 0.750000 0.502609 0.447924
O O10 0.916901 0.665788 0.464499
O O11 0.000000 0.500000 0.500000
O O12 0.250000 0.250000 0.447583
O O13 0.981919 0.250000 0.424523
O O14 0.250000 0.113982 0.806872
O O15 0.062276 0.250000 0.765794
O O16 0.750000 0.250000 0.363323
O O17 0.750000 0.392195 0.065973
O O18 0.548698 0.250000 0.062800
#
# Coordination Sequence:
#
# PCOD8240180 Si02
#       7
#     8   8   8   4   8   4   8
#     4   9  19  34  53  76 100 134 180 223 265 314
#     4  10  20  35  56  83 115 145 178 222 274 324
#     4  10  19  32  51  76 103 131 168 214 267 320
#     4  10  20  30  48  78 108 132 159 212 275 320
#     4  10  21  37  56  77 105 143 188 229 265 316
#     4  10  18  34  56  74  98 134 177 220 265 324
#     4   9  18  34  57  84 113 146 183 222 264 317
#
# _framework density 18.655778999999999
#
# number of rings (size 3 to 8) (size 9 to 14) (size 15 to 20)
#    0.000    2.333    1.667    1.000    1.167    2.000 
#    1.500    1.667    0.000    0.000    0.000    0.000 
#    0.000    0.000    0.000    0.000    0.000    0.000 
#
# Total GULP energy -594743.549080 kJ/mol
# GULP energy per Si atom -12390.490606 kJ/mol
# Density = 1.861332 g / cm^3
# Si number density = 18.655779 Si / 1000 Ang^3
#
#
#
# Elastic Constant Matrix: (Units=GPa)
#
#
# Indices 1 2 3 4 5 6 
#
# 1 62.6287 41.1185 30.8358 0.0000 0.0000 0.0000
# 2 41.1185 135.7718 42.6963 0.0000 0.0000 0.0000
# 3 30.8358 42.6963 71.8747 0.0000 0.0000 0.0000
# 4 0.0000 0.0000 0.0000 44.6474 0.0000 0.0000
# 5 0.0000 0.0000 0.0000 0.0000 26.3881 0.0000
# 6 0.0000 0.0000 0.0000 0.0000 0.0000 22.3669
#
#
#
# Elastic Compliance Matrix: (Units=1/GPa)
#
#
# Indices 1 2 3 4 5 6 
#
# 1 0.022376 -0.004621 -0.006855 0.000000 0.000000 0.000000
# 2 -0.004621 0.010012 -0.003965 0.000000 0.000000 0.000000
# 3 -0.006855 -0.003965 0.019209 0.000000 0.000000 0.000000
# 4 0.000000 0.000000 0.000000 0.022398 0.000000 0.000000
# 5 0.000000 0.000000 0.000000 0.000000 0.037896 0.000000
# 6 0.000000 0.000000 0.000000 0.000000 0.000000 0.044709
#
#
# Mechanical properties :
#
#
# Convention : Reuss Voigt Hill
#
# Bulk Modulus (GPa) = 48.27244 55.50851 51.89047
# Shear Modulus (GPa) = 25.72209 29.05543 27.38876
#
# Velocity S-wave (km/s) = 3.71721 3.95073 3.83575
# Velocity P-wave (km/s) = 6.65996 7.11546 6.89147
#
# Compressibility (1/GPa) = 0.02071575
#
# Stress axis : x y z
#
# Youngs Moduli (GPa) = 44.69084 99.88460 52.05849
#
# Poissons Ratio (x) = 0.46156 0.35685
# Poissons Ratio (y) = 0.20651 0.20640
# Poissons Ratio (z) = 0.30635 0.39602
#
# Static dielectric constant tensor:
#      x y z
#    x 3.317460 0.000000 0.000000 
#    y 0.000000 3.677190 0.000000 
#    z 0.000000 0.000000 3.271130 
# 
# 
# High freq. dielectric constant tensor:
#      x y z
#    x 1.701440 0.000000 0.000000 
#    y 0.000000 1.742690 0.000000 
#    z 0.000000 0.000000 1.710280 
# 
# From -- ./inp_files/25547.got.cif
#   From: 2010.03.12/outbox.cif.g09.slc.cpg/sg59_13_cif.got.tgz:25547.got - 2010.04.16 16:29:54.
