data_PCOD8240859
_publ_section_title
;
Structure prediction by ZEFSAII (Michael W. Deem and Ramdas Pophale) SiO2 
 PCOD8240859
Probable space group: P M M N
;
_chemical_formula_sum "Si O2"
_cell_formula_units_Z 64
_cell_length_a 24.506728
_cell_length_b 8.894538
_cell_length_c 15.617951
_cell_angle_alpha 90.000000
_cell_angle_beta 90.000000
_cell_angle_gamma 90.000000
_cell_volume 3404.338853
_symmetry_space_group_name_H-M "P M M N"
_symmetry_group_IT_number 59
_space_group.IT_coordinate_system_code '2'
_symmetry_cell_setting 'orthorhombic'
loop_
_space_group_symop_operation_xyz
x,y,z
1/2-x,1/2-y,z
1/2+x,-y,-z
-x,1/2+y,-z
-x,-y,-z
1/2+x,1/2+y,-z
1/2-x,y,z
x,1/2-y,z
loop_
_atom_site_type_symbol
_atom_site_label
_atom_site_fract_x
_atom_site_fract_y
_atom_site_fract_z
Si Si1 0.416931 0.573098 0.449982
Si Si2 0.948988 0.920458 0.038340
Si Si3 0.979835 0.425516 0.379025
Si Si4 0.158818 0.927277 0.015432
Si Si5 0.419081 0.419619 0.771226
Si Si6 0.813293 0.927368 0.626615
Si Si7 0.309167 0.422064 0.850223
Si Si8 0.186463 0.584216 0.201592
O O1 0.411269 0.750000 0.436331
O O2 0.439162 0.530102 0.543919
O O3 0.462008 0.510463 0.383361
O O4 0.356589 0.501055 0.439168
O O5 0.942757 0.750000 0.004524
O O6 0.952526 0.921960 0.140745
O O7 0.901804 0.025884 0.004593
O O8 0.000000 0.000000 0.000000
O O9 0.992863 0.250000 0.379408
O O10 0.949012 0.469123 0.292666
O O11 0.167071 0.750000 0.015503
O O12 0.196669 0.994034 0.940819
O O13 0.173409 0.990695 0.109678
O O14 0.417332 0.250000 0.733336
O O15 0.357259 0.482655 0.788468
O O16 0.750000 0.976999 0.607083
O O17 0.818244 0.750000 0.619210
O O18 0.832940 0.976900 0.721446
O O19 0.250000 0.435367 0.803988
O O20 0.324780 0.250000 0.871863
O O21 0.250000 0.606112 0.209567
O O22 0.158522 0.750000 0.210635
#
# Coordination Sequence:
#
# PCOD8240859 Si02
#       8
#     8   8   8   8   8   8   8   8
#     4  10  21  38  60  83 108 139 172 211 263 319
#     4  10  21  36  52  72 100 136 175 213 258 309
#     4  10  21  37  59  85 108 134 174 220 263 311
#     4  10  19  31  49  73 100 133 174 217 260 306
#     4   9  19  35  54  77 107 141 175 215 265 318
#     4  10  21  36  55  81 111 142 178 219 262 311
#     4   9  18  33  52  74 103 140 179 218 263 314
#     4   9  18  32  49  71 102 138 172 207 251 303
#
# _framework density 18.799538999999999
#
# number of rings (size 3 to 8) (size 9 to 14) (size 15 to 20)
#    0.000    2.375    0.000    3.000    0.000    7.500 
#    0.000    3.125    0.000    2.250    0.000    0.000 
#    0.000    0.000    0.000    0.000    0.000    0.000 
#
# Total GULP energy -793284.262953 kJ/mol
# GULP energy per Si atom -12395.066609 kJ/mol
# Density = 1.875675 g / cm^3
# Si number density = 18.799539 Si / 1000 Ang^3
#
#
#
# Elastic Constant Matrix: (Units=GPa)
#
#
# Indices 1 2 3 4 5 6 
#
# 1 113.1193 34.8322 40.7945 0.0000 0.0000 0.0000
# 2 34.8322 65.2221 29.4135 0.0000 0.0000 0.0000
# 3 40.7945 29.4135 59.7575 0.0000 0.0000 0.0000
# 4 0.0000 0.0000 0.0000 26.9691 0.0000 0.0000
# 5 0.0000 0.0000 0.0000 0.0000 20.0566 0.0000
# 6 0.0000 0.0000 0.0000 0.0000 0.0000 29.5239
#
#
#
# Elastic Compliance Matrix: (Units=1/GPa)
#
#
# Indices 1 2 3 4 5 6 
#
# 1 0.012349 -0.003590 -0.006663 0.000000 0.000000 0.000000
# 2 -0.003590 0.020750 -0.007763 0.000000 0.000000 0.000000
# 3 -0.006663 -0.007763 0.025104 0.000000 0.000000 0.000000
# 4 0.000000 0.000000 0.000000 0.037079 0.000000 0.000000
# 5 0.000000 0.000000 0.000000 0.000000 0.049859 0.000000
# 6 0.000000 0.000000 0.000000 0.000000 0.000000 0.033871
#
#
# Mechanical properties :
#
#
# Convention : Reuss Voigt Hill
#
# Bulk Modulus (GPa) = 45.10353 49.79771 47.45062
# Shear Modulus (GPa) = 22.47861 24.18051 23.32956
#
# Velocity S-wave (km/s) = 3.46164 3.59029 3.52655
# Velocity P-wave (km/s) = 6.32623 6.61311 6.47126
#
# Compressibility (1/GPa) = 0.02217121
#
# Stress axis : x y z
#
# Youngs Moduli (GPa) = 80.98129 48.19203 39.83457
#
# Poissons Ratio (x) = 0.17301 0.26541
# Poissons Ratio (y) = 0.29072 0.30923
# Poissons Ratio (z) = 0.53957 0.37411
#
# Static dielectric constant tensor:
#      x y z
#    x 3.270440 0.000000 0.000000 
#    y 0.000000 3.523220 0.000000 
#    z 0.000000 0.000000 3.436220 
# 
# 
# High freq. dielectric constant tensor:
#      x y z
#    x 1.735710 0.000000 0.000000 
#    y 0.000000 1.732860 0.000000 
#    z 0.000000 0.000000 1.712250 
# 
# From -- ./inp_files/24682.got.cif
#   From: 2010.03.12/outbox.cif.g09.slc.cpg/sg59_13_cif.got.tgz:24682.got - 2010.04.16 16:29:54.
