data_PCOD8240610
_publ_section_title
;
Structure prediction by ZEFSAII (Michael W. Deem and Ramdas Pophale) SiO2 
 PCOD8240610
Probable space group: P M M N
;
_chemical_formula_sum "Si O2"
_cell_formula_units_Z 64
_cell_length_a 22.753034
_cell_length_b 9.088718
_cell_length_c 15.496919
_cell_angle_alpha 90.000000
_cell_angle_beta 90.000000
_cell_angle_gamma 90.000000
_cell_volume 3204.699462
_symmetry_space_group_name_H-M "P M M N"
_symmetry_group_IT_number 59
_space_group.IT_coordinate_system_code '2'
_symmetry_cell_setting 'orthorhombic'
loop_
_space_group_symop_operation_xyz
x,y,z
1/2-x,1/2-y,z
1/2+x,-y,-z
-x,1/2+y,-z
-x,-y,-z
1/2+x,1/2+y,-z
1/2-x,y,z
x,1/2-y,z
loop_
_atom_site_type_symbol
_atom_site_label
_atom_site_fract_x
_atom_site_fract_y
_atom_site_fract_z
Si Si1 0.498282 0.914524 0.762315
Si Si2 0.370815 0.076621 0.271313
Si Si3 0.348345 0.585640 0.096575
Si Si4 0.318573 0.086206 0.599223
Si Si5 0.631837 0.079784 0.243123
Si Si6 0.817501 0.578065 0.078997
Si Si7 0.180314 0.584404 0.434210
Si Si8 0.984719 0.406148 0.921104
O O1 0.507065 0.750000 0.798515
O O2 0.558977 0.957716 0.713912
O O3 0.434877 0.928183 0.715738
O O4 0.486494 0.023739 0.838942
O O5 0.358983 0.250000 0.267230
O O6 0.341650 0.005362 0.185754
O O7 0.338183 0.008850 0.352050
O O8 0.318980 0.750000 0.103534
O O9 0.416130 0.610385 0.083983
O O10 0.322725 0.495502 0.015794
O O11 0.250000 0.102605 0.583391
O O12 0.347110 0.250000 0.602693
O O13 0.327486 0.002003 0.688660
O O14 0.345967 0.994154 0.519598
O O15 0.650770 0.250000 0.233618
O O16 0.640996 0.003763 0.149177
O O17 0.750000 0.562670 0.109261
O O18 0.835532 0.750000 0.072641
O O19 0.250000 0.590613 0.438599
O O20 0.154548 0.750000 0.428860
O O21 0.015839 0.250000 0.932585
O O22 0.000000 0.500000 0.000000
#
# Coordination Sequence:
#
# PCOD8240610 Si02
#       8
#     8   8   8   8   8   8   8   8
#     4   9  20  36  53  77 109 144 183 226 270 323
#     4  10  20  37  60  84 114 150 186 227 276 328
#     4  10  21  36  53  76 106 141 182 224 269 322
#     4  10  21  38  60  86 114 144 183 230 278 331
#     4  11  22  37  58  83 112 147 187 230 279 332
#     4  11  24  39  54  77 110 147 189 235 282 334
#     4  10  21  38  61  88 115 143 179 225 276 330
#     4  10  19  30  48  73 100 133 175 222 267 314
#
# _framework density 19.970673000000001
#
# number of rings (size 3 to 8) (size 9 to 14) (size 15 to 20)
#    0.000    1.875    0.000    3.750    0.000   10.500 
#    0.000    0.625    0.000    0.000    0.000    0.000 
#    0.000    0.000    0.000    0.000    0.000    0.000 
#
# Total GULP energy -792992.551879 kJ/mol
# GULP energy per Si atom -12390.508623 kJ/mol
# Density = 1.992522 g / cm^3
# Si number density = 19.970673 Si / 1000 Ang^3
#
#
#
# Elastic Constant Matrix: (Units=GPa)
#
#
# Indices 1 2 3 4 5 6 
#
# 1 31.1117 7.5431 17.7055 0.0000 0.0000 0.0000
# 2 7.5431 144.2667 68.9626 0.0000 0.0000 0.0000
# 3 17.7055 68.9626 108.2084 0.0000 0.0000 0.0000
# 4 0.0000 0.0000 0.0000 39.6418 0.0000 0.0000
# 5 0.0000 0.0000 0.0000 0.0000 -0.8633 0.0000
# 6 0.0000 0.0000 0.0000 0.0000 0.0000 22.3119
#
#
#
# Elastic Compliance Matrix: (Units=1/GPa)
#
#
# Indices 1 2 3 4 5 6 
#
# 1 0.035619 0.001328 -0.006675 0.000000 0.000000 0.000000
# 2 0.001328 0.010018 -0.006602 0.000000 0.000000 0.000000
# 3 -0.006675 -0.006602 0.014541 0.000000 0.000000 0.000000
# 4 0.000000 0.000000 0.000000 0.025226 0.000000 0.000000
# 5 0.000000 0.000000 0.000000 0.000000 -1.158406 0.000000
# 6 0.000000 0.000000 0.000000 0.000000 0.000000 0.044819
#
#
# Mechanical properties :
#
#
# Convention : Reuss Voigt Hill
#
# Bulk Modulus (GPa) = 27.56247 52.44546 40.00397
# Shear Modulus (GPa) = -5.03934 24.84312 9.90189
#
# Velocity S-wave (km/s) = -1.59024 3.53084 2.22912
# Velocity P-wave (km/s) = 3.23414 6.55291 5.16722
#
# Compressibility (1/GPa) = 0.03628122
#
# Stress axis : x y z
#
# Youngs Moduli (GPa) = 28.07511 99.81990 68.77072
#
# Poissons Ratio (x) = -0.13258 0.45902
# Poissons Ratio (y) = -0.03729 0.45402
# Poissons Ratio (z) = 0.18739 0.65901
#
# Static dielectric constant tensor:
#      x y z
#    x 3.574090 0.000000 0.000000 
#    y 0.000000 4.388450 0.000000 
#    z 0.000000 0.000000 3.437650 
# 
# 
# High freq. dielectric constant tensor:
#      x y z
#    x 1.768880 0.000000 0.000000 
#    y 0.000000 1.804430 0.000000 
#    z 0.000000 0.000000 1.765380 
# 
# From -- ./inp_files/24677.got.cif
#   From: 2010.03.12/outbox.cif.g09.slc.cpg/sg59_13_cif.got.tgz:24677.got - 2010.04.16 16:29:54.
