data_PCOD8240320
_publ_section_title
;
Structure prediction by ZEFSAII (Michael W. Deem and Ramdas Pophale) SiO2 
 PCOD8240320
Probable space group: P M M N
;
_chemical_formula_sum "Si O2"
_cell_formula_units_Z 56
_cell_length_a 9.249007
_cell_length_b 18.352994
_cell_length_c 20.661455
_cell_angle_alpha 90.000000
_cell_angle_beta 90.000000
_cell_angle_gamma 90.000000
_cell_volume 3507.219382
_symmetry_space_group_name_H-M "P M M N"
_symmetry_group_IT_number 59
_space_group.IT_coordinate_system_code '2'
_symmetry_cell_setting 'orthorhombic'
loop_
_space_group_symop_operation_xyz
x,y,z
1/2-x,1/2-y,z
1/2+x,-y,-z
-x,1/2+y,-z
-x,-y,-z
1/2+x,1/2+y,-z
1/2-x,y,z
x,1/2-y,z
loop_
_atom_site_type_symbol
_atom_site_label
_atom_site_fract_x
_atom_site_fract_y
_atom_site_fract_z
Si Si1 0.083571 0.541341 0.555681
Si Si2 0.418487 0.166357 0.491774
Si Si3 0.580281 0.166204 0.012573
Si Si4 0.078466 0.833306 0.255015
Si Si5 0.418431 0.039247 0.057738
Si Si6 0.585706 0.902660 0.371249
Si Si7 0.583026 0.396632 0.877449
O O1 0.250000 0.551738 0.535885
O O2 0.070956 0.490443 0.619389
O O3 0.000000 0.500000 0.500000
O O4 0.008157 0.620567 0.562308
O O5 0.250000 0.152901 0.479027
O O6 0.462350 0.250000 0.483519
O O7 0.460668 0.140233 0.563814
O O8 0.750000 0.149046 0.018501
O O9 0.545378 0.250000 0.026568
O O10 0.520490 0.144067 0.941227
O O11 0.494710 0.118109 0.066638
O O12 0.250000 0.840410 0.256537
O O13 0.027897 0.750000 0.261443
O O14 0.011924 0.865907 0.188238
O O15 0.018204 0.879864 0.313891
O O16 0.250000 0.049825 0.041371
O O17 0.438011 0.984770 0.119078
O O18 0.500000 0.000000 0.000000
O O19 0.750000 0.881809 0.353442
O O20 0.750000 0.375327 0.875242
#
# Coordination Sequence:
#
# PCOD8240320 Si02
#       7
#     8   8   8   8   8   8   8
#     4   9  17  29  44  61  83 112 144 176 211 252
#     4   9  17  29  45  65  89 114 138 170 214 258
#     4   9  16  27  44  64  87 114 140 171 215 260
#     4  10  19  29  43  63  84 110 147 181 203 235
#     4   9  16  27  43  61  83 111 142 176 214 255
#     4   9  18  31  43  58  86 119 143 167 206 251
#     4   8  15  28  43  59  83 115 145 172 206 247
#
# _framework density 15.967065
#
# number of rings (size 3 to 8) (size 9 to 14) (size 15 to 20)
#    0.000    3.000    0.000    3.429    0.000    6.000 
#    0.000    3.571    0.000    3.429    0.000    1.000 
#    0.000    1.143    0.000    0.000    0.000    0.000 
#
# Total GULP energy -693912.461933 kJ/mol
# GULP energy per Si atom -12391.293963 kJ/mol
# Density = 1.593072 g / cm^3
# Si number density = 15.967065 Si / 1000 Ang^3
#
#
#
# Elastic Constant Matrix: (Units=GPa)
#
#
# Indices 1 2 3 4 5 6 
#
# 1 58.4630 49.7909 23.8306 0.0000 0.0000 0.0000
# 2 49.7909 125.9080 37.0946 0.0000 0.0000 0.0000
# 3 23.8306 37.0946 47.4609 0.0000 0.0000 0.0000
# 4 0.0000 0.0000 0.0000 23.6000 0.0000 0.0000
# 5 0.0000 0.0000 0.0000 0.0000 18.0933 0.0000
# 6 0.0000 0.0000 0.0000 0.0000 0.0000 30.7185
#
#
#
# Elastic Compliance Matrix: (Units=1/GPa)
#
#
# Indices 1 2 3 4 5 6 
#
# 1 0.027416 -0.008816 -0.006875 0.000000 0.000000 0.000000
# 2 -0.008816 0.013153 -0.005854 0.000000 0.000000 0.000000
# 3 -0.006875 -0.005854 0.029097 0.000000 0.000000 0.000000
# 4 0.000000 0.000000 0.000000 0.042373 0.000000 0.000000
# 5 0.000000 0.000000 0.000000 0.000000 0.055269 0.000000
# 6 0.000000 0.000000 0.000000 0.000000 0.000000 0.032554
#
#
# Mechanical properties :
#
#
# Convention : Reuss Voigt Hill
#
# Bulk Modulus (GPa) = 37.62764 50.36268 43.99516
# Shear Modulus (GPa) = 19.85621 22.55675 21.20648
#
# Velocity S-wave (km/s) = 3.53026 3.76267 3.64832
# Velocity P-wave (km/s) = 6.34302 7.10542 6.73502
#
# Compressibility (1/GPa) = 0.02657621
#
# Stress axis : x y z
#
# Youngs Moduli (GPa) = 36.47552 76.02652 34.36753
#
# Poissons Ratio (x) = 0.67026 0.23628
# Poissons Ratio (y) = 0.32157 0.20118
# Poissons Ratio (z) = 0.25077 0.44504
#
# Static dielectric constant tensor:
#      x y z
#    x 3.043610 0.000000 0.000000 
#    y 0.000000 3.671350 0.000000 
#    z 0.000000 0.000000 2.863040 
# 
# 
# High freq. dielectric constant tensor:
#      x y z
#    x 1.606920 0.000000 0.000000 
#    y 0.000000 1.623560 0.000000 
#    z 0.000000 0.000000 1.565650 
# 
# From -- ./inp_files/29295.got.cif
#   From: 2010.03.12/outbox.cif.g09.slc.cpg/sg59_15_cif.got.tgz:29295.got - 2010.04.16 16:29:54.
