data_PCOD8240204
_publ_section_title
;
Structure prediction by ZEFSAII (Michael W. Deem and Ramdas Pophale) SiO2 
 PCOD8240204
Probable space group: P M M N
;
_chemical_formula_sum "Si O2"
_cell_formula_units_Z 48
_cell_length_a 8.877744
_cell_length_b 17.825460
_cell_length_c 15.969802
_cell_angle_alpha 90.000000
_cell_angle_beta 90.000000
_cell_angle_gamma 90.000000
_cell_volume 2527.219099
_symmetry_space_group_name_H-M "P M M N"
_symmetry_group_IT_number 59
_space_group.IT_coordinate_system_code '2'
_symmetry_cell_setting 'orthorhombic'
loop_
_space_group_symop_operation_xyz
x,y,z
1/2-x,1/2-y,z
1/2+x,-y,-z
-x,1/2+y,-z
-x,-y,-z
1/2+x,1/2+y,-z
1/2-x,y,z
x,1/2-y,z
loop_
_atom_site_type_symbol
_atom_site_label
_atom_site_fract_x
_atom_site_fract_y
_atom_site_fract_z
Si Si1 0.428025 0.956240 0.185707
Si Si2 0.570818 0.889098 0.891601
Si Si3 0.428905 0.250000 0.215464
Si Si4 0.428512 0.163943 0.928147
Si Si5 0.421012 0.385376 0.476321
Si Si6 0.575341 0.250000 0.394240
Si Si7 0.421690 0.535719 0.377733
O O1 0.250000 0.951360 0.175585
O O2 0.500868 0.881614 0.148261
O O3 0.476023 0.960918 0.282282
O O4 0.491269 0.030267 0.138498
O O5 0.750000 0.888031 0.888349
O O6 0.507726 0.824063 0.830720
O O7 0.512967 0.872542 0.985247
O O8 0.250000 0.250000 0.212834
O O9 0.479186 0.250000 0.310450
O O10 0.250000 0.159405 0.922551
O O11 0.483060 0.250000 0.922803
O O12 0.250000 0.355233 0.480386
O O13 0.535714 0.321618 0.449470
O O14 0.435435 0.450556 0.408014
O O15 0.468121 0.412317 0.568508
O O16 0.750000 0.250000 0.371437
O O17 0.250000 0.564105 0.387630
#
# Coordination Sequence:
#
# PCOD8240204 Si02
#       7
#     8   8   4   8   8   4   8
#     4  10  20  34  55  83 111 144 184 225 276 336
#     4   9  17  33  58  83 108 143 187 230 275 329
#     4  10  18  34  60  83 108 145 186 229 276 335
#     4  10  20  36  55  78 109 148 191 234 275 317
#     4  10  20  37  61  83 108 146 188 227 274 337
#     4  12  24  36  52  83 120 147 176 225 282 331
#     4   9  19  37  58  83 112 143 182 232 284 332
#
# _framework density 18.993209
#
# number of rings (size 3 to 8) (size 9 to 14) (size 15 to 20)
#    0.000    2.167    0.833    2.750    0.000    4.333 
#    1.500    3.333    0.000    0.000    0.000    0.000 
#    0.000    0.000    0.000    0.000    0.000    0.000 
#
# Total GULP energy -595328.821577 kJ/mol
# GULP energy per Si atom -12402.683783 kJ/mol
# Density = 1.894998 g / cm^3
# Si number density = 18.993209 Si / 1000 Ang^3
#
#
#
# Elastic Constant Matrix: (Units=GPa)
#
#
# Indices 1 2 3 4 5 6 
#
# 1 29.9764 22.1003 27.3482 0.0000 0.0000 0.0000
# 2 22.1003 108.7102 76.3857 0.0000 0.0000 0.0000
# 3 27.3482 76.3857 142.8584 0.0000 0.0000 0.0000
# 4 0.0000 0.0000 0.0000 29.4025 0.0000 0.0000
# 5 0.0000 0.0000 0.0000 0.0000 17.3410 0.0000
# 6 0.0000 0.0000 0.0000 0.0000 0.0000 26.0579
#
#
#
# Elastic Compliance Matrix: (Units=1/GPa)
#
#
# Indices 1 2 3 4 5 6 
#
# 1 0.041811 -0.004607 -0.005541 0.000000 0.000000 0.000000
# 2 -0.004607 0.015242 -0.007268 0.000000 0.000000 0.000000
# 3 -0.005541 -0.007268 0.011947 0.000000 0.000000 0.000000
# 4 0.000000 0.000000 0.000000 0.034011 0.000000 0.000000
# 5 0.000000 0.000000 0.000000 0.000000 0.057667 0.000000
# 6 0.000000 0.000000 0.000000 0.000000 0.000000 0.038376
#
#
# Mechanical properties :
#
#
# Convention : Reuss Voigt Hill
#
# Bulk Modulus (GPa) = 29.26646 59.24594 44.25620
# Shear Modulus (GPa) = 20.38532 24.94101 22.66316
#
# Velocity S-wave (km/s) = 3.27967 3.62768 3.45806
# Velocity P-wave (km/s) = 5.45747 6.98625 6.26864
#
# Compressibility (1/GPa) = 0.03416881
#
# Stress axis : x y z
#
# Youngs Moduli (GPa) = 23.91713 65.60730 83.70374
#
# Poissons Ratio (x) = 0.30222 0.46380
# Poissons Ratio (y) = 0.11018 0.60836
# Poissons Ratio (z) = 0.13253 0.47684
#
# Static dielectric constant tensor:
#      x y z
#    x 3.192930 0.000000 0.000000 
#    y 0.000000 3.592180 0.000000 
#    z 0.000000 0.000000 3.515370 
# 
# 
# High freq. dielectric constant tensor:
#      x y z
#    x 1.713040 0.000000 0.000000 
#    y 0.000000 1.743290 0.000000 
#    z 0.000000 0.000000 1.746530 
# 
# From -- ./inp_files/20539.got.cif
#   From: 2010.03.12/outbox.cif.g09.slc.cpg/sg59_11_cif.got.tgz:20539.got - 2010.04.16 16:29:54.
