data_PCOD8240853
_publ_section_title
;
Structure prediction by ZEFSAII (Michael W. Deem and Ramdas Pophale) SiO2 
 PCOD8240853
Probable space group: P M M N
;
_chemical_formula_sum "Si O2"
_cell_formula_units_Z 64
_cell_length_a 19.408007
_cell_length_b 9.484371
_cell_length_c 19.890270
_cell_angle_alpha 90.000000
_cell_angle_beta 90.000000
_cell_angle_gamma 90.000000
_cell_volume 3661.256474
_symmetry_space_group_name_H-M "P M M N"
_symmetry_group_IT_number 59
_space_group.IT_coordinate_system_code '2'
_symmetry_cell_setting 'orthorhombic'
loop_
_space_group_symop_operation_xyz
x,y,z
1/2-x,1/2-y,z
1/2+x,-y,-z
-x,1/2+y,-z
-x,-y,-z
1/2+x,1/2+y,-z
1/2-x,y,z
x,1/2-y,z
loop_
_atom_site_type_symbol
_atom_site_label
_atom_site_fract_x
_atom_site_fract_y
_atom_site_fract_z
Si Si1 0.672928 0.582158 0.109980
Si Si2 0.670774 0.413484 0.838697
Si Si3 0.064790 0.913398 0.275330
Si Si4 0.671823 0.088025 0.340644
Si Si5 0.092899 0.590470 0.530246
Si Si6 0.587725 0.585900 0.235913
Si Si7 0.168086 0.093353 0.037000
Si Si8 0.555078 0.914174 0.590537
O O1 0.750000 0.523655 0.125592
O O2 0.675509 0.750000 0.108582
O O3 0.620198 0.526324 0.166589
O O4 0.646355 0.531583 0.036339
O O5 0.750000 0.454237 0.823908
O O6 0.662563 0.250000 0.855313
O O7 0.626863 0.456013 0.773755
O O8 0.640532 0.494156 0.903571
O O9 0.069122 0.750000 0.297509
O O10 0.993669 0.943017 0.235963
O O11 0.072738 0.011116 0.339874
O O12 0.750000 0.042417 0.326631
O O13 0.658643 0.250000 0.320293
O O14 0.656891 0.067127 0.419843
O O15 0.621225 0.991422 0.298621
O O16 0.090783 0.750000 0.501895
O O17 0.101145 0.483531 0.468314
O O18 0.024503 0.559283 0.573510
O O19 0.604863 0.750000 0.243911
O O20 0.250000 0.099626 0.038335
O O21 0.137491 0.250000 0.048177
O O22 0.573691 0.750000 0.596091
#
# Coordination Sequence:
#
# PCOD8240853 Si02
#       8
#     8   8   8   8   8   8   8   8
#     4   8  14  26  45  69  96 126 160 197 238 286
#     4   9  18  33  51  70  94 125 162 204 251 303
#     4  10  20  33  50  73  99 129 163 203 250 298
#     4  10  20  34  51  73 104 137 165 197 240 289
#     4   9  18  33  51  72  97 126 161 198 236 283
#     4  10  19  31  49  72  99 131 168 206 242 286
#     4   8  14  27  48  70  91 120 160 201 241 290
#     4  10  19  32  53  75  95 124 161 202 242 284
#
# _framework density 17.480338
#
# number of rings (size 3 to 8) (size 9 to 14) (size 15 to 20)
#    0.000    2.750    1.250    1.500    0.000    2.250 
#    0.000    1.875    0.000    6.000    0.000    0.000 
#    0.000    0.000    0.000    0.000    0.000    0.000 
#
# Total GULP energy -793487.671036 kJ/mol
# GULP energy per Si atom -12398.244860 kJ/mol
# Density = 1.744055 g / cm^3
# Si number density = 17.480338 Si / 1000 Ang^3
#
#
#
# Elastic Constant Matrix: (Units=GPa)
#
#
# Indices 1 2 3 4 5 6 
#
# 1 66.5304 34.0851 48.3962 0.0000 0.0000 0.0000
# 2 34.0851 69.0163 66.1446 0.0000 0.0000 0.0000
# 3 48.3962 66.1446 142.4058 0.0000 0.0000 0.0000
# 4 0.0000 0.0000 0.0000 31.1774 0.0000 0.0000
# 5 0.0000 0.0000 0.0000 0.0000 23.9025 0.0000
# 6 0.0000 0.0000 0.0000 0.0000 0.0000 13.5654
#
#
#
# Elastic Compliance Matrix: (Units=1/GPa)
#
#
# Indices 1 2 3 4 5 6 
#
# 1 0.021475 -0.006509 -0.004275 0.000000 0.000000 0.000000
# 2 -0.006509 0.028087 -0.010834 0.000000 0.000000 0.000000
# 3 -0.004275 -0.010834 0.013507 0.000000 0.000000 0.000000
# 4 0.000000 0.000000 0.000000 0.032074 0.000000 0.000000
# 5 0.000000 0.000000 0.000000 0.000000 0.041837 0.000000
# 6 0.000000 0.000000 0.000000 0.000000 0.000000 0.073717
#
#
# Mechanical properties :
#
#
# Convention : Reuss Voigt Hill
#
# Bulk Modulus (GPa) = 50.41881 63.91160 57.16520
# Shear Modulus (GPa) = 19.19066 22.35085 20.77076
#
# Velocity S-wave (km/s) = 3.31697 3.57967 3.45082
# Velocity P-wave (km/s) = 6.60117 7.32985 6.97503
#
# Compressibility (1/GPa) = 0.01983387
#
# Stress axis : x y z
#
# Youngs Moduli (GPa) = 46.56548 35.60390 74.03495
#
# Poissons Ratio (x) = 0.23174 0.31650
# Poissons Ratio (y) = 0.30308 0.80208
# Poissons Ratio (z) = 0.19907 0.38573
#
# Static dielectric constant tensor:
#      x y z
#    x 3.127580 0.000000 0.000000 
#    y 0.000000 3.208720 0.000000 
#    z 0.000000 0.000000 3.404630 
# 
# 
# High freq. dielectric constant tensor:
#      x y z
#    x 1.650650 0.000000 0.000000 
#    y 0.000000 1.662010 0.000000 
#    z 0.000000 0.000000 1.682320 
# 
# From -- ./inp_files/28244.got.cif
#   From: 2010.03.12/outbox.cif.g09.slc.cpg/sg59_15_cif.got.tgz:28244.got - 2010.04.16 16:29:54.
