data_PCOD8240994
_publ_section_title
;
Structure prediction by ZEFSAII (Michael W. Deem and Ramdas Pophale) SiO2 
 PCOD8240994
Probable space group: P M M N
;
_chemical_formula_sum "Si O2"
_cell_formula_units_Z 64
_cell_length_a 15.505571
_cell_length_b 21.967004
_cell_length_c 10.212623
_cell_angle_alpha 90.000000
_cell_angle_beta 90.000000
_cell_angle_gamma 90.000000
_cell_volume 3478.531122
_symmetry_space_group_name_H-M "P M M N"
_symmetry_group_IT_number 59
_space_group.IT_coordinate_system_code '2'
_symmetry_cell_setting 'orthorhombic'
loop_
_space_group_symop_operation_xyz
x,y,z
1/2-x,1/2-y,z
1/2+x,-y,-z
-x,1/2+y,-z
-x,-y,-z
1/2+x,1/2+y,-z
1/2-x,y,z
x,1/2-y,z
loop_
_atom_site_type_symbol
_atom_site_label
_atom_site_fract_x
_atom_site_fract_y
_atom_site_fract_z
Si Si1 0.842925 0.122981 0.268782
Si Si2 0.151841 0.621182 0.033024
Si Si3 0.148931 0.415457 0.885521
Si Si4 0.601705 0.501463 0.354882
Si Si5 0.018190 0.319209 0.277298
Si Si6 0.347303 0.494421 0.119301
Si Si7 0.977593 0.681559 0.028090
Si Si8 0.418685 0.443672 0.369444
O O1 0.750000 0.154384 0.293832
O O2 0.916026 0.172046 0.303770
O O3 0.846538 0.061991 0.356932
O O4 0.851279 0.101546 0.118668
O O5 0.250000 0.643041 0.070675
O O6 0.117837 0.563517 0.117699
O O7 0.079340 0.671881 0.061170
O O8 0.250000 0.397386 0.901361
O O9 0.136512 0.454096 0.755376
O O10 0.088407 0.356082 0.881445
O O11 0.108971 0.452522 0.008833
O O12 0.502813 0.482799 0.331870
O O13 0.616396 0.537980 0.489226
O O14 0.043296 0.250000 0.319714
O O15 0.067913 0.370331 0.362853
O O16 0.040189 0.330649 0.125590
O O17 0.250000 0.500755 0.070967
O O18 0.349983 0.463659 0.261124
O O19 0.956184 0.750000 0.065063
#
# Coordination Sequence:
#
# PCOD8240994 Si02
#       8
#     8   8   8   8   8   8   8   8
#     4   9  16  28  48  76 107 134 164 207 260 319
#     4   9  17  30  51  80 110 137 169 212 266 329
#     4  11  21  34  54  78 104 139 181 222 266 313
#     4  10  20  32  52  78 105 138 170 214 277 322
#     4   9  18  32  50  72 101 138 177 213 254 309
#     4  10  19  31  51  78 104 133 170 212 263 317
#     4  10  20  33  52  76 103 142 182 219 264 309
#     4  10  20  34  51  77 107 136 174 217 265 320
#
# _framework density 18.398568999999998
#
# number of rings (size 3 to 8) (size 9 to 14) (size 15 to 20)
#    0.000    2.250    2.500    1.125    0.000    2.750 
#    0.000    3.125    0.000    0.375    0.000    0.000 
#    0.000    6.000    0.000    0.000    0.000    0.000 
#
# Total GULP energy -793182.134481 kJ/mol
# GULP energy per Si atom -12393.470851 kJ/mol
# Density = 1.835669 g / cm^3
# Si number density = 18.398569 Si / 1000 Ang^3
#
#
#
# Elastic Constant Matrix: (Units=GPa)
#
#
# Indices 1 2 3 4 5 6 
#
# 1 54.5645 15.2293 10.8889 0.0000 0.0000 0.0000
# 2 15.2293 89.0663 31.0621 0.0000 0.0000 0.0000
# 3 10.8889 31.0621 66.7961 0.0000 0.0000 0.0000
# 4 0.0000 0.0000 0.0000 21.5431 0.0000 0.0000
# 5 0.0000 0.0000 0.0000 0.0000 17.8918 0.0000
# 6 0.0000 0.0000 0.0000 0.0000 0.0000 18.8564
#
#
#
# Elastic Compliance Matrix: (Units=1/GPa)
#
#
# Indices 1 2 3 4 5 6 
#
# 1 0.019454 -0.002650 -0.001939 0.000000 0.000000 0.000000
# 2 -0.002650 0.013762 -0.005968 0.000000 0.000000 0.000000
# 3 -0.001939 -0.005968 0.018062 0.000000 0.000000 0.000000
# 4 0.000000 0.000000 0.000000 0.046419 0.000000 0.000000
# 5 0.000000 0.000000 0.000000 0.000000 0.055892 0.000000
# 6 0.000000 0.000000 0.000000 0.000000 0.000000 0.053033
#
#
# Mechanical properties :
#
#
# Convention : Reuss Voigt Hill
#
# Bulk Modulus (GPa) = 33.15185 36.08752 34.61969
# Shear Modulus (GPa) = 21.02709 21.87468 21.45088
#
# Velocity S-wave (km/s) = 3.38430 3.45183 3.41823
# Velocity P-wave (km/s) = 5.77314 5.96186 5.86826
#
# Compressibility (1/GPa) = 0.03016423
#
# Stress axis : x y z
#
# Youngs Moduli (GPa) = 51.40460 72.66391 55.36437
#
# Poissons Ratio (x) = 0.19257 0.10734
# Poissons Ratio (y) = 0.13623 0.33040
# Poissons Ratio (z) = 0.09967 0.43364
#
# Static dielectric constant tensor:
#      x y z
#    x 3.389820 0.000000 0.000000 
#    y 0.000000 3.313720 0.000000 
#    z 0.000000 0.000000 3.067150 
# 
# 
# High freq. dielectric constant tensor:
#      x y z
#    x 1.713640 0.000000 0.000000 
#    y 0.000000 1.704010 0.000000 
#    z 0.000000 0.000000 1.679250 
# 
# From -- ./inp_files/10662.got.cif
#   From: 2010.03.12/outbox.cif.g09.slc.cpg/sg59_6_cif.got.tgz:10662.got - 2010.04.16 16:29:54.
