data_PCOD8240991
_publ_section_title
;
Structure prediction by ZEFSAII (Michael W. Deem and Ramdas Pophale) SiO2 
 PCOD8240991
Probable space group: P M M N
;
_chemical_formula_sum "Si O2"
_cell_formula_units_Z 40
_cell_length_a 20.728142
_cell_length_b 8.816351
_cell_length_c 12.431671
_cell_angle_alpha 90.000000
_cell_angle_beta 90.000000
_cell_angle_gamma 90.000000
_cell_volume 2271.845302
_symmetry_space_group_name_H-M "P M M N"
_symmetry_group_IT_number 59
_space_group.IT_coordinate_system_code '2'
_symmetry_cell_setting 'orthorhombic'
loop_
_space_group_symop_operation_xyz
x,y,z
1/2-x,1/2-y,z
1/2+x,-y,-z
-x,1/2+y,-z
-x,-y,-z
1/2+x,1/2+y,-z
1/2-x,y,z
x,1/2-y,z
loop_
_atom_site_type_symbol
_atom_site_label
_atom_site_fract_x
_atom_site_fract_y
_atom_site_fract_z
Si Si1 0.542749 0.574704 0.145952
Si Si2 0.089191 0.424699 0.083763
Si Si3 0.911339 0.573358 0.572150
Si Si4 0.325244 0.925937 0.250346
Si Si5 0.055805 0.573497 0.640644
O O1 0.522687 0.750000 0.157377
O O2 0.479142 0.474919 0.131210
O O3 0.578900 0.515948 0.252741
O O4 0.590650 0.551483 0.044931
O O5 0.099037 0.250000 0.115903
O O6 0.146322 0.522374 0.135564
O O7 0.903826 0.750000 0.548386
O O8 0.856472 0.520210 0.653286
O O9 0.902525 0.485011 0.459945
O O10 0.980648 0.535241 0.622877
O O11 0.250000 0.961144 0.249179
O O12 0.340321 0.750000 0.268347
O O13 0.069027 0.750000 0.656501
#
# Coordination Sequence:
#
# PCOD8240991 Si02
#       5
#     8   8   8   8   8
#     4  10  19  31  51  77 108 138 168 214 264 312
#     4  10  20  33  50  76 105 138 176 212 259 310
#     4  10  20  33  51  76 105 138 175 213 260 310
#     4  11  23  37  54  76 105 141 178 217 259 305
#     4  10  19  31  51  78 108 138 169 212 264 314
#
# _framework density 17.606833000000002
#
# number of rings (size 3 to 8) (size 9 to 14) (size 15 to 20)
#    0.000    1.800    2.000    3.000    0.000    5.600 
#    0.000    0.000    0.000    1.200    0.000    5.600 
#    0.000    0.000    0.000    0.000    0.000    0.000 
#
# Total GULP energy -496151.940699 kJ/mol
# GULP energy per Si atom -12403.798517 kJ/mol
# Density = 1.756676 g / cm^3
# Si number density = 17.606833 Si / 1000 Ang^3
#
#
#
# Elastic Constant Matrix: (Units=GPa)
#
#
# Indices 1 2 3 4 5 6 
#
# 1 58.7685 22.0709 29.0923 0.0000 0.0000 0.0000
# 2 22.0709 55.8392 37.0583 0.0000 0.0000 0.0000
# 3 29.0923 37.0583 130.7248 0.0000 0.0000 0.0000
# 4 0.0000 0.0000 0.0000 36.0501 0.0000 0.0000
# 5 0.0000 0.0000 0.0000 0.0000 21.4386 0.0000
# 6 0.0000 0.0000 0.0000 0.0000 0.0000 23.2684
#
#
#
# Elastic Compliance Matrix: (Units=1/GPa)
#
#
# Indices 1 2 3 4 5 6 
#
# 1 0.020799 -0.006342 -0.002831 0.000000 0.000000 0.000000
# 2 -0.006342 0.023993 -0.005390 0.000000 0.000000 0.000000
# 3 -0.002831 -0.005390 0.009808 0.000000 0.000000 0.000000
# 4 0.000000 0.000000 0.000000 0.027739 0.000000 0.000000
# 5 0.000000 0.000000 0.000000 0.000000 0.046645 0.000000
# 6 0.000000 0.000000 0.000000 0.000000 0.000000 0.042977
#
#
# Mechanical properties :
#
#
# Convention : Reuss Voigt Hill
#
# Bulk Modulus (GPa) = 39.25727 46.86394 43.06060
# Shear Modulus (GPa) = 23.85754 26.62551 25.24153
#
# Velocity S-wave (km/s) = 3.68505 3.89295 3.79043
# Velocity P-wave (km/s) = 6.36012 6.84700 6.60805
#
# Compressibility (1/GPa) = 0.02547299
#
# Stress axis : x y z
#
# Youngs Moduli (GPa) = 48.07880 41.67959 101.96151
#
# Poissons Ratio (x) = 0.26435 0.28864
# Poissons Ratio (y) = 0.30493 0.54957
# Poissons Ratio (z) = 0.13610 0.22465
#
# Static dielectric constant tensor:
#      x y z
#    x 2.847720 0.000000 0.000000 
#    y 0.000000 3.381650 0.000000 
#    z 0.000000 0.000000 3.558540 
# 
# 
# High freq. dielectric constant tensor:
#      x y z
#    x 1.625140 0.000000 0.000000 
#    y 0.000000 1.701410 0.000000 
#    z 0.000000 0.000000 1.698010 
# 
# From -- ./inp_files/13874.got.cif
#   From: 2010.03.12/outbox.cif.g09.slc.cpg/sg59_7_cif.got.tgz:13874.got - 2010.04.16 16:29:54.
