data_PCOD8240252
_publ_section_title
;
Structure prediction by ZEFSAII (Michael W. Deem and Ramdas Pophale) SiO2 
 PCOD8240252
Probable space group: P M M N
;
_chemical_formula_sum "Si O2"
_cell_formula_units_Z 64
_cell_length_a 9.602698
_cell_length_b 24.944827
_cell_length_c 18.286988
_cell_angle_alpha 90.000000
_cell_angle_beta 90.000000
_cell_angle_gamma 90.000000
_cell_volume 4380.421955
_symmetry_space_group_name_H-M "P M M N"
_symmetry_group_IT_number 59
_space_group.IT_coordinate_system_code '2'
_symmetry_cell_setting 'orthorhombic'
loop_
_space_group_symop_operation_xyz
x,y,z
1/2-x,1/2-y,z
1/2+x,-y,-z
-x,1/2+y,-z
-x,-y,-z
1/2+x,1/2+y,-z
1/2-x,y,z
x,1/2-y,z
loop_
_atom_site_type_symbol
_atom_site_label
_atom_site_fract_x
_atom_site_fract_y
_atom_site_fract_z
Si Si1 0.903341 0.457051 0.407087
Si Si2 0.588218 0.419642 0.000970
Si Si3 0.588015 0.884114 0.322679
Si Si4 0.584801 0.309018 0.934603
Si Si5 0.412158 0.001860 0.745623
Si Si6 0.095859 0.811921 0.227672
Si Si7 0.912794 0.987288 0.889387
Si Si8 0.595805 0.574656 0.474090
O O1 0.750000 0.431232 0.408365
O O2 0.951806 0.463702 0.322994
O O3 0.898927 0.514007 0.446507
O O4 0.003717 0.417939 0.452993
O O5 0.750000 0.422283 0.026031
O O6 0.539309 0.358215 0.986456
O O7 0.567815 0.454922 0.927702
O O8 0.487586 0.441158 0.063755
O O9 0.750000 0.869920 0.321337
O O10 0.558732 0.937223 0.276168
O O11 0.503094 0.836148 0.288429
O O12 0.537029 0.890315 0.406684
O O13 0.750000 0.306969 0.928982
O O14 0.531227 0.250000 0.962673
O O15 0.528736 0.320395 0.852821
O O16 0.250000 0.994026 0.767657
O O17 0.514193 0.987095 0.811144
O O18 0.250000 0.838435 0.231885
O O19 0.108149 0.750000 0.245879
O O20 0.750000 0.973022 0.880905
O O21 0.750000 0.593820 0.495599
#
# Coordination Sequence:
#
# PCOD8240252 Si02
#       8
#     8   8   8   8   8   8   8   8
#     4   8  14  24  37  53  74 100 128 157 188 222
#     4   9  17  29  43  58  79 106 134 167 205 242
#     4   9  17  27  39  56  79 107 136 165 197 235
#     4   8  14  26  44  62  78 100 133 170 205 241
#     4   9  17  28  40  56  80 107 134 165 200 235
#     4   9  17  28  41  58  80 104 132 168 203 232
#     4  10  19  28  40  59  81 108 140 168 198 241
#     4   8  14  24  36  52  75 101 128 157 188 220
#
# _framework density 14.610464
#
# number of rings (size 3 to 8) (size 9 to 14) (size 15 to 20)
#    0.000    3.250    0.000    3.375    0.000    3.250 
#    0.000    3.125    0.000    1.125    0.000    0.000 
#    0.000    1.000    0.000    9.000    0.000    5.625 
#
# Total GULP energy -793102.281148 kJ/mol
# GULP energy per Si atom -12392.223143 kJ/mol
# Density = 1.457721 g / cm^3
# Si number density = 14.610464 Si / 1000 Ang^3
#
#
#
# Elastic Constant Matrix: (Units=GPa)
#
#
# Indices 1 2 3 4 5 6 
#
# 1 70.1264 32.0955 60.7558 0.0000 0.0000 0.0000
# 2 32.0955 62.2438 35.9426 0.0000 0.0000 0.0000
# 3 60.7558 35.9426 100.8121 0.0000 0.0000 0.0000
# 4 0.0000 0.0000 0.0000 19.3232 0.0000 0.0000
# 5 0.0000 0.0000 0.0000 0.0000 26.6962 0.0000
# 6 0.0000 0.0000 0.0000 0.0000 0.0000 17.5252
#
#
#
# Elastic Compliance Matrix: (Units=1/GPa)
#
#
# Indices 1 2 3 4 5 6 
#
# 1 0.031940 -0.006742 -0.016845 0.000000 0.000000 0.000000
# 2 -0.006742 0.021654 -0.003657 0.000000 0.000000 0.000000
# 3 -0.016845 -0.003657 0.021375 0.000000 0.000000 0.000000
# 4 0.000000 0.000000 0.000000 0.051751 0.000000 0.000000
# 5 0.000000 0.000000 0.000000 0.000000 0.037459 0.000000
# 6 0.000000 0.000000 0.000000 0.000000 0.000000 0.057061
#
#
# Mechanical properties :
#
#
# Convention : Reuss Voigt Hill
#
# Bulk Modulus (GPa) = 48.82729 54.53001 51.67865
# Shear Modulus (GPa) = 17.69556 19.66813 18.68184
#
# Velocity S-wave (km/s) = 3.48394 3.67300 3.57972
# Velocity P-wave (km/s) = 7.04810 7.44254 7.24801
#
# Compressibility (1/GPa) = 0.02048035
#
# Stress axis : x y z
#
# Youngs Moduli (GPa) = 31.30847 46.18033 46.78280
#
# Poissons Ratio (x) = 0.31136 0.78807
# Poissons Ratio (y) = 0.21109 0.17109
# Poissons Ratio (z) = 0.52740 0.16888
#
# Static dielectric constant tensor:
#      x y z
#    x 2.917600 0.000000 0.000000 
#    y 0.000000 2.688280 0.000000 
#    z 0.000000 0.000000 2.837700 
# 
# 
# High freq. dielectric constant tensor:
#      x y z
#    x 1.553700 0.000000 0.000000 
#    y 0.000000 1.521100 0.000000 
#    z 0.000000 0.000000 1.550550 
# 
# From -- ./inp_files/26642.got.cif
#   From: 2010.03.12/outbox.cif.g09.slc.cpg/sg59_14_cif.got.tgz:26642.got - 2010.04.16 16:29:54.
