data_PCOD8240028
_publ_section_title
;
Structure prediction by ZEFSAII (Michael W. Deem and Ramdas Pophale) SiO2 
 PCOD8240028
Probable space group: P M M N
;
_chemical_formula_sum "Si O2"
_cell_formula_units_Z 56
_cell_length_a 15.547306
_cell_length_b 8.960694
_cell_length_c 21.491241
_cell_angle_alpha 90.000000
_cell_angle_beta 90.000000
_cell_angle_gamma 90.000000
_cell_volume 2994.044752
_symmetry_space_group_name_H-M "P M M N"
_symmetry_group_IT_number 59
_space_group.IT_coordinate_system_code '2'
_symmetry_cell_setting 'orthorhombic'
loop_
_space_group_symop_operation_xyz
x,y,z
1/2-x,1/2-y,z
1/2+x,-y,-z
-x,1/2+y,-z
-x,-y,-z
1/2+x,1/2+y,-z
1/2-x,y,z
x,1/2-y,z
loop_
_atom_site_type_symbol
_atom_site_label
_atom_site_fract_x
_atom_site_fract_y
_atom_site_fract_z
Si Si1 0.750000 0.582097 0.535177
Si Si2 0.408538 0.075050 0.998845
Si Si3 0.576503 0.074800 0.537012
Si Si4 0.348001 0.077525 0.864330
Si Si5 0.077553 0.924666 0.318284
Si Si6 0.495864 0.573094 0.789646
Si Si7 0.750000 0.582582 0.682782
Si Si8 0.844226 0.926848 0.870195
O O1 0.750000 0.750000 0.507680
O O2 0.834433 0.494966 0.511996
O O3 0.750000 0.586649 0.608951
O O4 0.423788 0.250000 0.002897
O O5 0.357847 0.030890 0.936399
O O6 0.354813 0.018899 0.058507
O O7 0.500000 0.000000 0.000000
O O8 0.578806 0.250000 0.523901
O O9 0.562050 0.039227 0.609526
O O10 0.500000 0.000000 0.500000
O O11 0.250000 0.048861 0.844037
O O12 0.373805 0.250000 0.854817
O O13 0.407643 0.975200 0.821684
O O14 0.082082 0.750000 0.306066
O O15 0.165896 0.997498 0.293387
O O16 0.000498 0.998565 0.278795
O O17 0.496917 0.750000 0.782837
O O18 0.577430 0.509894 0.828845
O O19 0.750000 0.750000 0.710886
O O20 0.750000 0.982517 0.846262
O O21 0.848148 0.750000 0.867415
#
# Coordination Sequence:
#
# PCOD8240028 Si02
#       8
#     4   8   8   8   8   8   4   8
#     4   9  17  31  53  83 117 149 185 226 267 322
#     4  10  18  32  54  77 103 135 176 223 273 327
#     4  10  20  35  58  85 115 150 188 231 281 332
#     4  10  21  37  58  79 102 140 185 229 280 335
#     4  10  21  36  54  80 115 151 185 226 276 329
#     4  11  22  35  55  81 109 143 182 228 274 326
#     4   9  17  31  53  81 111 147 187 222 261 320
#     4   9  18  32  50  75 107 140 174 213 263 323
#
# _framework density 18.703795
#
# number of rings (size 3 to 8) (size 9 to 14) (size 15 to 20)
#    0.000    2.143    1.429    2.143    1.000    5.429 
#    0.000    0.000    1.571    3.000    0.000    0.000 
#    0.000    0.000    0.000    0.000    0.000    0.000 
#
# Total GULP energy -694401.443377 kJ/mol
# GULP energy per Si atom -12400.025775 kJ/mol
# Density = 1.866122 g / cm^3
# Si number density = 18.703795 Si / 1000 Ang^3
#
#
#
# Elastic Constant Matrix: (Units=GPa)
#
#
# Indices 1 2 3 4 5 6 
#
# 1 129.7243 51.6455 49.4134 0.0000 0.0000 0.0000
# 2 51.6455 91.5354 49.1051 0.0000 0.0000 0.0000
# 3 49.4134 49.1051 72.5292 0.0000 0.0000 0.0000
# 4 0.0000 0.0000 0.0000 24.3729 0.0000 0.0000
# 5 0.0000 0.0000 0.0000 0.0000 29.7807 0.0000
# 6 0.0000 0.0000 0.0000 0.0000 0.0000 35.4479
#
#
#
# Elastic Compliance Matrix: (Units=1/GPa)
#
#
# Indices 1 2 3 4 5 6 
#
# 1 0.011064 -0.003453 -0.005200 0.000000 0.000000 0.000000
# 2 -0.003453 0.018233 -0.009992 0.000000 0.000000 0.000000
# 3 -0.005200 -0.009992 0.024096 0.000000 0.000000 0.000000
# 4 0.000000 0.000000 0.000000 0.041029 0.000000 0.000000
# 5 0.000000 0.000000 0.000000 0.000000 0.033579 0.000000
# 6 0.000000 0.000000 0.000000 0.000000 0.000000 0.028210
#
#
# Mechanical properties :
#
#
# Convention : Reuss Voigt Hill
#
# Bulk Modulus (GPa) = 62.10255 66.01299 64.05777
# Shear Modulus (GPa) = 25.14215 27.49531 26.31873
#
# Velocity S-wave (km/s) = 3.67035 3.83827 3.75525
# Velocity P-wave (km/s) = 7.15802 7.41711 7.28872
#
# Compressibility (1/GPa) = 0.01610240
#
# Stress axis : x y z
#
# Youngs Moduli (GPa) = 90.38255 54.84460 41.50151
#
# Poissons Ratio (x) = 0.18937 0.21581
# Poissons Ratio (y) = 0.31208 0.41469
# Poissons Ratio (z) = 0.47000 0.54802
#
# Static dielectric constant tensor:
#      x y z
#    x 3.452110 0.000000 0.000000 
#    y 0.000000 3.356420 0.000000 
#    z 0.000000 0.000000 3.415280 
# 
# 
# High freq. dielectric constant tensor:
#      x y z
#    x 1.725300 0.000000 0.000000 
#    y 0.000000 1.718170 0.000000 
#    z 0.000000 0.000000 1.714630 
# 
# From -- ./inp_files/29223.got.cif
#   From: 2010.03.12/outbox.cif.g09.slc.cpg/sg59_15_cif.got.tgz:29223.got - 2010.04.16 16:29:54.
