data_PCOD8240350
_publ_section_title
;
Structure prediction by ZEFSAII (Michael W. Deem and Ramdas Pophale) SiO2 
 PCOD8240350
Probable space group: P M M N
;
_chemical_formula_sum "Si O2"
_cell_formula_units_Z 56
_cell_length_a 9.130205
_cell_length_b 13.563594
_cell_length_c 29.025065
_cell_angle_alpha 90.000000
_cell_angle_beta 90.000000
_cell_angle_gamma 90.000000
_cell_volume 3594.417428
_symmetry_space_group_name_H-M "P M M N"
_symmetry_group_IT_number 59
_space_group.IT_coordinate_system_code '2'
_symmetry_cell_setting 'orthorhombic'
loop_
_space_group_symop_operation_xyz
x,y,z
1/2-x,1/2-y,z
1/2+x,-y,-z
-x,1/2+y,-z
-x,-y,-z
1/2+x,1/2+y,-z
1/2-x,y,z
x,1/2-y,z
loop_
_atom_site_type_symbol
_atom_site_label
_atom_site_fract_x
_atom_site_fract_y
_atom_site_fract_z
Si Si1 0.085016 0.367098 0.746778
Si Si2 0.077932 0.635291 0.344480
Si Si3 0.421925 0.550863 0.067385
Si Si4 0.080621 0.359469 0.015871
Si Si5 0.083272 0.639348 0.513936
Si Si6 0.579698 0.134996 0.836754
Si Si7 0.420013 0.050038 0.569300
O O1 0.250000 0.408447 0.743667
O O2 0.083748 0.250000 0.748040
O O3 0.993803 0.403527 0.702721
O O4 0.009393 0.407049 0.793197
O O5 0.250000 0.617160 0.341453
O O6 0.041330 0.750000 0.353388
O O7 0.011356 0.570342 0.385078
O O8 0.250000 0.569245 0.064562
O O9 0.466418 0.438347 0.054873
O O10 0.477203 0.575118 0.118713
O O11 0.493745 0.625332 0.031312
O O12 0.250000 0.373345 0.003594
O O13 0.047490 0.250000 0.035085
O O14 0.250000 0.625677 0.496030
O O15 0.057004 0.750000 0.532517
O O16 0.052405 0.563990 0.555631
O O17 0.974949 0.620330 0.471603
O O18 0.750000 0.116081 0.826898
O O19 0.548591 0.250000 0.845336
O O20 0.250000 0.072820 0.578402
#
# Coordination Sequence:
#
# PCOD8240350 Si02
#       7
#     8   8   8   8   8   8   8
#     4   9  17  28  42  61  84 108 135 169 208 249
#     4  10  19  30  44  62  87 117 143 169 207 254
#     4   9  17  28  42  60  82 111 144 172 204 249
#     4   9  17  28  41  59  84 111 140 176 212 243
#     4   9  18  32  46  61  86 118 147 175 210 251
#     4   9  16  26  40  58  81 108 136 166 203 249
#     4  10  19  29  44  66  88 112 145 180 211 245
#
# _framework density 15.579715
#
# number of rings (size 3 to 8) (size 9 to 14) (size 15 to 20)
#    0.000    2.714    0.000    2.143    0.000    6.571 
#    0.000    1.429    0.000    0.000    0.000    1.000 
#    0.000    3.429    0.000    0.000    0.000    0.000 
#
# Total GULP energy -694371.784833 kJ/mol
# GULP energy per Si atom -12399.496158 kJ/mol
# Density = 1.554426 g / cm^3
# Si number density = 15.579715 Si / 1000 Ang^3
#
#
#
# Elastic Constant Matrix: (Units=GPa)
#
#
# Indices 1 2 3 4 5 6 
#
# 1 75.2539 32.2143 59.9516 0.0000 0.0000 0.0000
# 2 32.2143 77.3641 48.4797 0.0000 0.0000 0.0000
# 3 59.9516 48.4797 136.6546 0.0000 0.0000 0.0000
# 4 0.0000 0.0000 0.0000 20.9290 0.0000 0.0000
# 5 0.0000 0.0000 0.0000 0.0000 31.0175 0.0000
# 6 0.0000 0.0000 0.0000 0.0000 0.0000 17.1220
#
#
#
# Elastic Compliance Matrix: (Units=1/GPa)
#
#
# Indices 1 2 3 4 5 6 
#
# 1 0.021294 -0.003874 -0.007968 0.000000 0.000000 0.000000
# 2 -0.003874 0.017326 -0.004447 0.000000 0.000000 0.000000
# 3 -0.007968 -0.004447 0.012391 0.000000 0.000000 0.000000
# 4 0.000000 0.000000 0.000000 0.047781 0.000000 0.000000
# 5 0.000000 0.000000 0.000000 0.000000 0.032240 0.000000
# 6 0.000000 0.000000 0.000000 0.000000 0.000000 0.058404
#
#
# Mechanical properties :
#
#
# Convention : Reuss Voigt Hill
#
# Bulk Modulus (GPa) = 54.24891 63.39599 58.82245
# Shear Modulus (GPa) = 21.91474 23.72216 22.81845
#
# Velocity S-wave (km/s) = 3.75456 3.90632 3.83119
# Velocity P-wave (km/s) = 7.32745 7.81828 7.57684
#
# Compressibility (1/GPa) = 0.01843355
#
# Stress axis : x y z
#
# Youngs Moduli (GPa) = 46.96126 57.71787 80.70536
#
# Poissons Ratio (x) = 0.22360 0.64303
# Poissons Ratio (y) = 0.18193 0.35889
# Poissons Ratio (z) = 0.37417 0.25667
#
# Static dielectric constant tensor:
#      x y z
#    x 3.081240 0.000000 0.000000 
#    y 0.000000 2.883870 0.000000 
#    z 0.000000 0.000000 3.001940 
# 
# 
# High freq. dielectric constant tensor:
#      x y z
#    x 1.607270 0.000000 0.000000 
#    y 0.000000 1.567050 0.000000 
#    z 0.000000 0.000000 1.591470 
# 
# From -- ./inp_files/33170.got.cif
#   From: 2010.03.12/outbox.cif.g09.slc.cpg/sg59_17_cif.got.tgz:33170.got - 2010.04.16 16:29:54.
