data_PCOD8240725
_publ_section_title
;
Structure prediction by ZEFSAII (Michael W. Deem and Ramdas Pophale) SiO2 
 PCOD8240725
Probable space group: P M M N
;
_chemical_formula_sum "Si O2"
_cell_formula_units_Z 48
_cell_length_a 9.064894
_cell_length_b 25.392105
_cell_length_c 11.785371
_cell_angle_alpha 90.000000
_cell_angle_beta 90.000000
_cell_angle_gamma 90.000000
_cell_volume 2712.718280
_symmetry_space_group_name_H-M "P M M N"
_symmetry_group_IT_number 59
_space_group.IT_coordinate_system_code '2'
_symmetry_cell_setting 'orthorhombic'
loop_
_space_group_symop_operation_xyz
x,y,z
1/2-x,1/2-y,z
1/2+x,-y,-z
-x,1/2+y,-z
-x,-y,-z
1/2+x,1/2+y,-z
1/2-x,y,z
x,1/2-y,z
loop_
_atom_site_type_symbol
_atom_site_label
_atom_site_fract_x
_atom_site_fract_y
_atom_site_fract_z
Si Si1 0.425097 0.443287 0.506296
Si Si2 0.079067 0.809836 0.115338
Si Si3 0.578767 0.097263 0.723834
Si Si4 0.924560 0.903088 0.733409
Si Si5 0.075402 0.309205 0.115094
Si Si6 0.077391 0.000354 0.119499
O O1 0.500000 0.500000 0.500000
O O2 0.250000 0.451429 0.510336
O O3 0.478595 0.410199 0.613784
O O4 0.475255 0.409505 0.396534
O O5 0.250000 0.816323 0.084383
O O6 0.039403 0.750000 0.149466
O O7 0.037625 0.846392 0.221944
O O8 0.989484 0.828002 0.004855
O O9 0.750000 0.093802 0.688107
O O10 0.539604 0.053210 0.815764
O O11 0.750000 0.904955 0.739648
O O12 0.982795 0.847923 0.785579
O O13 0.987752 0.951496 0.806916
O O14 0.250000 0.311909 0.104012
O O15 0.021946 0.250000 0.144694
O O16 0.250000 0.006812 0.098938
O O17 0.000000 0.000000 0.000000
#
# Coordination Sequence:
#
# PCOD8240725 Si02
#       6
#     8   8   8   8   8   8
#     4  11  21  36  55  74 100 137 176 213 258 310
#     4   9  18  33  53  76 105 138 168 206 257 305
#     4  10  20  35  52  73 103 136 172 212 256 304
#     4   9  18  33  50  70 101 132 161 204 255 297
#     4   9  17  31  53  77 101 132 168 205 249 304
#     4  10  19  31  47  70 100 129 159 204 254 301
#
# _framework density 17.694430000000001
#
# number of rings (size 3 to 8) (size 9 to 14) (size 15 to 20)
#    0.000    2.333    1.667    1.500    0.000    1.333 
#    0.000    2.500    0.000    1.000    0.000    0.000 
#    0.000    0.000    0.000    0.000    0.000    0.000 
#
# Total GULP energy -595201.979617 kJ/mol
# GULP energy per Si atom -12400.041242 kJ/mol
# Density = 1.765416 g / cm^3
# Si number density = 17.694430 Si / 1000 Ang^3
#
#
#
# Elastic Constant Matrix: (Units=GPa)
#
#
# Indices 1 2 3 4 5 6 
#
# 1 41.0557 34.9117 49.7648 0.0000 0.0000 0.0000
# 2 34.9117 120.0990 78.2433 0.0000 0.0000 0.0000
# 3 49.7648 78.2433 159.2211 0.0000 0.0000 0.0000
# 4 0.0000 0.0000 0.0000 31.9465 0.0000 0.0000
# 5 0.0000 0.0000 0.0000 0.0000 31.2592 0.0000
# 6 0.0000 0.0000 0.0000 0.0000 0.0000 16.5941
#
#
#
# Elastic Compliance Matrix: (Units=1/GPa)
#
#
# Indices 1 2 3 4 5 6 
#
# 1 0.041386 -0.005300 -0.010331 0.000000 0.000000 0.000000
# 2 -0.005300 0.012926 -0.004696 0.000000 0.000000 0.000000
# 3 -0.010331 -0.004696 0.011817 0.000000 0.000000 0.000000
# 4 0.000000 0.000000 0.000000 0.031302 0.000000 0.000000
# 5 0.000000 0.000000 0.000000 0.000000 0.031991 0.000000
# 6 0.000000 0.000000 0.000000 0.000000 0.000000 0.060262
#
#
# Mechanical properties :
#
#
# Convention : Reuss Voigt Hill
#
# Bulk Modulus (GPa) = 39.25187 71.80171 55.52679
# Shear Modulus (GPa) = 20.93537 26.45704 23.69620
#
# Velocity S-wave (km/s) = 3.44344 3.87100 3.66346
# Velocity P-wave (km/s) = 6.16774 7.78758 7.02451
#
# Compressibility (1/GPa) = 0.02547649
#
# Stress axis : x y z
#
# Youngs Moduli (GPa) = 24.16249 77.36164 84.62437
#
# Poissons Ratio (x) = 0.41004 0.87424
# Poissons Ratio (y) = 0.12807 0.39736
# Poissons Ratio (z) = 0.24962 0.36325
#
# Static dielectric constant tensor:
#      x y z
#    x 3.223990 0.000000 0.000000 
#    y 0.000000 3.674480 0.000000 
#    z 0.000000 0.000000 3.408500 
# 
# 
# High freq. dielectric constant tensor:
#      x y z
#    x 1.666000 0.000000 0.000000 
#    y 0.000000 1.690420 0.000000 
#    z 0.000000 0.000000 1.684530 
# 
# From -- ./inp_files/7710.got.cif
#   From: 2010.03.12/outbox.cif.g09.slc.cpg/sg59_4_cif.got.tgz:7710.got - 2010.04.16 16:29:54.
