data_PCOD8240954
_publ_section_title
;
Structure prediction by ZEFSAII (Michael W. Deem and Ramdas Pophale) SiO2 
 PCOD8240954
Probable space group: P M M N
;
_chemical_formula_sum "Si O2"
_cell_formula_units_Z 64
_cell_length_a 9.265008
_cell_length_b 21.961331
_cell_length_c 16.555617
_cell_angle_alpha 90.000000
_cell_angle_beta 90.000000
_cell_angle_gamma 90.000000
_cell_volume 3368.602969
_symmetry_space_group_name_H-M "P M M N"
_symmetry_group_IT_number 59
_space_group.IT_coordinate_system_code '2'
_symmetry_cell_setting 'orthorhombic'
loop_
_space_group_symop_operation_xyz
x,y,z
1/2-x,1/2-y,z
1/2+x,-y,-z
-x,1/2+y,-z
-x,-y,-z
1/2+x,1/2+y,-z
1/2-x,y,z
x,1/2-y,z
loop_
_atom_site_type_symbol
_atom_site_label
_atom_site_fract_x
_atom_site_fract_y
_atom_site_fract_z
Si Si1 0.581940 0.983920 0.209378
Si Si2 0.580498 0.319686 0.528778
Si Si3 0.915816 0.376981 0.221168
Si Si4 0.408323 0.181711 0.778810
Si Si5 0.581949 0.403279 0.676993
Si Si6 0.417705 0.320138 0.365558
Si Si7 0.418263 0.818873 0.946484
Si Si8 0.090076 0.108935 0.927292
O O1 0.750000 0.969395 0.221731
O O2 0.550626 0.054277 0.193304
O O3 0.503865 0.963751 0.293863
O O4 0.528719 0.946114 0.129791
O O5 0.750000 0.323855 0.511687
O O6 0.541220 0.250000 0.556696
O O7 0.533070 0.371615 0.593002
O O8 0.495910 0.337361 0.448413
O O9 0.750000 0.370329 0.249198
O O10 0.949928 0.332188 0.147297
O O11 0.018670 0.361232 0.294999
O O12 0.250000 0.163006 0.742306
O O13 0.443318 0.250000 0.759071
O O14 0.543934 0.146017 0.744292
O O15 0.403123 0.170351 0.874338
O O16 0.750000 0.418698 0.676287
O O17 0.250000 0.335032 0.375746
O O18 0.445225 0.250000 0.343420
O O19 0.250000 0.823166 0.965486
O O20 0.474764 0.750000 0.964868
O O21 0.491147 0.873400 0.997144
O O22 0.250000 0.091406 0.959325
#
# Coordination Sequence:
#
# PCOD8240954 Si02
#       8
#     8   8   8   8   8   8   8   8
#     4   9  20  38  56  75 103 142 184 220 258 310
#     4   9  18  33  53  78 109 143 176 211 258 317
#     4  10  21  39  60  77 100 139 182 221 264 315
#     4   9  17  29  46  69 101 142 180 213 257 312
#     4  10  19  31  50  77 107 138 176 221 264 309
#     4  10  21  36  56  84 112 135 167 216 269 316
#     4  10  21  35  53  80 108 133 169 218 268 317
#     4   9  18  33  51  73 104 139 173 211 257 309
#
# _framework density 18.998975000000002
#
# number of rings (size 3 to 8) (size 9 to 14) (size 15 to 20)
#    0.000    2.500    0.000    2.625    0.000    7.250 
#    0.000    1.875    0.000    0.000    0.000    0.000 
#    0.000    0.000    0.000    0.000    0.000    0.000 
#
# Total GULP energy -793025.263214 kJ/mol
# GULP energy per Si atom -12391.019738 kJ/mol
# Density = 1.895573 g / cm^3
# Si number density = 18.998975 Si / 1000 Ang^3
#
#
#
# Elastic Constant Matrix: (Units=GPa)
#
#
# Indices 1 2 3 4 5 6 
#
# 1 45.5563 21.5663 30.2126 0.0000 0.0000 0.0000
# 2 21.5663 74.7319 24.1690 0.0000 0.0000 0.0000
# 3 30.2126 24.1690 68.9156 0.0000 0.0000 0.0000
# 4 0.0000 0.0000 0.0000 26.7588 0.0000 0.0000
# 5 0.0000 0.0000 0.0000 0.0000 31.5753 0.0000
# 6 0.0000 0.0000 0.0000 0.0000 0.0000 25.9861
#
#
#
# Elastic Compliance Matrix: (Units=1/GPa)
#
#
# Indices 1 2 3 4 5 6 
#
# 1 0.032793 -0.005430 -0.012472 0.000000 0.000000 0.000000
# 2 -0.005430 0.015992 -0.003228 0.000000 0.000000 0.000000
# 3 -0.012472 -0.003228 0.021110 0.000000 0.000000 0.000000
# 4 0.000000 0.000000 0.000000 0.037371 0.000000 0.000000
# 5 0.000000 0.000000 0.000000 0.000000 0.031670 0.000000
# 6 0.000000 0.000000 0.000000 0.000000 0.000000 0.038482
#
#
# Mechanical properties :
#
#
# Convention : Reuss Voigt Hill
#
# Bulk Modulus (GPa) = 36.18563 37.89994 37.04279
# Shear Modulus (GPa) = 21.84457 24.41445 23.12951
#
# Velocity S-wave (km/s) = 3.39451 3.58864 3.49292
# Velocity P-wave (km/s) = 5.86950 6.09613 5.98389
#
# Compressibility (1/GPa) = 0.02763528
#
# Stress axis : x y z
#
# Youngs Moduli (GPa) = 30.49464 62.53093 47.37012
#
# Poissons Ratio (x) = 0.33953 0.59080
# Poissons Ratio (y) = 0.16558 0.15291
# Poissons Ratio (z) = 0.38033 0.20186
#
# Static dielectric constant tensor:
#      x y z
#    x 3.464850 0.000000 0.000000 
#    y 0.000000 3.565270 0.000000 
#    z 0.000000 0.000000 3.413070 
# 
# 
# High freq. dielectric constant tensor:
#      x y z
#    x 1.732370 0.000000 0.000000 
#    y 0.000000 1.734080 0.000000 
#    z 0.000000 0.000000 1.727040 
# 
# From -- ./inp_files/26342.got.cif
#   From: 2010.03.12/outbox.cif.g09.slc.cpg/sg59_14_cif.got.tgz:26342.got - 2010.04.16 16:29:54.
