data_PCOD8240207
_publ_section_title
;
Structure prediction by ZEFSAII (Michael W. Deem and Ramdas Pophale) SiO2 
 PCOD8240207
Probable space group: P M M N
;
_chemical_formula_sum "Si O2"
_cell_formula_units_Z 48
_cell_length_a 8.680404
_cell_length_b 17.850193
_cell_length_c 15.846786
_cell_angle_alpha 90.000000
_cell_angle_beta 90.000000
_cell_angle_gamma 90.000000
_cell_volume 2455.410155
_symmetry_space_group_name_H-M "P M M N"
_symmetry_group_IT_number 59
_space_group.IT_coordinate_system_code '2'
_symmetry_cell_setting 'orthorhombic'
loop_
_space_group_symop_operation_xyz
x,y,z
1/2-x,1/2-y,z
1/2+x,-y,-z
-x,1/2+y,-z
-x,-y,-z
1/2+x,1/2+y,-z
1/2-x,y,z
x,1/2-y,z
loop_
_atom_site_type_symbol
_atom_site_label
_atom_site_fract_x
_atom_site_fract_y
_atom_site_fract_z
Si Si1 0.072882 0.979843 0.130826
Si Si2 0.932133 0.546887 0.307460
Si Si3 0.432690 0.609390 0.615329
Si Si4 0.924820 0.110742 0.035815
Si Si5 0.074848 0.250000 0.102856
Si Si6 0.431452 0.662398 0.432900
Si Si7 0.431078 0.750000 0.718051
O O1 0.250000 0.005564 0.138370
O O2 0.014197 0.945051 0.217615
O O3 0.053498 0.917785 0.058866
O O4 0.967546 0.050100 0.106730
O O5 0.750000 0.544002 0.294696
O O6 0.993800 0.471541 0.353979
O O7 0.977527 0.620394 0.359367
O O8 0.250000 0.610776 0.618963
O O9 0.488631 0.625823 0.520502
O O10 0.500900 0.674918 0.675370
O O11 0.750000 0.135976 0.052964
O O12 0.040536 0.179224 0.044586
O O13 0.250000 0.250000 0.133120
O O14 0.966059 0.250000 0.183774
O O15 0.250000 0.651025 0.420060
O O16 0.474789 0.750000 0.431384
O O17 0.250000 0.750000 0.702949
#
# Coordination Sequence:
#
# PCOD8240207 Si02
#       7
#     8   8   8   8   4   8   4
#     4  10  21  39  62  87 115 150 193 239 289 347
#     4  11  22  35  56  87 119 151 192 238 289 351
#     4   9  18  34  58  85 111 148 194 237 287 346
#     4  10  21  39  62  85 115 154 192 237 292 348
#     4  12  24  36  54  87 122 153 192 239 288 343
#     4  10  20  38  60  80 109 152 199 244 289 339
#     4  10  18  34  60  85 114 151 194 241 292 351
#
# _framework density 19.548669
#
# number of rings (size 3 to 8) (size 9 to 14) (size 15 to 20)
#    0.000    1.833    0.833    3.750    0.000    3.667 
#    1.500    2.500    0.000    0.000    0.000    0.000 
#    0.000    0.000    0.000    0.000    0.000    0.000 
#
# Total GULP energy -595361.312966 kJ/mol
# GULP energy per Si atom -12403.360687 kJ/mol
# Density = 1.950418 g / cm^3
# Si number density = 19.548669 Si / 1000 Ang^3
#
#
#
# Elastic Constant Matrix: (Units=GPa)
#
#
# Indices 1 2 3 4 5 6 
#
# 1 43.4445 20.5087 36.0178 0.0000 0.0000 0.0000
# 2 20.5087 88.9769 54.2908 0.0000 0.0000 0.0000
# 3 36.0178 54.2908 125.3427 0.0000 0.0000 0.0000
# 4 0.0000 0.0000 0.0000 22.9761 0.0000 0.0000
# 5 0.0000 0.0000 0.0000 0.0000 20.7876 0.0000
# 6 0.0000 0.0000 0.0000 0.0000 0.0000 29.2983
#
#
#
# Elastic Compliance Matrix: (Units=1/GPa)
#
#
# Indices 1 2 3 4 5 6 
#
# 1 0.030556 -0.002291 -0.007788 0.000000 0.000000 0.000000
# 2 -0.002291 0.015448 -0.006033 0.000000 0.000000 0.000000
# 3 -0.007788 -0.006033 0.012829 0.000000 0.000000 0.000000
# 4 0.000000 0.000000 0.000000 0.043523 0.000000 0.000000
# 5 0.000000 0.000000 0.000000 0.000000 0.048106 0.000000
# 6 0.000000 0.000000 0.000000 0.000000 0.000000 0.034132
#
#
# Mechanical properties :
#
#
# Convention : Reuss Voigt Hill
#
# Bulk Modulus (GPa) = 37.58069 53.26653 45.42361
# Shear Modulus (GPa) = 22.15453 24.40886 23.28170
#
# Velocity S-wave (km/s) = 3.37011 3.53742 3.45477
# Velocity P-wave (km/s) = 5.86595 6.63263 6.26103
#
# Compressibility (1/GPa) = 0.02660941
#
# Stress axis : x y z
#
# Youngs Moduli (GPa) = 32.72664 64.73356 77.94771
#
# Poissons Ratio (x) = 0.14830 0.60707
# Poissons Ratio (y) = 0.07498 0.47024
# Poissons Ratio (z) = 0.25488 0.39052
#
# Static dielectric constant tensor:
#      x y z
#    x 3.367320 0.000000 0.000000 
#    y 0.000000 3.694030 0.000000 
#    z 0.000000 0.000000 3.540300 
# 
# 
# High freq. dielectric constant tensor:
#      x y z
#    x 1.746890 0.000000 0.000000 
#    y 0.000000 1.765310 0.000000 
#    z 0.000000 0.000000 1.768170 
# 
# From -- ./inp_files/20583.got.cif
#   From: 2010.03.12/outbox.cif.g09.slc.cpg/sg59_11_cif.got.tgz:20583.got - 2010.04.16 16:29:54.
