data_PCOD8240343
_publ_section_title
;
Structure prediction by ZEFSAII (Michael W. Deem and Ramdas Pophale) SiO2 
 PCOD8240343
Probable space group: P M M N
;
_chemical_formula_sum "Si O2"
_cell_formula_units_Z 64
_cell_length_a 8.900690
_cell_length_b 18.355218
_cell_length_c 21.576907
_cell_angle_alpha 90.000000
_cell_angle_beta 90.000000
_cell_angle_gamma 90.000000
_cell_volume 3525.107876
_symmetry_space_group_name_H-M "P M M N"
_symmetry_group_IT_number 59
_space_group.IT_coordinate_system_code '2'
_symmetry_cell_setting 'orthorhombic'
loop_
_space_group_symop_operation_xyz
x,y,z
1/2-x,1/2-y,z
1/2+x,-y,-z
-x,1/2+y,-z
-x,-y,-z
1/2+x,1/2+y,-z
1/2-x,y,z
x,1/2-y,z
loop_
_atom_site_type_symbol
_atom_site_label
_atom_site_fract_x
_atom_site_fract_y
_atom_site_fract_z
Si Si1 0.573148 0.670489 0.375205
Si Si2 0.071280 0.475476 0.563686
Si Si3 0.076110 0.835596 0.136000
Si Si4 0.073188 0.407908 0.748365
Si Si5 0.581435 0.663381 0.011340
Si Si6 0.081278 0.663220 0.889959
Si Si7 0.925115 0.536761 0.681831
Si Si8 0.423565 0.332076 0.233616
O O1 0.750000 0.675569 0.382215
O O2 0.501614 0.750000 0.391279
O O3 0.515053 0.607092 0.421362
O O4 0.530857 0.650569 0.304700
O O5 0.250000 0.480011 0.560007
O O6 0.000000 0.500000 0.500000
O O7 0.015345 0.528874 0.617846
O O8 0.250000 0.856066 0.143505
O O9 0.048643 0.750000 0.144412
O O10 0.977847 0.877438 0.186165
O O11 0.020024 0.862322 0.068908
O O12 0.250000 0.424095 0.748867
O O13 0.985805 0.482243 0.734202
O O14 0.750000 0.632897 0.019214
O O15 0.583038 0.750000 0.007941
O O16 0.511418 0.631196 0.948063
O O17 0.250000 0.633365 0.894875
O O18 0.076888 0.750000 0.891766
O O19 0.011845 0.635789 0.825398
O O20 0.750000 0.521666 0.669662
O O21 0.954040 0.618430 0.706339
O O22 0.250000 0.333318 0.214663
O O23 0.476112 0.250000 0.250203
#
# Coordination Sequence:
#
# PCOD8240343 Si02
#       8
#     8   8   8   8   8   8   8   8
#     4   8  15  29  50  75  99 126 166 210 244 280
#     4  10  20  35  56  79 105 138 171 204 245 296
#     4  10  19  29  43  67  99 132 169 214 258 297
#     4  10  19  31  49  72 100 134 169 205 250 306
#     4   9  16  26  41  62  91 128 168 208 251 302
#     4   9  16  26  43  68  96 125 159 204 256 303
#     4  10  20  35  55  77 102 131 164 204 247 294
#     4   9  18  33  53  76 100 128 165 207 250 298
#
# _framework density 18.155472
#
# number of rings (size 3 to 8) (size 9 to 14) (size 15 to 20)
#    0.000    2.625    0.000    3.375    0.000    5.250 
#    0.000    0.625    0.000   12.000    0.000    0.000 
#    0.000    0.000    0.000    0.000    0.000    0.000 
#
# Total GULP energy -793484.833050 kJ/mol
# GULP energy per Si atom -12398.200516 kJ/mol
# Density = 1.811415 g / cm^3
# Si number density = 18.155472 Si / 1000 Ang^3
#
#
#
# Elastic Constant Matrix: (Units=GPa)
#
#
# Indices 1 2 3 4 5 6 
#
# 1 86.7838 30.4824 46.9258 0.0000 0.0000 0.0000
# 2 30.4824 75.5593 55.0038 0.0000 0.0000 0.0000
# 3 46.9258 55.0038 127.8301 0.0000 0.0000 0.0000
# 4 0.0000 0.0000 0.0000 18.9056 0.0000 0.0000
# 5 0.0000 0.0000 0.0000 0.0000 36.2294 0.0000
# 6 0.0000 0.0000 0.0000 0.0000 0.0000 19.7458
#
#
#
# Elastic Compliance Matrix: (Units=1/GPa)
#
#
# Indices 1 2 3 4 5 6 
#
# 1 0.014811 -0.002937 -0.004173 0.000000 0.000000 0.000000
# 2 -0.002937 0.019853 -0.007464 0.000000 0.000000 0.000000
# 3 -0.004173 -0.007464 0.012567 0.000000 0.000000 0.000000
# 4 0.000000 0.000000 0.000000 0.052894 0.000000 0.000000
# 5 0.000000 0.000000 0.000000 0.000000 0.027602 0.000000
# 6 0.000000 0.000000 0.000000 0.000000 0.000000 0.050644
#
#
# Mechanical properties :
#
#
# Convention : Reuss Voigt Hill
#
# Bulk Modulus (GPa) = 55.30540 61.66636 58.48588
# Shear Modulus (GPa) = 23.41392 25.49357 24.45375
#
# Velocity S-wave (km/s) = 3.59504 3.75131 3.67401
# Velocity P-wave (km/s) = 6.91091 7.26653 7.09095
#
# Compressibility (1/GPa) = 0.01808142
#
# Stress axis : x y z
#
# Youngs Moduli (GPa) = 67.51677 50.36933 79.57532
#
# Poissons Ratio (x) = 0.14795 0.33209
# Poissons Ratio (y) = 0.19831 0.59398
# Poissons Ratio (z) = 0.28176 0.37598
#
# Static dielectric constant tensor:
#      x y z
#    x 3.399660 0.000000 0.000000 
#    y 0.000000 3.306650 0.000000 
#    z 0.000000 0.000000 3.320970 
# 
# 
# High freq. dielectric constant tensor:
#      x y z
#    x 1.706660 0.000000 0.000000 
#    y 0.000000 1.673490 0.000000 
#    z 0.000000 0.000000 1.701150 
# 
# From -- ./inp_files/29726.got.cif
#   From: 2010.03.12/outbox.cif.g09.slc.cpg/sg59_15_cif.got.tgz:29726.got - 2010.04.16 16:29:54.
