data_PCOD8240404
_publ_section_title
;
Structure prediction by ZEFSAII (Michael W. Deem and Ramdas Pophale) SiO2 
 PCOD8240404
Probable space group: P M M N
;
_chemical_formula_sum "Si O2"
_cell_formula_units_Z 64
_cell_length_a 8.986516
_cell_length_b 20.895007
_cell_length_c 19.739088
_cell_angle_alpha 90.000000
_cell_angle_beta 90.000000
_cell_angle_gamma 90.000000
_cell_volume 3706.473983
_symmetry_space_group_name_H-M "P M M N"
_symmetry_group_IT_number 59
_space_group.IT_coordinate_system_code '2'
_symmetry_cell_setting 'orthorhombic'
loop_
_space_group_symop_operation_xyz
x,y,z
1/2-x,1/2-y,z
1/2+x,-y,-z
-x,1/2+y,-z
-x,-y,-z
1/2+x,1/2+y,-z
1/2-x,y,z
x,1/2-y,z
loop_
_atom_site_type_symbol
_atom_site_label
_atom_site_fract_x
_atom_site_fract_y
_atom_site_fract_z
Si Si1 0.074754 0.121261 0.177331
Si Si2 0.423987 0.441902 0.961429
Si Si3 0.923384 0.481260 0.682578
Si Si4 0.076702 0.486065 0.815857
Si Si5 0.424780 0.374670 0.324577
Si Si6 0.925991 0.822285 0.536540
Si Si7 0.924924 0.060732 0.535685
Si Si8 0.073450 0.319692 0.039361
O O1 0.250000 0.107339 0.174727
O O2 0.030910 0.152809 0.250255
O O3 0.023950 0.167614 0.117039
O O4 0.994974 0.054035 0.168122
O O5 0.250000 0.447787 0.977255
O O6 0.455538 0.441752 0.881103
O O7 0.500000 0.500000 0.000000
O O8 0.489343 0.374890 0.990130
O O9 0.750000 0.482572 0.700123
O O10 0.984635 0.552866 0.668693
O O11 0.957355 0.439741 0.616103
O O12 0.007077 0.453085 0.748674
O O13 0.250000 0.495622 0.803422
O O14 0.250000 0.375729 0.332901
O O15 0.486626 0.331989 0.386329
O O16 0.750000 0.834778 0.531240
O O17 0.965697 0.750000 0.514176
O O18 0.009341 0.872143 0.488727
O O19 0.750000 0.056965 0.520565
O O20 0.000000 0.000000 0.500000
O O21 0.250000 0.318467 0.034647
O O22 0.009044 0.250000 0.018187
#
# Coordination Sequence:
#
# PCOD8240404 Si02
#       8
#     8   8   8   8   8   8   8   8
#     4   9  16  28  47  69  97 132 167 202 241 291
#     4  10  19  31  49  73 100 130 164 205 251 295
#     4   9  18  33  52  73  99 132 168 208 255 304
#     4  10  19  29  46  74 102 128 162 207 256 298
#     4   8  14  27  45  69  99 130 166 199 235 290
#     4  10  20  34  51  74 108 144 174 210 256 306
#     4  11  21  35  56  79 104 134 173 217 263 309
#     4   9  17  29  47  71  97 129 170 208 242 288
#
# _framework density 17.267084000000001
#
# number of rings (size 3 to 8) (size 9 to 14) (size 15 to 20)
#    0.000    2.500    2.500    1.500    0.000    2.250 
#    0.000    2.500    0.000    2.250    0.000    1.750 
#    0.000    0.000    0.000    0.000    0.000    0.000 
#
# Total GULP energy -793164.292683 kJ/mol
# GULP energy per Si atom -12393.192073 kJ/mol
# Density = 1.722778 g / cm^3
# Si number density = 17.267084 Si / 1000 Ang^3
#
#
#
# Elastic Constant Matrix: (Units=GPa)
#
#
# Indices 1 2 3 4 5 6 
#
# 1 50.6032 35.0077 43.6977 0.0000 0.0000 0.0000
# 2 35.0077 121.3506 74.2306 0.0000 0.0000 0.0000
# 3 43.6977 74.2306 125.0571 0.0000 0.0000 0.0000
# 4 0.0000 0.0000 0.0000 24.2083 0.0000 0.0000
# 5 0.0000 0.0000 0.0000 0.0000 24.4344 0.0000
# 6 0.0000 0.0000 0.0000 0.0000 0.0000 19.6665
#
#
#
# Elastic Compliance Matrix: (Units=1/GPa)
#
#
# Indices 1 2 3 4 5 6 
#
# 1 0.029180 -0.003424 -0.008164 0.000000 0.000000 0.000000
# 2 -0.003424 0.013340 -0.006722 0.000000 0.000000 0.000000
# 3 -0.008164 -0.006722 0.014839 0.000000 0.000000 0.000000
# 4 0.000000 0.000000 0.000000 0.041308 0.000000 0.000000
# 5 0.000000 0.000000 0.000000 0.000000 0.040926 0.000000
# 6 0.000000 0.000000 0.000000 0.000000 0.000000 0.050848
#
#
# Mechanical properties :
#
#
# Convention : Reuss Voigt Hill
#
# Bulk Modulus (GPa) = 48.21692 66.98698 57.60195
# Shear Modulus (GPa) = 21.36992 23.26685 22.31838
#
# Velocity S-wave (km/s) = 3.52178 3.67477 3.59909
# Velocity P-wave (km/s) = 6.67249 7.54215 7.12061
#
# Compressibility (1/GPa) = 0.02073961
#
# Stress axis : x y z
#
# Youngs Moduli (GPa) = 34.26992 74.96123 67.39071
#
# Poissons Ratio (x) = 0.25669 0.55015
# Poissons Ratio (y) = 0.11735 0.45299
# Poissons Ratio (z) = 0.27977 0.50388
#
# Static dielectric constant tensor:
#      x y z
#    x 3.018940 0.000000 0.000000 
#    y 0.000000 3.190820 0.000000 
#    z 0.000000 0.000000 3.597730 
# 
# 
# High freq. dielectric constant tensor:
#      x y z
#    x 1.641990 0.000000 0.000000 
#    y 0.000000 1.639850 0.000000 
#    z 0.000000 0.000000 1.678560 
# 
# From -- ./inp_files/29582.got.cif
#   From: 2010.03.12/outbox.cif.g09.slc.cpg/sg59_15_cif.got.tgz:29582.got - 2010.04.16 16:29:54.
