data_PCOD8240301
_publ_section_title
;
Structure prediction by ZEFSAII (Michael W. Deem and Ramdas Pophale) SiO2 
 PCOD8240301
Probable space group: P M M N
;
_chemical_formula_sum "Si O2"
_cell_formula_units_Z 56
_cell_length_a 9.233942
_cell_length_b 13.643020
_cell_length_c 29.022966
_cell_angle_alpha 90.000000
_cell_angle_beta 90.000000
_cell_angle_gamma 90.000000
_cell_volume 3656.280037
_symmetry_space_group_name_H-M "P M M N"
_symmetry_group_IT_number 59
_space_group.IT_coordinate_system_code '2'
_symmetry_cell_setting 'orthorhombic'
loop_
_space_group_symop_operation_xyz
x,y,z
1/2-x,1/2-y,z
1/2+x,-y,-z
-x,1/2+y,-z
-x,-y,-z
1/2+x,1/2+y,-z
1/2-x,y,z
x,1/2-y,z
loop_
_atom_site_type_symbol
_atom_site_label
_atom_site_fract_x
_atom_site_fract_y
_atom_site_fract_z
Si Si1 0.910800 0.366322 0.742157
Si Si2 0.919249 0.635479 0.346591
Si Si3 0.419849 0.524287 0.069735
Si Si4 0.580928 0.361257 0.021746
Si Si5 0.915219 0.639770 0.514042
Si Si6 0.577838 0.140826 0.842996
Si Si7 0.581382 0.050141 0.568428
O O1 0.750000 0.408063 0.731012
O O2 0.902159 0.250000 0.744406
O O3 0.965426 0.402415 0.792578
O O4 0.022386 0.400481 0.702962
O O5 0.750000 0.613977 0.348804
O O6 0.953648 0.750000 0.354984
O O7 0.998769 0.570644 0.384519
O O8 0.250000 0.504371 0.072822
O O9 0.497987 0.421212 0.061181
O O10 0.481933 0.569582 0.117199
O O11 0.458439 0.599438 0.028907
O O12 0.750000 0.371104 0.031491
O O13 0.527571 0.250000 0.024622
O O14 0.750000 0.627085 0.496464
O O15 0.942364 0.750000 0.532518
O O16 0.946343 0.563627 0.555283
O O17 0.020672 0.620393 0.471378
O O18 0.750000 0.147730 0.846455
O O19 0.512561 0.250000 0.850179
O O20 0.750000 0.073682 0.574984
#
# Coordination Sequence:
#
# PCOD8240301 Si02
#       7
#     8   8   8   8   8   8   8
#     4   8  14  25  41  60  81 105 134 167 202 243
#     4  10  19  29  41  59  86 116 140 165 201 243
#     4   9  16  26  42  62  81 105 139 173 203 239
#     4   9  17  28  40  56  82 113 140 167 202 244
#     4   9  18  32  46  61  85 113 138 168 206 243
#     4   8  13  23  41  63  84 106 133 166 204 244
#     4  10  19  29  44  65  85 109 142 173 201 238
#
# _framework density 15.316113
#
# number of rings (size 3 to 8) (size 9 to 14) (size 15 to 20)
#    0.000    3.000    0.000    2.571    0.000    5.429 
#    0.000    0.714    0.000    2.143    0.000    1.000 
#    0.000    3.429    0.000    0.000    0.000    0.000 
#
# Total GULP energy -694232.253991 kJ/mol
# GULP energy per Si atom -12397.004536 kJ/mol
# Density = 1.528125 g / cm^3
# Si number density = 15.316113 Si / 1000 Ang^3
#
#
#
# Elastic Constant Matrix: (Units=GPa)
#
#
# Indices 1 2 3 4 5 6 
#
# 1 62.1475 38.5069 53.6545 0.0000 0.0000 0.0000
# 2 38.5069 94.3328 55.2355 0.0000 0.0000 0.0000
# 3 53.6545 55.2355 129.9053 0.0000 0.0000 0.0000
# 4 0.0000 0.0000 0.0000 22.2266 0.0000 0.0000
# 5 0.0000 0.0000 0.0000 0.0000 23.0971 0.0000
# 6 0.0000 0.0000 0.0000 0.0000 0.0000 20.2482
#
#
#
# Elastic Compliance Matrix: (Units=1/GPa)
#
#
# Indices 1 2 3 4 5 6 
#
# 1 0.027389 -0.006067 -0.008733 0.000000 0.000000 0.000000
# 2 -0.006067 0.015459 -0.004067 0.000000 0.000000 0.000000
# 3 -0.008733 -0.004067 0.013034 0.000000 0.000000 0.000000
# 4 0.000000 0.000000 0.000000 0.044991 0.000000 0.000000
# 5 0.000000 0.000000 0.000000 0.000000 0.043296 0.000000
# 6 0.000000 0.000000 0.000000 0.000000 0.000000 0.049387
#
#
# Mechanical properties :
#
#
# Convention : Reuss Voigt Hill
#
# Bulk Modulus (GPa) = 55.10185 64.57548 59.83866
# Shear Modulus (GPa) = 21.06683 22.38028 21.72355
#
# Velocity S-wave (km/s) = 3.71275 3.82674 3.77018
# Velocity P-wave (km/s) = 7.37793 7.85994 7.62275
#
# Compressibility (1/GPa) = 0.01814821
#
# Stress axis : x y z
#
# Youngs Moduli (GPa) = 36.51051 64.68794 76.72099
#
# Poissons Ratio (x) = 0.39246 0.67000
# Poissons Ratio (y) = 0.22151 0.31204
# Poissons Ratio (z) = 0.31884 0.26310
#
# Static dielectric constant tensor:
#      x y z
#    x 2.889240 0.000000 0.000000 
#    y 0.000000 2.831870 0.000000 
#    z 0.000000 0.000000 3.102610 
# 
# 
# High freq. dielectric constant tensor:
#      x y z
#    x 1.579640 0.000000 0.000000 
#    y 0.000000 1.558150 0.000000 
#    z 0.000000 0.000000 1.583600 
# 
# From -- ./inp_files/33172.got.cif
#   From: 2010.03.12/outbox.cif.g09.slc.cpg/sg59_17_cif.got.tgz:33172.got - 2010.04.16 16:29:54.
