data_PCOD8240395
_publ_section_title
;
Structure prediction by ZEFSAII (Michael W. Deem and Ramdas Pophale) SiO2 
 PCOD8240395
Probable space group: P M M N
;
_chemical_formula_sum "Si O2"
_cell_formula_units_Z 56
_cell_length_a 24.236431
_cell_length_b 11.174247
_cell_length_c 12.760024
_cell_angle_alpha 90.000000
_cell_angle_beta 90.000000
_cell_angle_gamma 90.000000
_cell_volume 3455.719035
_symmetry_space_group_name_H-M "P M M N"
_symmetry_group_IT_number 59
_space_group.IT_coordinate_system_code '2'
_symmetry_cell_setting 'orthorhombic'
loop_
_space_group_symop_operation_xyz
x,y,z
1/2-x,1/2-y,z
1/2+x,-y,-z
-x,1/2+y,-z
-x,-y,-z
1/2+x,1/2+y,-z
1/2-x,y,z
x,1/2-y,z
loop_
_atom_site_type_symbol
_atom_site_label
_atom_site_fract_x
_atom_site_fract_y
_atom_site_fract_z
Si Si1 0.185404 0.750000 0.839195
Si Si2 0.315773 0.750000 0.600321
Si Si3 0.684934 0.496771 0.488252
Si Si4 0.186061 0.390545 0.299361
Si Si5 0.122354 0.527663 0.892566
Si Si6 0.311784 0.388844 0.724559
Si Si7 0.993158 0.387448 0.076850
Si Si8 0.386604 0.385707 0.107833
O O1 0.250000 0.750000 0.838424
O O2 0.162182 0.750000 0.719752
O O3 0.165229 0.635123 0.902554
O O4 0.250000 0.750000 0.602432
O O5 0.338714 0.865545 0.538934
O O6 0.750000 0.492991 0.501197
O O7 0.660896 0.544176 0.598085
O O8 0.668795 0.585660 0.393878
O O9 0.250000 0.422157 0.279731
O O10 0.177753 0.250000 0.316288
O O11 0.151347 0.438196 0.200247
O O12 0.142509 0.439447 0.802306
O O13 0.062574 0.582419 0.859388
O O14 0.121760 0.462416 0.003704
O O15 0.250000 0.445160 0.743368
O O16 0.308548 0.250000 0.744556
O O17 0.988139 0.250000 0.027987
O O18 0.049231 0.389070 0.145733
O O19 0.000000 0.500000 0.000000
O O20 0.368291 0.250000 0.082289
#
# Coordination Sequence:
#
# PCOD8240395 Si02
#       8
#     4   4   8   8   8   8   8   8
#     4  11  20  30  45  71 105 133 157 192 248 303
#     4   9  16  28  45  67  95 131 164 196 236 287
#     4   9  16  28  46  68  94 126 166 200 235 287
#     4   9  17  30  49  71  96 128 162 199 246 294
#     4  11  19  31  49  72  99 131 165 198 250 303
#     4  10  19  29  45  73 104 129 158 202 251 300
#     4   9  18  33  53  73  94 129 175 216 246 293
#     4   9  19  34  51  72  98 127 166 207 247 291
#
# _framework density 16.205020999999999
#
# number of rings (size 3 to 8) (size 9 to 14) (size 15 to 20)
#    0.000    2.429    2.143    1.286    0.000    3.429 
#    0.000    2.143    0.000    1.714    0.000    0.000 
#    0.000    0.000    0.000    0.000    0.000    0.000 
#
# Total GULP energy -693829.287735 kJ/mol
# GULP energy per Si atom -12389.808710 kJ/mol
# Density = 1.616814 g / cm^3
# Si number density = 16.205021 Si / 1000 Ang^3
#
#
#
# Elastic Constant Matrix: (Units=GPa)
#
#
# Indices 1 2 3 4 5 6 
#
# 1 79.4983 38.1764 58.1828 0.0000 0.0000 0.0000
# 2 38.1764 88.2742 43.0222 0.0000 0.0000 0.0000
# 3 58.1828 43.0222 111.1427 0.0000 0.0000 0.0000
# 4 0.0000 0.0000 0.0000 46.2524 0.0000 0.0000
# 5 0.0000 0.0000 0.0000 0.0000 6.2191 0.0000
# 6 0.0000 0.0000 0.0000 0.0000 0.0000 23.4206
#
#
#
# Elastic Compliance Matrix: (Units=1/GPa)
#
#
# Indices 1 2 3 4 5 6 
#
# 1 0.021921 -0.004791 -0.009621 0.000000 0.000000 0.000000
# 2 -0.004791 0.015010 -0.003302 0.000000 0.000000 0.000000
# 3 -0.009621 -0.003302 0.015312 0.000000 0.000000 0.000000
# 4 0.000000 0.000000 0.000000 0.021621 0.000000 0.000000
# 5 0.000000 0.000000 0.000000 0.000000 0.160794 0.000000
# 6 0.000000 0.000000 0.000000 0.000000 0.000000 0.042697
#
#
# Mechanical properties :
#
#
# Convention : Reuss Voigt Hill
#
# Bulk Modulus (GPa) = 59.47214 61.96424 60.71819
# Shear Modulus (GPa) = 15.70411 24.48068 20.09240
#
# Velocity S-wave (km/s) = 3.11640 3.89097 3.52502
# Velocity P-wave (km/s) = 7.05186 7.64898 7.35648
#
# Compressibility (1/GPa) = 0.01681459
#
# Stress axis : x y z
#
# Youngs Moduli (GPa) = 45.61816 66.62357 65.30803
#
# Poissons Ratio (x) = 0.31922 0.62832
# Poissons Ratio (y) = 0.21857 0.21564
# Poissons Ratio (z) = 0.43889 0.21998
#
# Static dielectric constant tensor:
#      x y z
#    x 3.196360 0.000000 0.000000 
#    y 0.000000 2.023090 0.000000 
#    z 0.000000 0.000000 3.003560 
# 
# 
# High freq. dielectric constant tensor:
#      x y z
#    x 1.603240 0.000000 0.000000 
#    y 0.000000 1.637550 0.000000 
#    z 0.000000 0.000000 1.601320 
# 
# From -- ./inp_files/18716.got.cif
#   From: 2010.03.12/outbox.cif.g09.slc.cpg/sg59_10_cif.got.tgz:18716.got - 2010.04.16 16:29:54.
