data_PCOD8240278
_publ_section_title
;
Structure prediction by ZEFSAII (Michael W. Deem and Ramdas Pophale) SiO2 
 PCOD8240278
Probable space group: P M M N
;
_chemical_formula_sum "Si O2"
_cell_formula_units_Z 64
_cell_length_a 13.813418
_cell_length_b 9.412343
_cell_length_c 31.509270
_cell_angle_alpha 90.000000
_cell_angle_beta 90.000000
_cell_angle_gamma 90.000000
_cell_volume 4096.729043
_symmetry_space_group_name_H-M "P M M N"
_symmetry_group_IT_number 59
_space_group.IT_coordinate_system_code '2'
_symmetry_cell_setting 'orthorhombic'
loop_
_space_group_symop_operation_xyz
x,y,z
1/2-x,1/2-y,z
1/2+x,-y,-z
-x,1/2+y,-z
-x,-y,-z
1/2+x,1/2+y,-z
1/2-x,y,z
x,1/2-y,z
loop_
_atom_site_type_symbol
_atom_site_label
_atom_site_fract_x
_atom_site_fract_y
_atom_site_fract_z
Si Si1 0.135703 0.088526 0.520651
Si Si2 0.363417 0.414830 0.690314
Si Si3 0.542571 0.915299 0.394157
Si Si4 0.859617 0.087542 0.987834
Si Si5 0.548166 0.915862 0.061921
Si Si6 0.142193 0.585397 0.440024
Si Si7 0.137988 0.917042 0.863796
Si Si8 0.135235 0.906662 0.768899
O O1 0.250000 0.081726 0.523136
O O2 0.098315 0.250000 0.514804
O O3 0.095280 0.020967 0.564294
O O4 0.099287 0.997244 0.480596
O O5 0.250000 0.442894 0.683754
O O6 0.386931 0.250000 0.695801
O O7 0.418783 0.483156 0.649653
O O8 0.404815 0.488889 0.732674
O O9 0.569556 0.750000 0.392025
O O10 0.427303 0.941938 0.399528
O O11 0.750000 0.059007 0.971619
O O12 0.870644 0.250000 0.003995
O O13 0.935173 0.058852 0.949703
O O14 0.882037 0.983435 0.026629
O O15 0.572971 0.750000 0.065565
O O16 0.568109 0.992113 0.106336
O O17 0.250000 0.532885 0.427734
O O18 0.142200 0.750000 0.452621
O O19 0.250000 0.956886 0.872385
O O20 0.122148 0.750000 0.871665
O O21 0.106482 0.959220 0.815948
O O22 0.250000 0.899614 0.766646
O O23 0.092012 0.750000 0.760554
#
# Coordination Sequence:
#
# PCOD8240278 Si02
#       8
#     8   8   8   8   8   8   8   8
#     4   9  16  26  40  56  75 100 127 154 186 225
#     4   9  16  26  41  60  80 101 126 157 193 233
#     4   9  16  26  40  57  77 101 127 154 188 231
#     4   9  18  32  45  57  83 122 151 172 210 258
#     4  10  19  28  42  66  88 108 144 188 215 236
#     4   9  17  28  40  54  74 100 129 160 190 219
#     4   9  17  29  44  61  85 117 143 163 200 254
#     4   8  15  28  43  59  82 110 134 156 190 240
#
# _framework density 15.622218999999999
#
# number of rings (size 3 to 8) (size 9 to 14) (size 15 to 20)
#    0.000    3.000    0.000    2.250    0.000    4.500 
#    0.000    2.500    0.000    3.000    0.000    0.875 
#    0.000    5.000    0.000    0.000    0.000    0.000 
#
# Total GULP energy -793282.930316 kJ/mol
# GULP energy per Si atom -12395.045786 kJ/mol
# Density = 1.558666 g / cm^3
# Si number density = 15.622219 Si / 1000 Ang^3
#
#
#
# Elastic Constant Matrix: (Units=GPa)
#
#
# Indices 1 2 3 4 5 6 
#
# 1 65.9321 31.5317 53.0031 0.0000 0.0000 0.0000
# 2 31.5317 58.7385 57.2231 0.0000 0.0000 0.0000
# 3 53.0031 57.2231 134.8911 0.0000 0.0000 0.0000
# 4 0.0000 0.0000 0.0000 26.3520 0.0000 0.0000
# 5 0.0000 0.0000 0.0000 0.0000 22.4467 0.0000
# 6 0.0000 0.0000 0.0000 0.0000 0.0000 15.4031
#
#
#
# Elastic Compliance Matrix: (Units=1/GPa)
#
#
# Indices 1 2 3 4 5 6 
#
# 1 0.023402 -0.006143 -0.006589 0.000000 0.000000 0.000000
# 2 -0.006143 0.030629 -0.010579 0.000000 0.000000 0.000000
# 3 -0.006589 -0.010579 0.014491 0.000000 0.000000 0.000000
# 4 0.000000 0.000000 0.000000 0.037948 0.000000 0.000000
# 5 0.000000 0.000000 0.000000 0.000000 0.044550 0.000000
# 6 0.000000 0.000000 0.000000 0.000000 0.000000 0.064922
#
#
# Mechanical properties :
#
#
# Convention : Reuss Voigt Hill
#
# Bulk Modulus (GPa) = 45.66726 60.34196 53.00461
# Shear Modulus (GPa) = 18.52777 20.69394 19.61086
#
# Velocity S-wave (km/s) = 3.44755 3.64352 3.54689
# Velocity P-wave (km/s) = 6.71887 7.51065 7.12577
#
# Compressibility (1/GPa) = 0.02189753
#
# Stress axis : x y z
#
# Youngs Moduli (GPa) = 42.73059 32.64897 69.01042
#
# Poissons Ratio (x) = 0.20057 0.45474
# Poissons Ratio (y) = 0.26251 0.73009
# Poissons Ratio (z) = 0.28157 0.34541
#
# Static dielectric constant tensor:
#      x y z
#    x 2.916570 0.000000 0.000000 
#    y 0.000000 3.007720 0.000000 
#    z 0.000000 0.000000 3.079130 
# 
# 
# High freq. dielectric constant tensor:
#      x y z
#    x 1.578930 0.000000 0.000000 
#    y 0.000000 1.589220 0.000000 
#    z 0.000000 0.000000 1.589890 
# 
# From -- ./inp_files/33352.got.cif
#   From: 2010.03.12/outbox.cif.g09.slc.cpg/sg59_17_cif.got.tgz:33352.got - 2010.04.16 16:29:54.
