data_PCOD8240384
_publ_section_title
;
Structure prediction by ZEFSAII (Michael W. Deem and Ramdas Pophale) SiO2 
 PCOD8240384
Probable space group: P M M N
;
_chemical_formula_sum "Si O2"
_cell_formula_units_Z 48
_cell_length_a 9.354567
_cell_length_b 23.556144
_cell_length_c 13.626319
_cell_angle_alpha 90.000000
_cell_angle_beta 90.000000
_cell_angle_gamma 90.000000
_cell_volume 3002.661961
_symmetry_space_group_name_H-M "P M M N"
_symmetry_group_IT_number 59
_space_group.IT_coordinate_system_code '2'
_symmetry_cell_setting 'orthorhombic'
loop_
_space_group_symop_operation_xyz
x,y,z
1/2-x,1/2-y,z
1/2+x,-y,-z
-x,1/2+y,-z
-x,-y,-z
1/2+x,1/2+y,-z
1/2-x,y,z
x,1/2-y,z
loop_
_atom_site_type_symbol
_atom_site_label
_atom_site_fract_x
_atom_site_fract_y
_atom_site_fract_z
Si Si1 0.085033 0.031369 0.135870
Si Si2 0.080062 0.687501 0.157007
Si Si3 0.585174 0.511903 0.644347
Si Si4 0.915652 0.184733 0.620980
Si Si5 0.416306 0.084493 0.543302
Si Si6 0.917064 0.415466 0.971111
O O1 0.250000 0.045744 0.118638
O O2 0.042231 0.036326 0.249659
O O3 0.994385 0.077446 0.075507
O O4 0.048470 0.968133 0.099614
O O5 0.250000 0.686374 0.156825
O O6 0.025160 0.750000 0.124398
O O7 0.029977 0.674436 0.267791
O O8 0.019803 0.640475 0.082206
O O9 0.750000 0.491589 0.643680
O O10 0.558085 0.561808 0.566546
O O11 0.488314 0.457618 0.621537
O O12 0.750000 0.167789 0.609817
O O13 0.939112 0.250000 0.590441
O O14 0.010456 0.145990 0.549402
O O15 0.250000 0.089339 0.568782
O O16 0.750000 0.409335 0.991988
#
# Coordination Sequence:
#
# PCOD8240384 Si02
#       6
#     8   8   8   8   8   8
#     4   9  17  29  44  61  85 116 145 173 209 258
#     4   8  14  26  45  66  86 112 145 175 208 257
#     4   9  18  32  47  63  87 120 151 176 213 267
#     4   9  17  30  48  67  89 120 151 176 211 264
#     4  10  19  29  45  69  92 114 144 185 224 254
#     4   9  16  26  43  66  87 108 138 178 217 249
#
# _framework density 15.985816
#
# number of rings (size 3 to 8) (size 9 to 14) (size 15 to 20)
#    0.000    3.000    0.000    2.500    0.000    4.333 
#    0.000    4.167    0.000    2.500    0.000    4.667 
#    0.000    0.000    0.000    0.000    0.000    0.000 
#
# Total GULP energy -595159.701370 kJ/mol
# GULP energy per Si atom -12399.160445 kJ/mol
# Density = 1.594943 g / cm^3
# Si number density = 15.985816 Si / 1000 Ang^3
#
#
#
# Elastic Constant Matrix: (Units=GPa)
#
#
# Indices 1 2 3 4 5 6 
#
# 1 60.0862 46.5070 41.4065 0.0000 0.0000 0.0000
# 2 46.5070 102.0590 51.8586 0.0000 0.0000 0.0000
# 3 41.4065 51.8586 97.8769 0.0000 0.0000 0.0000
# 4 0.0000 0.0000 0.0000 26.1062 0.0000 0.0000
# 5 0.0000 0.0000 0.0000 0.0000 25.6716 0.0000
# 6 0.0000 0.0000 0.0000 0.0000 0.0000 25.4717
#
#
#
# Elastic Compliance Matrix: (Units=1/GPa)
#
#
# Indices 1 2 3 4 5 6 
#
# 1 0.029006 -0.009555 -0.007208 0.000000 0.000000 0.000000
# 2 -0.009555 0.016555 -0.004730 0.000000 0.000000 0.000000
# 3 -0.007208 -0.004730 0.015772 0.000000 0.000000 0.000000
# 4 0.000000 0.000000 0.000000 0.038305 0.000000 0.000000
# 5 0.000000 0.000000 0.000000 0.000000 0.038954 0.000000
# 6 0.000000 0.000000 0.000000 0.000000 0.000000 0.039259
#
#
# Mechanical properties :
#
#
# Convention : Reuss Voigt Hill
#
# Bulk Modulus (GPa) = 54.50164 59.95181 57.22673
# Shear Modulus (GPa) = 22.03109 23.46659 22.74884
#
# Velocity S-wave (km/s) = 3.71639 3.83556 3.77644
# Velocity P-wave (km/s) = 7.25143 7.56306 7.40888
#
# Compressibility (1/GPa) = 0.01834807
#
# Stress axis : x y z
#
# Youngs Moduli (GPa) = 34.47620 60.40313 63.40274
#
# Poissons Ratio (x) = 0.57714 0.45702
# Poissons Ratio (y) = 0.32941 0.29986
# Poissons Ratio (z) = 0.24851 0.28568
#
# Static dielectric constant tensor:
#      x y z
#    x 2.889710 0.000000 0.000000 
#    y 0.000000 3.091540 0.000000 
#    z 0.000000 0.000000 3.024050 
# 
# 
# High freq. dielectric constant tensor:
#      x y z
#    x 1.599490 0.000000 0.000000 
#    y 0.000000 1.605830 0.000000 
#    z 0.000000 0.000000 1.604170 
# 
# From -- ./inp_files/15930.got.cif
#   From: 2010.03.12/outbox.cif.g09.slc.cpg/sg59_8_cif.got.tgz:15930.got - 2010.04.16 16:29:54.
