data_PCOD8240605
_publ_section_title
;
Structure prediction by ZEFSAII (Michael W. Deem and Ramdas Pophale) SiO2 
 PCOD8240605
Probable space group: P M M N
;
_chemical_formula_sum "Si O2"
_cell_formula_units_Z 64
_cell_length_a 13.875594
_cell_length_b 9.194399
_cell_length_c 29.023216
_cell_angle_alpha 90.000000
_cell_angle_beta 90.000000
_cell_angle_gamma 90.000000
_cell_volume 3702.716525
_symmetry_space_group_name_H-M "P M M N"
_symmetry_group_IT_number 59
_space_group.IT_coordinate_system_code '2'
_symmetry_cell_setting 'orthorhombic'
loop_
_space_group_symop_operation_xyz
x,y,z
1/2-x,1/2-y,z
1/2+x,-y,-z
-x,1/2+y,-z
-x,-y,-z
1/2+x,1/2+y,-z
1/2-x,y,z
x,1/2-y,z
loop_
_atom_site_type_symbol
_atom_site_label
_atom_site_fract_x
_atom_site_fract_y
_atom_site_fract_z
Si Si1 0.362500 0.419104 0.609137
Si Si2 0.142312 0.422691 0.154390
Si Si3 0.860821 0.582124 0.570245
Si Si4 0.983908 0.920786 0.659375
Si Si5 0.857669 0.577413 0.743190
Si Si6 0.640192 0.579860 0.021421
Si Si7 0.477180 0.420681 0.068959
Si Si8 0.635269 0.414783 0.481844
O O1 0.250000 0.445234 0.617393
O O2 0.387301 0.250000 0.604470
O O3 0.417344 0.489923 0.652659
O O4 0.400396 0.500157 0.563311
O O5 0.250000 0.483465 0.144831
O O6 0.145845 0.250000 0.150543
O O7 0.108215 0.470305 0.205594
O O8 0.067976 0.483182 0.116393
O O9 0.750000 0.540222 0.578158
O O10 0.872201 0.750000 0.556996
O O11 0.913983 0.542372 0.617125
O O12 0.906305 0.491306 0.527772
O O13 0.007300 0.750000 0.662738
O O14 0.933156 0.981648 0.705625
O O15 0.750000 0.516160 0.733412
O O16 0.853380 0.750000 0.739351
O O17 0.750000 0.524587 0.023566
O O18 0.633557 0.750000 0.031194
O O19 0.579086 0.498804 0.060744
O O20 0.598208 0.540932 0.971326
O O21 0.497116 0.250000 0.071717
O O22 0.750000 0.420302 0.483903
O O23 0.596569 0.250000 0.478834
#
# Coordination Sequence:
#
# PCOD8240605 Si02
#       8
#     8   8   8   8   8   8   8   8
#     4  10  21  36  51  65  84 113 148 185 224 263
#     4   8  13  23  43  70  96 120 147 183 226 268
#     4   9  17  29  45  67  96 124 144 165 202 257
#     4  10  19  30  48  72  93 115 144 178 216 259
#     4   8  14  26  46  73 100 120 141 175 221 271
#     4   9  17  28  41  60  91 128 160 191 231 277
#     4   9  16  26  43  67  91 118 157 199 232 266
#     4   9  17  30  48  68  89 114 146 182 215 250
#
# _framework density 17.284607000000001
#
# number of rings (size 3 to 8) (size 9 to 14) (size 15 to 20)
#    0.000    3.000    0.000    2.250    0.000    6.500 
#    0.000    0.000    0.000    3.750    0.000    7.000 
#    0.000    0.000    0.000    0.000    0.000    0.000 
#
# Total GULP energy -793476.026530 kJ/mol
# GULP energy per Si atom -12398.062915 kJ/mol
# Density = 1.724527 g / cm^3
# Si number density = 17.284607 Si / 1000 Ang^3
#
#
#
# Elastic Constant Matrix: (Units=GPa)
#
#
# Indices 1 2 3 4 5 6 
#
# 1 95.3876 38.0572 68.3806 0.0000 0.0000 0.0000
# 2 38.0572 54.0395 43.1892 0.0000 0.0000 0.0000
# 3 68.3806 43.1892 134.2668 0.0000 0.0000 0.0000
# 4 0.0000 0.0000 0.0000 17.7851 0.0000 0.0000
# 5 0.0000 0.0000 0.0000 0.0000 32.8466 0.0000
# 6 0.0000 0.0000 0.0000 0.0000 0.0000 22.8943
#
#
#
# Elastic Compliance Matrix: (Units=1/GPa)
#
#
# Indices 1 2 3 4 5 6 
#
# 1 0.018472 -0.007390 -0.007030 0.000000 0.000000 0.000000
# 2 -0.007390 0.027865 -0.005200 0.000000 0.000000 0.000000
# 3 -0.007030 -0.005200 0.012701 0.000000 0.000000 0.000000
# 4 0.000000 0.000000 0.000000 0.056227 0.000000 0.000000
# 5 0.000000 0.000000 0.000000 0.000000 0.030445 0.000000
# 6 0.000000 0.000000 0.000000 0.000000 0.000000 0.043679
#
#
# Mechanical properties :
#
#
# Convention : Reuss Voigt Hill
#
# Bulk Modulus (GPa) = 50.51075 64.77197 57.64136
# Shear Modulus (GPa) = 21.25603 23.64298 22.44950
#
# Velocity S-wave (km/s) = 3.51061 3.70248 3.60782
# Velocity P-wave (km/s) = 6.76157 7.47214 7.12572
#
# Compressibility (1/GPa) = 0.01979777
#
# Stress axis : x y z
#
# Youngs Moduli (GPa) = 54.13651 35.88737 78.73457
#
# Poissons Ratio (x) = 0.26521 0.55353
# Poissons Ratio (y) = 0.40007 0.40939
# Poissons Ratio (z) = 0.38060 0.18660
#
# Static dielectric constant tensor:
#      x y z
#    x 3.280130 0.000000 0.000000 
#    y 0.000000 2.975470 0.000000 
#    z 0.000000 0.000000 3.345580 
# 
# 
# High freq. dielectric constant tensor:
#      x y z
#    x 1.665350 0.000000 0.000000 
#    y 0.000000 1.638480 0.000000 
#    z 0.000000 0.000000 1.655650 
# 
# From -- ./inp_files/33346.got.cif
#   From: 2010.03.12/outbox.cif.g09.slc.cpg/sg59_17_cif.got.tgz:33346.got - 2010.04.16 16:29:54.
