data_PCOD8240977
_publ_section_title
;
Structure prediction by ZEFSAII (Michael W. Deem and Ramdas Pophale) SiO2 
 PCOD8240977
Probable space group: P M M N
;
_chemical_formula_sum "Si O2"
_cell_formula_units_Z 64
_cell_length_a 18.440452
_cell_length_b 13.241527
_cell_length_c 14.549242
_cell_angle_alpha 90.000000
_cell_angle_beta 90.000000
_cell_angle_gamma 90.000000
_cell_volume 3552.630173
_symmetry_space_group_name_H-M "P M M N"
_symmetry_group_IT_number 59
_space_group.IT_coordinate_system_code '2'
_symmetry_cell_setting 'orthorhombic'
loop_
_space_group_symop_operation_xyz
x,y,z
1/2-x,1/2-y,z
1/2+x,-y,-z
-x,1/2+y,-z
-x,-y,-z
1/2+x,1/2+y,-z
1/2-x,y,z
x,1/2-y,z
loop_
_atom_site_type_symbol
_atom_site_label
_atom_site_fract_x
_atom_site_fract_y
_atom_site_fract_z
Si Si1 0.455669 0.365748 0.517439
Si Si2 0.104400 0.560613 0.947860
Si Si3 0.668757 0.634316 0.613472
Si Si4 0.444166 0.135684 0.038246
Si Si5 0.666995 0.133582 0.868742
Si Si6 0.408097 0.042353 0.224324
Si Si7 0.458842 0.546147 0.643027
Si Si8 0.334493 0.868261 0.759031
O O1 0.454737 0.250000 0.548004
O O2 0.381608 0.402924 0.469252
O O3 0.462084 0.430068 0.610216
O O4 0.519941 0.383871 0.443914
O O5 0.144836 0.573763 0.851874
O O6 0.030066 0.622843 0.951280
O O7 0.087691 0.441334 0.962310
O O8 0.157762 0.604185 0.024975
O O9 0.750000 0.616996 0.579910
O O10 0.650591 0.750000 0.635645
O O11 0.655255 0.573443 0.706465
O O12 0.426475 0.250000 0.007262
O O13 0.406344 0.114814 0.136106
O O14 0.750000 0.109983 0.840779
O O15 0.648193 0.250000 0.852845
O O16 0.609785 0.071773 0.806624
O O17 0.486292 0.053998 0.271567
O O18 0.379981 0.582458 0.675768
O O19 0.250000 0.884826 0.737001
O O20 0.353424 0.750000 0.768577
#
# Coordination Sequence:
#
# PCOD8240977 Si02
#       8
#     8   8   8   8   8   8   8   8
#     4   9  19  35  55  76 102 136 168 209 266 322
#     4  10  20  33  51  77 104 139 180 217 257 308
#     4   9  17  30  50  75  99 126 163 204 251 310
#     4  10  19  32  52  77 106 137 173 219 265 304
#     4  10  20  33  49  72 105 141 177 216 258 309
#     4  10  19  31  51  76 103 134 170 215 262 303
#     4  10  20  35  54  80 105 132 175 223 265 316
#     4  11  22  36  57  81 107 141 180 224 269 314
#
# _framework density 18.014821999999999
#
# number of rings (size 3 to 8) (size 9 to 14) (size 15 to 20)
#    0.000    2.125    1.250    2.625    0.000    3.000 
#    0.000    0.625    0.000    8.250    0.000   12.250 
#    0.000    0.000    0.000    0.000    0.000    0.000 
#
# Total GULP energy -793651.772321 kJ/mol
# GULP energy per Si atom -12400.808943 kJ/mol
# Density = 1.797382 g / cm^3
# Si number density = 18.014822 Si / 1000 Ang^3
#
#
#
# Elastic Constant Matrix: (Units=GPa)
#
#
# Indices 1 2 3 4 5 6 
#
# 1 76.0172 25.9020 22.9059 0.0000 0.0000 0.0000
# 2 25.9020 102.5832 28.9983 0.0000 0.0000 0.0000
# 3 22.9059 28.9983 67.6180 0.0000 0.0000 0.0000
# 4 0.0000 0.0000 0.0000 19.8626 0.0000 0.0000
# 5 0.0000 0.0000 0.0000 0.0000 14.6650 0.0000
# 6 0.0000 0.0000 0.0000 0.0000 0.0000 25.9844
#
#
#
# Elastic Compliance Matrix: (Units=1/GPa)
#
#
# Indices 1 2 3 4 5 6 
#
# 1 0.015293 -0.002728 -0.004011 0.000000 0.000000 0.000000
# 2 -0.002728 0.011579 -0.004042 0.000000 0.000000 0.000000
# 3 -0.004011 -0.004042 0.017881 0.000000 0.000000 0.000000
# 4 0.000000 0.000000 0.000000 0.050346 0.000000 0.000000
# 5 0.000000 0.000000 0.000000 0.000000 0.068190 0.000000
# 6 0.000000 0.000000 0.000000 0.000000 0.000000 0.038485
#
#
# Mechanical properties :
#
#
# Convention : Reuss Voigt Hill
#
# Bulk Modulus (GPa) = 43.11695 44.64785 43.88240
# Shear Modulus (GPa) = 21.63892 23.32988 22.48440
#
# Velocity S-wave (km/s) = 3.46955 3.60257 3.53669
# Velocity P-wave (km/s) = 6.32744 6.49172 6.41011
#
# Compressibility (1/GPa) = 0.02319274
#
# Stress axis : x y z
#
# Youngs Moduli (GPa) = 65.38993 86.35962 55.92523
#
# Poissons Ratio (x) = 0.23556 0.22430
# Poissons Ratio (y) = 0.17836 0.22604
# Poissons Ratio (z) = 0.26226 0.34906
#
# Static dielectric constant tensor:
#      x y z
#    x 3.346530 0.000000 0.000000 
#    y 0.000000 3.300990 0.000000 
#    z 0.000000 0.000000 3.212990 
# 
# 
# High freq. dielectric constant tensor:
#      x y z
#    x 1.696440 0.000000 0.000000 
#    y 0.000000 1.696000 0.000000 
#    z 0.000000 0.000000 1.687100 
# 
# From -- ./inp_files/23959.got.cif
#   From: 2010.03.12/outbox.cif.g09.slc.cpg/sg59_12_cif.got.tgz:23959.got - 2010.04.16 16:29:54.
