data_PCOD8240044
_publ_section_title
;
Structure prediction by ZEFSAII (Michael W. Deem and Ramdas Pophale) SiO2 
 PCOD8240044
Probable space group: P M M N
;
_chemical_formula_sum "Si O2"
_cell_formula_units_Z 64
_cell_length_a 9.011348
_cell_length_b 14.631610
_cell_length_c 25.979812
_cell_angle_alpha 90.000000
_cell_angle_beta 90.000000
_cell_angle_gamma 90.000000
_cell_volume 3425.451969
_symmetry_space_group_name_H-M "P M M N"
_symmetry_group_IT_number 59
_space_group.IT_coordinate_system_code '2'
_symmetry_cell_setting 'orthorhombic'
loop_
_space_group_symop_operation_xyz
x,y,z
1/2-x,1/2-y,z
1/2+x,-y,-z
-x,1/2+y,-z
-x,-y,-z
1/2+x,1/2+y,-z
1/2-x,y,z
x,1/2-y,z
loop_
_atom_site_type_symbol
_atom_site_label
_atom_site_fract_x
_atom_site_fract_y
_atom_site_fract_z
Si Si1 0.576196 0.507774 0.445470
Si Si2 0.925556 0.004742 0.180156
Si Si3 0.922567 0.144114 0.628159
Si Si4 0.583845 0.852945 0.885118
Si Si5 0.576643 0.356081 0.363179
Si Si6 0.424860 0.404066 0.002696
Si Si7 0.074867 0.151876 0.893094
Si Si8 0.076757 0.007516 0.289173
O O1 0.500000 0.500000 0.500000
O O2 0.750000 0.520762 0.452970
O O3 0.514945 0.598607 0.417827
O O4 0.539852 0.414509 0.414353
O O5 0.750000 0.999552 0.187182
O O6 0.969303 0.098588 0.152815
O O7 0.993116 0.925609 0.143422
O O8 0.999667 0.993976 0.235005
O O9 0.750000 0.138469 0.613360
O O10 0.971345 0.250000 0.636297
O O11 0.955558 0.085666 0.679458
O O12 0.750000 0.895526 0.880771
O O13 0.586765 0.750000 0.865871
O O14 0.527677 0.855047 0.944359
O O15 0.750000 0.361902 0.349938
O O16 0.527623 0.250000 0.370804
O O17 0.488142 0.401955 0.316302
O O18 0.250000 0.415624 0.000556
O O19 0.500000 0.500000 0.000000
O O20 0.482133 0.350696 0.952140
O O21 0.250000 0.138692 0.893138
O O22 0.028545 0.250000 0.870014
O O23 0.250000 0.024287 0.281416
#
# Coordination Sequence:
#
# PCOD8240044 Si02
#       8
#     8   8   8   8   8   8   8   8
#     4  10  20  34  54  84 120 154 188 227 270 318
#     4  11  22  36  55  79 106 138 174 218 268 318
#     4   9  19  37  59  81 108 146 188 228 275 326
#     4  10  21  36  55  78 104 137 175 215 262 316
#     4   9  19  37  59  81 107 143 186 228 270 316
#     4  10  18  32  55  78 103 135 170 210 258 313
#     4   9  18  33  53  77 104 135 171 209 255 314
#     4  10  21  37  57  80 107 139 176 224 275 325
#
# _framework density 18.683665999999999
#
# number of rings (size 3 to 8) (size 9 to 14) (size 15 to 20)
#    0.000    2.250    1.250    1.500    0.000    4.750 
#    0.000    1.250    0.000    3.750    0.000    0.000 
#    0.000    0.000    0.000    0.000    0.000    0.000 
#
# Total GULP energy -793404.753580 kJ/mol
# GULP energy per Si atom -12396.949275 kJ/mol
# Density = 1.864114 g / cm^3
# Si number density = 18.683666 Si / 1000 Ang^3
#
#
#
# Elastic Constant Matrix: (Units=GPa)
#
#
# Indices 1 2 3 4 5 6 
#
# 1 59.0478 41.4584 59.0364 0.0000 0.0000 0.0000
# 2 41.4584 139.7949 59.3103 0.0000 0.0000 0.0000
# 3 59.0364 59.3103 146.5579 0.0000 0.0000 0.0000
# 4 0.0000 0.0000 0.0000 -62.6354 0.0000 0.0000
# 5 0.0000 0.0000 0.0000 0.0000 25.7474 0.0000
# 6 0.0000 0.0000 0.0000 0.0000 0.0000 27.5822
#
#
#
# Elastic Compliance Matrix: (Units=1/GPa)
#
#
# Indices 1 2 3 4 5 6 
#
# 1 0.030673 -0.004653 -0.010473 0.000000 0.000000 0.000000
# 2 -0.004653 0.009342 -0.001906 0.000000 0.000000 0.000000
# 3 -0.010473 -0.001906 0.011813 0.000000 0.000000 0.000000
# 4 0.000000 0.000000 0.000000 -0.015965 0.000000 0.000000
# 5 0.000000 0.000000 0.000000 0.000000 0.038839 0.000000
# 6 0.000000 0.000000 0.000000 0.000000 0.000000 0.036255
#
#
# Mechanical properties :
#
#
# Convention : Reuss Voigt Hill
#
# Bulk Modulus (GPa) = 56.29302 73.89008 65.09155
# Shear Modulus (GPa) = 33.12504 10.51186 21.81845
#
# Velocity S-wave (km/s) = 4.21520 2.37454 3.42099
# Velocity P-wave (km/s) = 7.34067 6.86671 7.10764
#
# Compressibility (1/GPa) = 0.01776419
#
# Stress axis : x y z
#
# Youngs Moduli (GPa) = 32.60163 107.04224 84.65100
#
# Poissons Ratio (x) = 0.49812 0.88652
# Poissons Ratio (y) = 0.15171 0.16136
# Poissons Ratio (z) = 0.34142 0.20404
#
# Static dielectric constant tensor:
#      x y z
#    x 3.336660 0.000000 0.000000 
#    y 0.000000 3.556100 0.000000 
#    z 0.000000 0.000000 3.191930 
# 
# 
# High freq. dielectric constant tensor:
#      x y z
#    x 1.713650 0.000000 0.000000 
#    y 0.000000 1.731010 0.000000 
#    z 0.000000 0.000000 1.727130 
# 
# From -- ./inp_files/31645.got.cif
#   From: 2010.03.12/outbox.cif.g09.slc.cpg/sg59_16_cif.got.tgz:31645.got - 2010.04.16 16:29:54.
