data_PCOD8240495
_publ_section_title
;
Structure prediction by ZEFSAII (Michael W. Deem and Ramdas Pophale) SiO2 
 PCOD8240495
Probable space group: P M M N
;
_chemical_formula_sum "Si O2"
_cell_formula_units_Z 64
_cell_length_a 9.326469
_cell_length_b 28.270169
_cell_length_c 15.388444
_cell_angle_alpha 90.000000
_cell_angle_beta 90.000000
_cell_angle_gamma 90.000000
_cell_volume 4057.330299
_symmetry_space_group_name_H-M "P M M N"
_symmetry_group_IT_number 59
_space_group.IT_coordinate_system_code '2'
_symmetry_cell_setting 'orthorhombic'
loop_
_space_group_symop_operation_xyz
x,y,z
1/2-x,1/2-y,z
1/2+x,-y,-z
-x,1/2+y,-z
-x,-y,-z
1/2+x,1/2+y,-z
1/2-x,y,z
x,1/2-y,z
loop_
_atom_site_type_symbol
_atom_site_label
_atom_site_fract_x
_atom_site_fract_y
_atom_site_fract_z
Si Si1 0.591370 0.306074 0.518464
Si Si2 0.914630 0.054892 0.919965
Si Si3 0.415509 0.450181 0.091687
Si Si4 0.415811 0.142975 0.178957
Si Si5 0.585032 0.805990 0.317892
Si Si6 0.580760 0.303561 0.325284
Si Si7 0.582293 0.152423 0.842752
Si Si8 0.585737 0.694699 0.997616
O O1 0.750000 0.326849 0.539317
O O2 0.601807 0.250000 0.519294
O O3 0.478001 0.323780 0.589984
O O4 0.540392 0.321584 0.422268
O O5 0.750000 0.054481 0.948701
O O6 0.943382 0.095940 0.849979
O O7 0.958583 0.003633 0.879806
O O8 0.002523 0.066255 0.006013
O O9 0.250000 0.447025 0.066100
O O10 0.448531 0.413187 0.168879
O O11 0.250000 0.152963 0.199354
O O12 0.507803 0.161110 0.258698
O O13 0.462121 0.168978 0.090516
O O14 0.750000 0.821537 0.312710
O O15 0.568214 0.750000 0.306630
O O16 0.496498 0.831189 0.243270
O O17 0.750000 0.305352 0.311857
O O18 0.524833 0.250000 0.310004
O O19 0.750000 0.165030 0.836374
O O20 0.518077 0.179102 0.925415
O O21 0.750000 0.681918 0.022159
O O22 0.567376 0.750000 0.981673
#
# Coordination Sequence:
#
# PCOD8240495 Si02
#       8
#     8   8   8   8   8   8   8   8
#     4   8  15  30  49  67  89 118 151 187 227 267
#     4   9  18  31  47  67  88 113 150 194 234 272
#     4   9  17  31  49  66  87 116 150 191 236 272
#     4  10  19  30  46  67  91 122 156 188 225 270
#     4  10  20  32  47  68  93 121 153 188 225 268
#     4   9  18  31  47  68  95 125 154 186 224 267
#     4  11  21  31  45  66  91 120 154 189 227 272
#     4  10  20  32  43  59  89 126 160 189 218 259
#
# _framework density 15.773918999999999
#
# number of rings (size 3 to 8) (size 9 to 14) (size 15 to 20)
#    0.000    2.500    1.250    2.250    0.000    5.250 
#    0.000    1.250    0.000    0.000    0.000    0.875 
#    0.000    0.000    0.000    0.000    0.000    0.000 
#
# Total GULP energy -793440.704535 kJ/mol
# GULP energy per Si atom -12397.511008 kJ/mol
# Density = 1.573802 g / cm^3
# Si number density = 15.773919 Si / 1000 Ang^3
#
#
#
# Elastic Constant Matrix: (Units=GPa)
#
#
# Indices 1 2 3 4 5 6 
#
# 1 78.3252 37.5325 61.7009 0.0000 0.0000 0.0000
# 2 37.5325 68.0824 44.0445 0.0000 0.0000 0.0000
# 3 61.7009 44.0445 116.5133 0.0000 0.0000 0.0000
# 4 0.0000 0.0000 0.0000 7.4012 0.0000 0.0000
# 5 0.0000 0.0000 0.0000 0.0000 30.1307 0.0000
# 6 0.0000 0.0000 0.0000 0.0000 0.0000 20.0391
#
#
#
# Elastic Compliance Matrix: (Units=1/GPa)
#
#
# Indices 1 2 3 4 5 6 
#
# 1 0.023966 -0.006621 -0.010189 0.000000 0.000000 0.000000
# 2 -0.006621 0.021272 -0.004535 0.000000 0.000000 0.000000
# 3 -0.010189 -0.004535 0.015693 0.000000 0.000000 0.000000
# 4 0.000000 0.000000 0.000000 0.135114 0.000000 0.000000
# 5 0.000000 0.000000 0.000000 0.000000 0.033189 0.000000
# 6 0.000000 0.000000 0.000000 0.000000 0.000000 0.049903
#
#
# Mechanical properties :
#
#
# Convention : Reuss Voigt Hill
#
# Bulk Modulus (GPa) = 54.82019 61.05296 57.93657
# Shear Modulus (GPa) = 15.24831 19.49038 17.36935
#
# Velocity S-wave (km/s) = 3.11252 3.51894 3.32195
# Velocity P-wave (km/s) = 6.90986 7.43637 7.17794
#
# Compressibility (1/GPa) = 0.01824145
#
# Stress axis : x y z
#
# Youngs Moduli (GPa) = 41.72584 47.01055 63.72407
#
# Poissons Ratio (x) = 0.31124 0.64927
# Poissons Ratio (y) = 0.27625 0.28900
# Poissons Ratio (z) = 0.42513 0.21320
#
# Static dielectric constant tensor:
#      x y z
#    x 3.008390 0.000000 0.000000 
#    y 0.000000 3.106720 0.000000 
#    z 0.000000 0.000000 3.020470 
# 
# 
# High freq. dielectric constant tensor:
#      x y z
#    x 1.612080 0.000000 0.000000 
#    y 0.000000 1.590830 0.000000 
#    z 0.000000 0.000000 1.590630 
# 
# From -- ./inp_files/21818.got.cif
#   From: 2010.03.12/outbox.cif.g09.slc.cpg/sg59_11_cif.got.tgz:21818.got - 2010.04.16 16:29:54.
