data_PCOD8240948
_publ_section_title
;
Structure prediction by ZEFSAII (Michael W. Deem and Ramdas Pophale) SiO2 
 PCOD8240948
Probable space group: P M M N
;
_chemical_formula_sum "Si O2"
_cell_formula_units_Z 56
_cell_length_a 9.264576
_cell_length_b 18.755586
_cell_length_c 17.811458
_cell_angle_alpha 90.000000
_cell_angle_beta 90.000000
_cell_angle_gamma 90.000000
_cell_volume 3094.964396
_symmetry_space_group_name_H-M "P M M N"
_symmetry_group_IT_number 59
_space_group.IT_coordinate_system_code '2'
_symmetry_cell_setting 'orthorhombic'
loop_
_space_group_symop_operation_xyz
x,y,z
1/2-x,1/2-y,z
1/2+x,-y,-z
-x,1/2+y,-z
-x,-y,-z
1/2+x,1/2+y,-z
1/2-x,y,z
x,1/2-y,z
loop_
_atom_site_type_symbol
_atom_site_label
_atom_site_fract_x
_atom_site_fract_y
_atom_site_fract_z
Si Si1 0.418790 0.921720 0.583806
Si Si2 0.581497 0.932407 0.834318
Si Si3 0.418430 0.332022 0.300757
Si Si4 0.586049 0.928901 0.997021
Si Si5 0.583950 0.062474 0.587871
Si Si6 0.583992 0.168056 0.719232
Si Si7 0.419203 0.417853 0.840391
O O1 0.250000 0.922553 0.601455
O O2 0.492327 0.856163 0.626562
O O3 0.452217 0.911382 0.495890
O O4 0.486431 0.995859 0.612523
O O5 0.750000 0.951256 0.824141
O O6 0.529661 0.877398 0.771125
O O7 0.553532 0.892853 0.915663
O O8 0.493173 0.005572 0.826958
O O9 0.250000 0.343632 0.317179
O O10 0.453856 0.250000 0.283913
O O11 0.750000 0.953168 0.999267
O O12 0.551862 0.886651 0.074502
O O13 0.500000 0.000000 0.000000
O O14 0.750000 0.038105 0.594214
O O15 0.546985 0.127305 0.642544
O O16 0.750000 0.156420 0.742357
O O17 0.548156 0.250000 0.704007
O O18 0.484415 0.140877 0.786042
O O19 0.250000 0.426574 0.824015
#
# Coordination Sequence:
#
# PCOD8240948 Si02
#       7
#     8   8   8   8   8   8   8
#     4  10  20  34  55  80 102 126 160 204 251 296
#     4   9  17  32  53  73  96 131 172 206 239 288
#     4  10  21  35  50  71 101 135 169 204 243 290
#     4   8  15  28  47  72  98 125 160 202 245 288
#     4   9  19  36  56  76  99 129 165 203 242 290
#     4  10  21  36  52  70  96 133 172 203 236 287
#     4  10  19  31  50  77 104 127 158 205 257 298
#
# _framework density 18.093909
#
# number of rings (size 3 to 8) (size 9 to 14) (size 15 to 20)
#    0.000    2.571    0.000    1.714    0.000    6.857 
#    0.000    2.143    0.000    2.571    0.000    0.000 
#    0.000    0.000    0.000    0.000    0.000    0.000 
#
# Total GULP energy -694073.900462 kJ/mol
# GULP energy per Si atom -12394.176794 kJ/mol
# Density = 1.805273 g / cm^3
# Si number density = 18.093909 Si / 1000 Ang^3
#
#
#
# Elastic Constant Matrix: (Units=GPa)
#
#
# Indices 1 2 3 4 5 6 
#
# 1 62.1188 37.2780 44.1863 0.0000 0.0000 0.0000
# 2 37.2780 85.8207 51.4782 0.0000 0.0000 0.0000
# 3 44.1863 51.4782 110.7484 0.0000 0.0000 0.0000
# 4 0.0000 0.0000 0.0000 11.4172 0.0000 0.0000
# 5 0.0000 0.0000 0.0000 0.0000 28.5777 0.0000
# 6 0.0000 0.0000 0.0000 0.0000 0.0000 22.0115
#
#
#
# Elastic Compliance Matrix: (Units=1/GPa)
#
#
# Indices 1 2 3 4 5 6 
#
# 1 0.025024 -0.006768 -0.006838 0.000000 0.000000 0.000000
# 2 -0.006768 0.017987 -0.005661 0.000000 0.000000 0.000000
# 3 -0.006838 -0.005661 0.014389 0.000000 0.000000 0.000000
# 4 0.000000 0.000000 0.000000 0.087587 0.000000 0.000000
# 5 0.000000 0.000000 0.000000 0.000000 0.034992 0.000000
# 6 0.000000 0.000000 0.000000 0.000000 0.000000 0.045431
#
#
# Mechanical properties :
#
#
# Convention : Reuss Voigt Hill
#
# Bulk Modulus (GPa) = 53.00318 58.28586 55.64452
# Shear Modulus (GPa) = 18.50260 20.78432 19.64346
#
# Velocity S-wave (km/s) = 3.20126 3.39291 3.29848
# Velocity P-wave (km/s) = 6.55905 6.90160 6.73250
#
# Compressibility (1/GPa) = 0.01886679
#
# Stress axis : x y z
#
# Youngs Moduli (GPa) = 39.96213 55.59441 69.49772
#
# Poissons Ratio (x) = 0.37625 0.47523
# Poissons Ratio (y) = 0.27046 0.39341
# Poissons Ratio (z) = 0.27327 0.31470
#
# Static dielectric constant tensor:
#      x y z
#    x 3.358300 0.000000 0.000000 
#    y 0.000000 3.041390 0.000000 
#    z 0.000000 0.000000 4.045840 
# 
# 
# High freq. dielectric constant tensor:
#      x y z
#    x 1.702320 0.000000 0.000000 
#    y 0.000000 1.669130 0.000000 
#    z 0.000000 0.000000 1.722490 
# 
# From -- ./inp_files/26035.got.cif
#   From: 2010.03.12/outbox.cif.g09.slc.cpg/sg59_14_cif.got.tgz:26035.got - 2010.04.16 16:29:54.
