data_PCOD8240705
_publ_section_title
;
Structure prediction by ZEFSAII (Michael W. Deem and Ramdas Pophale) SiO2 
 PCOD8240705
Probable space group: P M M N
;
_chemical_formula_sum "Si O2"
_cell_formula_units_Z 64
_cell_length_a 18.054782
_cell_length_b 8.845311
_cell_length_c 24.308710
_cell_angle_alpha 90.000000
_cell_angle_beta 90.000000
_cell_angle_gamma 90.000000
_cell_volume 3882.104921
_symmetry_space_group_name_H-M "P M M N"
_symmetry_group_IT_number 59
_space_group.IT_coordinate_system_code '2'
_symmetry_cell_setting 'orthorhombic'
loop_
_space_group_symop_operation_xyz
x,y,z
1/2-x,1/2-y,z
1/2+x,-y,-z
-x,1/2+y,-z
-x,-y,-z
1/2+x,1/2+y,-z
1/2-x,y,z
x,1/2-y,z
loop_
_atom_site_type_symbol
_atom_site_label
_atom_site_fract_x
_atom_site_fract_y
_atom_site_fract_z
Si Si1 0.534847 0.073048 0.115382
Si Si2 0.029001 0.429385 0.228640
Si Si3 0.972327 0.421644 0.445433
Si Si4 0.462062 0.427966 0.663407
Si Si5 0.834007 0.426101 0.041727
Si Si6 0.166605 0.923853 0.179918
Si Si7 0.379163 0.072404 0.070747
Si Si8 0.667410 0.422141 0.385248
O O1 0.542436 0.250000 0.121959
O O2 0.519467 0.009239 0.176705
O O3 0.610929 0.009735 0.089074
O O4 0.466428 0.032074 0.075246
O O5 0.025187 0.250000 0.234735
O O6 0.113890 0.478180 0.219397
O O7 0.999178 0.506131 0.282917
O O8 0.001004 0.250000 0.445323
O O9 0.000000 0.500000 0.500000
O O10 0.004096 0.505714 0.390853
O O11 0.881823 0.429243 0.441550
O O12 0.469116 0.250000 0.663577
O O13 0.375133 0.478506 0.661150
O O14 0.750000 0.450425 0.062231
O O15 0.850165 0.250000 0.029297
O O16 0.847660 0.521166 0.987248
O O17 0.250000 0.939612 0.202610
O O18 0.140566 0.750000 0.180355
O O19 0.165188 0.984874 0.117763
O O20 0.365724 0.250000 0.078759
O O21 0.750000 0.486109 0.396015
O O22 0.671053 0.250000 0.363772
#
# Coordination Sequence:
#
# PCOD8240705 Si02
#       8
#     8   8   8   8   8   8   8   8
#     4   8  17  32  48  66  89 119 159 198 240 292
#     4  10  19  34  53  72  96 129 168 209 246 293
#     4   9  17  30  50  77 106 137 172 210 251 297
#     4  10  19  31  50  76 105 137 172 210 252 299
#     4  10  19  31  47  66  90 119 152 194 244 297
#     4  10  20  33  50  73  98 123 155 199 250 301
#     4  10  19  31  48  68  91 120 154 195 241 295
#     4   8  16  31  50  73 102 135 172 214 256 295
#
# _framework density 16.485901999999999
#
# number of rings (size 3 to 8) (size 9 to 14) (size 15 to 20)
#    0.750    1.875    0.000    3.750    0.000    3.000 
#    0.000    3.750    0.000    3.000    0.000    1.750 
#    0.000    0.000    0.000    0.000    0.000    0.000 
#
# Total GULP energy -793072.248103 kJ/mol
# GULP energy per Si atom -12391.753877 kJ/mol
# Density = 1.644838 g / cm^3
# Si number density = 16.485902 Si / 1000 Ang^3
#
#
#
# Elastic Constant Matrix: (Units=GPa)
#
#
# Indices 1 2 3 4 5 6 
#
# 1 96.2182 36.5114 54.5306 0.0000 0.0000 0.0000
# 2 36.5114 93.9148 45.0891 0.0000 0.0000 0.0000
# 3 54.5306 45.0891 104.4962 0.0000 0.0000 0.0000
# 4 0.0000 0.0000 0.0000 27.2501 0.0000 0.0000
# 5 0.0000 0.0000 0.0000 0.0000 18.1693 0.0000
# 6 0.0000 0.0000 0.0000 0.0000 0.0000 20.6516
#
#
#
# Elastic Compliance Matrix: (Units=1/GPa)
#
#
# Indices 1 2 3 4 5 6 
#
# 1 0.015268 -0.002662 -0.006819 0.000000 0.000000 0.000000
# 2 -0.002662 0.013894 -0.004606 0.000000 0.000000 0.000000
# 3 -0.006819 -0.004606 0.015116 0.000000 0.000000 0.000000
# 4 0.000000 0.000000 0.000000 0.036697 0.000000 0.000000
# 5 0.000000 0.000000 0.000000 0.000000 0.055038 0.000000
# 6 0.000000 0.000000 0.000000 0.000000 0.000000 0.048422
#
#
# Mechanical properties :
#
#
# Convention : Reuss Voigt Hill
#
# Bulk Modulus (GPa) = 62.09687 62.98795 62.54241
# Shear Modulus (GPa) = 22.93831 23.78076 23.35954
#
# Velocity S-wave (km/s) = 3.73418 3.80213 3.76831
# Velocity P-wave (km/s) = 7.50603 7.58716 7.54671
#
# Compressibility (1/GPa) = 0.01610387
#
# Stress axis : x y z
#
# Youngs Moduli (GPa) = 65.49840 71.97213 66.15723
#
# Poissons Ratio (x) = 0.19158 0.45110
# Poissons Ratio (y) = 0.17435 0.30473
# Poissons Ratio (z) = 0.44661 0.33151
#
# Static dielectric constant tensor:
#      x y z
#    x 3.213600 0.000000 0.000000 
#    y 0.000000 3.117370 0.000000 
#    z 0.000000 0.000000 2.996690 
# 
# 
# High freq. dielectric constant tensor:
#      x y z
#    x 1.627320 0.000000 0.000000 
#    y 0.000000 1.637240 0.000000 
#    z 0.000000 0.000000 1.611740 
# 
# From -- ./inp_files/31011.got.cif
#   From: 2010.03.12/outbox.cif.g09.slc.cpg/sg59_16_cif.got.tgz:31011.got - 2010.04.16 16:29:54.
