data_PCOD8240728
_publ_section_title
;
Structure prediction by ZEFSAII (Michael W. Deem and Ramdas Pophale) SiO2 
 PCOD8240728
Probable space group: P M M N
;
_chemical_formula_sum "Si O2"
_cell_formula_units_Z 64
_cell_length_a 23.449861
_cell_length_b 9.075784
_cell_length_c 18.843591
_cell_angle_alpha 90.000000
_cell_angle_beta 90.000000
_cell_angle_gamma 90.000000
_cell_volume 4010.403710
_symmetry_space_group_name_H-M "P M M N"
_symmetry_group_IT_number 59
_space_group.IT_coordinate_system_code '2'
_symmetry_cell_setting 'orthorhombic'
loop_
_space_group_symop_operation_xyz
x,y,z
1/2-x,1/2-y,z
1/2+x,-y,-z
-x,1/2+y,-z
-x,-y,-z
1/2+x,1/2+y,-z
1/2-x,y,z
x,1/2-y,z
loop_
_atom_site_type_symbol
_atom_site_label
_atom_site_fract_x
_atom_site_fract_y
_atom_site_fract_z
Si Si1 0.184770 0.079952 0.616148
Si Si2 0.132735 0.574575 0.747614
Si Si3 0.186657 0.575144 0.893981
Si Si4 0.085321 0.920226 0.989800
Si Si5 0.477892 0.420244 0.108435
Si Si6 0.011535 0.422560 0.753522
Si Si7 0.085552 0.422004 0.515579
Si Si8 0.974812 0.080170 0.599933
O O1 0.250000 0.058345 0.592845
O O2 0.171421 0.250000 0.636240
O O3 0.145679 0.029925 0.549924
O O4 0.172095 0.977939 0.683314
O O5 0.126285 0.750000 0.746430
O O6 0.162768 0.517115 0.819268
O O7 0.070952 0.503751 0.742529
O O8 0.250000 0.510571 0.907204
O O9 0.188133 0.750000 0.891121
O O10 0.145625 0.525013 0.958263
O O11 0.086596 0.750000 0.013400
O O12 0.038876 0.944066 0.928259
O O13 0.072072 0.019371 0.057942
O O14 0.466178 0.250000 0.124894
O O15 0.476521 0.511181 0.181001
O O16 0.023071 0.250000 0.765511
O O17 0.973134 0.450573 0.683877
O O18 0.083650 0.250000 0.502322
O O19 0.077195 0.496797 0.438746
O O20 0.035633 0.474438 0.569094
O O21 0.966524 0.250000 0.582740
#
# Coordination Sequence:
#
# PCOD8240728 Si02
#       8
#     8   8   8   8   8   8   8   8
#     4  10  20  34  49  67  96 132 165 196 233 280
#     4  11  20  31  46  69  99 130 167 200 230 271
#     4   9  17  30  47  67  94 126 161 198 231 269
#     4   9  17  31  47  67  93 125 159 193 236 281
#     4  10  19  31  47  70  95 122 158 197 238 283
#     4  11  20  32  49  70  97 128 159 193 241 290
#     4   9  17  31  47  67  92 122 158 194 233 277
#     4   9  18  31  47  67  92 121 155 194 237 283
#
# _framework density 15.958493000000001
#
# number of rings (size 3 to 8) (size 9 to 14) (size 15 to 20)
#    0.000    2.250    2.500    1.500    0.000    2.750 
#    0.000    0.000    0.000    1.875    0.000    0.875 
#    0.000    1.000    0.000    0.000    0.000    0.000 
#
# Total GULP energy -793624.503171 kJ/mol
# GULP energy per Si atom -12400.382862 kJ/mol
# Density = 1.592217 g / cm^3
# Si number density = 15.958493 Si / 1000 Ang^3
#
#
#
# Elastic Constant Matrix: (Units=GPa)
#
#
# Indices 1 2 3 4 5 6 
#
# 1 92.9256 34.2233 58.3169 0.0000 0.0000 0.0000
# 2 34.2233 62.4106 47.1350 0.0000 0.0000 0.0000
# 3 58.3169 47.1350 102.9959 0.0000 0.0000 0.0000
# 4 0.0000 0.0000 0.0000 28.8728 0.0000 0.0000
# 5 0.0000 0.0000 0.0000 0.0000 21.8064 0.0000
# 6 0.0000 0.0000 0.0000 0.0000 0.0000 16.1415
#
#
#
# Elastic Compliance Matrix: (Units=1/GPa)
#
#
# Indices 1 2 3 4 5 6 
#
# 1 0.017089 -0.003153 -0.008233 0.000000 0.000000 0.000000
# 2 -0.003153 0.025068 -0.009687 0.000000 0.000000 0.000000
# 3 -0.008233 -0.009687 0.018804 0.000000 0.000000 0.000000
# 4 0.000000 0.000000 0.000000 0.034635 0.000000 0.000000
# 5 0.000000 0.000000 0.000000 0.000000 0.045858 0.000000
# 6 0.000000 0.000000 0.000000 0.000000 0.000000 0.061952
#
#
# Mechanical properties :
#
#
# Convention : Reuss Voigt Hill
#
# Bulk Modulus (GPa) = 53.14889 59.74249 56.44569
# Shear Modulus (GPa) = 19.85522 21.27461 20.56492
#
# Velocity S-wave (km/s) = 3.53112 3.65515 3.59367
# Velocity P-wave (km/s) = 7.07120 7.43848 7.25716
#
# Compressibility (1/GPa) = 0.01881507
#
# Stress axis : x y z
#
# Youngs Moduli (GPa) = 58.51597 39.89204 53.18090
#
# Poissons Ratio (x) = 0.12578 0.43784
# Poissons Ratio (y) = 0.18451 0.51514
# Poissons Ratio (z) = 0.48177 0.38642
#
# Static dielectric constant tensor:
#      x y z
#    x 3.008630 0.000000 0.000000 
#    y 0.000000 2.994910 0.000000 
#    z 0.000000 0.000000 3.078800 
# 
# 
# High freq. dielectric constant tensor:
#      x y z
#    x 1.589200 0.000000 0.000000 
#    y 0.000000 1.610050 0.000000 
#    z 0.000000 0.000000 1.606980 
# 
# From -- ./inp_files/26479.got.cif
#   From: 2010.03.12/outbox.cif.g09.slc.cpg/sg59_14_cif.got.tgz:26479.got - 2010.04.16 16:29:54.
