data_PCOD8240867
_publ_section_title
;
Structure prediction by ZEFSAII (Michael W. Deem and Ramdas Pophale) SiO2 
 PCOD8240867
Probable space group: P M M N
;
_chemical_formula_sum "Si O2"
_cell_formula_units_Z 40
_cell_length_a 7.821247
_cell_length_b 9.195124
_cell_length_c 29.256186
_cell_angle_alpha 90.000000
_cell_angle_beta 90.000000
_cell_angle_gamma 90.000000
_cell_volume 2104.026959
_symmetry_space_group_name_H-M "P M M N"
_symmetry_group_IT_number 59
_space_group.IT_coordinate_system_code '2'
_symmetry_cell_setting 'orthorhombic'
loop_
_space_group_symop_operation_xyz
x,y,z
1/2-x,1/2-y,z
1/2+x,-y,-z
-x,1/2+y,-z
-x,-y,-z
1/2+x,1/2+y,-z
1/2-x,y,z
x,1/2-y,z
loop_
_atom_site_type_symbol
_atom_site_label
_atom_site_fract_x
_atom_site_fract_y
_atom_site_fract_z
Si Si1 0.050190 0.415182 0.454886
Si Si2 0.554219 0.078967 0.954129
Si Si3 0.945066 0.588229 0.368246
Si Si4 0.750000 0.575920 0.212874
Si Si5 0.937788 0.077540 0.727703
Si Si6 0.250000 0.422160 0.889562
O O1 0.250000 0.424276 0.446558
O O2 0.987028 0.250000 0.460257
O O3 0.000000 0.500000 0.500000
O O4 0.958911 0.484410 0.411494
O O5 0.750000 0.039520 0.940392
O O6 0.534771 0.250000 0.962484
O O7 0.423338 0.024989 0.914856
O O8 0.500000 0.000000 0.000000
O O9 0.750000 0.599873 0.352992
O O10 0.014929 0.750000 0.380896
O O11 0.042697 0.520719 0.324442
O O12 0.750000 0.750000 0.212304
O O13 0.581523 0.513757 0.238418
O O14 0.750000 0.512594 0.161513
O O15 0.750000 0.031512 0.745904
O O16 0.958606 0.250000 0.726010
O O17 0.250000 0.250000 0.887007
#
# Coordination Sequence:
#
# PCOD8240867 Si02
#       6
#     8   8   8   4   8   4
#     4  11  24  39  54  76 105 136 172 213 259 313
#     4  10  19  31  49  73 101 137 179 220 267 320
#     4  10  19  33  54  79 105 133 170 213 254 305
#     4   9  16  28  44  69 105 139 171 213 264 317
#     4   9  16  27  46  72 102 136 172 211 257 308
#     4   9  18  30  45  69 105 139 173 223 270 309
#
# _framework density 19.011164000000001
#
# number of rings (size 3 to 8) (size 9 to 14) (size 15 to 20)
#    0.000    2.200    2.000    1.800    0.000    6.000 
#    0.000    4.000    0.000    0.000    0.000    2.800 
#    0.000    0.000    0.000    0.000    0.000    0.000 
#
# Total GULP energy -495897.936744 kJ/mol
# GULP energy per Si atom -12397.448419 kJ/mol
# Density = 1.896789 g / cm^3
# Si number density = 19.011164 Si / 1000 Ang^3
#
#
#
# Elastic Constant Matrix: (Units=GPa)
#
#
# Indices 1 2 3 4 5 6 
#
# 1 148.9011 22.9390 75.6868 0.0000 0.0000 0.0000
# 2 22.9390 49.3086 31.9755 0.0000 0.0000 0.0000
# 3 75.6868 31.9755 162.0597 0.0000 0.0000 0.0000
# 4 0.0000 0.0000 0.0000 19.6093 0.0000 0.0000
# 5 0.0000 0.0000 0.0000 0.0000 31.5524 0.0000
# 6 0.0000 0.0000 0.0000 0.0000 0.0000 17.1461
#
#
#
# Elastic Compliance Matrix: (Units=1/GPa)
#
#
# Indices 1 2 3 4 5 6 
#
# 1 0.008924 -0.001661 -0.003840 0.000000 0.000000 0.000000
# 2 -0.001661 0.023565 -0.003874 0.000000 0.000000 0.000000
# 3 -0.003840 -0.003874 0.008728 0.000000 0.000000 0.000000
# 4 0.000000 0.000000 0.000000 0.050996 0.000000 0.000000
# 5 0.000000 0.000000 0.000000 0.000000 0.031693 0.000000
# 6 0.000000 0.000000 0.000000 0.000000 0.000000 0.058322
#
#
# Mechanical properties :
#
#
# Convention : Reuss Voigt Hill
#
# Bulk Modulus (GPa) = 44.50897 69.05245 56.78071
# Shear Modulus (GPa) = 23.98452 28.97275 26.47864
#
# Velocity S-wave (km/s) = 3.55576 3.90806 3.73606
# Velocity P-wave (km/s) = 6.34986 7.53424 6.96726
#
# Compressibility (1/GPa) = 0.02246738
#
# Stress axis : x y z
#
# Youngs Moduli (GPa) = 112.06258 42.43527 114.57160
#
# Poissons Ratio (x) = 0.07050 0.43993
# Poissons Ratio (y) = 0.18618 0.44381
# Poissons Ratio (z) = 0.43030 0.16438
#
# Static dielectric constant tensor:
#      x y z
#    x 3.837540 0.000000 0.000000 
#    y 0.000000 3.079260 0.000000 
#    z 0.000000 0.000000 3.591250 
# 
# 
# High freq. dielectric constant tensor:
#      x y z
#    x 1.758780 0.000000 0.000000 
#    y 0.000000 1.684510 0.000000 
#    z 0.000000 0.000000 1.739540 
# 
# From -- ./inp_files/32432.got.cif
#   From: 2010.03.12/outbox.cif.g09.slc.cpg/sg59_17_cif.got.tgz:32432.got - 2010.04.16 16:29:54.
