data_PCOD8240798
_publ_section_title
;
Structure prediction by ZEFSAII (Michael W. Deem and Ramdas Pophale) SiO2 
 PCOD8240798
Probable space group: P M M N
;
_chemical_formula_sum "Si O2"
_cell_formula_units_Z 48
_cell_length_a 8.883433
_cell_length_b 19.758909
_cell_length_c 15.298170
_cell_angle_alpha 90.000000
_cell_angle_beta 90.000000
_cell_angle_gamma 90.000000
_cell_volume 2685.241033
_symmetry_space_group_name_H-M "P M M N"
_symmetry_group_IT_number 59
_space_group.IT_coordinate_system_code '2'
_symmetry_cell_setting 'orthorhombic'
loop_
_space_group_symop_operation_xyz
x,y,z
1/2-x,1/2-y,z
1/2+x,-y,-z
-x,1/2+y,-z
-x,-y,-z
1/2+x,1/2+y,-z
1/2-x,y,z
x,1/2-y,z
loop_
_atom_site_type_symbol
_atom_site_label
_atom_site_fract_x
_atom_site_fract_y
_atom_site_fract_z
Si Si1 0.921276 0.436021 0.387007
Si Si2 0.922496 0.550470 0.783383
Si Si3 0.577234 0.072260 0.574513
Si Si4 0.080106 0.608842 0.241469
Si Si5 0.927184 0.432927 0.038718
Si Si6 0.077260 0.171360 0.914409
O O1 0.750000 0.430476 0.354916
O O2 0.946740 0.393636 0.478100
O O3 0.025401 0.412329 0.306376
O O4 0.956821 0.512969 0.413317
O O5 0.750000 0.568621 0.800637
O O6 0.949840 0.470442 0.775806
O O7 0.019440 0.580031 0.862666
O O8 0.750000 0.043854 0.581235
O O9 0.553348 0.124658 0.655091
O O10 0.250000 0.627561 0.213715
O O11 0.966135 0.653512 0.185236
O O12 0.750000 0.442224 0.035742
O O13 0.000000 0.500000 0.000000
O O14 0.972398 0.368789 0.981065
O O15 0.250000 0.150823 0.929567
O O16 0.050442 0.250000 0.931251
#
# Coordination Sequence:
#
# PCOD8240798 Si02
#       6
#     8   8   8   8   8   8
#     4   9  15  24  40  65  97 132 166 205 250 301
#     4  10  19  31  48  73 104 135 169 213 259 311
#     4   8  15  26  40  62  96 132 166 203 248 300
#     4   9  17  30  49  71  98 135 173 211 254 307
#     4  12  23  36  56  79 103 136 176 220 267 320
#     4  11  24  39  54  75 105 139 176 220 266 316
#
# _framework density 17.875491
#
# number of rings (size 3 to 8) (size 9 to 14) (size 15 to 20)
#    0.000    2.167    1.667    4.000    0.000    4.667 
#    0.000    0.000    0.000    0.000    0.000    1.167 
#    0.000    6.667    0.000    0.000    0.000    0.000 
#
# Total GULP energy -594915.757259 kJ/mol
# GULP energy per Si atom -12394.078276 kJ/mol
# Density = 1.783481 g / cm^3
# Si number density = 17.875491 Si / 1000 Ang^3
#
#
#
# Elastic Constant Matrix: (Units=GPa)
#
#
# Indices 1 2 3 4 5 6 
#
# 1 114.1620 32.3782 60.1906 0.0000 0.0000 0.0000
# 2 32.3782 39.6159 31.7495 0.0000 0.0000 0.0000
# 3 60.1906 31.7495 158.0139 0.0000 0.0000 0.0000
# 4 0.0000 0.0000 0.0000 13.4963 0.0000 0.0000
# 5 0.0000 0.0000 0.0000 0.0000 33.9784 0.0000
# 6 0.0000 0.0000 0.0000 0.0000 0.0000 17.8348
#
#
#
# Elastic Compliance Matrix: (Units=1/GPa)
#
#
# Indices 1 2 3 4 5 6 
#
# 1 0.012682 -0.007740 -0.003276 0.000000 0.000000 0.000000
# 2 -0.007740 0.034811 -0.004046 0.000000 0.000000 0.000000
# 3 -0.003276 -0.004046 0.008389 0.000000 0.000000 0.000000
# 4 0.000000 0.000000 0.000000 0.074094 0.000000 0.000000
# 5 0.000000 0.000000 0.000000 0.000000 0.029430 0.000000
# 6 0.000000 0.000000 0.000000 0.000000 0.000000 0.056070
#
#
# Mechanical properties :
#
#
# Convention : Reuss Voigt Hill
#
# Bulk Modulus (GPa) = 38.82166 62.26981 50.54573
# Shear Modulus (GPa) = 19.67067 25.56015 22.61541
#
# Velocity S-wave (km/s) = 3.32087 3.78550 3.56077
# Velocity P-wave (km/s) = 6.03897 7.34967 6.72632
#
# Compressibility (1/GPa) = 0.02575881
#
# Stress axis : x y z
#
# Youngs Moduli (GPa) = 78.85485 28.72669 119.19932
#
# Poissons Ratio (x) = 0.22233 0.39044
# Poissons Ratio (y) = 0.61030 0.48232
# Poissons Ratio (z) = 0.25829 0.11624
#
# Static dielectric constant tensor:
#      x y z
#    x 3.405360 0.000000 0.000000 
#    y 0.000000 2.746100 0.000000 
#    z 0.000000 0.000000 3.969510 
# 
# 
# High freq. dielectric constant tensor:
#      x y z
#    x 1.704350 0.000000 0.000000 
#    y 0.000000 1.608780 0.000000 
#    z 0.000000 0.000000 1.721510 
# 
# From -- ./inp_files/20458.got.cif
#   From: 2010.03.12/outbox.cif.g09.slc.cpg/sg59_11_cif.got.tgz:20458.got - 2010.04.16 16:29:54.
