data_PCOD8240402
_publ_section_title
;
Structure prediction by ZEFSAII (Michael W. Deem and Ramdas Pophale) SiO2 
 PCOD8240402
Probable space group: P M M N
;
_chemical_formula_sum "Si O2"
_cell_formula_units_Z 56
_cell_length_a 8.958640
_cell_length_b 21.379780
_cell_length_c 17.002145
_cell_angle_alpha 90.000000
_cell_angle_beta 90.000000
_cell_angle_gamma 90.000000
_cell_volume 3256.484629
_symmetry_space_group_name_H-M "P M M N"
_symmetry_group_IT_number 59
_space_group.IT_coordinate_system_code '2'
_symmetry_cell_setting 'orthorhombic'
loop_
_space_group_symop_operation_xyz
x,y,z
1/2-x,1/2-y,z
1/2+x,-y,-z
-x,1/2+y,-z
-x,-y,-z
1/2+x,1/2+y,-z
1/2-x,y,z
x,1/2-y,z
loop_
_atom_site_type_symbol
_atom_site_label
_atom_site_fract_x
_atom_site_fract_y
_atom_site_fract_z
Si Si1 0.917244 0.676881 0.864972
Si Si2 0.575342 0.411418 0.033942
Si Si3 0.572795 0.625429 0.702478
Si Si4 0.925824 0.023885 0.879862
Si Si5 0.926034 0.014082 0.707009
Si Si6 0.926390 0.821520 0.538861
Si Si7 0.427729 0.939570 0.458163
O O1 0.750000 0.649765 0.874493
O O2 0.914583 0.750000 0.864793
O O3 0.991268 0.653996 0.783166
O O4 0.016869 0.656056 0.939433
O O5 0.750000 0.417356 0.044303
O O6 0.499658 0.459567 0.093727
O O7 0.528841 0.422602 0.942732
O O8 0.750000 0.626047 0.706818
O O9 0.508305 0.555390 0.692400
O O10 0.521795 0.667439 0.628716
O O11 0.750000 0.012688 0.880065
O O12 0.981998 0.041446 0.791543
O O13 0.750000 0.007939 0.709672
O O14 0.972909 0.057958 0.634373
O O15 0.750000 0.832413 0.529109
O O16 0.969380 0.750000 0.514945
O O17 0.010655 0.872752 0.486140
O O18 0.250000 0.942795 0.470782
O O19 0.500000 0.000000 0.500000
#
# Coordination Sequence:
#
# PCOD8240402 Si02
#       7
#     8   8   8   8   8   8   8
#     4  10  19  31  49  70  95 132 170 197 227 282
#     4  10  19  29  46  72  99 124 153 195 245 284
#     4   9  15  28  50  74  98 129 169 202 235 288
#     4   9  17  32  51  69  92 125 162 196 233 285
#     4   9  16  29  52  74  96 128 166 207 241 285
#     4  10  20  35  54  75 102 136 173 210 252 304
#     4  11  21  34  53  77 104 133 170 212 256 302
#
# _framework density 17.196458
#
# number of rings (size 3 to 8) (size 9 to 14) (size 15 to 20)
#    0.000    2.286    2.857    1.286    0.000    2.857 
#    0.000    3.571    0.000    2.571    0.000    6.000 
#    0.000    0.000    0.000    0.000    0.000    0.000 
#
# Total GULP energy -693981.115972 kJ/mol
# GULP energy per Si atom -12392.519928 kJ/mol
# Density = 1.715732 g / cm^3
# Si number density = 17.196458 Si / 1000 Ang^3
#
#
#
# Elastic Constant Matrix: (Units=GPa)
#
#
# Indices 1 2 3 4 5 6 
#
# 1 34.6733 28.4764 37.6628 0.0000 0.0000 0.0000
# 2 28.4764 99.4283 65.4003 0.0000 0.0000 0.0000
# 3 37.6628 65.4003 147.9081 0.0000 0.0000 0.0000
# 4 0.0000 0.0000 0.0000 27.1022 0.0000 0.0000
# 5 0.0000 0.0000 0.0000 0.0000 21.7361 0.0000
# 6 0.0000 0.0000 0.0000 0.0000 0.0000 25.9752
#
#
#
# Elastic Compliance Matrix: (Units=1/GPa)
#
#
# Indices 1 2 3 4 5 6 
#
# 1 0.043289 -0.007259 -0.007813 0.000000 0.000000 0.000000
# 2 -0.007259 0.015399 -0.004961 0.000000 0.000000 0.000000
# 3 -0.007813 -0.004961 0.010944 0.000000 0.000000 0.000000
# 4 0.000000 0.000000 0.000000 0.036897 0.000000 0.000000
# 5 0.000000 0.000000 0.000000 0.000000 0.046006 0.000000
# 6 0.000000 0.000000 0.000000 0.000000 0.000000 0.038498
#
#
# Mechanical properties :
#
#
# Convention : Reuss Voigt Hill
#
# Bulk Modulus (GPa) = 33.82181 60.56542 47.19361
# Shear Modulus (GPa) = 20.75067 24.99404 22.87235
#
# Velocity S-wave (km/s) = 3.47750 3.81654 3.65096
# Velocity P-wave (km/s) = 5.98620 7.39712 6.72875
#
# Compressibility (1/GPa) = 0.02956672
#
# Stress axis : x y z
#
# Youngs Moduli (GPa) = 23.10052 64.93742 91.37380
#
# Poissons Ratio (x) = 0.47136 0.71394
# Poissons Ratio (y) = 0.16768 0.45329
# Poissons Ratio (z) = 0.18049 0.32214
#
# Static dielectric constant tensor:
#      x y z
#    x 3.263750 0.000000 0.000000 
#    y 0.000000 3.138040 0.000000 
#    z 0.000000 0.000000 3.660520 
# 
# 
# High freq. dielectric constant tensor:
#      x y z
#    x 1.637180 0.000000 0.000000 
#    y 0.000000 1.644890 0.000000 
#    z 0.000000 0.000000 1.671560 
# 
# From -- ./inp_files/26096.got.cif
#   From: 2010.03.12/outbox.cif.g09.slc.cpg/sg59_14_cif.got.tgz:26096.got - 2010.04.16 16:29:54.
