data_PCOD8240370
_publ_section_title
;
Structure prediction by ZEFSAII (Michael W. Deem and Ramdas Pophale) SiO2 
 PCOD8240370
Probable space group: P M M N
;
_chemical_formula_sum "Si O2"
_cell_formula_units_Z 64
_cell_length_a 13.862487
_cell_length_b 9.119877
_cell_length_c 31.437712
_cell_angle_alpha 90.000000
_cell_angle_beta 90.000000
_cell_angle_gamma 90.000000
_cell_volume 3974.486846
_symmetry_space_group_name_H-M "P M M N"
_symmetry_group_IT_number 59
_space_group.IT_coordinate_system_code '2'
_symmetry_cell_setting 'orthorhombic'
loop_
_space_group_symop_operation_xyz
x,y,z
1/2-x,1/2-y,z
1/2+x,-y,-z
-x,1/2+y,-z
-x,-y,-z
1/2+x,1/2+y,-z
1/2-x,y,z
x,1/2-y,z
loop_
_atom_site_type_symbol
_atom_site_label
_atom_site_fract_x
_atom_site_fract_y
_atom_site_fract_z
Si Si1 0.362670 0.420807 0.139673
Si Si2 0.530808 0.421837 0.935991
Si Si3 0.144422 0.923737 0.560839
Si Si4 0.135783 0.911859 0.222002
Si Si5 0.040999 0.077282 0.392590
Si Si6 0.859886 0.422933 0.683696
Si Si7 0.638930 0.421183 0.022008
Si Si8 0.136145 0.587195 0.467699
O O1 0.250000 0.456655 0.132684
O O2 0.384192 0.250000 0.135126
O O3 0.424802 0.507684 0.105710
O O4 0.397689 0.472821 0.186305
O O5 0.519027 0.250000 0.928789
O O6 0.424984 0.488973 0.944375
O O7 0.603002 0.458289 0.974605
O O8 0.250000 0.991016 0.571729
O O9 0.152780 0.750000 0.558106
O O10 0.105850 0.975852 0.514324
O O11 0.069130 0.970590 0.597236
O O12 0.250000 0.900635 0.223471
O O13 0.093769 0.750000 0.211212
O O14 0.102043 0.963238 0.268885
O O15 0.052781 0.250000 0.387723
O O16 0.069777 0.003179 0.348615
O O17 0.106806 0.025539 0.431372
O O18 0.750000 0.477560 0.676784
O O19 0.865223 0.250000 0.676093
O O20 0.750000 0.470828 0.026180
O O21 0.626566 0.250000 0.031893
O O22 0.250000 0.601080 0.467377
O O23 0.091759 0.750000 0.459166
#
# Coordination Sequence:
#
# PCOD8240370 Si02
#       8
#     8   8   8   8   8   8   8   8
#     4  10  19  29  44  68  96 123 150 184 227 270
#     4  10  19  30  46  68  93 123 160 196 229 271
#     4   8  16  31  46  59  79 110 146 178 209 249
#     4   8  15  29  47  64  84 114 149 179 210 256
#     4  11  20  27  42  67  88 108 138 178 217 248
#     4   9  18  32  47  63  88 121 147 166 202 263
#     4   9  18  32  47  64  91 126 161 198 237 271
#     4   9  17  30  46  60  80 114 146 169 202 252
#
# _framework density 16.102706999999999
#
# number of rings (size 3 to 8) (size 9 to 14) (size 15 to 20)
#    0.000    2.750    0.000    3.750    0.000    4.500 
#    0.000    1.875    0.000    3.000    0.000    0.875 
#    0.000    3.000    0.000    0.000    0.000    0.000 
#
# Total GULP energy -793364.293497 kJ/mol
# GULP energy per Si atom -12396.317086 kJ/mol
# Density = 1.606606 g / cm^3
# Si number density = 16.102707 Si / 1000 Ang^3
#
#
#
# Elastic Constant Matrix: (Units=GPa)
#
#
# Indices 1 2 3 4 5 6 
#
# 1 76.3199 39.5999 57.7118 0.0000 0.0000 0.0000
# 2 39.5999 60.4064 53.0738 0.0000 0.0000 0.0000
# 3 57.7118 53.0738 123.8445 0.0000 0.0000 0.0000
# 4 0.0000 0.0000 0.0000 28.0870 0.0000 0.0000
# 5 0.0000 0.0000 0.0000 0.0000 24.6423 0.0000
# 6 0.0000 0.0000 0.0000 0.0000 0.0000 20.2878
#
#
#
# Elastic Compliance Matrix: (Units=1/GPa)
#
#
# Indices 1 2 3 4 5 6 
#
# 1 0.022958 -0.009063 -0.006815 0.000000 0.000000 0.000000
# 2 -0.009063 0.030130 -0.008689 0.000000 0.000000 0.000000
# 3 -0.006815 -0.008689 0.014974 0.000000 0.000000 0.000000
# 4 0.000000 0.000000 0.000000 0.035604 0.000000 0.000000
# 5 0.000000 0.000000 0.000000 0.000000 0.040581 0.000000
# 6 0.000000 0.000000 0.000000 0.000000 0.000000 0.049291
#
#
# Mechanical properties :
#
#
# Convention : Reuss Voigt Hill
#
# Bulk Modulus (GPa) = 52.82866 62.37131 57.59999
# Shear Modulus (GPa) = 20.08187 21.94908 21.01548
#
# Velocity S-wave (km/s) = 3.53528 3.69598 3.61652
# Velocity P-wave (km/s) = 7.03866 7.55190 7.29979
#
# Compressibility (1/GPa) = 0.01892912
#
# Stress axis : x y z
#
# Youngs Moduli (GPa) = 43.55694 33.18936 66.78277
#
# Poissons Ratio (x) = 0.30080 0.45510
# Poissons Ratio (y) = 0.39476 0.58027
# Poissons Ratio (z) = 0.29683 0.28838
#
# Static dielectric constant tensor:
#      x y z
#    x 3.017660 0.000000 0.000000 
#    y 0.000000 3.055490 0.000000 
#    z 0.000000 0.000000 3.141100 
# 
# 
# High freq. dielectric constant tensor:
#      x y z
#    x 1.594200 0.000000 0.000000 
#    y 0.000000 1.615650 0.000000 
#    z 0.000000 0.000000 1.613490 
# 
# From -- ./inp_files/33332.got.cif
#   From: 2010.03.12/outbox.cif.g09.slc.cpg/sg59_17_cif.got.tgz:33332.got - 2010.04.16 16:29:54.
