data_PCOD8240957
_publ_section_title
;
Structure prediction by ZEFSAII (Michael W. Deem and Ramdas Pophale) SiO2 
 PCOD8240957
Probable space group: P M M N
;
_chemical_formula_sum "Si O2"
_cell_formula_units_Z 64
_cell_length_a 8.990094
_cell_length_b 13.582512
_cell_length_c 28.799758
_cell_angle_alpha 90.000000
_cell_angle_beta 90.000000
_cell_angle_gamma 90.000000
_cell_volume 3516.682567
_symmetry_space_group_name_H-M "P M M N"
_symmetry_group_IT_number 59
_space_group.IT_coordinate_system_code '2'
_symmetry_cell_setting 'orthorhombic'
loop_
_space_group_symop_operation_xyz
x,y,z
1/2-x,1/2-y,z
1/2+x,-y,-z
-x,1/2+y,-z
-x,-y,-z
1/2+x,1/2+y,-z
1/2-x,y,z
x,1/2-y,z
loop_
_atom_site_type_symbol
_atom_site_label
_atom_site_fract_x
_atom_site_fract_y
_atom_site_fract_z
Si Si1 0.581934 0.132442 0.014839
Si Si2 0.078024 0.363308 0.476621
Si Si3 0.421600 0.546482 0.161665
Si Si4 0.424820 0.862842 0.343577
Si Si5 0.083691 0.133665 0.924773
Si Si6 0.079812 0.139657 0.106291
Si Si7 0.575670 0.636590 0.248225
Si Si8 0.577001 0.534146 0.428196
O O1 0.750000 0.094753 0.009531
O O2 0.573371 0.250000 0.013970
O O3 0.517508 0.095769 0.064112
O O4 0.485891 0.088256 0.972130
O O5 0.250000 0.385473 0.465523
O O6 0.037232 0.250000 0.469345
O O7 0.042036 0.391834 0.529627
O O8 0.975998 0.424766 0.441534
O O9 0.250000 0.574446 0.169926
O O10 0.480758 0.609740 0.118806
O O11 0.441805 0.430482 0.150743
O O12 0.514628 0.568595 0.207451
O O13 0.250000 0.877401 0.339148
O O14 0.467788 0.750000 0.354449
O O15 0.498601 0.897209 0.295675
O O16 0.485647 0.931108 0.384042
O O17 0.250000 0.090781 0.917811
O O18 0.090320 0.250000 0.929679
O O19 0.250000 0.139399 0.089289
O O20 0.029576 0.250000 0.120462
O O21 0.750000 0.619667 0.253346
O O22 0.537695 0.750000 0.236764
O O23 0.750000 0.532117 0.415583
#
# Coordination Sequence:
#
# PCOD8240957 Si02
#       8
#     8   8   8   8   8   8   8   8
#     4   9  17  30  49  72  96 123 158 199 238 278
#     4   9  18  32  49  72 107 149 188 225 266 312
#     4  11  22  34  52  76  99 126 160 200 245 293
#     4  10  20  34  54  79 106 137 173 213 256 304
#     4  10  20  33  49  70  99 133 162 190 232 289
#     4   9  19  36  54  71  94 125 160 197 239 288
#     4  10  21  37  56  78 105 134 162 198 249 305
#     4  10  19  31  50  77 108 142 182 226 268 312
#
# _framework density 18.198969999999999
#
# number of rings (size 3 to 8) (size 9 to 14) (size 15 to 20)
#    0.000    2.250    0.000    3.000    0.000    8.000 
#    0.000    0.000    0.000    0.750    0.000    1.750 
#    0.000    0.000    0.000    0.000    0.000    0.000 
#
# Total GULP energy -793840.463361 kJ/mol
# GULP energy per Si atom -12403.757240 kJ/mol
# Density = 1.815755 g / cm^3
# Si number density = 18.198970 Si / 1000 Ang^3
#
#
#
# Elastic Constant Matrix: (Units=GPa)
#
#
# Indices 1 2 3 4 5 6 
#
# 1 91.7552 35.7688 54.1588 0.0000 0.0000 0.0000
# 2 35.7688 62.6320 46.4114 0.0000 0.0000 0.0000
# 3 54.1588 46.4114 125.2003 0.0000 0.0000 0.0000
# 4 0.0000 0.0000 0.0000 23.5338 0.0000 0.0000
# 5 0.0000 0.0000 0.0000 0.0000 37.2086 0.0000
# 6 0.0000 0.0000 0.0000 0.0000 0.0000 24.4287
#
#
#
# Elastic Compliance Matrix: (Units=1/GPa)
#
#
# Indices 1 2 3 4 5 6 
#
# 1 0.015897 -0.005491 -0.004841 0.000000 0.000000 0.000000
# 2 -0.005491 0.023910 -0.006488 0.000000 0.000000 0.000000
# 3 -0.004841 -0.006488 0.012486 0.000000 0.000000 0.000000
# 4 0.000000 0.000000 0.000000 0.042492 0.000000 0.000000
# 5 0.000000 0.000000 0.000000 0.000000 0.026876 0.000000
# 6 0.000000 0.000000 0.000000 0.000000 0.000000 0.040935
#
#
# Mechanical properties :
#
#
# Convention : Reuss Voigt Hill
#
# Bulk Modulus (GPa) = 53.61168 61.36281 57.48725
# Shear Modulus (GPa) = 24.69700 26.58411 25.64056
#
# Velocity S-wave (km/s) = 3.68782 3.82612 3.75761
# Velocity P-wave (km/s) = 6.90333 7.30136 7.10513
#
# Compressibility (1/GPa) = 0.01865265
#
# Stress axis : x y z
#
# Youngs Moduli (GPa) = 62.90670 41.82354 80.08751
#
# Poissons Ratio (x) = 0.22966 0.38770
# Poissons Ratio (y) = 0.34544 0.51961
# Poissons Ratio (z) = 0.30453 0.27135
#
# Static dielectric constant tensor:
#      x y z
#    x 3.509480 0.000000 0.000000 
#    y 0.000000 3.323220 0.000000 
#    z 0.000000 0.000000 3.223560 
# 
# 
# High freq. dielectric constant tensor:
#      x y z
#    x 1.719660 0.000000 0.000000 
#    y 0.000000 1.699420 0.000000 
#    z 0.000000 0.000000 1.688930 
# 
# From -- ./inp_files/31539.got.cif
#   From: 2010.03.12/outbox.cif.g09.slc.cpg/sg59_16_cif.got.tgz:31539.got - 2010.04.16 16:29:54.
