data_PCOD8240534
_publ_section_title
;
Structure prediction by ZEFSAII (Michael W. Deem and Ramdas Pophale) SiO2 
 PCOD8240534
Probable space group: P M M N
;
_chemical_formula_sum "Si O2"
_cell_formula_units_Z 56
_cell_length_a 19.609215
_cell_length_b 9.558463
_cell_length_c 16.204508
_cell_angle_alpha 90.000000
_cell_angle_beta 90.000000
_cell_angle_gamma 90.000000
_cell_volume 3037.275040
_symmetry_space_group_name_H-M "P M M N"
_symmetry_group_IT_number 59
_space_group.IT_coordinate_system_code '2'
_symmetry_cell_setting 'orthorhombic'
loop_
_space_group_symop_operation_xyz
x,y,z
1/2-x,1/2-y,z
1/2+x,-y,-z
-x,1/2+y,-z
-x,-y,-z
1/2+x,1/2+y,-z
1/2-x,y,z
x,1/2-y,z
loop_
_atom_site_type_symbol
_atom_site_label
_atom_site_fract_x
_atom_site_fract_y
_atom_site_fract_z
Si Si1 0.824890 0.916325 0.345117
Si Si2 0.329855 0.908327 0.174977
Si Si3 0.173678 0.408870 0.022731
Si Si4 0.040349 0.411529 0.932586
Si Si5 0.545262 0.915092 0.251506
Si Si6 0.092436 0.585770 0.335873
Si Si7 0.827930 0.586798 0.533200
O O1 0.750000 0.970922 0.316388
O O2 0.825780 0.750000 0.341264
O O3 0.883898 0.979817 0.286276
O O4 0.838510 0.961932 0.439138
O O5 0.250000 0.921241 0.188097
O O6 0.353520 0.750000 0.157479
O O7 0.364424 0.965153 0.257383
O O8 0.354676 0.998849 0.097913
O O9 0.250000 0.456169 0.995063
O O10 0.175236 0.250000 0.054474
O O11 0.121860 0.426494 0.946940
O O12 0.017314 0.250000 0.940896
O O13 0.027324 0.471867 0.840313
O O14 0.000000 0.500000 0.000000
O O15 0.553487 0.750000 0.242373
O O16 0.486143 0.951876 0.316845
O O17 0.102698 0.750000 0.352934
O O18 0.117987 0.501048 0.414506
O O19 0.750000 0.555652 0.560873
O O20 0.844523 0.750000 0.544322
#
# Coordination Sequence:
#
# PCOD8240534 Si02
#       7
#     8   8   8   8   8   8   8
#     4   8  15  30  51  73  97 125 159 199 240 283
#     4   9  17  29  45  65  92 128 163 191 228 283
#     4   9  18  31  47  70  96 119 151 199 247 283
#     4  10  20  34  52  72  97 129 161 196 239 286
#     4   9  18  31  48  71  96 125 161 198 237 281
#     4  10  19  30  46  70  99 127 158 196 234 278
#     4   9  18  32  50  72  97 126 159 194 234 281
#
# _framework density 18.437578999999999
#
# number of rings (size 3 to 8) (size 9 to 14) (size 15 to 20)
#    0.000    2.857    0.000    2.143    0.000    4.286 
#    0.000    5.000    0.000    0.857    0.000    0.000 
#    0.000    0.000    0.000    0.000    0.000    0.000 
#
# Total GULP energy -694188.912817 kJ/mol
# GULP energy per Si atom -12396.230586 kJ/mol
# Density = 1.839561 g / cm^3
# Si number density = 18.437579 Si / 1000 Ang^3
#
#
#
# Elastic Constant Matrix: (Units=GPa)
#
#
# Indices 1 2 3 4 5 6 
#
# 1 99.4524 28.3555 64.8909 0.0000 0.0000 0.0000
# 2 28.3555 37.4437 31.7227 0.0000 0.0000 0.0000
# 3 64.8909 31.7227 103.2586 0.0000 0.0000 0.0000
# 4 0.0000 0.0000 0.0000 23.4248 0.0000 0.0000
# 5 0.0000 0.0000 0.0000 0.0000 36.5342 0.0000
# 6 0.0000 0.0000 0.0000 0.0000 0.0000 20.1847
#
#
#
# Elastic Compliance Matrix: (Units=1/GPa)
#
#
# Indices 1 2 3 4 5 6 
#
# 1 0.017821 -0.005417 -0.009535 0.000000 0.000000 0.000000
# 2 -0.005417 0.037751 -0.008193 0.000000 0.000000 0.000000
# 3 -0.009535 -0.008193 0.018194 0.000000 0.000000 0.000000
# 4 0.000000 0.000000 0.000000 0.042690 0.000000 0.000000
# 5 0.000000 0.000000 0.000000 0.000000 0.027372 0.000000
# 6 0.000000 0.000000 0.000000 0.000000 0.000000 0.049542
#
#
# Mechanical properties :
#
#
# Convention : Reuss Voigt Hill
#
# Bulk Modulus (GPa) = 36.39787 54.45478 45.42632
# Shear Modulus (GPa) = 20.09498 23.70778 21.90138
#
# Velocity S-wave (km/s) = 3.30493 3.58975 3.45028
# Velocity P-wave (km/s) = 5.86067 6.83963 6.36899
#
# Compressibility (1/GPa) = 0.02747414
#
# Stress axis : x y z
#
# Youngs Moduli (GPa) = 56.11327 26.48962 54.96445
#
# Poissons Ratio (x) = 0.14351 0.52409
# Poissons Ratio (y) = 0.30399 0.45033
# Poissons Ratio (z) = 0.53504 0.21703
#
# Static dielectric constant tensor:
#      x y z
#    x 3.656700 0.000000 0.000000 
#    y 0.000000 3.076740 0.000000 
#    z 0.000000 0.000000 3.404840 
# 
# 
# High freq. dielectric constant tensor:
#      x y z
#    x 1.729860 0.000000 0.000000 
#    y 0.000000 1.672100 0.000000 
#    z 0.000000 0.000000 1.709690 
# 
# From -- ./inp_files/24210.got.cif
#   From: 2010.03.12/outbox.cif.g09.slc.cpg/sg59_13_cif.got.tgz:24210.got - 2010.04.16 16:29:54.
