data_PCOD8240090
_publ_section_title
;
Structure prediction by ZEFSAII (Michael W. Deem and Ramdas Pophale) SiO2 
 PCOD8240090
Probable space group: P M M N
;
_chemical_formula_sum "Si O2"
_cell_formula_units_Z 64
_cell_length_a 15.541780
_cell_length_b 8.978642
_cell_length_c 23.890082
_cell_angle_alpha 90.000000
_cell_angle_beta 90.000000
_cell_angle_gamma 90.000000
_cell_volume 3333.719482
_symmetry_space_group_name_H-M "P M M N"
_symmetry_group_IT_number 59
_space_group.IT_coordinate_system_code '2'
_symmetry_cell_setting 'orthorhombic'
loop_
_space_group_symop_operation_xyz
x,y,z
1/2-x,1/2-y,z
1/2+x,-y,-z
-x,1/2+y,-z
-x,-y,-z
1/2+x,1/2+y,-z
1/2-x,y,z
x,1/2-y,z
loop_
_atom_site_type_symbol
_atom_site_label
_atom_site_fract_x
_atom_site_fract_y
_atom_site_fract_z
Si Si1 0.495825 0.573762 0.308268
Si Si2 0.346542 0.919898 0.392532
Si Si3 0.408827 0.424867 0.996608
Si Si4 0.407925 0.426115 0.500173
Si Si5 0.847944 0.576430 0.124328
Si Si6 0.156187 0.426541 0.114482
Si Si7 0.499544 0.927074 0.810802
Si Si8 0.655571 0.926486 0.380311
O O1 0.499724 0.750000 0.297274
O O2 0.413569 0.528417 0.345393
O O3 0.486716 0.487480 0.250880
O O4 0.581840 0.513062 0.338952
O O5 0.250000 0.935669 0.368170
O O6 0.367082 0.750000 0.409948
O O7 0.353246 0.021915 0.447114
O O8 0.423671 0.250000 0.998363
O O9 0.360094 0.472859 0.940114
O O10 0.500000 0.500000 0.000000
O O11 0.354069 0.478050 0.050121
O O12 0.500000 0.500000 0.500000
O O13 0.418601 0.250000 0.498642
O O14 0.360075 0.480217 0.556310
O O15 0.750000 0.542231 0.141981
O O16 0.869531 0.750000 0.132026
O O17 0.909631 0.483283 0.164444
O O18 0.250000 0.484616 0.135378
O O19 0.153207 0.250000 0.118247
O O20 0.078928 0.491280 0.152270
O O21 0.498212 0.750000 0.810138
O O22 0.750000 0.984125 0.360907
O O23 0.652218 0.750000 0.378834
#
# Coordination Sequence:
#
# PCOD8240090 Si02
#       8
#     8   8   8   8   8   8   8   8
#     4  10  21  39  58  78 109 151 193 233 277 332
#     4  10  21  38  59  85 117 152 189 231 283 339
#     4  10  18  32  57  85 113 144 181 225 275 335
#     4  11  20  34  58  87 118 148 184 231 285 343
#     4  10  21  37  59  85 112 148 190 228 274 340
#     4   9  18  34  56  81 111 147 182 221 276 336
#     4  11  23  38  57  83 112 146 189 241 288 327
#     4   9  18  34  57  82 107 140 183 227 274 330
#
# _framework density 19.197775
#
# number of rings (size 3 to 8) (size 9 to 14) (size 15 to 20)
#    0.000    2.000    2.500    1.500    0.000    4.000 
#    0.000    1.250    0.000    5.250    0.000    0.000 
#    0.000    0.000    0.000    0.000    0.000    0.000 
#
# Total GULP energy -793559.441078 kJ/mol
# GULP energy per Si atom -12399.366267 kJ/mol
# Density = 1.915408 g / cm^3
# Si number density = 19.197775 Si / 1000 Ang^3
#
#
#
# Elastic Constant Matrix: (Units=GPa)
#
#
# Indices 1 2 3 4 5 6 
#
# 1 148.2642 22.8492 50.3593 0.0000 0.0000 0.0000
# 2 22.8492 36.9045 26.3564 0.0000 0.0000 0.0000
# 3 50.3593 26.3564 115.3096 0.0000 0.0000 0.0000
# 4 0.0000 0.0000 0.0000 29.3508 0.0000 0.0000
# 5 0.0000 0.0000 0.0000 0.0000 16.4960 0.0000
# 6 0.0000 0.0000 0.0000 0.0000 0.0000 22.7786
#
#
#
# Elastic Compliance Matrix: (Units=1/GPa)
#
#
# Indices 1 2 3 4 5 6 
#
# 1 0.008190 -0.003007 -0.002889 0.000000 0.000000 0.000000
# 2 -0.003007 0.033487 -0.006341 0.000000 0.000000 0.000000
# 3 -0.002889 -0.006341 0.011384 0.000000 0.000000 0.000000
# 4 0.000000 0.000000 0.000000 0.034071 0.000000 0.000000
# 5 0.000000 0.000000 0.000000 0.000000 0.060621 0.000000
# 6 0.000000 0.000000 0.000000 0.000000 0.000000 0.043901
#
#
# Mechanical properties :
#
#
# Convention : Reuss Voigt Hill
#
# Bulk Modulus (GPa) = 34.98240 55.51202 45.24721
# Shear Modulus (GPa) = 22.15764 27.11931 24.63848
#
# Velocity S-wave (km/s) = 3.40100 3.76257 3.58635
# Velocity P-wave (km/s) = 5.80380 6.91770 6.38509
#
# Compressibility (1/GPa) = 0.02858580
#
# Stress axis : x y z
#
# Youngs Moduli (GPa) = 122.10744 29.86204 87.84635
#
# Poissons Ratio (x) = 0.08980 0.25381
# Poissons Ratio (y) = 0.36718 0.55703
# Poissons Ratio (z) = 0.35281 0.18935
#
# Static dielectric constant tensor:
#      x y z
#    x 3.505700 0.000000 0.000000 
#    y 0.000000 3.265810 0.000000 
#    z 0.000000 0.000000 3.657340 
# 
# 
# High freq. dielectric constant tensor:
#      x y z
#    x 1.765120 0.000000 0.000000 
#    y 0.000000 1.715600 0.000000 
#    z 0.000000 0.000000 1.746690 
# 
# From -- ./inp_files/31682.got.cif
#   From: 2010.03.12/outbox.cif.g09.slc.cpg/sg59_16_cif.got.tgz:31682.got - 2010.04.16 16:29:54.
