data_PCOD8240722
_publ_section_title
;
Structure prediction by ZEFSAII (Michael W. Deem and Ramdas Pophale) SiO2 
 PCOD8240722
Probable space group: P M M N
;
_chemical_formula_sum "Si O2"
_cell_formula_units_Z 56
_cell_length_a 22.504107
_cell_length_b 12.878603
_cell_length_c 11.832450
_cell_angle_alpha 90.000000
_cell_angle_beta 90.000000
_cell_angle_gamma 90.000000
_cell_volume 3429.297933
_symmetry_space_group_name_H-M "P M M N"
_symmetry_group_IT_number 59
_space_group.IT_coordinate_system_code '2'
_symmetry_cell_setting 'orthorhombic'
loop_
_space_group_symop_operation_xyz
x,y,z
1/2-x,1/2-y,z
1/2+x,-y,-z
-x,1/2+y,-z
-x,-y,-z
1/2+x,1/2+y,-z
1/2-x,y,z
x,1/2-y,z
loop_
_atom_site_type_symbol
_atom_site_label
_atom_site_fract_x
_atom_site_fract_y
_atom_site_fract_z
Si Si1 0.619419 0.943338 0.786562
Si Si2 0.962218 0.630882 0.602032
Si Si3 0.127999 0.128056 0.806382
Si Si4 0.035858 0.438183 0.650649
Si Si5 0.750000 0.873616 0.856847
Si Si6 0.750000 0.627166 0.109411
Si Si7 0.052056 0.631966 0.161044
Si Si8 0.544751 0.628981 0.993748
O O1 0.599348 0.906503 0.661522
O O2 0.688392 0.912651 0.800160
O O3 0.611367 0.066788 0.807614
O O4 0.567743 0.895603 0.868178
O O5 0.976230 0.750000 0.633122
O O6 0.957806 0.618826 0.468243
O O7 0.015796 0.557714 0.643746
O O8 0.122516 0.250000 0.780312
O O9 0.101261 0.061959 0.704079
O O10 0.194933 0.089125 0.817559
O O11 0.098412 0.097674 0.924843
O O12 0.993150 0.372191 0.733053
O O13 0.750000 0.750000 0.849955
O O14 0.750000 0.918986 0.983122
O O15 0.750000 0.750000 0.092743
O O16 0.072675 0.750000 0.142341
O O17 0.018047 0.583769 0.047882
O O18 0.532198 0.750000 0.001758
#
# Coordination Sequence:
#
# PCOD8240722 Si02
#       8
#     8   8   8   8   4   4   8   8
#     4  11  20  30  46  68  94 127 157 185 228 279
#     4  10  19  31  47  69  96 123 149 182 228 282
#     4   9  15  26  45  68  90 116 152 191 225 262
#     4   9  18  31  49  70  92 120 151 187 233 273
#     4  11  20  32  46  66  96 127 158 187 222 280
#     4   9  16  26  45  68  88 117 155 189 225 266
#     4   9  18  31  48  69  92 118 153 197 237 271
#     4   9  15  26  45  68  93 117 146 189 233 275
#
# _framework density 16.329872999999999
#
# number of rings (size 3 to 8) (size 9 to 14) (size 15 to 20)
#    0.000    2.429    1.429    3.857    0.000    0.000 
#    0.000    1.071    0.000    0.857    0.000    0.500 
#    0.000    0.000    0.000    0.000    0.000    0.000 
#
# Total GULP energy -693756.809589 kJ/mol
# GULP energy per Si atom -12388.514457 kJ/mol
# Density = 1.629271 g / cm^3
# Si number density = 16.329873 Si / 1000 Ang^3
#
#
#
# Elastic Constant Matrix: (Units=GPa)
#
#
# Indices 1 2 3 4 5 6 
#
# 1 106.8468 32.3481 31.8769 0.0000 0.0000 0.0000
# 2 32.3481 63.8881 12.9469 0.0000 0.0000 0.0000
# 3 31.8769 12.9469 70.1408 0.0000 0.0000 0.0000
# 4 0.0000 0.0000 0.0000 14.8068 0.0000 0.0000
# 5 0.0000 0.0000 0.0000 0.0000 17.3133 0.0000
# 6 0.0000 0.0000 0.0000 0.0000 0.0000 21.1926
#
#
#
# Elastic Compliance Matrix: (Units=1/GPa)
#
#
# Indices 1 2 3 4 5 6 
#
# 1 0.012350 -0.005315 -0.004632 0.000000 0.000000 0.000000
# 2 -0.005315 0.018548 -0.001008 0.000000 0.000000 0.000000
# 3 -0.004632 -0.001008 0.016548 0.000000 0.000000 0.000000
# 4 0.000000 0.000000 0.000000 0.067537 0.000000 0.000000
# 5 0.000000 0.000000 0.000000 0.000000 0.057759 0.000000
# 6 0.000000 0.000000 0.000000 0.000000 0.000000 0.047186
#
#
# Mechanical properties :
#
#
# Convention : Reuss Voigt Hill
#
# Bulk Modulus (GPa) = 39.15943 43.91326 41.53635
# Shear Modulus (GPa) = 19.97211 21.57612 20.77412
#
# Velocity S-wave (km/s) = 3.50100 3.63887 3.57060
# Velocity P-wave (km/s) = 6.35413 6.67869 6.51843
#
# Compressibility (1/GPa) = 0.02553663
#
# Stress axis : x y z
#
# Youngs Moduli (GPa) = 80.97153 53.91545 60.42977
#
# Poissons Ratio (x) = 0.28653 0.27989
# Poissons Ratio (y) = 0.43032 0.06093
# Poissons Ratio (z) = 0.37504 0.05436
#
# Static dielectric constant tensor:
#      x y z
#    x 3.006350 0.000000 0.000000 
#    y 0.000000 3.028890 0.000000 
#    z 0.000000 0.000000 3.225050 
# 
# 
# High freq. dielectric constant tensor:
#      x y z
#    x 1.605830 0.000000 0.000000 
#    y 0.000000 1.617140 0.000000 
#    z 0.000000 0.000000 1.630620 
# 
# From -- ./inp_files/18714.got.cif
#   From: 2010.03.12/outbox.cif.g09.slc.cpg/sg59_10_cif.got.tgz:18714.got - 2010.04.16 16:29:54.
