data_PCOD8240638
_publ_section_title
;
Structure prediction by ZEFSAII (Michael W. Deem and Ramdas Pophale) SiO2 
 PCOD8240638
Probable space group: P M M N
;
_chemical_formula_sum "Si O2"
_cell_formula_units_Z 64
_cell_length_a 9.120581
_cell_length_b 13.822128
_cell_length_c 28.306798
_cell_angle_alpha 90.000000
_cell_angle_beta 90.000000
_cell_angle_gamma 90.000000
_cell_volume 3568.520211
_symmetry_space_group_name_H-M "P M M N"
_symmetry_group_IT_number 59
_space_group.IT_coordinate_system_code '2'
_symmetry_cell_setting 'orthorhombic'
loop_
_space_group_symop_operation_xyz
x,y,z
1/2-x,1/2-y,z
1/2+x,-y,-z
-x,1/2+y,-z
-x,-y,-z
1/2+x,1/2+y,-z
1/2-x,y,z
x,1/2-y,z
loop_
_atom_site_type_symbol
_atom_site_label
_atom_site_fract_x
_atom_site_fract_y
_atom_site_fract_z
Si Si1 0.921724 0.525737 0.571467
Si Si2 0.577677 0.980632 0.835712
Si Si3 0.416192 0.865202 0.019131
Si Si4 0.921737 0.860576 0.478033
Si Si5 0.418053 0.638961 0.759127
Si Si6 0.579699 0.638766 0.927588
Si Si7 0.081545 0.860282 0.649763
Si Si8 0.920694 0.637085 0.113096
O O1 0.750000 0.510038 0.575988
O O2 0.963286 0.600319 0.529871
O O3 0.994237 0.421664 0.561728
O O4 0.980929 0.567564 0.620339
O O5 0.750000 0.999481 0.832417
O O6 0.524821 0.930603 0.787897
O O7 0.533345 0.913294 0.879630
O O8 0.493792 0.082347 0.842512
O O9 0.250000 0.903561 0.022114
O O10 0.422933 0.750000 0.016966
O O11 0.501016 0.901297 0.065542
O O12 0.493005 0.907393 0.972038
O O13 0.750000 0.870875 0.468508
O O14 0.974180 0.750000 0.474636
O O15 0.250000 0.621189 0.774236
O O16 0.461892 0.750000 0.768855
O O17 0.439946 0.613598 0.704406
O O18 0.750000 0.626484 0.938972
O O19 0.536112 0.750000 0.920578
O O20 0.250000 0.874195 0.634700
O O21 0.032333 0.750000 0.640268
O O22 0.750000 0.612476 0.109427
O O23 0.948310 0.750000 0.121195
#
# Coordination Sequence:
#
# PCOD8240638 Si02
#       8
#     8   8   8   8   8   8   8   8
#     4  10  19  30  48  76 106 136 175 221 263 303
#     4  11  22  34  52  77 102 129 161 201 249 296
#     4   9  17  30  49  72  96 123 158 199 239 280
#     4   9  18  32  48  69 103 145 183 217 256 304
#     4   9  19  36  56  78 105 135 166 201 243 296
#     4   9  18  32  48  69 100 133 160 187 227 286
#     4   9  18  33  53  76 103 137 173 207 247 297
#     4  10  21  37  55  72  93 125 163 202 245 294
#
# _framework density 17.934605000000001
#
# number of rings (size 3 to 8) (size 9 to 14) (size 15 to 20)
#    0.000    2.500    0.000    3.000    0.000    6.500 
#    0.000    2.500    0.000    0.750    0.000    5.250 
#    0.000    0.000    0.000    0.000    0.000    0.000 
#
# Total GULP energy -793800.907356 kJ/mol
# GULP energy per Si atom -12403.139177 kJ/mol
# Density = 1.789378 g / cm^3
# Si number density = 17.934605 Si / 1000 Ang^3
#
#
#
# Elastic Constant Matrix: (Units=GPa)
#
#
# Indices 1 2 3 4 5 6 
#
# 1 92.6751 49.3515 48.4070 0.0000 0.0000 0.0000
# 2 49.3515 88.3427 47.9585 0.0000 0.0000 0.0000
# 3 48.4070 47.9585 82.9913 0.0000 0.0000 0.0000
# 4 0.0000 0.0000 0.0000 32.2905 0.0000 0.0000
# 5 0.0000 0.0000 0.0000 0.0000 33.5392 0.0000
# 6 0.0000 0.0000 0.0000 0.0000 0.0000 25.6900
#
#
#
# Elastic Compliance Matrix: (Units=1/GPa)
#
#
# Indices 1 2 3 4 5 6 
#
# 1 0.017574 -0.006197 -0.006670 0.000000 0.000000 0.000000
# 2 -0.006197 0.018679 -0.007180 0.000000 0.000000 0.000000
# 3 -0.006670 -0.007180 0.020089 0.000000 0.000000 0.000000
# 4 0.000000 0.000000 0.000000 0.030969 0.000000 0.000000
# 5 0.000000 0.000000 0.000000 0.000000 0.029816 0.000000
# 6 0.000000 0.000000 0.000000 0.000000 0.000000 0.038926
#
#
# Mechanical properties :
#
#
# Convention : Reuss Voigt Hill
#
# Bulk Modulus (GPa) = 61.54010 61.71590 61.62800
# Shear Modulus (GPa) = 24.80647 26.19008 25.49827
#
# Velocity S-wave (km/s) = 3.72312 3.82555 3.77468
# Velocity P-wave (km/s) = 7.27120 7.34843 7.30991
#
# Compressibility (1/GPa) = 0.01624957
#
# Stress axis : x y z
#
# Youngs Moduli (GPa) = 56.90210 53.53645 49.77948
#
# Poissons Ratio (x) = 0.33175 0.33201
# Poissons Ratio (y) = 0.35261 0.35740
# Poissons Ratio (z) = 0.37951 0.38437
#
# Static dielectric constant tensor:
#      x y z
#    x 3.296040 0.000000 0.000000 
#    y 0.000000 3.306440 0.000000 
#    z 0.000000 0.000000 3.147920 
# 
# 
# High freq. dielectric constant tensor:
#      x y z
#    x 1.699370 0.000000 0.000000 
#    y 0.000000 1.692060 0.000000 
#    z 0.000000 0.000000 1.675980 
# 
# From -- ./inp_files/31673.got.cif
#   From: 2010.03.12/outbox.cif.g09.slc.cpg/sg59_16_cif.got.tgz:31673.got - 2010.04.16 16:29:54.
