data_PCOD8240562
_publ_section_title
;
Structure prediction by ZEFSAII (Michael W. Deem and Ramdas Pophale) SiO2 
 PCOD8240562
Probable space group: P M M N
;
_chemical_formula_sum "Si O2"
_cell_formula_units_Z 64
_cell_length_a 20.308255
_cell_length_b 8.810694
_cell_length_c 20.334716
_cell_angle_alpha 90.000000
_cell_angle_beta 90.000000
_cell_angle_gamma 90.000000
_cell_volume 3638.487083
_symmetry_space_group_name_H-M "P M M N"
_symmetry_group_IT_number 59
_space_group.IT_coordinate_system_code '2'
_symmetry_cell_setting 'orthorhombic'
loop_
_space_group_symop_operation_xyz
x,y,z
1/2-x,1/2-y,z
1/2+x,-y,-z
-x,1/2+y,-z
-x,-y,-z
1/2+x,1/2+y,-z
1/2-x,y,z
x,1/2-y,z
loop_
_atom_site_type_symbol
_atom_site_label
_atom_site_fract_x
_atom_site_fract_y
_atom_site_fract_z
Si Si1 0.177957 0.571966 0.078349
Si Si2 0.542093 0.570098 0.942099
Si Si3 0.341578 0.915602 0.223256
Si Si4 0.642893 0.579708 0.651752
Si Si5 0.825059 0.075169 0.519953
Si Si6 0.945170 0.571567 0.452833
Si Si7 0.991543 0.081620 0.806455
Si Si8 0.511666 0.422724 0.322677
O O1 0.250000 0.539697 0.045023
O O2 0.159719 0.750000 0.074281
O O3 0.118308 0.478857 0.045931
O O4 0.184748 0.520871 0.154170
O O5 0.537787 0.750000 0.943427
O O6 0.510420 0.511683 0.874201
O O7 0.500000 0.500000 0.000000
O O8 0.310650 0.750000 0.237491
O O9 0.419268 0.898849 0.221268
O O10 0.321058 0.031060 0.280696
O O11 0.664844 0.750000 0.633781
O O12 0.666874 0.465502 0.596213
O O13 0.564973 0.569507 0.660345
O O14 0.750000 0.046718 0.497526
O O15 0.845224 0.250000 0.510498
O O16 0.872259 0.970279 0.476697
O O17 0.955129 0.750000 0.456122
O O18 0.950275 0.516418 0.378096
O O19 0.000000 0.500000 0.500000
O O20 0.022363 0.250000 0.818421
O O21 0.030458 0.991926 0.749021
O O22 0.536700 0.250000 0.323099
#
# Coordination Sequence:
#
# PCOD8240562 Si02
#       8
#     8   8   8   8   8   8   8   8
#     4   9  18  33  51  72 101 137 177 218 260 308
#     4  11  21  34  53  78 109 144 181 221 265 315
#     4   8  15  27  44  66  96 133 171 208 246 295
#     4  10  19  30  47  70  98 133 171 213 256 302
#     4  11  24  39  53  70  97 133 173 219 271 325
#     4  12  23  36  56  79 103 134 173 221 269 317
#     4   9  17  31  50  75 105 136 172 215 261 309
#     4  10  19  32  52  79 106 134 171 218 263 309
#
# _framework density 17.589728000000001
#
# number of rings (size 3 to 8) (size 9 to 14) (size 15 to 20)
#    0.000    2.000    1.250    4.500    0.000    5.750 
#    0.000    1.250    0.000    0.000    0.000    0.875 
#    0.000    7.000    0.000    0.000    0.000    0.000 
#
# Total GULP energy -793330.221405 kJ/mol
# GULP energy per Si atom -12395.784709 kJ/mol
# Density = 1.754969 g / cm^3
# Si number density = 17.589728 Si / 1000 Ang^3
#
#
#
# Elastic Constant Matrix: (Units=GPa)
#
#
# Indices 1 2 3 4 5 6 
#
# 1 72.2949 45.0601 46.6832 0.0000 0.0000 0.0000
# 2 45.0601 140.1800 57.2011 0.0000 0.0000 0.0000
# 3 46.6832 57.2011 105.1523 0.0000 0.0000 0.0000
# 4 0.0000 0.0000 0.0000 31.5725 0.0000 0.0000
# 5 0.0000 0.0000 0.0000 0.0000 -0.1017 0.0000
# 6 0.0000 0.0000 0.0000 0.0000 0.0000 14.2141
#
#
#
# Elastic Compliance Matrix: (Units=1/GPa)
#
#
# Indices 1 2 3 4 5 6 
#
# 1 0.020823 -0.003755 -0.007202 0.000000 0.000000 0.000000
# 2 -0.003755 0.009846 -0.003689 0.000000 0.000000 0.000000
# 3 -0.007202 -0.003689 0.014714 0.000000 0.000000 0.000000
# 4 0.000000 0.000000 0.000000 0.031673 0.000000 0.000000
# 5 0.000000 0.000000 0.000000 0.000000 -9.831352 0.000000
# 6 0.000000 0.000000 0.000000 0.000000 0.000000 0.070353
#
#
# Mechanical properties :
#
#
# Convention : Reuss Voigt Hill
#
# Bulk Modulus (GPa) = 62.14438 68.39066 65.26752
# Shear Modulus (GPa) = -0.51817 20.38249 9.93216
#
# Velocity S-wave (km/s) = -0.54335 3.40777 2.37883
# Velocity P-wave (km/s) = 5.91718 7.37897 6.68813
#
# Compressibility (1/GPa) = 0.01609156
#
# Stress axis : x y z
#
# Youngs Moduli (GPa) = 48.02375 101.56448 67.96110
#
# Poissons Ratio (x) = 0.38133 0.48946
# Poissons Ratio (y) = 0.18031 0.25072
# Poissons Ratio (z) = 0.34587 0.37469
#
# Static dielectric constant tensor:
#      x y z
#    x 3.086840 0.000000 0.000000 
#    y 0.000000 3.494200 0.000000 
#    z 0.000000 0.000000 3.237910 
# 
# 
# High freq. dielectric constant tensor:
#      x y z
#    x 1.649680 0.000000 0.000000 
#    y 0.000000 1.693490 0.000000 
#    z 0.000000 0.000000 1.663390 
# 
# From -- ./inp_files/28179.got.cif
#   From: 2010.03.12/outbox.cif.g09.slc.cpg/sg59_15_cif.got.tgz:28179.got - 2010.04.16 16:29:54.
