data_PCOD8240939
_publ_section_title
;
Structure prediction by ZEFSAII (Michael W. Deem and Ramdas Pophale) SiO2 
 PCOD8240939
Probable space group: P M M N
;
_chemical_formula_sum "Si O2"
_cell_formula_units_Z 48
_cell_length_a 9.086303
_cell_length_b 30.248489
_cell_length_c 9.823312
_cell_angle_alpha 90.000000
_cell_angle_beta 90.000000
_cell_angle_gamma 90.000000
_cell_volume 2699.907208
_symmetry_space_group_name_H-M "P M M N"
_symmetry_group_IT_number 59
_space_group.IT_coordinate_system_code '2'
_symmetry_cell_setting 'orthorhombic'
loop_
_space_group_symop_operation_xyz
x,y,z
1/2-x,1/2-y,z
1/2+x,-y,-z
-x,1/2+y,-z
-x,-y,-z
1/2+x,1/2+y,-z
1/2-x,y,z
x,1/2-y,z
loop_
_atom_site_type_symbol
_atom_site_label
_atom_site_fract_x
_atom_site_fract_y
_atom_site_fract_z
Si Si1 0.080163 0.698189 0.660853
Si Si2 0.915719 0.040652 0.833063
Si Si3 0.577002 0.867163 0.855242
Si Si4 0.579368 0.872464 0.168718
Si Si5 0.579555 0.800505 0.387384
Si Si6 0.583743 0.044796 0.157012
O O1 0.250000 0.684268 0.667745
O O2 0.057549 0.750000 0.683452
O O3 0.990801 0.674665 0.779887
O O4 0.016679 0.683724 0.514949
O O5 0.750000 0.037696 0.776974
O O6 0.989649 0.085301 0.776928
O O7 0.917775 0.041161 0.995269
O O8 0.005570 0.998250 0.778741
O O9 0.750000 0.869574 0.828771
O O10 0.504937 0.911870 0.796324
O O11 0.538703 0.860933 0.013819
O O12 0.750000 0.884758 0.181560
O O13 0.535928 0.830205 0.258471
O O14 0.750000 0.806290 0.426796
O O15 0.543821 0.750000 0.347415
O O16 0.750000 0.047596 0.212790
#
# Coordination Sequence:
#
# PCOD8240939 Si02
#       6
#     8   8   8   8   8   8
#     4  10  21  36  52  71  97 130 167 204 244 293
#     4   9  16  26  43  68  98 131 165 199 238 287
#     4  10  19  31  50  76 103 130 163 203 246 291
#     4   9  18  31  49  75 103 129 161 203 248 291
#     4   9  18  34  54  73  95 127 166 204 243 291
#     4   9  16  27  44  67  98 132 164 200 241 285
#
# _framework density 17.778386999999999
#
# number of rings (size 3 to 8) (size 9 to 14) (size 15 to 20)
#    0.000    2.667    0.000    2.000    0.000    7.000 
#    0.000    1.667    0.000    3.000    0.000    0.000 
#    0.000    0.000    0.000    0.000    0.000    0.000 
#
# Total GULP energy -595273.942831 kJ/mol
# GULP energy per Si atom -12401.540476 kJ/mol
# Density = 1.773792 g / cm^3
# Si number density = 17.778387 Si / 1000 Ang^3
#
#
#
# Elastic Constant Matrix: (Units=GPa)
#
#
# Indices 1 2 3 4 5 6 
#
# 1 122.3399 65.9057 45.9240 0.0000 0.0000 0.0000
# 2 65.9057 106.7125 52.6872 0.0000 0.0000 0.0000
# 3 45.9240 52.6872 60.0039 0.0000 0.0000 0.0000
# 4 0.0000 0.0000 0.0000 5.1114 0.0000 0.0000
# 5 0.0000 0.0000 0.0000 0.0000 20.2616 0.0000
# 6 0.0000 0.0000 0.0000 0.0000 0.0000 36.5586
#
#
#
# Elastic Compliance Matrix: (Units=1/GPa)
#
#
# Indices 1 2 3 4 5 6 
#
# 1 0.013095 -0.005542 -0.005156 0.000000 0.000000 0.000000
# 2 -0.005542 0.018888 -0.012343 0.000000 0.000000 0.000000
# 3 -0.005156 -0.012343 0.031450 0.000000 0.000000 0.000000
# 4 0.000000 0.000000 0.000000 0.195641 0.000000 0.000000
# 5 0.000000 0.000000 0.000000 0.000000 0.049355 0.000000
# 6 0.000000 0.000000 0.000000 0.000000 0.000000 0.027353
#
#
# Mechanical properties :
#
#
# Convention : Reuss Voigt Hill
#
# Bulk Modulus (GPa) = 57.63584 68.67666 63.15625
# Shear Modulus (GPa) = 12.89831 20.68894 16.79362
#
# Velocity S-wave (km/s) = 2.69644 3.41502 3.07678
# Velocity P-wave (km/s) = 6.49491 7.36634 6.94431
#
# Compressibility (1/GPa) = 0.01735032
#
# Stress axis : x y z
#
# Youngs Moduli (GPa) = 76.36620 52.94438 31.79622
#
# Poissons Ratio (x) = 0.29339 0.16395
# Poissons Ratio (y) = 0.42319 0.39247
# Poissons Ratio (z) = 0.39377 0.65351
#
# Static dielectric constant tensor:
#      x y z
#    x 3.451320 0.000000 0.000000 
#    y 0.000000 3.396360 0.000000 
#    z 0.000000 0.000000 2.929980 
# 
# 
# High freq. dielectric constant tensor:
#      x y z
#    x 1.700160 0.000000 0.000000 
#    y 0.000000 1.696880 0.000000 
#    z 0.000000 0.000000 1.643390 
# 
# From -- ./inp_files/6182.got.cif
#   From: 2010.03.12/outbox.cif.g09.slc.cpg/sg59_4_cif.got.tgz:6182.got - 2010.04.16 16:29:54.
