data_PCOD8240732
_publ_section_title
;
Structure prediction by ZEFSAII (Michael W. Deem and Ramdas Pophale) SiO2 
 PCOD8240732
Probable space group: P M M N
;
_chemical_formula_sum "Si O2"
_cell_formula_units_Z 40
_cell_length_a 25.579623
_cell_length_b 9.322095
_cell_length_c 9.526407
_cell_angle_alpha 90.000000
_cell_angle_beta 90.000000
_cell_angle_gamma 90.000000
_cell_volume 2271.625818
_symmetry_space_group_name_H-M "P M M N"
_symmetry_group_IT_number 59
_space_group.IT_coordinate_system_code '2'
_symmetry_cell_setting 'orthorhombic'
loop_
_space_group_symop_operation_xyz
x,y,z
1/2-x,1/2-y,z
1/2+x,-y,-z
-x,1/2+y,-z
-x,-y,-z
1/2+x,1/2+y,-z
1/2-x,y,z
x,1/2-y,z
loop_
_atom_site_type_symbol
_atom_site_label
_atom_site_fract_x
_atom_site_fract_y
_atom_site_fract_z
Si Si1 0.690223 0.084129 0.758966
Si Si2 0.622191 0.581604 0.967304
Si Si3 0.965899 0.916499 0.747115
Si Si4 0.102568 0.915270 0.456444
Si Si5 0.584868 0.082597 0.227820
O O1 0.750000 0.047371 0.724252
O O2 0.682894 0.250000 0.801544
O O3 0.657077 0.046594 0.619705
O O4 0.671631 0.986919 0.888327
O O5 0.631747 0.750000 0.983498
O O6 0.569427 0.546044 0.881677
O O7 0.618102 0.510668 0.119497
O O8 0.963958 0.750000 0.709481
O O9 0.024537 0.966125 0.779999
O O10 0.945232 0.997627 0.610083
O O11 0.087579 0.750000 0.437443
O O12 0.108394 0.953473 0.619688
O O13 0.590693 0.250000 0.190257
#
# Coordination Sequence:
#
# PCOD8240732 Si02
#       5
#     8   8   8   8   8
#     4   9  18  35  56  72  89 119 158 199 245 294
#     4  10  20  32  48  72  99 128 164 201 237 282
#     4   9  18  31  47  69  99 135 168 197 235 285
#     4   9  18  31  49  73  97 124 162 204 242 287
#     4  10  19  31  47  71 104 134 161 197 240 287
#
# _framework density 17.608533000000001
#
# number of rings (size 3 to 8) (size 9 to 14) (size 15 to 20)
#    0.000    2.600    0.000    1.800    0.000    2.800 
#    0.000    1.000    0.000    3.600    0.000    0.000 
#    0.000    0.000    0.000    0.000    0.000    0.000 
#
# Total GULP energy -496115.766885 kJ/mol
# GULP energy per Si atom -12402.894172 kJ/mol
# Density = 1.756846 g / cm^3
# Si number density = 17.608533 Si / 1000 Ang^3
#
#
#
# Elastic Constant Matrix: (Units=GPa)
#
#
# Indices 1 2 3 4 5 6 
#
# 1 81.6378 33.6133 44.1215 0.0000 0.0000 0.0000
# 2 33.6133 62.2503 51.9907 0.0000 0.0000 0.0000
# 3 44.1215 51.9907 117.8076 0.0000 0.0000 0.0000
# 4 0.0000 0.0000 0.0000 28.4179 0.0000 0.0000
# 5 0.0000 0.0000 0.0000 0.0000 14.6370 0.0000
# 6 0.0000 0.0000 0.0000 0.0000 0.0000 24.4962
#
#
#
# Elastic Compliance Matrix: (Units=1/GPa)
#
#
# Indices 1 2 3 4 5 6 
#
# 1 0.016660 -0.005994 -0.003594 0.000000 0.000000 0.000000
# 2 -0.005994 0.027598 -0.009935 0.000000 0.000000 0.000000
# 3 -0.003594 -0.009935 0.014219 0.000000 0.000000 0.000000
# 4 0.000000 0.000000 0.000000 0.035189 0.000000 0.000000
# 5 0.000000 0.000000 0.000000 0.000000 0.068320 0.000000
# 6 0.000000 0.000000 0.000000 0.000000 0.000000 0.040823
#
#
# Mechanical properties :
#
#
# Convention : Reuss Voigt Hill
#
# Bulk Modulus (GPa) = 51.46405 57.90518 54.68461
# Shear Modulus (GPa) = 20.13443 22.30824 21.22133
#
# Velocity S-wave (km/s) = 3.38516 3.56321 3.47533
# Velocity P-wave (km/s) = 6.67602 7.06292 6.87219
#
# Compressibility (1/GPa) = 0.01943104
#
# Stress axis : x y z
#
# Youngs Moduli (GPa) = 60.02533 36.23445 70.32904
#
# Poissons Ratio (x) = 0.21719 0.25278
# Poissons Ratio (y) = 0.35979 0.69870
# Poissons Ratio (z) = 0.21574 0.35998
#
# Static dielectric constant tensor:
#      x y z
#    x 3.197820 0.000000 0.000000 
#    y 0.000000 3.235730 0.000000 
#    z 0.000000 0.000000 3.256530 
# 
# 
# High freq. dielectric constant tensor:
#      x y z
#    x 1.666330 0.000000 0.000000 
#    y 0.000000 1.679810 0.000000 
#    z 0.000000 0.000000 1.680880 
# 
# From -- ./inp_files/5633.got.cif
#   From: 2010.03.12/outbox.cif.g09.slc.cpg/sg59_3_cif.got.tgz:5633.got - 2010.04.16 16:29:54.
