data_PCOD8240911
_publ_section_title
;
Structure prediction by ZEFSAII (Michael W. Deem and Ramdas Pophale) SiO2 
 PCOD8240911
Probable space group: P M M N
;
_chemical_formula_sum "Si O2"
_cell_formula_units_Z 64
_cell_length_a 19.312228
_cell_length_b 9.077429
_cell_length_c 20.678057
_cell_angle_alpha 90.000000
_cell_angle_beta 90.000000
_cell_angle_gamma 90.000000
_cell_volume 3624.974609
_symmetry_space_group_name_H-M "P M M N"
_symmetry_group_IT_number 59
_space_group.IT_coordinate_system_code '2'
_symmetry_cell_setting 'orthorhombic'
loop_
_space_group_symop_operation_xyz
x,y,z
1/2-x,1/2-y,z
1/2+x,-y,-z
-x,1/2+y,-z
-x,-y,-z
1/2+x,1/2+y,-z
1/2-x,y,z
x,1/2-y,z
loop_
_atom_site_type_symbol
_atom_site_label
_atom_site_fract_x
_atom_site_fract_y
_atom_site_fract_z
Si Si1 0.573187 0.575432 0.617439
Si Si2 0.827654 0.924328 0.502668
Si Si3 0.429638 0.076642 0.608313
Si Si4 0.581414 0.916370 0.245337
Si Si5 0.832204 0.088681 0.004242
Si Si6 0.578615 0.420042 0.749778
Si Si7 0.827576 0.074714 0.142918
Si Si8 0.172266 0.573754 0.134234
O O1 0.564621 0.750000 0.620980
O O2 0.632795 0.526791 0.567485
O O3 0.500831 0.507515 0.593516
O O4 0.596569 0.514264 0.686706
O O5 0.750000 0.992661 0.501914
O O6 0.822442 0.750000 0.499264
O O7 0.870781 0.980831 0.440570
O O8 0.445176 0.250000 0.600515
O O9 0.402968 0.041381 0.680424
O O10 0.605286 0.750000 0.231141
O O11 0.500846 0.936948 0.230543
O O12 0.622588 0.024850 0.199532
O O13 0.750000 0.106328 0.003763
O O14 0.867030 0.250000 0.004264
O O15 0.852697 0.009435 0.072390
O O16 0.853144 0.009094 0.936215
O O17 0.596894 0.250000 0.735126
O O18 0.622925 0.485238 0.809124
O O19 0.750000 0.018784 0.158492
O O20 0.828681 0.250000 0.138655
O O21 0.250000 0.519744 0.149809
O O22 0.169792 0.750000 0.130327
#
# Coordination Sequence:
#
# PCOD8240911 Si02
#       8
#     8   8   8   8   8   8   8   8
#     4  10  19  31  50  72  94 123 155 187 225 272
#     4   9  18  32  50  73  98 122 151 188 229 272
#     4   9  18  34  54  70  88 121 160 192 222 264
#     4   9  18  30  44  65  92 121 151 185 225 268
#     4   7  11  22  41  65  89 113 147 188 227 268
#     4   9  18  32  48  68  95 123 153 189 226 267
#     4   9  17  29  46  67  90 117 150 190 232 272
#     4   8  13  24  46  71  90 114 153 196 229 260
#
# _framework density 17.655297000000001
#
# number of rings (size 3 to 8) (size 9 to 14) (size 15 to 20)
#    0.000    3.250    0.000    3.000    0.000    3.250 
#    0.000    2.500    0.000    3.750    0.000    1.750 
#    0.000    0.000    0.000    0.000    0.000    0.000 
#
# Total GULP energy -793025.190678 kJ/mol
# GULP energy per Si atom -12391.018604 kJ/mol
# Density = 1.761511 g / cm^3
# Si number density = 17.655297 Si / 1000 Ang^3
#
#
#
# Elastic Constant Matrix: (Units=GPa)
#
#
# Indices 1 2 3 4 5 6 
#
# 1 97.5618 27.1909 88.8662 0.0000 0.0000 0.0000
# 2 27.1909 32.0212 35.8562 0.0000 0.0000 0.0000
# 3 88.8662 35.8562 159.8840 0.0000 0.0000 0.0000
# 4 0.0000 0.0000 0.0000 14.8174 0.0000 0.0000
# 5 0.0000 0.0000 0.0000 0.0000 24.1229 0.0000
# 6 0.0000 0.0000 0.0000 0.0000 0.0000 17.9587
#
#
#
# Elastic Compliance Matrix: (Units=1/GPa)
#
#
# Indices 1 2 3 4 5 6 
#
# 1 0.021754 -0.006587 -0.010614 0.000000 0.000000 0.000000
# 2 -0.006587 0.043696 -0.006138 0.000000 0.000000 0.000000
# 3 -0.010614 -0.006138 0.013530 0.000000 0.000000 0.000000
# 4 0.000000 0.000000 0.000000 0.067488 0.000000 0.000000
# 5 0.000000 0.000000 0.000000 0.000000 0.041454 0.000000
# 6 0.000000 0.000000 0.000000 0.000000 0.000000 0.055683
#
#
# Mechanical properties :
#
#
# Convention : Reuss Voigt Hill
#
# Bulk Modulus (GPa) = 30.95794 65.92151 48.43973
# Shear Modulus (GPa) = 16.60845 20.55005 18.57925
#
# Velocity S-wave (km/s) = 3.07042 3.41539 3.24749
# Velocity P-wave (km/s) = 5.49024 7.27821 6.44651
#
# Compressibility (1/GPa) = 0.03230189
#
# Stress axis : x y z
#
# Youngs Moduli (GPa) = 45.96955 22.88528 73.90779
#
# Poissons Ratio (x) = 0.15075 0.78444
# Poissons Ratio (y) = 0.30281 0.45366
# Poissons Ratio (z) = 0.48791 0.14047
#
# Static dielectric constant tensor:
#      x y z
#    x 3.249260 0.000000 0.000000 
#    y 0.000000 2.855980 0.000000 
#    z 0.000000 0.000000 3.678270 
# 
# 
# High freq. dielectric constant tensor:
#      x y z
#    x 1.665250 0.000000 0.000000 
#    y 0.000000 1.637190 0.000000 
#    z 0.000000 0.000000 1.704030 
# 
# From -- ./inp_files/30716.got.cif
#   From: 2010.03.12/outbox.cif.g09.slc.cpg/sg59_16_cif.got.tgz:30716.got - 2010.04.16 16:29:54.
