data_PCOD8240453
_publ_section_title
;
Structure prediction by ZEFSAII (Michael W. Deem and Ramdas Pophale) SiO2 
 PCOD8240453
Probable space group: P M M N
;
_chemical_formula_sum "Si O2"
_cell_formula_units_Z 64
_cell_length_a 17.650447
_cell_length_b 9.063358
_cell_length_c 23.009945
_cell_angle_alpha 90.000000
_cell_angle_beta 90.000000
_cell_angle_gamma 90.000000
_cell_volume 3680.954285
_symmetry_space_group_name_H-M "P M M N"
_symmetry_group_IT_number 59
_space_group.IT_coordinate_system_code '2'
_symmetry_cell_setting 'orthorhombic'
loop_
_space_group_symop_operation_xyz
x,y,z
1/2-x,1/2-y,z
1/2+x,-y,-z
-x,1/2+y,-z
-x,-y,-z
1/2+x,1/2+y,-z
1/2-x,y,z
x,1/2-y,z
loop_
_atom_site_type_symbol
_atom_site_label
_atom_site_fract_x
_atom_site_fract_y
_atom_site_fract_z
Si Si1 0.665080 0.079712 0.304590
Si Si2 0.164959 0.920120 0.461871
Si Si3 0.475516 0.425815 0.740336
Si Si4 0.436602 0.080153 0.965238
Si Si5 0.534066 0.077271 0.863451
Si Si6 0.834833 0.924172 0.935794
Si Si7 0.462799 0.919667 0.379745
Si Si8 0.626377 0.578635 0.421099
O O1 0.750000 0.064565 0.279049
O O2 0.641349 0.250000 0.310838
O O3 0.607752 0.998515 0.260524
O O4 0.664156 0.005908 0.367794
O O5 0.250000 0.931836 0.437390
O O6 0.143144 0.750000 0.475544
O O7 0.109238 0.990082 0.412904
O O8 0.159096 0.013850 0.520010
O O9 0.463934 0.250000 0.737735
O O10 0.520804 0.475991 0.797622
O O11 0.522510 0.486891 0.684518
O O12 0.450749 0.250000 0.975963
O O13 0.453853 0.042498 0.897502
O O14 0.356758 0.037238 0.996191
O O15 0.500000 0.000000 0.000000
O O16 0.552578 0.250000 0.865659
O O17 0.606663 0.995515 0.890323
O O18 0.750000 0.985873 0.925221
O O19 0.836891 0.750000 0.925340
O O20 0.444196 0.750000 0.369695
O O21 0.535914 0.943542 0.420185
O O22 0.648238 0.750000 0.416256
#
# Coordination Sequence:
#
# PCOD8240453 Si02
#       8
#     8   8   8   8   8   8   8   8
#     4  10  20  33  49  70  95 121 151 189 232 280
#     4  10  19  30  45  65  89 116 147 186 231 279
#     4   9  18  33  51  70  93 123 160 197 231 274
#     4   8  14  26  44  66  92 121 151 185 228 275
#     4   9  17  30  49  72  96 123 159 201 240 279
#     4   9  17  29  46  69  97 128 161 196 234 279
#     4   8  16  31  47  64  88 118 151 185 224 274
#     4  10  19  31  49  69  90 117 148 187 234 283
#
# _framework density 17.386794999999999
#
# number of rings (size 3 to 8) (size 9 to 14) (size 15 to 20)
#    0.000    2.875    0.000    2.250    0.000    3.500 
#    0.000    3.750    0.000    4.500    0.000    0.000 
#    0.000    0.000    0.000    0.000    0.000    0.000 
#
# Total GULP energy -792896.404183 kJ/mol
# GULP energy per Si atom -12389.006315 kJ/mol
# Density = 1.734722 g / cm^3
# Si number density = 17.386795 Si / 1000 Ang^3
#
#
#
# Elastic Constant Matrix: (Units=GPa)
#
#
# Indices 1 2 3 4 5 6 
#
# 1 117.2782 33.3580 59.8548 0.0000 0.0000 0.0000
# 2 33.3580 46.7039 28.1559 0.0000 0.0000 0.0000
# 3 59.8548 28.1559 94.2971 0.0000 0.0000 0.0000
# 4 0.0000 0.0000 0.0000 18.6940 0.0000 0.0000
# 5 0.0000 0.0000 0.0000 0.0000 20.6896 0.0000
# 6 0.0000 0.0000 0.0000 0.0000 0.0000 22.6693
#
#
#
# Elastic Compliance Matrix: (Units=1/GPa)
#
#
# Indices 1 2 3 4 5 6 
#
# 1 0.013694 -0.005538 -0.007039 0.000000 0.000000 0.000000
# 2 -0.005538 0.028351 -0.004950 0.000000 0.000000 0.000000
# 3 -0.007039 -0.004950 0.016551 0.000000 0.000000 0.000000
# 4 0.000000 0.000000 0.000000 0.053493 0.000000 0.000000
# 5 0.000000 0.000000 0.000000 0.000000 0.048333 0.000000
# 6 0.000000 0.000000 0.000000 0.000000 0.000000 0.044113
#
#
# Mechanical properties :
#
#
# Convention : Reuss Voigt Hill
#
# Bulk Modulus (GPa) = 42.47638 55.66850 49.07244
# Shear Modulus (GPa) = 20.20724 21.53796 20.87260
#
# Velocity S-wave (km/s) = 3.41283 3.52341 3.46856
# Velocity P-wave (km/s) = 6.32560 6.97422 6.65781
#
# Compressibility (1/GPa) = 0.02354249
#
# Stress axis : x y z
#
# Youngs Moduli (GPa) = 73.02344 35.27213 60.42005
#
# Poissons Ratio (x) = 0.19532 0.42529
# Poissons Ratio (y) = 0.40437 0.29910
# Poissons Ratio (z) = 0.51401 0.17461
#
# Static dielectric constant tensor:
#      x y z
#    x 4.413560 0.000000 0.000000 
#    y 0.000000 3.224200 0.000000 
#    z 0.000000 0.000000 3.857370 
# 
# 
# High freq. dielectric constant tensor:
#      x y z
#    x 1.666700 0.000000 0.000000 
#    y 0.000000 1.659860 0.000000 
#    z 0.000000 0.000000 1.660130 
# 
# From -- ./inp_files/32329.got.cif
#   From: 2010.03.12/outbox.cif.g09.slc.cpg/sg59_17_cif.got.tgz:32329.got - 2010.04.16 16:29:54.
