data_PCOD8240669
_publ_section_title
;
Structure prediction by ZEFSAII (Michael W. Deem and Ramdas Pophale) SiO2 
 PCOD8240669
Probable space group: P M M N
;
_chemical_formula_sum "Si O2"
_cell_formula_units_Z 64
_cell_length_a 9.485700
_cell_length_b 27.249054
_cell_length_c 14.158178
_cell_angle_alpha 90.000000
_cell_angle_beta 90.000000
_cell_angle_gamma 90.000000
_cell_volume 3659.554194
_symmetry_space_group_name_H-M "P M M N"
_symmetry_group_IT_number 59
_space_group.IT_coordinate_system_code '2'
_symmetry_cell_setting 'orthorhombic'
loop_
_space_group_symop_operation_xyz
x,y,z
1/2-x,1/2-y,z
1/2+x,-y,-z
-x,1/2+y,-z
-x,-y,-z
1/2+x,1/2+y,-z
1/2-x,y,z
x,1/2-y,z
loop_
_atom_site_type_symbol
_atom_site_label
_atom_site_fract_x
_atom_site_fract_y
_atom_site_fract_z
Si Si1 0.413396 0.103834 0.841826
Si Si2 0.905927 0.807568 0.485987
Si Si3 0.406306 0.967320 0.274841
Si Si4 0.917632 0.804818 0.275813
Si Si5 0.906607 0.453828 0.516033
Si Si6 0.586255 0.951091 0.975154
Si Si7 0.913113 0.923713 0.764931
Si Si8 0.917179 0.367530 0.381075
O O1 0.250000 0.101854 0.816285
O O2 0.482200 0.056977 0.793142
O O3 0.474890 0.155828 0.802523
O O4 0.441078 0.094561 0.952970
O O5 0.750000 0.831025 0.504094
O O6 0.889439 0.750000 0.484679
O O7 0.963318 0.822799 0.381201
O O8 0.013111 0.819827 0.571441
O O9 0.250000 0.963037 0.229304
O O10 0.410902 0.939358 0.374242
O O11 0.442225 0.024867 0.288596
O O12 0.750000 0.802010 0.271986
O O13 0.978462 0.750000 0.252874
O O14 0.750000 0.467604 0.482602
O O15 0.962265 0.408471 0.456609
O O16 0.000000 0.500000 0.500000
O O17 0.750000 0.966470 0.975864
O O18 0.541268 0.930177 0.873617
O O19 0.500000 0.000000 0.000000
O O20 0.750000 0.907632 0.755811
O O21 0.011530 0.881610 0.718850
O O22 0.750000 0.360261 0.367782
#
# Coordination Sequence:
#
# PCOD8240669 Si02
#       8
#     8   8   8   8   8   8   8   8
#     4  10  19  30  50  76  98 125 163 210 254 296
#     4   9  18  34  56  78 101 133 168 198 240 307
#     4  10  19  31  46  66  96 134 166 196 245 299
#     4   8  15  30  52  78 104 128 158 198 248 303
#     4  10  20  31  43  64  95 129 164 197 238 293
#     4  10  20  33  49  71  99 132 171 212 254 299
#     4  10  20  34  49  65  95 139 174 205 248 302
#     4  11  22  33  49  74 101 130 167 214 257 291
#
# _framework density 17.488468999999998
#
# number of rings (size 3 to 8) (size 9 to 14) (size 15 to 20)
#    0.000    2.250    2.500    1.875    0.000    2.250 
#    0.000    0.000    0.000    1.875    0.000    3.500 
#    0.000    0.000    0.000    0.000    0.000    0.000 
#
# Total GULP energy -793206.648000 kJ/mol
# GULP energy per Si atom -12393.853875 kJ/mol
# Density = 1.744866 g / cm^3
# Si number density = 17.488469 Si / 1000 Ang^3
#
#
#
# Elastic Constant Matrix: (Units=GPa)
#
#
# Indices 1 2 3 4 5 6 
#
# 1 55.5803 25.9022 36.9626 0.0000 0.0000 0.0000
# 2 25.9022 53.8689 38.9366 0.0000 0.0000 0.0000
# 3 36.9626 38.9366 110.5603 0.0000 0.0000 0.0000
# 4 0.0000 0.0000 0.0000 29.8574 0.0000 0.0000
# 5 0.0000 0.0000 0.0000 0.0000 22.2486 0.0000
# 6 0.0000 0.0000 0.0000 0.0000 0.0000 21.5364
#
#
#
# Elastic Compliance Matrix: (Units=1/GPa)
#
#
# Indices 1 2 3 4 5 6 
#
# 1 0.025583 -0.008209 -0.005662 0.000000 0.000000 0.000000
# 2 -0.008209 0.027537 -0.006953 0.000000 0.000000 0.000000
# 3 -0.005662 -0.006953 0.013387 0.000000 0.000000 0.000000
# 4 0.000000 0.000000 0.000000 0.033493 0.000000 0.000000
# 5 0.000000 0.000000 0.000000 0.000000 0.044947 0.000000
# 6 0.000000 0.000000 0.000000 0.000000 0.000000 0.046433
#
#
# Mechanical properties :
#
#
# Convention : Reuss Voigt Hill
#
# Bulk Modulus (GPa) = 40.22866 47.06803 43.64834
# Shear Modulus (GPa) = 20.72001 22.60899 21.66450
#
# Velocity S-wave (km/s) = 3.44580 3.59945 3.52346
# Velocity P-wave (km/s) = 6.23573 6.65183 6.44714
#
# Compressibility (1/GPa) = 0.02485790
#
# Stress axis : x y z
#
# Youngs Moduli (GPa) = 39.08852 36.31529 74.70177
#
# Poissons Ratio (x) = 0.29810 0.42296
# Poissons Ratio (y) = 0.32087 0.51943
# Poissons Ratio (z) = 0.22132 0.25251
#
# Static dielectric constant tensor:
#      x y z
#    x 3.187950 0.000000 0.000000 
#    y 0.000000 3.095020 0.000000 
#    z 0.000000 0.000000 3.468400 
# 
# 
# High freq. dielectric constant tensor:
#      x y z
#    x 1.663770 0.000000 0.000000 
#    y 0.000000 1.654240 0.000000 
#    z 0.000000 0.000000 1.673690 
# 
# From -- ./inp_files/21870.got.cif
#   From: 2010.03.12/outbox.cif.g09.slc.cpg/sg59_11_cif.got.tgz:21870.got - 2010.04.16 16:29:54.
