data_PCOD8240796
_publ_section_title
;
Structure prediction by ZEFSAII (Michael W. Deem and Ramdas Pophale) SiO2 
 PCOD8240796
Probable space group: P M M N
;
_chemical_formula_sum "Si O2"
_cell_formula_units_Z 64
_cell_length_a 9.278093
_cell_length_b 22.538879
_cell_length_c 17.235329
_cell_angle_alpha 90.000000
_cell_angle_beta 90.000000
_cell_angle_gamma 90.000000
_cell_volume 3604.214350
_symmetry_space_group_name_H-M "P M M N"
_symmetry_group_IT_number 59
_space_group.IT_coordinate_system_code '2'
_symmetry_cell_setting 'orthorhombic'
loop_
_space_group_symop_operation_xyz
x,y,z
1/2-x,1/2-y,z
1/2+x,-y,-z
-x,1/2+y,-z
-x,-y,-z
1/2+x,1/2+y,-z
1/2-x,y,z
x,1/2-y,z
loop_
_atom_site_type_symbol
_atom_site_label
_atom_site_fract_x
_atom_site_fract_y
_atom_site_fract_z
Si Si1 0.412983 0.953523 0.172651
Si Si2 0.084763 0.183413 0.566291
Si Si3 0.084083 0.847602 0.585558
Si Si4 0.078790 0.410577 0.141054
Si Si5 0.081563 0.086156 0.685589
Si Si6 0.583834 0.183383 0.243298
Si Si7 0.415892 0.518200 0.575248
Si Si8 0.416293 0.939065 0.001252
O O1 0.250000 0.953658 0.203182
O O2 0.507241 0.914392 0.230976
O O3 0.424039 0.918182 0.090756
O O4 0.464430 0.022422 0.166552
O O5 0.250000 0.165983 0.550788
O O6 0.069203 0.250000 0.598832
O O7 0.019829 0.138911 0.630934
O O8 0.006066 0.179328 0.484340
O O9 0.250000 0.839920 0.562221
O O10 0.048172 0.814107 0.665181
O O11 0.043173 0.915861 0.600180
O O12 0.250000 0.404239 0.130352
O O13 0.022724 0.362888 0.202781
O O14 0.998665 0.395713 0.059067
O O15 0.250000 0.095213 0.699401
O O16 0.042082 0.023685 0.646485
O O17 0.750000 0.163295 0.230635
O O18 0.558954 0.250000 0.210484
O O19 0.500000 0.500000 0.500000
O O20 0.250000 0.510808 0.553879
O O21 0.250000 0.947054 0.975364
O O22 0.500000 0.000000 0.000000
#
# Coordination Sequence:
#
# PCOD8240796 Si02
#       8
#     8   8   8   8   8   8   8   8
#     4   9  19  33  51  79 108 133 165 207 258 309
#     4  10  21  36  52  70  95 130 172 215 257 302
#     4  10  20  34  53  75  99 131 172 216 259 309
#     4  10  20  34  53  79 108 138 172 210 257 312
#     4  10  20  33  50  73 100 132 170 209 256 307
#     4  10  21  36  53  74 103 140 180 220 261 308
#     4  10  19  31  48  72  99 128 165 207 255 307
#     4   9  17  31  52  79 109 136 165 202 248 307
#
# _framework density 17.756990999999999
#
# number of rings (size 3 to 8) (size 9 to 14) (size 15 to 20)
#    0.000    2.250    1.250    2.625    0.000    6.500 
#    0.000    0.000    0.000    0.750    0.000    3.500 
#    0.000    0.000    0.000    0.000    0.000    0.000 
#
# Total GULP energy -793431.499753 kJ/mol
# GULP energy per Si atom -12397.367184 kJ/mol
# Density = 1.771658 g / cm^3
# Si number density = 17.756991 Si / 1000 Ang^3
#
#
#
# Elastic Constant Matrix: (Units=GPa)
#
#
# Indices 1 2 3 4 5 6 
#
# 1 75.4828 29.1572 51.8397 0.0000 0.0000 0.0000
# 2 29.1572 76.7002 33.5135 0.0000 0.0000 0.0000
# 3 51.8397 33.5135 103.3405 0.0000 0.0000 0.0000
# 4 0.0000 0.0000 0.0000 15.6477 0.0000 0.0000
# 5 0.0000 0.0000 0.0000 0.0000 36.5029 0.0000
# 6 0.0000 0.0000 0.0000 0.0000 0.0000 22.0000
#
#
#
# Elastic Compliance Matrix: (Units=1/GPa)
#
#
# Indices 1 2 3 4 5 6 
#
# 1 0.021203 -0.003976 -0.009347 0.000000 0.000000 0.000000
# 2 -0.003976 0.015936 -0.003173 0.000000 0.000000 0.000000
# 3 -0.009347 -0.003173 0.015395 0.000000 0.000000 0.000000
# 4 0.000000 0.000000 0.000000 0.063907 0.000000 0.000000
# 5 0.000000 0.000000 0.000000 0.000000 0.027395 0.000000
# 6 0.000000 0.000000 0.000000 0.000000 0.000000 0.045455
#
#
# Mechanical properties :
#
#
# Convention : Reuss Voigt Hill
#
# Bulk Modulus (GPa) = 51.17520 53.83827 52.50673
# Shear Modulus (GPa) = 21.85343 24.23100 23.04222
#
# Velocity S-wave (km/s) = 3.51193 3.69804 3.60619
# Velocity P-wave (km/s) = 6.73255 6.97276 6.85370
#
# Compressibility (1/GPa) = 0.01954072
#
# Stress axis : x y z
#
# Youngs Moduli (GPa) = 47.16278 62.75131 64.95766
#
# Poissons Ratio (x) = 0.24952 0.60715
# Poissons Ratio (y) = 0.18753 0.20614
# Poissons Ratio (z) = 0.44082 0.19913
#
# Static dielectric constant tensor:
#      x y z
#    x 3.388430 0.000000 0.000000 
#    y 0.000000 3.266780 0.000000 
#    z 0.000000 0.000000 3.412970 
# 
# 
# High freq. dielectric constant tensor:
#      x y z
#    x 1.687250 0.000000 0.000000 
#    y 0.000000 1.667330 0.000000 
#    z 0.000000 0.000000 1.686060 
# 
# From -- ./inp_files/21422.got.cif
#   From: 2010.03.12/outbox.cif.g09.slc.cpg/sg59_11_cif.got.tgz:21422.got - 2010.04.16 16:29:54.
