data_PCOD8240284
_publ_section_title
;
Structure prediction by ZEFSAII (Michael W. Deem and Ramdas Pophale) SiO2 
 PCOD8240284
Probable space group: P M M N
;
_chemical_formula_sum "Si O2"
_cell_formula_units_Z 64
_cell_length_a 28.503700
_cell_length_b 9.197893
_cell_length_c 15.862250
_cell_angle_alpha 90.000000
_cell_angle_beta 90.000000
_cell_angle_gamma 90.000000
_cell_volume 4158.669257
_symmetry_space_group_name_H-M "P M M N"
_symmetry_group_IT_number 59
_space_group.IT_coordinate_system_code '2'
_symmetry_cell_setting 'orthorhombic'
loop_
_space_group_symop_operation_xyz
x,y,z
1/2-x,1/2-y,z
1/2+x,-y,-z
-x,1/2+y,-z
-x,-y,-z
1/2+x,1/2+y,-z
1/2-x,y,z
x,1/2-y,z
loop_
_atom_site_type_symbol
_atom_site_label
_atom_site_fract_x
_atom_site_fract_y
_atom_site_fract_z
Si Si1 0.696733 0.919785 0.093215
Si Si2 0.452328 0.583316 0.500185
Si Si3 0.111461 0.579071 0.838763
Si Si4 0.302163 0.918097 0.080435
Si Si5 0.549909 0.080033 0.317390
Si Si6 0.894518 0.421117 0.838272
Si Si7 0.950689 0.078511 0.000785
Si Si8 0.049102 0.921445 0.318321
O O1 0.750000 0.948784 0.124170
O O2 0.685614 0.750000 0.088661
O O3 0.661055 0.996015 0.157713
O O4 0.688941 0.985751 0.001146
O O5 0.500000 0.500000 0.500000
O O6 0.466486 0.750000 0.498870
O O7 0.426452 0.548892 0.589465
O O8 0.427009 0.545101 0.410809
O O9 0.121768 0.750000 0.839061
O O10 0.086512 0.527024 0.752774
O O11 0.078492 0.533527 0.916621
O O12 0.250000 0.942802 0.117428
O O13 0.310009 0.750000 0.053717
O O14 0.339656 0.964542 0.151961
O O15 0.538944 0.250000 0.304805
O O16 0.501260 0.995541 0.307166
O O17 0.899669 0.250000 0.833746
O O18 0.915713 0.487378 0.752074
O O19 0.922585 0.478838 0.919407
O O20 0.959237 0.250000 0.998423
O O21 0.000000 0.000000 0.000000
O O22 0.041529 0.750000 0.305681
#
# Coordination Sequence:
#
# PCOD8240284 Si02
#       8
#     8   8   8   8   8   8   8   8
#     4  10  20  32  46  65  86 106 135 179 222 254
#     4   8  14  25  40  59  81 109 140 173 211 243
#     4  10  19  31  45  61  83 115 148 174 206 251
#     4   9  16  29  48  63  79 107 140 173 209 248
#     4   9  17  28  42  61  86 111 143 180 206 239
#     4   9  16  27  41  60  83 107 139 173 200 241
#     4  10  19  29  39  55  82 112 143 171 198 237
#     4   9  16  26  42  61  85 115 142 170 210 252
#
# _framework density 15.389538
#
# number of rings (size 3 to 8) (size 9 to 14) (size 15 to 20)
#    0.000    2.750    1.250    1.125    0.000    1.750 
#    0.000    0.625    0.000    0.000    0.000    0.875 
#    0.000    5.000    0.000    3.375    0.000    3.000 
#
# Total GULP energy -792947.654112 kJ/mol
# GULP energy per Si atom -12389.807096 kJ/mol
# Density = 1.535451 g / cm^3
# Si number density = 15.389538 Si / 1000 Ang^3
#
#
#
# Elastic Constant Matrix: (Units=GPa)
#
#
# Indices 1 2 3 4 5 6 
#
# 1 111.4725 33.1703 72.7089 0.0000 0.0000 0.0000
# 2 33.1703 33.8437 29.6386 0.0000 0.0000 0.0000
# 3 72.7089 29.6386 151.4812 0.0000 0.0000 0.0000
# 4 0.0000 0.0000 0.0000 12.3193 0.0000 0.0000
# 5 0.0000 0.0000 0.0000 0.0000 13.5271 0.0000
# 6 0.0000 0.0000 0.0000 0.0000 0.0000 21.3758
#
#
#
# Elastic Compliance Matrix: (Units=1/GPa)
#
#
# Indices 1 2 3 4 5 6 
#
# 1 0.015680 -0.010592 -0.005454 0.000000 0.000000 0.000000
# 2 -0.010592 0.042812 -0.003293 0.000000 0.000000 0.000000
# 3 -0.005454 -0.003293 0.009863 0.000000 0.000000 0.000000
# 4 0.000000 0.000000 0.000000 0.081173 0.000000 0.000000
# 5 0.000000 0.000000 0.000000 0.000000 0.073926 0.000000
# 6 0.000000 0.000000 0.000000 0.000000 0.000000 0.046782
#
#
# Mechanical properties :
#
#
# Convention : Reuss Voigt Hill
#
# Bulk Modulus (GPa) = 33.69374 63.09253 48.39313
# Shear Modulus (GPa) = 15.68356 20.19642 17.93999
#
# Velocity S-wave (km/s) = 3.19581 3.62656 3.41798
# Velocity P-wave (km/s) = 5.96314 7.65650 6.86225
#
# Compressibility (1/GPa) = 0.02967910
#
# Stress axis : x y z
#
# Youngs Moduli (GPa) = 63.77645 23.35791 101.38459
#
# Poissons Ratio (x) = 0.24740 0.55292
# Poissons Ratio (y) = 0.67550 0.33383
# Poissons Ratio (z) = 0.34782 0.07691
#
# Static dielectric constant tensor:
#      x y z
#    x 2.901630 0.000000 0.000000 
#    y 0.000000 3.068610 0.000000 
#    z 0.000000 0.000000 3.509640 
# 
# 
# High freq. dielectric constant tensor:
#      x y z
#    x 1.568310 0.000000 0.000000 
#    y 0.000000 1.580690 0.000000 
#    z 0.000000 0.000000 1.589000 
# 
# From -- ./inp_files/25038.got.cif
#   From: 2010.03.12/outbox.cif.g09.slc.cpg/sg59_13_cif.got.tgz:25038.got - 2010.04.16 16:29:54.
