data_PCOD8240856
_publ_section_title
;
Structure prediction by ZEFSAII (Michael W. Deem and Ramdas Pophale) SiO2 
 PCOD8240856
Probable space group: P M M N
;
_chemical_formula_sum "Si O2"
_cell_formula_units_Z 40
_cell_length_a 8.921916
_cell_length_b 25.420742
_cell_length_c 10.054805
_cell_angle_alpha 90.000000
_cell_angle_beta 90.000000
_cell_angle_gamma 90.000000
_cell_volume 2280.447116
_symmetry_space_group_name_H-M "P M M N"
_symmetry_group_IT_number 59
_space_group.IT_coordinate_system_code '2'
_symmetry_cell_setting 'orthorhombic'
loop_
_space_group_symop_operation_xyz
x,y,z
1/2-x,1/2-y,z
1/2+x,-y,-z
-x,1/2+y,-z
-x,-y,-z
1/2+x,1/2+y,-z
1/2-x,y,z
x,1/2-y,z
loop_
_atom_site_type_symbol
_atom_site_label
_atom_site_fract_x
_atom_site_fract_y
_atom_site_fract_z
Si Si1 0.425548 0.938926 0.370083
Si Si2 0.087031 0.250000 0.155033
Si Si3 0.930020 0.862445 0.865147
Si Si4 0.427412 0.856496 0.146947
Si Si5 0.083672 0.250000 0.840278
Si Si6 0.073556 0.058148 0.359388
O O1 0.250000 0.936728 0.395418
O O2 0.474465 0.901507 0.250383
O O3 0.503678 0.919498 0.505090
O O4 0.477705 0.998148 0.334102
O O5 0.250000 0.250000 0.223438
O O6 0.008221 0.305631 0.191942
O O7 0.101632 0.250000 0.997021
O O8 0.750000 0.860114 0.881749
O O9 0.984399 0.907293 0.764310
O O10 0.002392 0.874327 0.007280
O O11 0.250000 0.850879 0.131119
O O12 0.493069 0.801873 0.203583
O O13 0.250000 0.250000 0.774670
O O14 0.250000 0.063211 0.372333
#
# Coordination Sequence:
#
# PCOD8240856 Si02
#       6
#     8   4   8   8   4   8
#     4   9  19  34  49  68  97 130 164 203 245 289
#     4   7  12  25  44  65  90 118 146 186 236 275
#     4   9  17  30  49  72  97 125 162 204 240 282
#     4  10  19  31  49  73 100 128 158 196 244 292
#     4   9  17  31  50  71  96 126 160 196 236 285
#     4   9  18  33  51  69  93 130 170 204 242 286
#
# _framework density 17.540419
#
# number of rings (size 3 to 8) (size 9 to 14) (size 15 to 20)
#    0.000    3.000    0.000    2.100    0.000    3.200 
#    0.000    1.000    0.000    1.200    0.000    0.000 
#    0.000    0.000    0.000    0.000    0.000    0.000 
#
# Total GULP energy -495746.921141 kJ/mol
# GULP energy per Si atom -12393.673029 kJ/mol
# Density = 1.750050 g / cm^3
# Si number density = 17.540419 Si / 1000 Ang^3
#
#
#
# Elastic Constant Matrix: (Units=GPa)
#
#
# Indices 1 2 3 4 5 6 
#
# 1 46.8198 40.6362 40.9591 0.0000 0.0000 0.0000
# 2 40.6362 134.4592 88.4413 0.0000 0.0000 0.0000
# 3 40.9591 88.4413 116.5482 0.0000 0.0000 0.0000
# 4 0.0000 0.0000 0.0000 9.8283 0.0000 0.0000
# 5 0.0000 0.0000 0.0000 0.0000 27.5909 0.0000
# 6 0.0000 0.0000 0.0000 0.0000 0.0000 21.6891
#
#
#
# Elastic Compliance Matrix: (Units=1/GPa)
#
#
# Indices 1 2 3 4 5 6 
#
# 1 0.032186 -0.004566 -0.007846 0.000000 0.000000 0.000000
# 2 -0.004566 0.015496 -0.010155 0.000000 0.000000 0.000000
# 3 -0.007846 -0.010155 0.019043 0.000000 0.000000 0.000000
# 4 0.000000 0.000000 0.000000 0.101747 0.000000 0.000000
# 5 0.000000 0.000000 0.000000 0.000000 0.036244 0.000000
# 6 0.000000 0.000000 0.000000 0.000000 0.000000 0.046106
#
#
# Mechanical properties :
#
#
# Convention : Reuss Voigt Hill
#
# Bulk Modulus (GPa) = 46.31471 70.87782 58.59627
# Shear Modulus (GPa) = 16.49333 20.34103 18.41718
#
# Velocity S-wave (km/s) = 3.06976 3.40908 3.24386
# Velocity P-wave (km/s) = 6.24712 7.48277 6.89269
#
# Compressibility (1/GPa) = 0.02159141
#
# Stress axis : x y z
#
# Youngs Moduli (GPa) = 31.06976 64.53099 52.51232
#
# Poissons Ratio (x) = 0.29467 0.41201
# Poissons Ratio (y) = 0.14188 0.53324
# Poissons Ratio (z) = 0.24377 0.65528
#
# Static dielectric constant tensor:
#      x y z
#    x 3.158050 0.000000 0.000000 
#    y 0.000000 3.729640 0.000000 
#    z 0.000000 0.000000 3.061810 
# 
# 
# High freq. dielectric constant tensor:
#      x y z
#    x 1.666330 0.000000 0.000000 
#    y 0.000000 1.691400 0.000000 
#    z 0.000000 0.000000 1.653490 
# 
# From -- ./inp_files/5922.got.cif
#   From: 2010.03.12/outbox.cif.g09.slc.cpg/sg59_3_cif.got.tgz:5922.got - 2010.04.16 16:29:54.
