data_PCOD8240197
_publ_section_title
;
Structure prediction by ZEFSAII (Michael W. Deem and Ramdas Pophale) SiO2 
 PCOD8240197
Probable space group: P M M N
;
_chemical_formula_sum "Si O2"
_cell_formula_units_Z 64
_cell_length_a 23.487725
_cell_length_b 8.956018
_cell_length_c 15.326479
_cell_angle_alpha 90.000000
_cell_angle_beta 90.000000
_cell_angle_gamma 90.000000
_cell_volume 3224.024294
_symmetry_space_group_name_H-M "P M M N"
_symmetry_group_IT_number 59
_space_group.IT_coordinate_system_code '2'
_symmetry_cell_setting 'orthorhombic'
loop_
_space_group_symop_operation_xyz
x,y,z
1/2-x,1/2-y,z
1/2+x,-y,-z
-x,1/2+y,-z
-x,-y,-z
1/2+x,1/2+y,-z
1/2-x,y,z
x,1/2-y,z
loop_
_atom_site_type_symbol
_atom_site_label
_atom_site_fract_x
_atom_site_fract_y
_atom_site_fract_z
Si Si1 0.382794 0.573175 0.906556
Si Si2 0.390841 0.923405 0.403841
Si Si3 0.374993 0.072940 0.083558
Si Si4 0.184287 0.576697 0.242065
Si Si5 0.995232 0.926784 0.847790
Si Si6 0.501031 0.074075 0.347690
Si Si7 0.873528 0.076828 0.402780
Si Si8 0.683577 0.921945 0.248114
O O1 0.377281 0.750000 0.914774
O O2 0.448550 0.520051 0.899057
O O3 0.349646 0.522117 0.821076
O O4 0.355589 0.496648 0.991635
O O5 0.403728 0.750000 0.392393
O O6 0.351134 0.982335 0.325391
O O7 0.359040 0.952879 0.495716
O O8 0.451284 0.005257 0.406028
O O9 0.371775 0.250000 0.077420
O O10 0.438786 0.014118 0.104124
O O11 0.332075 0.018467 0.157649
O O12 0.250000 0.549406 0.263699
O O13 0.171654 0.750000 0.223134
O O14 0.994560 0.750000 0.842014
O O15 0.996170 0.992115 0.750069
O O16 0.493170 0.250000 0.348527
O O17 0.561626 0.026656 0.386201
O O18 0.865068 0.250000 0.377496
O O19 0.831269 0.977643 0.345156
O O20 0.750000 0.943452 0.231635
O O21 0.665428 0.750000 0.237813
#
# Coordination Sequence:
#
# PCOD8240197 Si02
#       8
#     8   8   8   8   8   8   8   8
#     4  11  22  40  64  89 118 152 190 234 287 350
#     4  10  21  36  58  90 119 151 196 243 290 343
#     4  11  22  38  60  88 119 151 189 236 289 345
#     4  10  22  40  58  79 112 153 198 245 288 335
#     4   9  18  34  58  87 119 152 187 231 284 342
#     4  10  18  34  58  86 121 156 189 233 288 350
#     4  10  21  38  61  88 120 156 195 237 289 349
#     4  11  25  43  61  85 117 152 196 247 292 340
#
# _framework density 19.850967000000001
#
# number of rings (size 3 to 8) (size 9 to 14) (size 15 to 20)
#    0.000    1.750    2.500    1.875    0.000    3.250 
#    0.000    3.125    0.000    0.000    0.000    0.000 
#    0.000    0.000    0.000    0.000    0.000    0.000 
#
# Total GULP energy -793831.397819 kJ/mol
# GULP energy per Si atom -12403.615591 kJ/mol
# Density = 1.980579 g / cm^3
# Si number density = 19.850967 Si / 1000 Ang^3
#
#
#
# Elastic Constant Matrix: (Units=GPa)
#
#
# Indices 1 2 3 4 5 6 
#
# 1 67.4967 27.9209 15.3693 0.0000 0.0000 0.0000
# 2 27.9209 59.8361 29.0879 0.0000 0.0000 0.0000
# 3 15.3693 29.0879 108.5175 0.0000 0.0000 0.0000
# 4 0.0000 0.0000 0.0000 28.4108 0.0000 0.0000
# 5 0.0000 0.0000 0.0000 0.0000 15.4349 0.0000
# 6 0.0000 0.0000 0.0000 0.0000 0.0000 27.3825
#
#
#
# Elastic Compliance Matrix: (Units=1/GPa)
#
#
# Indices 1 2 3 4 5 6 
#
# 1 0.018371 -0.008402 -0.000350 0.000000 0.000000 0.000000
# 2 -0.008402 0.023059 -0.004991 0.000000 0.000000 0.000000
# 3 -0.000350 -0.004991 0.010602 0.000000 0.000000 0.000000
# 4 0.000000 0.000000 0.000000 0.035198 0.000000 0.000000
# 5 0.000000 0.000000 0.000000 0.000000 0.064788 0.000000
# 6 0.000000 0.000000 0.000000 0.000000 0.000000 0.036520
#
#
# Mechanical properties :
#
#
# Convention : Reuss Voigt Hill
#
# Bulk Modulus (GPa) = 40.73858 42.28961 41.51409
# Shear Modulus (GPa) = 22.30087 25.14378 23.72233
#
# Velocity S-wave (km/s) = 3.35537 3.56283 3.46066
# Velocity P-wave (km/s) = 5.96474 6.18667 6.07672
#
# Compressibility (1/GPa) = 0.02454676
#
# Stress axis : x y z
#
# Youngs Moduli (GPa) = 54.43392 43.36646 94.31788
#
# Poissons Ratio (x) = 0.36438 0.03298
# Poissons Ratio (y) = 0.45737 0.47074
# Poissons Ratio (z) = 0.01903 0.21644
#
# Static dielectric constant tensor:
#      x y z
#    x 3.585330 0.000000 0.000000 
#    y 0.000000 3.411240 0.000000 
#    z 0.000000 0.000000 3.729640 
# 
# 
# High freq. dielectric constant tensor:
#      x y z
#    x 1.768630 0.000000 0.000000 
#    y 0.000000 1.759140 0.000000 
#    z 0.000000 0.000000 1.788220 
# 
# From -- ./inp_files/24756.got.cif
#   From: 2010.03.12/outbox.cif.g09.slc.cpg/sg59_13_cif.got.tgz:24756.got - 2010.04.16 16:29:54.
