data_PCOD8240199
_publ_section_title
;
Structure prediction by ZEFSAII (Michael W. Deem and Ramdas Pophale) SiO2 
 PCOD8240199
Probable space group: P M M N
;
_chemical_formula_sum "Si O2"
_cell_formula_units_Z 48
_cell_length_a 8.885718
_cell_length_b 18.106732
_cell_length_c 15.664519
_cell_angle_alpha 90.000000
_cell_angle_beta 90.000000
_cell_angle_gamma 90.000000
_cell_volume 2520.285052
_symmetry_space_group_name_H-M "P M M N"
_symmetry_group_IT_number 59
_space_group.IT_coordinate_system_code '2'
_symmetry_cell_setting 'orthorhombic'
loop_
_space_group_symop_operation_xyz
x,y,z
1/2-x,1/2-y,z
1/2+x,-y,-z
-x,1/2+y,-z
-x,-y,-z
1/2+x,1/2+y,-z
1/2-x,y,z
x,1/2-y,z
loop_
_atom_site_type_symbol
_atom_site_label
_atom_site_fract_x
_atom_site_fract_y
_atom_site_fract_z
Si Si1 0.428942 0.038349 0.311546
Si Si2 0.928957 0.888599 0.379363
Si Si3 0.071545 0.250000 0.730271
Si Si4 0.077198 0.985414 0.863561
Si Si5 0.577851 0.106222 0.965989
Si Si6 0.572431 0.750000 0.076986
Si Si7 0.571716 0.666946 0.563346
O O1 0.250000 0.032598 0.308921
O O2 0.493029 0.049448 0.216826
O O3 0.483197 0.110879 0.363256
O O4 0.493440 0.965132 0.355073
O O5 0.750000 0.899115 0.374544
O O6 0.986171 0.824167 0.315989
O O7 0.984237 0.865378 0.473239
O O8 0.250000 0.250000 0.727701
O O9 0.009129 0.250000 0.826467
O O10 0.250000 0.001856 0.839929
O O11 0.061419 0.930780 0.942415
O O12 0.998898 0.061772 0.888943
O O13 0.750000 0.118839 0.940709
O O14 0.489436 0.181592 0.975626
O O15 0.750000 0.750000 0.075778
O O16 0.750000 0.671828 0.561812
O O17 0.506180 0.750000 0.578491
#
# Coordination Sequence:
#
# PCOD8240199 Si02
#       7
#     8   8   4   8   8   4   8
#     4  11  22  34  54  85 116 145 187 237 285 339
#     4  10  18  34  59  81 108 147 191 232 280 335
#     4   9  18  31  53  82 107 140 184 229 267 323
#     4  10  21  39  60  81 109 148 192 235 286 346
#     4  10  21  38  60  83 113 148 186 238 290 335
#     4  11  21  33  53  86 121 152 186 221 275 351
#     4   9  18  35  57  80 110 150 192 235 279 330
#
# _framework density 19.045463999999999
#
# number of rings (size 3 to 8) (size 9 to 14) (size 15 to 20)
#    0.000    2.000    0.833    3.250    0.000    3.333 
#    1.500    2.083    0.000    3.500    0.000    0.000 
#    0.000    0.000    0.000    0.000    0.000    0.000 
#
# Total GULP energy -595260.950213 kJ/mol
# GULP energy per Si atom -12401.269796 kJ/mol
# Density = 1.900212 g / cm^3
# Si number density = 19.045464 Si / 1000 Ang^3
#
#
#
# Elastic Constant Matrix: (Units=GPa)
#
#
# Indices 1 2 3 4 5 6 
#
# 1 80.9953 50.1359 36.1150 0.0000 0.0000 0.0000
# 2 50.1359 128.6503 45.4123 0.0000 0.0000 0.0000
# 3 36.1150 45.4123 75.3097 0.0000 0.0000 0.0000
# 4 0.0000 0.0000 0.0000 27.9013 0.0000 0.0000
# 5 0.0000 0.0000 0.0000 0.0000 27.2058 0.0000
# 6 0.0000 0.0000 0.0000 0.0000 0.0000 30.0580
#
#
#
# Elastic Compliance Matrix: (Units=1/GPa)
#
#
# Indices 1 2 3 4 5 6 
#
# 1 0.017942 -0.005024 -0.005574 0.000000 0.000000 0.000000
# 2 -0.005024 0.011282 -0.004394 0.000000 0.000000 0.000000
# 3 -0.005574 -0.004394 0.018601 0.000000 0.000000 0.000000
# 4 0.000000 0.000000 0.000000 0.035841 0.000000 0.000000
# 5 0.000000 0.000000 0.000000 0.000000 0.036757 0.000000
# 6 0.000000 0.000000 0.000000 0.000000 0.000000 0.033269
#
#
# Mechanical properties :
#
#
# Convention : Reuss Voigt Hill
#
# Bulk Modulus (GPa) = 56.05312 60.92021 58.48667
# Shear Modulus (GPa) = 26.36807 27.25251 26.81029
#
# Velocity S-wave (km/s) = 3.72490 3.78685 3.75600
# Velocity P-wave (km/s) = 6.92784 7.15378 7.04171
#
# Compressibility (1/GPa) = 0.01784022
#
# Stress axis : x y z
#
# Youngs Moduli (GPa) = 55.73490 88.63692 53.76015
#
# Poissons Ratio (x) = 0.44535 0.29968
# Poissons Ratio (y) = 0.28004 0.23620
# Poissons Ratio (z) = 0.31069 0.38944
#
# Static dielectric constant tensor:
#      x y z
#    x 3.337270 0.000000 0.000000 
#    y 0.000000 3.613840 0.000000 
#    z 0.000000 0.000000 3.597260 
# 
# 
# High freq. dielectric constant tensor:
#      x y z
#    x 1.722920 0.000000 0.000000 
#    y 0.000000 1.750010 0.000000 
#    z 0.000000 0.000000 1.747080 
# 
# From -- ./inp_files/20520.got.cif
#   From: 2010.03.12/outbox.cif.g09.slc.cpg/sg59_11_cif.got.tgz:20520.got - 2010.04.16 16:29:54.
