data_PCOD8240601
_publ_section_title
;
Structure prediction by ZEFSAII (Michael W. Deem and Ramdas Pophale) SiO2 
 PCOD8240601
Probable space group: P M M N
;
_chemical_formula_sum "Si O2"
_cell_formula_units_Z 48
_cell_length_a 15.504933
_cell_length_b 9.118982
_cell_length_c 19.275476
_cell_angle_alpha 90.000000
_cell_angle_beta 90.000000
_cell_angle_gamma 90.000000
_cell_volume 2725.344226
_symmetry_space_group_name_H-M "P M M N"
_symmetry_group_IT_number 59
_space_group.IT_coordinate_system_code '2'
_symmetry_cell_setting 'orthorhombic'
loop_
_space_group_symop_operation_xyz
x,y,z
1/2-x,1/2-y,z
1/2+x,-y,-z
-x,1/2+y,-z
-x,-y,-z
1/2+x,1/2+y,-z
1/2-x,y,z
x,1/2-y,z
loop_
_atom_site_type_symbol
_atom_site_label
_atom_site_fract_x
_atom_site_fract_y
_atom_site_fract_z
Si Si1 0.655504 0.924395 0.421367
Si Si2 0.915405 0.082635 0.800005
Si Si3 0.750000 0.583589 0.959994
Si Si4 0.424484 0.924491 0.042198
Si Si5 0.848870 0.920445 0.578262
Si Si6 0.505616 0.419708 0.661284
Si Si7 0.250000 0.087919 0.204402
O O1 0.750000 0.985134 0.398981
O O2 0.658272 0.750000 0.418482
O O3 0.634424 0.975008 0.499593
O O4 0.582822 0.988382 0.369301
O O5 0.884570 0.250000 0.802578
O O6 0.942833 0.034587 0.877243
O O7 0.993355 0.058964 0.745131
O O8 0.835431 0.991982 0.769612
O O9 0.750000 0.750000 0.990847
O O10 0.665487 0.494191 0.984368
O O11 0.750000 0.591256 0.878001
O O12 0.423016 0.750000 0.029640
O O13 0.500000 0.000000 0.000000
O O14 0.750000 0.951554 0.599821
O O15 0.870564 0.750000 0.584680
O O16 0.910668 0.007068 0.629068
O O17 0.510078 0.250000 0.641224
O O18 0.250000 0.250000 0.236771
#
# Coordination Sequence:
#
# PCOD8240601 Si02
#       7
#     8   8   4   8   8   8   4
#     4   8  15  30  50  68  89 122 162 202 240 284
#     4   9  19  32  46  69 102 130 157 199 248 290
#     4   9  17  31  51  77 101 125 164 205 242 295
#     4  10  19  33  53  74 102 136 168 205 252 299
#     4   9  18  31  46  68  98 127 156 193 241 290
#     4  10  19  30  48  71  95 124 161 200 241 286
#     4   9  17  29  47  69  95 127 162 191 230 295
#
# _framework density 17.612454
#
# number of rings (size 3 to 8) (size 9 to 14) (size 15 to 20)
#    0.000    2.833    0.000    2.500    1.167    3.667 
#    0.000    0.000    1.833    1.500    0.000    0.000 
#    0.000    0.000    0.000    0.000    0.000    0.000 
#
# Total GULP energy -594956.103178 kJ/mol
# GULP energy per Si atom -12394.918816 kJ/mol
# Density = 1.757237 g / cm^3
# Si number density = 17.612454 Si / 1000 Ang^3
#
#
#
# Elastic Constant Matrix: (Units=GPa)
#
#
# Indices 1 2 3 4 5 6 
#
# 1 128.1358 46.2373 67.0392 0.0000 0.0000 0.0000
# 2 46.2373 64.6743 33.8485 0.0000 0.0000 0.0000
# 3 67.0392 33.8485 82.2805 0.0000 0.0000 0.0000
# 4 0.0000 0.0000 0.0000 18.7258 0.0000 0.0000
# 5 0.0000 0.0000 0.0000 0.0000 27.4798 0.0000
# 6 0.0000 0.0000 0.0000 0.0000 0.0000 27.1606
#
#
#
# Elastic Compliance Matrix: (Units=1/GPa)
#
#
# Indices 1 2 3 4 5 6 
#
# 1 0.015003 -0.005516 -0.009955 0.000000 0.000000 0.000000
# 2 -0.005516 0.021733 -0.004446 0.000000 0.000000 0.000000
# 3 -0.009955 -0.004446 0.022093 0.000000 0.000000 0.000000
# 4 0.000000 0.000000 0.000000 0.053402 0.000000 0.000000
# 5 0.000000 0.000000 0.000000 0.000000 0.036390 0.000000
# 6 0.000000 0.000000 0.000000 0.000000 0.000000 0.036818
#
#
# Mechanical properties :
#
#
# Convention : Reuss Voigt Hill
#
# Bulk Modulus (GPa) = 52.64472 63.26003 57.95238
# Shear Modulus (GPa) = 21.58856 23.20428 22.39642
#
# Velocity S-wave (km/s) = 3.50488 3.63367 3.56985
# Velocity P-wave (km/s) = 6.80694 7.32123 7.06876
#
# Compressibility (1/GPa) = 0.01899526
#
# Stress axis : x y z
#
# Youngs Moduli (GPa) = 66.65458 46.01394 45.26278
#
# Poissons Ratio (x) = 0.25381 0.45057
# Poissons Ratio (y) = 0.36766 0.20124
# Poissons Ratio (z) = 0.66352 0.20458
#
# Static dielectric constant tensor:
#      x y z
#    x 3.487140 0.000000 0.000000 
#    y 0.000000 3.200970 0.000000 
#    z 0.000000 0.000000 3.240470 
# 
# 
# High freq. dielectric constant tensor:
#      x y z
#    x 1.676570 0.000000 0.000000 
#    y 0.000000 1.667430 0.000000 
#    z 0.000000 0.000000 1.667310 
# 
# From -- ./inp_files/27461.got.cif
#   From: 2010.03.12/outbox.cif.g09.slc.cpg/sg59_14_cif.got.tgz:27461.got - 2010.04.16 16:29:54.
