data_PCOD8240372
_publ_section_title
;
Structure prediction by ZEFSAII (Michael W. Deem and Ramdas Pophale) SiO2 
 PCOD8240372
Probable space group: P M M N
;
_chemical_formula_sum "Si O2"
_cell_formula_units_Z 56
_cell_length_a 20.347571
_cell_length_b 9.058963
_cell_length_c 16.217165
_cell_angle_alpha 90.000000
_cell_angle_beta 90.000000
_cell_angle_gamma 90.000000
_cell_volume 2989.275852
_symmetry_space_group_name_H-M "P M M N"
_symmetry_group_IT_number 59
_space_group.IT_coordinate_system_code '2'
_symmetry_cell_setting 'orthorhombic'
loop_
_space_group_symop_operation_xyz
x,y,z
1/2-x,1/2-y,z
1/2+x,-y,-z
-x,1/2+y,-z
-x,-y,-z
1/2+x,1/2+y,-z
1/2-x,y,z
x,1/2-y,z
loop_
_atom_site_type_symbol
_atom_site_label
_atom_site_fract_x
_atom_site_fract_y
_atom_site_fract_z
Si Si1 0.938771 0.083692 0.393997
Si Si2 0.970629 0.914627 0.241384
Si Si3 0.089472 0.085329 0.449364
Si Si4 0.885266 0.410119 0.700430
Si Si5 0.824287 0.922609 0.030142
Si Si6 0.956309 0.072433 0.072925
Si Si7 0.824673 0.911087 0.840222
O O1 0.912460 0.250000 0.384254
O O2 0.014469 0.085207 0.420397
O O3 0.924447 0.000593 0.307002
O O4 0.898482 0.003661 0.466447
O O5 0.942609 0.750000 0.219574
O O6 0.037218 0.894103 0.291421
O O7 0.983424 0.012714 0.159902
O O8 0.115180 0.250000 0.464226
O O9 0.133310 0.013851 0.376544
O O10 0.853602 0.250000 0.684057
O O11 0.860422 0.468137 0.787129
O O12 0.750000 0.962612 0.060975
O O13 0.838181 0.750000 0.047013
O O14 0.879751 0.022871 0.072658
O O15 0.830013 0.959791 0.934263
O O16 0.962043 0.250000 0.067803
O O17 0.000000 0.000000 0.000000
O O18 0.750000 0.901725 0.811659
O O19 0.857960 0.750000 0.827863
#
# Coordination Sequence:
#
# PCOD8240372 Si02
#       7
#     8   8   8   8   8   8   8
#     4   9  16  27  43  65  93 123 157 195 235 283
#     4  10  20  33  48  69  98 130 164 202 248 300
#     4   9  16  26  42  63  90 125 158 190 231 282
#     4  10  19  29  44  68  96 126 160 199 242 288
#     4   9  19  37  58  77 100 133 172 213 258 309
#     4  12  24  36  52  76 106 138 173 215 263 311
#     4   9  18  32  49  68  91 122 159 197 239 291
#
# _framework density 18.733633999999999
#
# number of rings (size 3 to 8) (size 9 to 14) (size 15 to 20)
#    0.000    2.286    0.000    4.714    0.000    8.571 
#    0.000    1.429    0.000    0.000    0.000    1.000 
#    0.000    8.000    0.000    0.000    0.000    0.000 
#
# Total GULP energy -694054.425247 kJ/mol
# GULP energy per Si atom -12393.829022 kJ/mol
# Density = 1.869100 g / cm^3
# Si number density = 18.733634 Si / 1000 Ang^3
#
#
#
# Elastic Constant Matrix: (Units=GPa)
#
#
# Indices 1 2 3 4 5 6 
#
# 1 30.4780 16.6283 6.6898 0.0000 0.0000 0.0000
# 2 16.6283 154.0236 51.8412 0.0000 0.0000 0.0000
# 3 6.6898 51.8412 93.1148 0.0000 0.0000 0.0000
# 4 0.0000 0.0000 0.0000 36.7653 0.0000 0.0000
# 5 0.0000 0.0000 0.0000 0.0000 13.9465 0.0000
# 6 0.0000 0.0000 0.0000 0.0000 0.0000 17.1976
#
#
#
# Elastic Compliance Matrix: (Units=1/GPa)
#
#
# Indices 1 2 3 4 5 6 
#
# 1 0.034883 -0.003596 -0.000504 0.000000 0.000000 0.000000
# 2 -0.003596 0.008360 -0.004396 0.000000 0.000000 0.000000
# 3 -0.000504 -0.004396 0.013223 0.000000 0.000000 0.000000
# 4 0.000000 0.000000 0.000000 0.027200 0.000000 0.000000
# 5 0.000000 0.000000 0.000000 0.000000 0.071703 0.000000
# 6 0.000000 0.000000 0.000000 0.000000 0.000000 0.058147
#
#
# Mechanical properties :
#
#
# Convention : Reuss Voigt Hill
#
# Bulk Modulus (GPa) = 25.33321 47.54832 36.44076
# Shear Modulus (GPa) = 20.51975 27.07904 23.79939
#
# Velocity S-wave (km/s) = 3.31319 3.80607 3.56815
# Velocity P-wave (km/s) = 5.30928 6.68964 6.03903
#
# Compressibility (1/GPa) = 0.03947388
#
# Stress axis : x y z
#
# Youngs Moduli (GPa) = 28.66704 119.61055 75.62448
#
# Poissons Ratio (x) = 0.43016 0.03811
# Poissons Ratio (y) = 0.10310 0.33247
# Poissons Ratio (z) = 0.01445 0.52584
#
# Static dielectric constant tensor:
#      x y z
#    x 3.101480 0.000000 0.000000 
#    y 0.000000 3.733770 0.000000 
#    z 0.000000 0.000000 3.424700 
# 
# 
# High freq. dielectric constant tensor:
#      x y z
#    x 1.669050 0.000000 0.000000 
#    y 0.000000 1.742420 0.000000 
#    z 0.000000 0.000000 1.727570 
# 
# From -- ./inp_files/24252.got.cif
#   From: 2010.03.12/outbox.cif.g09.slc.cpg/sg59_13_cif.got.tgz:24252.got - 2010.04.16 16:29:54.
