data_PCOD8240900
_publ_section_title
;
Structure prediction by ZEFSAII (Michael W. Deem and Ramdas Pophale) SiO2 
 PCOD8240900
Probable space group: P M M N
;
_chemical_formula_sum "Si O2"
_cell_formula_units_Z 64
_cell_length_a 32.568541
_cell_length_b 9.304700
_cell_length_c 11.298315
_cell_angle_alpha 90.000000
_cell_angle_beta 90.000000
_cell_angle_gamma 90.000000
_cell_volume 3423.847066
_symmetry_space_group_name_H-M "P M M N"
_symmetry_group_IT_number 59
_space_group.IT_coordinate_system_code '2'
_symmetry_cell_setting 'orthorhombic'
loop_
_space_group_symop_operation_xyz
x,y,z
1/2-x,1/2-y,z
1/2+x,-y,-z
-x,1/2+y,-z
-x,-y,-z
1/2+x,1/2+y,-z
1/2-x,y,z
x,1/2-y,z
loop_
_atom_site_type_symbol
_atom_site_label
_atom_site_fract_x
_atom_site_fract_y
_atom_site_fract_z
Si Si1 0.873543 0.417851 0.456697
Si Si2 0.295026 0.587439 0.402281
Si Si3 0.297106 0.584384 0.972668
Si Si4 0.828588 0.919270 0.803612
Si Si5 0.129250 0.916310 0.811449
Si Si6 0.090527 0.083073 0.335697
Si Si7 0.481629 0.084815 0.166776
Si Si8 0.943853 0.917002 0.086338
O O1 0.882876 0.250000 0.465332
O O2 0.827625 0.456937 0.498418
O O3 0.876578 0.472456 0.322412
O O4 0.906082 0.497610 0.541085
O O5 0.250000 0.574526 0.460224
O O6 0.303506 0.750000 0.357665
O O7 0.296420 0.481672 0.290541
O O8 0.250000 0.534548 0.950674
O O9 0.298075 0.750000 0.013544
O O10 0.319588 0.489535 0.070757
O O11 0.323443 0.563074 0.852403
O O12 0.822590 0.750000 0.815881
O O13 0.874195 0.960758 0.758296
O O14 0.116465 0.750000 0.821795
O O15 0.099911 0.009360 0.894879
O O16 0.094526 0.250000 0.366019
O O17 0.046628 0.045682 0.278747
O O18 0.495871 0.250000 0.170748
O O19 0.521933 0.986287 0.172410
O O20 0.455559 0.054532 0.049094
O O21 0.940440 0.750000 0.116630
#
# Coordination Sequence:
#
# PCOD8240900 Si02
#       8
#     8   8   8   8   8   8   8   8
#     4   9  19  34  51  72  97 129 172 215 252 295
#     4   9  17  30  49  72  98 129 167 212 257 299
#     4  10  21  35  51  73 101 134 172 211 251 299
#     4  10  19  31  49  75 106 135 164 203 254 306
#     4  10  21  37  54  72 100 137 172 209 254 299
#     4   9  18  33  53  76 103 135 167 204 251 298
#     4   9  18  34  55  80 108 133 162 202 248 299
#     4  10  20  34  55  82 108 134 165 202 246 299
#
# _framework density 18.692423999999999
#
# number of rings (size 3 to 8) (size 9 to 14) (size 15 to 20)
#    0.000    2.500    0.000    1.875    0.000    6.000 
#    0.000    3.125    0.000    0.000    0.000    3.500 
#    0.000    0.000    0.000    0.000    0.000    0.000 
#
# Total GULP energy -793613.438453 kJ/mol
# GULP energy per Si atom -12400.209976 kJ/mol
# Density = 1.864988 g / cm^3
# Si number density = 18.692424 Si / 1000 Ang^3
#
#
#
# Elastic Constant Matrix: (Units=GPa)
#
#
# Indices 1 2 3 4 5 6 
#
# 1 77.9127 31.6248 26.8673 0.0000 0.0000 0.0000
# 2 31.6248 65.4483 36.3684 0.0000 0.0000 0.0000
# 3 26.8673 36.3684 81.1109 0.0000 0.0000 0.0000
# 4 0.0000 0.0000 0.0000 24.9637 0.0000 0.0000
# 5 0.0000 0.0000 0.0000 0.0000 18.7050 0.0000
# 6 0.0000 0.0000 0.0000 0.0000 0.0000 27.5786
#
#
#
# Elastic Compliance Matrix: (Units=1/GPa)
#
#
# Indices 1 2 3 4 5 6 
#
# 1 0.016336 -0.006508 -0.002493 0.000000 0.000000 0.000000
# 2 -0.006508 0.022942 -0.008131 0.000000 0.000000 0.000000
# 3 -0.002493 -0.008131 0.016800 0.000000 0.000000 0.000000
# 4 0.000000 0.000000 0.000000 0.040058 0.000000 0.000000
# 5 0.000000 0.000000 0.000000 0.000000 0.053462 0.000000
# 6 0.000000 0.000000 0.000000 0.000000 0.000000 0.036260
#
#
# Mechanical properties :
#
#
# Convention : Reuss Voigt Hill
#
# Bulk Modulus (GPa) = 45.84186 46.02146 45.93166
# Shear Modulus (GPa) = 21.98814 22.89022 22.43918
#
# Velocity S-wave (km/s) = 3.43346 3.50318 3.46850
# Velocity P-wave (km/s) = 6.34789 6.40601 6.37702
#
# Compressibility (1/GPa) = 0.02181412
#
# Stress axis : x y z
#
# Youngs Moduli (GPa) = 61.21320 43.58744 59.52248
#
# Poissons Ratio (x) = 0.28369 0.14839
# Poissons Ratio (y) = 0.39840 0.48398
# Poissons Ratio (z) = 0.15261 0.35441
#
# Static dielectric constant tensor:
#      x y z
#    x 3.464340 0.000000 0.000000 
#    y 0.000000 3.403910 0.000000 
#    z 0.000000 0.000000 3.321270 
# 
# 
# High freq. dielectric constant tensor:
#      x y z
#    x 1.726630 0.000000 0.000000 
#    y 0.000000 1.721530 0.000000 
#    z 0.000000 0.000000 1.710680 
# 
# From -- ./inp_files/19330.got.cif
#   From: 2010.03.12/outbox.cif.g09.slc.cpg/sg59_10_cif.got.tgz:19330.got - 2010.04.16 16:29:54.
