data_PCOD8240409
_publ_section_title
;
Structure prediction by ZEFSAII (Michael W. Deem and Ramdas Pophale) SiO2 
 PCOD8240409
Probable space group: P M M N
;
_chemical_formula_sum "Si O2"
_cell_formula_units_Z 56
_cell_length_a 18.099145
_cell_length_b 9.302169
_cell_length_c 18.860461
_cell_angle_alpha 90.000000
_cell_angle_beta 90.000000
_cell_angle_gamma 90.000000
_cell_volume 3175.371837
_symmetry_space_group_name_H-M "P M M N"
_symmetry_group_IT_number 59
_space_group.IT_coordinate_system_code '2'
_symmetry_cell_setting 'orthorhombic'
loop_
_space_group_symop_operation_xyz
x,y,z
1/2-x,1/2-y,z
1/2+x,-y,-z
-x,1/2+y,-z
-x,-y,-z
1/2+x,1/2+y,-z
1/2-x,y,z
x,1/2-y,z
loop_
_atom_site_type_symbol
_atom_site_label
_atom_site_fract_x
_atom_site_fract_y
_atom_site_fract_z
Si Si1 0.611432 0.411217 0.268882
Si Si2 0.480183 0.078947 0.928199
Si Si3 0.063184 0.915004 0.582697
Si Si4 0.913956 0.416629 0.574546
Si Si5 0.665691 0.915894 0.691373
Si Si6 0.168619 0.416410 0.855183
Si Si7 0.956218 0.914436 0.801679
O O1 0.637792 0.250000 0.252883
O O2 0.619470 0.447922 0.352506
O O3 0.662928 0.511932 0.221898
O O4 0.525508 0.431432 0.250136
O O5 0.488908 0.250000 0.936302
O O6 0.395933 0.032108 0.908403
O O7 0.535925 0.021065 0.868296
O O8 0.500000 0.000000 0.000000
O O9 0.034751 0.750000 0.588004
O O10 0.105628 0.940366 0.508540
O O11 0.994026 0.019469 0.590498
O O12 0.915415 0.250000 0.594998
O O13 0.851815 0.493519 0.621136
O O14 0.750000 0.943450 0.713433
O O15 0.650189 0.750000 0.673294
O O16 0.615767 0.963923 0.757998
O O17 0.250000 0.450720 0.887610
O O18 0.158178 0.250000 0.840641
O O19 0.948571 0.750000 0.829026
#
# Coordination Sequence:
#
# PCOD8240409 Si02
#       7
#     8   8   8   8   8   8   8
#     4   9  16  29  51  74  98 129 167 211 252 297
#     4  10  20  35  57  82 106 134 167 204 247 296
#     4   9  17  31  48  70  99 132 170 215 263 313
#     4  10  19  29  47  72  99 131 172 222 269 308
#     4  10  20  35  53  71  99 141 181 218 264 316
#     4   9  19  35  53  76 106 135 164 203 250 300
#     4   9  17  32  53  75  99 129 168 211 250 297
#
# _framework density 17.635728
#
# number of rings (size 3 to 8) (size 9 to 14) (size 15 to 20)
#    0.000    2.571    1.429    0.857    0.000    2.857 
#    0.000    1.429    0.000    8.571    0.000    0.000 
#    0.000    0.000    0.000    0.000    0.000    0.000 
#
# Total GULP energy -694290.947477 kJ/mol
# GULP energy per Si atom -12398.052634 kJ/mol
# Density = 1.759559 g / cm^3
# Si number density = 17.635728 Si / 1000 Ang^3
#
#
#
# Elastic Constant Matrix: (Units=GPa)
#
#
# Indices 1 2 3 4 5 6 
#
# 1 90.8926 39.5313 51.9175 0.0000 0.0000 0.0000
# 2 39.5313 72.1371 57.0100 0.0000 0.0000 0.0000
# 3 51.9175 57.0100 129.2760 0.0000 0.0000 0.0000
# 4 0.0000 0.0000 0.0000 33.0837 0.0000 0.0000
# 5 0.0000 0.0000 0.0000 0.0000 20.0140 0.0000
# 6 0.0000 0.0000 0.0000 0.0000 0.0000 22.4239
#
#
#
# Elastic Compliance Matrix: (Units=1/GPa)
#
#
# Indices 1 2 3 4 5 6 
#
# 1 0.015588 -0.005518 -0.003827 0.000000 0.000000 0.000000
# 2 -0.005518 0.023232 -0.008029 0.000000 0.000000 0.000000
# 3 -0.003827 -0.008029 0.012813 0.000000 0.000000 0.000000
# 4 0.000000 0.000000 0.000000 0.030226 0.000000 0.000000
# 5 0.000000 0.000000 0.000000 0.000000 0.049965 0.000000
# 6 0.000000 0.000000 0.000000 0.000000 0.000000 0.044595
#
#
# Mechanical properties :
#
#
# Convention : Reuss Voigt Hill
#
# Bulk Modulus (GPa) = 59.22384 65.46925 62.34655
# Shear Modulus (GPa) = 23.06334 24.69412 23.87873
#
# Velocity S-wave (km/s) = 3.62022 3.74603 3.68366
# Velocity P-wave (km/s) = 7.15048 7.47756 7.31585
#
# Compressibility (1/GPa) = 0.01688509
#
# Stress axis : x y z
#
# Youngs Moduli (GPa) = 64.15354 43.04478 78.04588
#
# Poissons Ratio (x) = 0.23751 0.29866
# Poissons Ratio (y) = 0.35399 0.62664
# Poissons Ratio (z) = 0.24550 0.34561
#
# Static dielectric constant tensor:
#      x y z
#    x 3.176680 0.000000 0.000000 
#    y 0.000000 3.324920 0.000000 
#    z 0.000000 0.000000 3.355880 
# 
# 
# High freq. dielectric constant tensor:
#      x y z
#    x 1.658410 0.000000 0.000000 
#    y 0.000000 1.684150 0.000000 
#    z 0.000000 0.000000 1.679240 
# 
# From -- ./inp_files/30599.got.cif
#   From: 2010.03.12/outbox.cif.g09.slc.cpg/sg59_16_cif.got.tgz:30599.got - 2010.04.16 16:29:54.
