data_PCOD8240128
_publ_section_title
;
Structure prediction by ZEFSAII (Michael W. Deem and Ramdas Pophale) SiO2 
 PCOD8240128
Probable space group: P M M N
;
_chemical_formula_sum "Si O2"
_cell_formula_units_Z 56
_cell_length_a 20.095101
_cell_length_b 8.925683
_cell_length_c 15.820392
_cell_angle_alpha 90.000000
_cell_angle_beta 90.000000
_cell_angle_gamma 90.000000
_cell_volume 2837.585082
_symmetry_space_group_name_H-M "P M M N"
_symmetry_group_IT_number 59
_space_group.IT_coordinate_system_code '2'
_symmetry_cell_setting 'orthorhombic'
loop_
_space_group_symop_operation_xyz
x,y,z
1/2-x,1/2-y,z
1/2+x,-y,-z
-x,1/2+y,-z
-x,-y,-z
1/2+x,1/2+y,-z
1/2-x,y,z
x,1/2-y,z
loop_
_atom_site_type_symbol
_atom_site_label
_atom_site_fract_x
_atom_site_fract_y
_atom_site_fract_z
Si Si1 0.174595 0.577066 0.986809
Si Si2 0.005760 0.082813 0.240885
Si Si3 0.147797 0.916902 0.798178
Si Si4 0.323962 0.089262 0.638013
Si Si5 0.172146 0.575601 0.477240
Si Si6 0.543015 0.571117 0.576181
Si Si7 0.947497 0.928249 0.935291
O O1 0.250000 0.554417 0.018439
O O2 0.152098 0.750000 0.995459
O O3 0.127545 0.471694 0.041839
O O4 0.168163 0.525117 0.890053
O O5 0.033702 0.250000 0.250932
O O6 0.930109 0.080861 0.213760
O O7 0.015085 0.007981 0.333395
O O8 0.043062 0.007833 0.160563
O O9 0.176541 0.750000 0.783709
O O10 0.179717 0.029908 0.732549
O O11 0.250000 0.121700 0.607220
O O12 0.362935 0.250000 0.633054
O O13 0.351537 0.965002 0.573131
O O14 0.250000 0.537334 0.457213
O O15 0.158913 0.750000 0.463209
O O16 0.120772 0.479587 0.421144
O O17 0.500000 0.500000 0.500000
O O18 0.537895 0.750000 0.567932
O O19 0.958090 0.750000 0.937829
O O20 0.000000 0.000000 0.000000
#
# Coordination Sequence:
#
# PCOD8240128 Si02
#       7
#     8   8   8   8   8   8   8
#     4  10  21  37  58  86 120 157 196 243 301 357
#     4   9  20  37  58  83 112 149 194 238 291 355
#     4  10  18  33  55  78 110 151 191 232 289 360
#     4  10  20  32  48  76 112 146 187 239 292 351
#     4  10  21  38  58  79 109 154 202 247 301 360
#     4  11  22  38  61  90 122 155 195 250 303 355
#     4  11  21  39  63  86 115 154 200 245 291 347
#
# _framework density 19.73509
#
# number of rings (size 3 to 8) (size 9 to 14) (size 15 to 20)
#    0.000    1.857    1.429    3.000    0.000    4.286 
#    0.000    4.286    0.000    4.286    0.000    0.000 
#    0.000    0.000    0.000    0.000    0.000    0.000 
#
# Total GULP energy -693904.543190 kJ/mol
# GULP energy per Si atom -12391.152557 kJ/mol
# Density = 1.969017 g / cm^3
# Si number density = 19.735090 Si / 1000 Ang^3
#
#
#
# Elastic Constant Matrix: (Units=GPa)
#
#
# Indices 1 2 3 4 5 6 
#
# 1 93.1060 30.3455 38.2082 0.0000 0.0000 0.0000
# 2 30.3455 75.6710 34.2310 0.0000 0.0000 0.0000
# 3 38.2082 34.2310 111.7554 0.0000 0.0000 0.0000
# 4 0.0000 0.0000 0.0000 26.5892 0.0000 0.0000
# 5 0.0000 0.0000 0.0000 0.0000 32.6118 0.0000
# 6 0.0000 0.0000 0.0000 0.0000 0.0000 37.2330
#
#
#
# Elastic Compliance Matrix: (Units=1/GPa)
#
#
# Indices 1 2 3 4 5 6 
#
# 1 0.013385 -0.003828 -0.003404 0.000000 0.000000 0.000000
# 2 -0.003828 0.016435 -0.003726 0.000000 0.000000 0.000000
# 3 -0.003404 -0.003726 0.011253 0.000000 0.000000 0.000000
# 4 0.000000 0.000000 0.000000 0.037609 0.000000 0.000000
# 5 0.000000 0.000000 0.000000 0.000000 0.030664 0.000000
# 6 0.000000 0.000000 0.000000 0.000000 0.000000 0.026858
#
#
# Mechanical properties :
#
#
# Convention : Reuss Voigt Hill
#
# Bulk Modulus (GPa) = 52.19449 54.01131 53.10290
# Shear Modulus (GPa) = 30.39432 31.13667 30.76549
#
# Velocity S-wave (km/s) = 3.92869 3.97638 3.95260
# Velocity P-wave (km/s) = 6.86181 6.96489 6.91354
#
# Compressibility (1/GPa) = 0.01915911
#
# Stress axis : x y z
#
# Youngs Moduli (GPa) = 74.71160 60.84416 88.86579
#
# Poissons Ratio (x) = 0.23290 0.30247
# Poissons Ratio (y) = 0.28599 0.33107
# Poissons Ratio (z) = 0.25429 0.22668
#
# Static dielectric constant tensor:
#      x y z
#    x 3.604120 0.000000 0.000000 
#    y 0.000000 3.566760 0.000000 
#    z 0.000000 0.000000 3.754960 
# 
# 
# High freq. dielectric constant tensor:
#      x y z
#    x 1.770140 0.000000 0.000000 
#    y 0.000000 1.757980 0.000000 
#    z 0.000000 0.000000 1.762180 
# 
# From -- ./inp_files/24242.got.cif
#   From: 2010.03.12/outbox.cif.g09.slc.cpg/sg59_13_cif.got.tgz:24242.got - 2010.04.16 16:29:54.
