data_PCOD8240690
_publ_section_title
;
Structure prediction by ZEFSAII (Michael W. Deem and Ramdas Pophale) SiO2 
 PCOD8240690
Probable space group: P M M N
;
_chemical_formula_sum "Si O2"
_cell_formula_units_Z 64
_cell_length_a 9.045295
_cell_length_b 24.044648
_cell_length_c 16.851262
_cell_angle_alpha 90.000000
_cell_angle_beta 90.000000
_cell_angle_gamma 90.000000
_cell_volume 3664.996717
_symmetry_space_group_name_H-M "P M M N"
_symmetry_group_IT_number 59
_space_group.IT_coordinate_system_code '2'
_symmetry_cell_setting 'orthorhombic'
loop_
_space_group_symop_operation_xyz
x,y,z
1/2-x,1/2-y,z
1/2+x,-y,-z
-x,1/2+y,-z
-x,-y,-z
1/2+x,1/2+y,-z
1/2-x,y,z
x,1/2-y,z
loop_
_atom_site_type_symbol
_atom_site_label
_atom_site_fract_x
_atom_site_fract_y
_atom_site_fract_z
Si Si1 0.574956 0.813618 0.250400
Si Si2 0.921824 0.689903 0.633703
Si Si3 0.074668 0.119524 0.220547
Si Si4 0.077961 0.410474 0.638455
Si Si5 0.915356 0.184132 0.908816
Si Si6 0.922945 0.913456 0.537431
Si Si7 0.576188 0.813983 0.933918
Si Si8 0.422470 0.969235 0.684029
O O1 0.750000 0.818333 0.240307
O O2 0.528413 0.750000 0.270974
O O3 0.514188 0.855186 0.318690
O O4 0.503942 0.835068 0.168649
O O5 0.750000 0.698538 0.649205
O O6 0.997982 0.750000 0.619796
O O7 0.987121 0.661393 0.712526
O O8 0.949223 0.651429 0.557652
O O9 0.250000 0.111378 0.225578
O O10 0.025572 0.145015 0.136611
O O11 0.999479 0.060068 0.240028
O O12 0.250000 0.400113 0.624050
O O13 0.009593 0.420616 0.550794
O O14 0.049573 0.464627 0.692803
O O15 0.750000 0.159376 0.905969
O O16 0.912000 0.250000 0.911603
O O17 0.996404 0.162586 0.987860
O O18 0.750000 0.929527 0.544027
O O19 0.011032 0.951289 0.599302
O O20 0.750000 0.817580 0.948246
O O21 0.531542 0.750000 0.914132
O O22 0.250000 0.954756 0.684122
#
# Coordination Sequence:
#
# PCOD8240690 Si02
#       8
#     8   8   8   8   8   8   8   8
#     4   9  17  31  51  72  93 117 148 187 230 274
#     4   8  13  22  39  63  89 116 144 178 222 265
#     4   9  17  29  45  66  92 120 153 190 222 260
#     4   9  18  31  48  70  91 114 149 193 234 269
#     4   9  17  29  45  68  99 128 150 177 219 271
#     4   9  17  30  47  66  89 117 153 194 229 266
#     4   9  16  27  47  73  96 120 152 188 225 265
#     4  10  19  31  46  64  91 123 153 187 228 271
#
# _framework density 17.462498
#
# number of rings (size 3 to 8) (size 9 to 14) (size 15 to 20)
#    0.000    3.000    0.000    2.250    0.000    4.000 
#    0.000    5.000    0.000    9.750    0.000    0.000 
#    0.000    0.000    0.000    0.000    0.000    0.000 
#
# Total GULP energy -793200.322891 kJ/mol
# GULP energy per Si atom -12393.755045 kJ/mol
# Density = 1.742275 g / cm^3
# Si number density = 17.462498 Si / 1000 Ang^3
#
#
#
# Elastic Constant Matrix: (Units=GPa)
#
#
# Indices 1 2 3 4 5 6 
#
# 1 45.0681 25.8586 31.5920 0.0000 0.0000 0.0000
# 2 25.8586 87.8051 41.4640 0.0000 0.0000 0.0000
# 3 31.5920 41.4640 104.3604 0.0000 0.0000 0.0000
# 4 0.0000 0.0000 0.0000 22.0692 0.0000 0.0000
# 5 0.0000 0.0000 0.0000 0.0000 18.7326 0.0000
# 6 0.0000 0.0000 0.0000 0.0000 0.0000 17.8524
#
#
#
# Elastic Compliance Matrix: (Units=1/GPa)
#
#
# Indices 1 2 3 4 5 6 
#
# 1 0.030283 -0.005649 -0.006923 0.000000 0.000000 0.000000
# 2 -0.005649 0.015073 -0.004279 0.000000 0.000000 0.000000
# 3 -0.006923 -0.004279 0.013378 0.000000 0.000000 0.000000
# 4 0.000000 0.000000 0.000000 0.045312 0.000000 0.000000
# 5 0.000000 0.000000 0.000000 0.000000 0.053383 0.000000
# 6 0.000000 0.000000 0.000000 0.000000 0.000000 0.056015
#
#
# Mechanical properties :
#
#
# Convention : Reuss Voigt Hill
#
# Bulk Modulus (GPa) = 39.94805 48.34029 44.14417
# Shear Modulus (GPa) = 19.57036 20.95210 20.26123
#
# Velocity S-wave (km/s) = 3.35133 3.46762 3.40997
# Velocity P-wave (km/s) = 6.15641 6.61626 6.39047
#
# Compressibility (1/GPa) = 0.02503251
#
# Stress axis : x y z
#
# Youngs Moduli (GPa) = 33.02229 66.34369 74.75088
#
# Poissons Ratio (x) = 0.37479 0.51747
# Poissons Ratio (y) = 0.18655 0.31983
# Poissons Ratio (z) = 0.22860 0.28386
#
# Static dielectric constant tensor:
#      x y z
#    x 3.048830 0.000000 0.000000 
#    y 0.000000 3.290140 0.000000 
#    z 0.000000 0.000000 3.321110 
# 
# 
# High freq. dielectric constant tensor:
#      x y z
#    x 1.647570 0.000000 0.000000 
#    y 0.000000 1.660430 0.000000 
#    z 0.000000 0.000000 1.669920 
# 
# From -- ./inp_files/26615.got.cif
#   From: 2010.03.12/outbox.cif.g09.slc.cpg/sg59_14_cif.got.tgz:26615.got - 2010.04.16 16:29:54.
