data_PCOD8240644
_publ_section_title
;
Structure prediction by ZEFSAII (Michael W. Deem and Ramdas Pophale) SiO2 
 PCOD8240644
Probable space group: P M M N
;
_chemical_formula_sum "Si O2"
_cell_formula_units_Z 64
_cell_length_a 8.999146
_cell_length_b 23.492126
_cell_length_c 16.612612
_cell_angle_alpha 90.000000
_cell_angle_beta 90.000000
_cell_angle_gamma 90.000000
_cell_volume 3512.056882
_symmetry_space_group_name_H-M "P M M N"
_symmetry_group_IT_number 59
_space_group.IT_coordinate_system_code '2'
_symmetry_cell_setting 'orthorhombic'
loop_
_space_group_symop_operation_xyz
x,y,z
1/2-x,1/2-y,z
1/2+x,-y,-z
-x,1/2+y,-z
-x,-y,-z
1/2+x,1/2+y,-z
1/2-x,y,z
x,1/2-y,z
loop_
_atom_site_type_symbol
_atom_site_label
_atom_site_fract_x
_atom_site_fract_y
_atom_site_fract_z
Si Si1 0.920596 0.520128 0.818445
Si Si2 0.581448 0.315174 0.130944
Si Si3 0.579245 0.903392 0.966298
Si Si4 0.076664 0.131749 0.277367
Si Si5 0.082910 0.182506 0.589697
Si Si6 0.574797 0.315911 0.428037
Si Si7 0.424860 0.684113 0.248824
Si Si8 0.421928 0.409518 0.848876
O O1 0.750000 0.500827 0.816247
O O2 0.962019 0.545247 0.906195
O O3 0.953511 0.566785 0.749604
O O4 0.020372 0.464855 0.800871
O O5 0.750000 0.333227 0.151678
O O6 0.571784 0.250000 0.105866
O O7 0.523514 0.349624 0.053918
O O8 0.479921 0.325925 0.208480
O O9 0.750000 0.885386 0.952294
O O10 0.548480 0.921688 0.057272
O O11 0.250000 0.143323 0.291467
O O12 0.988254 0.143990 0.358557
O O13 0.250000 0.157633 0.589266
O O14 0.085496 0.250000 0.590233
O O15 0.996125 0.161424 0.510843
O O16 0.997552 0.160892 0.668792
O O17 0.750000 0.323495 0.433834
O O18 0.532377 0.250000 0.411161
O O19 0.250000 0.675434 0.255469
O O20 0.465671 0.750000 0.232686
O O21 0.489693 0.647075 0.175962
O O22 0.250000 0.399895 0.829250
#
# Coordination Sequence:
#
# PCOD8240644 Si02
#       8
#     8   8   8   8   8   8   8   8
#     4   9  19  36  54  73 100 133 171 214 257 301
#     4  10  20  32  47  70 101 136 172 210 255 306
#     4   9  20  36  52  73 100 132 171 214 258 303
#     4  10  20  33  50  73 102 137 175 213 253 298
#     4   9  17  31  52  77 105 136 170 209 252 298
#     4  10  19  30  48  77 110 141 174 210 249 298
#     4  10  21  37  56  78 106 138 169 205 253 305
#     4  11  22  35  55  80 102 129 168 212 257 306
#
# _framework density 18.222939
#
# number of rings (size 3 to 8) (size 9 to 14) (size 15 to 20)
#    0.000    2.250    0.000    3.750    0.000    9.500 
#    0.000    2.500    0.000    0.750    0.000    0.000 
#    0.000    0.000    0.000    0.000    0.000    0.000 
#
# Total GULP energy -793744.210716 kJ/mol
# GULP energy per Si atom -12402.253292 kJ/mol
# Density = 1.818146 g / cm^3
# Si number density = 18.222939 Si / 1000 Ang^3
#
#
#
# Elastic Constant Matrix: (Units=GPa)
#
#
# Indices 1 2 3 4 5 6 
#
# 1 103.2993 48.7371 38.1275 0.0000 0.0000 0.0000
# 2 48.7371 81.7360 32.7028 0.0000 0.0000 0.0000
# 3 38.1275 32.7028 77.6671 0.0000 0.0000 0.0000
# 4 0.0000 0.0000 0.0000 18.1109 0.0000 0.0000
# 5 0.0000 0.0000 0.0000 0.0000 32.5292 0.0000
# 6 0.0000 0.0000 0.0000 0.0000 0.0000 30.3618
#
#
#
# Elastic Compliance Matrix: (Units=1/GPa)
#
#
# Indices 1 2 3 4 5 6 
#
# 1 0.014521 -0.006983 -0.004188 0.000000 0.000000 0.000000
# 2 -0.006983 0.018071 -0.004181 0.000000 0.000000 0.000000
# 3 -0.004188 -0.004181 0.016692 0.000000 0.000000 0.000000
# 4 0.000000 0.000000 0.000000 0.055215 0.000000 0.000000
# 5 0.000000 0.000000 0.000000 0.000000 0.030742 0.000000
# 6 0.000000 0.000000 0.000000 0.000000 0.000000 0.032936
#
#
# Mechanical properties :
#
#
# Convention : Reuss Voigt Hill
#
# Bulk Modulus (GPa) = 53.82225 55.75968 54.79096
# Shear Modulus (GPa) = 24.38135 25.74271 25.06203
#
# Velocity S-wave (km/s) = 3.66177 3.76261 3.71253
# Velocity P-wave (km/s) = 6.89040 7.03856 6.96487
#
# Compressibility (1/GPa) = 0.01857968
#
# Stress axis : x y z
#
# Youngs Moduli (GPa) = 68.86584 55.33721 59.90858
#
# Poissons Ratio (x) = 0.38640 0.25092
# Poissons Ratio (y) = 0.48087 0.25049
# Poissons Ratio (z) = 0.28843 0.23137
#
# Static dielectric constant tensor:
#      x y z
#    x 3.507470 0.000000 0.000000 
#    y 0.000000 3.105460 0.000000 
#    z 0.000000 0.000000 3.346370 
# 
# 
# High freq. dielectric constant tensor:
#      x y z
#    x 1.721390 0.000000 0.000000 
#    y 0.000000 1.682320 0.000000 
#    z 0.000000 0.000000 1.699590 
# 
# From -- ./inp_files/26444.got.cif
#   From: 2010.03.12/outbox.cif.g09.slc.cpg/sg59_14_cif.got.tgz:26444.got - 2010.04.16 16:29:54.
