data_PCOD8240297
_publ_section_title
;
Structure prediction by ZEFSAII (Michael W. Deem and Ramdas Pophale) SiO2 
 PCOD8240297
Probable space group: P M M N
;
_chemical_formula_sum "Si O2"
_cell_formula_units_Z 64
_cell_length_a 9.035182
_cell_length_b 24.859672
_cell_length_c 18.419925
_cell_angle_alpha 90.000000
_cell_angle_beta 90.000000
_cell_angle_gamma 90.000000
_cell_volume 4137.329949
_symmetry_space_group_name_H-M "P M M N"
_symmetry_group_IT_number 59
_space_group.IT_coordinate_system_code '2'
_symmetry_cell_setting 'orthorhombic'
loop_
_space_group_symop_operation_xyz
x,y,z
1/2-x,1/2-y,z
1/2+x,-y,-z
-x,1/2+y,-z
-x,-y,-z
1/2+x,1/2+y,-z
1/2-x,y,z
x,1/2-y,z
loop_
_atom_site_type_symbol
_atom_site_label
_atom_site_fract_x
_atom_site_fract_y
_atom_site_fract_z
Si Si1 0.920123 0.578150 0.981843
Si Si2 0.923291 0.994811 0.114795
Si Si3 0.917182 0.957268 0.402460
Si Si4 0.583525 0.187931 0.223013
Si Si5 0.416720 0.923033 0.535884
Si Si6 0.077745 0.110548 0.327746
Si Si7 0.919550 0.809688 0.925088
Si Si8 0.576493 0.005757 0.733999
O O1 0.750000 0.565298 0.962430
O O2 0.949757 0.642667 0.983238
O O3 0.018561 0.550460 0.919572
O O4 0.959748 0.554549 0.060597
O O5 0.750000 0.000957 0.130293
O O6 0.006217 0.980770 0.188693
O O7 0.750000 0.937060 0.390075
O O8 0.998330 0.917878 0.459304
O O9 0.918867 0.016429 0.435663
O O10 0.003586 0.955547 0.326206
O O11 0.750000 0.164478 0.227542
O O12 0.581571 0.250000 0.244097
O O13 0.476976 0.159207 0.279235
O O14 0.524939 0.178864 0.142265
O O15 0.250000 0.902454 0.524594
O O16 0.496398 0.885765 0.595000
O O17 0.250000 0.116161 0.343340
O O18 0.040993 0.055779 0.285354
O O19 0.750000 0.812329 0.897965
O O20 0.952367 0.750000 0.958593
O O21 0.750000 0.017556 0.736165
#
# Coordination Sequence:
#
# PCOD8240297 Si02
#       8
#     8   8   8   8   8   8   8   8
#     4   9  18  31  44  60  83 109 139 174 210 252
#     4  10  19  29  42  60  83 112 142 172 209 253
#     4   9  16  26  40  58  81 108 137 167 198 235
#     4  10  20  31  42  59  83 108 136 173 213 249
#     4   9  16  26  40  58  81 108 136 166 200 236
#     4  10  19  29  42  59  80 109 143 175 205 242
#     4   9  17  30  47  63  80 106 139 174 212 252
#     4  10  19  29  41  59  83 110 141 174 207 245
#
# _framework density 15.468914
#
# number of rings (size 3 to 8) (size 9 to 14) (size 15 to 20)
#    0.000    2.500    0.000    3.000    0.000    9.250 
#    0.000    0.000    0.000    0.000    0.000    0.000 
#    0.000    1.000    0.000    5.000    0.000    3.500 
#
# Total GULP energy -793555.818087 kJ/mol
# GULP energy per Si atom -12399.309658 kJ/mol
# Density = 1.543371 g / cm^3
# Si number density = 15.468914 Si / 1000 Ang^3
#
#
#
# Elastic Constant Matrix: (Units=GPa)
#
#
# Indices 1 2 3 4 5 6 
#
# 1 90.1433 26.9884 50.4142 0.0000 0.0000 0.0000
# 2 26.9884 65.9186 37.7084 0.0000 0.0000 0.0000
# 3 50.4142 37.7084 105.6724 0.0000 0.0000 0.0000
# 4 0.0000 0.0000 0.0000 20.1047 0.0000 0.0000
# 5 0.0000 0.0000 0.0000 0.0000 30.8480 0.0000
# 6 0.0000 0.0000 0.0000 0.0000 0.0000 18.1068
#
#
#
# Elastic Compliance Matrix: (Units=1/GPa)
#
#
# Indices 1 2 3 4 5 6 
#
# 1 0.015492 -0.002657 -0.006443 0.000000 0.000000 0.000000
# 2 -0.002657 0.019517 -0.005697 0.000000 0.000000 0.000000
# 3 -0.006443 -0.005697 0.014570 0.000000 0.000000 0.000000
# 4 0.000000 0.000000 0.000000 0.049740 0.000000 0.000000
# 5 0.000000 0.000000 0.000000 0.000000 0.032417 0.000000
# 6 0.000000 0.000000 0.000000 0.000000 0.000000 0.055228
#
#
# Mechanical properties :
#
#
# Convention : Reuss Voigt Hill
#
# Bulk Modulus (GPa) = 50.03665 54.66180 52.34922
# Shear Modulus (GPa) = 22.39953 23.58679 22.99316
#
# Velocity S-wave (km/s) = 3.80943 3.90909 3.85958
# Velocity P-wave (km/s) = 7.19485 7.46913 7.33327
#
# Compressibility (1/GPa) = 0.01998535
#
# Stress axis : x y z
#
# Youngs Moduli (GPa) = 64.54824 51.23747 68.63513
#
# Poissons Ratio (x) = 0.13615 0.44221
# Poissons Ratio (y) = 0.17152 0.39100
# Poissons Ratio (z) = 0.41587 0.29189
#
# Static dielectric constant tensor:
#      x y z
#    x 3.154360 0.000000 0.000000 
#    y 0.000000 2.750690 0.000000 
#    z 0.000000 0.000000 2.930850 
# 
# 
# High freq. dielectric constant tensor:
#      x y z
#    x 1.612800 0.000000 0.000000 
#    y 0.000000 1.550250 0.000000 
#    z 0.000000 0.000000 1.583460 
# 
# From -- ./inp_files/26575.got.cif
#   From: 2010.03.12/outbox.cif.g09.slc.cpg/sg59_14_cif.got.tgz:26575.got - 2010.04.16 16:29:54.
