data_PCOD8240890
_publ_section_title
;
Structure prediction by ZEFSAII (Michael W. Deem and Ramdas Pophale) SiO2 
 PCOD8240890
Probable space group: P M M N
;
_chemical_formula_sum "Si O2"
_cell_formula_units_Z 56
_cell_length_a 22.672856
_cell_length_b 9.070520
_cell_length_c 14.702849
_cell_angle_alpha 90.000000
_cell_angle_beta 90.000000
_cell_angle_gamma 90.000000
_cell_volume 3023.708439
_symmetry_space_group_name_H-M "P M M N"
_symmetry_group_IT_number 59
_space_group.IT_coordinate_system_code '2'
_symmetry_cell_setting 'orthorhombic'
loop_
_space_group_symop_operation_xyz
x,y,z
1/2-x,1/2-y,z
1/2+x,-y,-z
-x,1/2+y,-z
-x,-y,-z
1/2+x,1/2+y,-z
1/2-x,y,z
x,1/2-y,z
loop_
_atom_site_type_symbol
_atom_site_label
_atom_site_fract_x
_atom_site_fract_y
_atom_site_fract_z
Si Si1 0.901688 0.424342 0.283734
Si Si2 0.319273 0.418780 0.579616
Si Si3 0.571337 0.578439 0.911871
Si Si4 0.184998 0.425511 0.195676
Si Si5 0.358385 0.421917 0.385326
Si Si6 0.952163 0.578532 0.119790
Si Si7 0.509094 0.920062 0.593517
O O1 0.895474 0.250000 0.272338
O O2 0.846333 0.484889 0.339626
O O3 0.904782 0.499721 0.185049
O O4 0.961386 0.474183 0.334165
O O5 0.250000 0.427367 0.590915
O O6 0.341977 0.250000 0.587344
O O7 0.337682 0.489919 0.481901
O O8 0.562013 0.750000 0.887714
O O9 0.633164 0.517243 0.870959
O O10 0.516947 0.491311 0.867597
O O11 0.573044 0.551437 0.019299
O O12 0.250000 0.477597 0.161448
O O13 0.181789 0.250000 0.198109
O O14 0.175969 0.488192 0.298361
O O15 0.344297 0.250000 0.392065
O O16 0.426820 0.454762 0.366244
O O17 0.956446 0.750000 0.143559
O O18 0.500562 0.750000 0.572024
O O19 0.500000 0.000000 0.500000
#
# Coordination Sequence:
#
# PCOD8240890 Si02
#       7
#     8   8   8   8   8   8   8
#     4  11  22  35  53  78 107 139 174 219 269 315
#     4  10  20  34  52  73 101 140 182 220 255 304
#     4   9  18  34  55  81 110 136 172 220 268 320
#     4   9  16  28  50  79 108 137 170 212 262 316
#     4   9  16  28  48  75 105 134 167 207 255 310
#     4  10  20  34  55  80 106 140 177 219 272 323
#     4  10  19  31  49  74 103 134 168 211 259 307
#
# _framework density 18.520303999999999
#
# number of rings (size 3 to 8) (size 9 to 14) (size 15 to 20)
#    0.000    2.286    1.429    2.143    0.000    5.429 
#    0.000    0.714    0.000    3.000    0.000    0.000 
#    0.000    0.000    0.000    0.000    0.000    0.000 
#
# Total GULP energy -694334.583898 kJ/mol
# GULP energy per Si atom -12398.831855 kJ/mol
# Density = 1.847815 g / cm^3
# Si number density = 18.520304 Si / 1000 Ang^3
#
#
#
# Elastic Constant Matrix: (Units=GPa)
#
#
# Indices 1 2 3 4 5 6 
#
# 1 86.0708 25.8016 45.0031 0.0000 0.0000 0.0000
# 2 25.8016 50.2291 35.2407 0.0000 0.0000 0.0000
# 3 45.0031 35.2407 99.5684 0.0000 0.0000 0.0000
# 4 0.0000 0.0000 0.0000 22.3732 0.0000 0.0000
# 5 0.0000 0.0000 0.0000 0.0000 30.7803 0.0000
# 6 0.0000 0.0000 0.0000 0.0000 0.0000 24.0768
#
#
#
# Elastic Compliance Matrix: (Units=1/GPa)
#
#
# Indices 1 2 3 4 5 6 
#
# 1 0.015836 -0.004141 -0.005692 0.000000 0.000000 0.000000
# 2 -0.004141 0.027569 -0.007886 0.000000 0.000000 0.000000
# 3 -0.005692 -0.007886 0.015407 0.000000 0.000000 0.000000
# 4 0.000000 0.000000 0.000000 0.044696 0.000000 0.000000
# 5 0.000000 0.000000 0.000000 0.000000 0.032488 0.000000
# 6 0.000000 0.000000 0.000000 0.000000 0.000000 0.041534
#
#
# Mechanical properties :
#
#
# Convention : Reuss Voigt Hill
#
# Bulk Modulus (GPa) = 42.78258 49.77322 46.27790
# Shear Modulus (GPa) = 22.64918 24.10092 23.37505
#
# Velocity S-wave (km/s) = 3.50085 3.61130 3.55650
# Velocity P-wave (km/s) = 6.28425 6.65747 6.47355
#
# Compressibility (1/GPa) = 0.02337400
#
# Stress axis : x y z
#
# Youngs Moduli (GPa) = 63.14829 36.27308 64.90570
#
# Poissons Ratio (x) = 0.15021 0.36943
# Poissons Ratio (y) = 0.26151 0.51183
# Poissons Ratio (z) = 0.35943 0.28604
#
# Static dielectric constant tensor:
#      x y z
#    x 3.465140 0.000000 0.000000 
#    y 0.000000 3.161090 0.000000 
#    z 0.000000 0.000000 3.439060 
# 
# 
# High freq. dielectric constant tensor:
#      x y z
#    x 1.718430 0.000000 0.000000 
#    y 0.000000 1.683850 0.000000 
#    z 0.000000 0.000000 1.724070 
# 
# From -- ./inp_files/24230.got.cif
#   From: 2010.03.12/outbox.cif.g09.slc.cpg/sg59_13_cif.got.tgz:24230.got - 2010.04.16 16:29:54.
