data_PCOD8240621
_publ_section_title
;
Structure prediction by ZEFSAII (Michael W. Deem and Ramdas Pophale) SiO2 
 PCOD8240621
Probable space group: P M M N
;
_chemical_formula_sum "Si O2"
_cell_formula_units_Z 56
_cell_length_a 19.901697
_cell_length_b 9.190933
_cell_length_c 17.415821
_cell_angle_alpha 90.000000
_cell_angle_beta 90.000000
_cell_angle_gamma 90.000000
_cell_volume 3185.617749
_symmetry_space_group_name_H-M "P M M N"
_symmetry_group_IT_number 59
_space_group.IT_coordinate_system_code '2'
_symmetry_cell_setting 'orthorhombic'
loop_
_space_group_symop_operation_xyz
x,y,z
1/2-x,1/2-y,z
1/2+x,-y,-z
-x,1/2+y,-z
-x,-y,-z
1/2+x,1/2+y,-z
1/2-x,y,z
x,1/2-y,z
loop_
_atom_site_type_symbol
_atom_site_label
_atom_site_fract_x
_atom_site_fract_y
_atom_site_fract_z
Si Si1 0.823104 0.919787 0.319565
Si Si2 0.326477 0.580381 0.111622
Si Si3 0.173163 0.079099 0.955904
Si Si4 0.456635 0.081642 0.386041
Si Si5 0.061781 0.577974 0.231563
Si Si6 0.081679 0.415955 0.550682
Si Si7 0.584754 0.922825 0.185147
O O1 0.750000 0.994133 0.310974
O O2 0.816609 0.750000 0.301560
O O3 0.848098 0.945240 0.406589
O O4 0.875061 0.987536 0.258247
O O5 0.250000 0.543434 0.136139
O O6 0.335664 0.750000 0.094872
O O7 0.376004 0.528489 0.178973
O O8 0.347074 0.497292 0.034748
O O9 0.250000 0.041071 0.931904
O O10 0.164885 0.250000 0.967942
O O11 0.121568 0.019453 0.891567
O O12 0.462413 0.250000 0.363524
O O13 0.407928 0.057051 0.459795
O O14 0.427168 0.995160 0.314049
O O15 0.529155 0.024611 0.410954
O O16 0.060404 0.750000 0.244266
O O17 0.992428 0.523886 0.191457
O O18 0.056733 0.250000 0.565304
O O19 0.586789 0.750000 0.185630
#
# Coordination Sequence:
#
# PCOD8240621 Si02
#       7
#     8   8   8   8   8   8   8
#     4   9  15  25  46  73  98 125 160 199 233 276
#     4   9  19  35  52  69  92 127 167 200 240 296
#     4   9  17  30  49  72  97 124 156 196 241 287
#     4  10  19  30  48  73  99 125 160 203 243 282
#     4  10  19  33  52  71  95 127 163 203 242 286
#     4   9  17  31  49  70  96 129 165 195 234 288
#     4   9  16  27  46  73  98 122 159 197 234 283
#
# _framework density 17.579008000000002
#
# number of rings (size 3 to 8) (size 9 to 14) (size 15 to 20)
#    0.000    2.714    1.429    0.857    0.000    3.429 
#    0.000    1.429    0.000    1.286    0.000    0.000 
#    0.000    0.000    0.000    0.000    0.000    0.000 
#
# Total GULP energy -694177.973075 kJ/mol
# GULP energy per Si atom -12396.035233 kJ/mol
# Density = 1.753900 g / cm^3
# Si number density = 17.579008 Si / 1000 Ang^3
#
#
#
# Elastic Constant Matrix: (Units=GPa)
#
#
# Indices 1 2 3 4 5 6 
#
# 1 118.6751 25.2832 83.7513 0.0000 0.0000 0.0000
# 2 25.2832 32.3886 40.2404 0.0000 0.0000 0.0000
# 3 83.7513 40.2404 156.9529 0.0000 0.0000 0.0000
# 4 0.0000 0.0000 0.0000 28.7639 0.0000 0.0000
# 5 0.0000 0.0000 0.0000 0.0000 28.0066 0.0000
# 6 0.0000 0.0000 0.0000 0.0000 0.0000 13.3716
#
#
#
# Elastic Compliance Matrix: (Units=1/GPa)
#
#
# Indices 1 2 3 4 5 6 
#
# 1 0.013638 -0.002354 -0.006673 0.000000 0.000000 0.000000
# 2 -0.002354 0.045714 -0.010464 0.000000 0.000000 0.000000
# 3 -0.006673 -0.010464 0.012615 0.000000 0.000000 0.000000
# 4 0.000000 0.000000 0.000000 0.034766 0.000000 0.000000
# 5 0.000000 0.000000 0.000000 0.000000 0.035706 0.000000
# 6 0.000000 0.000000 0.000000 0.000000 0.000000 0.074785
#
#
# Mechanical properties :
#
#
# Convention : Reuss Voigt Hill
#
# Bulk Modulus (GPa) = 30.31896 67.39625 48.85761
# Shear Modulus (GPa) = 18.71248 24.61120 21.66184
#
# Velocity S-wave (km/s) = 3.26617 3.74576 3.51416
# Velocity P-wave (km/s) = 5.61325 7.55843 6.65727
#
# Compressibility (1/GPa) = 0.03298266
#
# Stress axis : x y z
#
# Youngs Moduli (GPa) = 73.32687 21.87526 79.26974
#
# Poissons Ratio (x) = 0.05150 0.52900
# Poissons Ratio (y) = 0.17265 0.82948
# Poissons Ratio (z) = 0.48934 0.22890
#
# Static dielectric constant tensor:
#      x y z
#    x 3.353990 0.000000 0.000000 
#    y 0.000000 2.984750 0.000000 
#    z 0.000000 0.000000 3.418320 
# 
# 
# High freq. dielectric constant tensor:
#      x y z
#    x 1.669650 0.000000 0.000000 
#    y 0.000000 1.646090 0.000000 
#    z 0.000000 0.000000 1.687530 
# 
# From -- ./inp_files/24186.got.cif
#   From: 2010.03.12/outbox.cif.g09.slc.cpg/sg59_13_cif.got.tgz:24186.got - 2010.04.16 16:29:54.
