data_PCOD8240635
_publ_section_title
;
Structure prediction by ZEFSAII (Michael W. Deem and Ramdas Pophale) SiO2 
 PCOD8240635
Probable space group: P M M N
;
_chemical_formula_sum "Si O2"
_cell_formula_units_Z 48
_cell_length_a 8.772125
_cell_length_b 29.693014
_cell_length_c 10.231448
_cell_angle_alpha 90.000000
_cell_angle_beta 90.000000
_cell_angle_gamma 90.000000
_cell_volume 2664.993757
_symmetry_space_group_name_H-M "P M M N"
_symmetry_group_IT_number 59
_space_group.IT_coordinate_system_code '2'
_symmetry_cell_setting 'orthorhombic'
loop_
_space_group_symop_operation_xyz
x,y,z
1/2-x,1/2-y,z
1/2+x,-y,-z
-x,1/2+y,-z
-x,-y,-z
1/2+x,1/2+y,-z
1/2-x,y,z
x,1/2-y,z
loop_
_atom_site_type_symbol
_atom_site_label
_atom_site_fract_x
_atom_site_fract_y
_atom_site_fract_z
Si Si1 0.578842 0.200820 0.021095
Si Si2 0.569406 0.020613 0.629605
Si Si3 0.073828 0.389696 0.716084
Si Si4 0.074922 0.111897 0.023538
Si Si5 0.578366 0.299315 0.710828
Si Si6 0.429637 0.526028 0.879128
O O1 0.750000 0.190613 0.070649
O O2 0.524952 0.250000 0.073129
O O3 0.465057 0.162290 0.072232
O O4 0.577007 0.201312 0.865935
O O5 0.750000 0.016361 0.627346
O O6 0.524148 0.072968 0.641147
O O7 0.500000 0.000000 0.500000
O O8 0.502755 0.992176 0.748054
O O9 0.250000 0.397757 0.685007
O O10 0.027567 0.340260 0.661467
O O11 0.040020 0.393977 0.870154
O O12 0.250000 0.101609 0.055200
O O13 0.968131 0.078582 0.105632
O O14 0.750000 0.307544 0.659869
O O15 0.519638 0.250000 0.660530
O O16 0.250000 0.517898 0.875089
O O17 0.500000 0.500000 0.000000
#
# Coordination Sequence:
#
# PCOD8240635 Si02
#       6
#     8   8   8   8   8   8
#     4   8  14  25  41  64  98 137 174 214 264 318
#     4  12  25  41  59  79 108 144 182 227 275 327
#     4  10  19  31  49  74 106 140 178 220 267 320
#     4  10  19  30  48  75 106 139 178 222 268 317
#     4   8  14  25  42  66  98 135 174 215 263 316
#     4  12  23  37  57  81 108 141 182 224 269 319
#
# _framework density 18.011298
#
# number of rings (size 3 to 8) (size 9 to 14) (size 15 to 20)
#    0.000    2.000    1.667    5.000    0.000    2.000 
#    0.000    3.333    0.000    0.000    0.000    1.167 
#    0.000    9.333    0.000    0.000    0.000    0.000 
#
# Total GULP energy -595062.301004 kJ/mol
# GULP energy per Si atom -12397.131271 kJ/mol
# Density = 1.797030 g / cm^3
# Si number density = 18.011298 Si / 1000 Ang^3
#
#
#
# Elastic Constant Matrix: (Units=GPa)
#
#
# Indices 1 2 3 4 5 6 
#
# 1 133.6711 66.2126 43.8065 0.0000 0.0000 0.0000
# 2 66.2126 152.9124 44.0448 0.0000 0.0000 0.0000
# 3 43.8065 44.0448 68.9072 0.0000 0.0000 0.0000
# 4 0.0000 0.0000 0.0000 12.2981 0.0000 0.0000
# 5 0.0000 0.0000 0.0000 0.0000 20.4498 0.0000
# 6 0.0000 0.0000 0.0000 0.0000 0.0000 37.6373
#
#
#
# Elastic Compliance Matrix: (Units=1/GPa)
#
#
# Indices 1 2 3 4 5 6 
#
# 1 0.010625 -0.003254 -0.004675 0.000000 0.000000 0.000000
# 2 -0.003254 0.009012 -0.003692 0.000000 0.000000 0.000000
# 3 -0.004675 -0.003692 0.019844 0.000000 0.000000 0.000000
# 4 0.000000 0.000000 0.000000 0.081314 0.000000 0.000000
# 5 0.000000 0.000000 0.000000 0.000000 0.048900 0.000000
# 6 0.000000 0.000000 0.000000 0.000000 0.000000 0.026569
#
#
# Mechanical properties :
#
#
# Convention : Reuss Voigt Hill
#
# Bulk Modulus (GPa) = 61.57666 73.73540 67.65603
# Shear Modulus (GPa) = 22.23031 27.50549 24.86790
#
# Velocity S-wave (km/s) = 3.51699 3.91208 3.71979
# Velocity P-wave (km/s) = 7.12421 7.83793 7.48957
#
# Compressibility (1/GPa) = 0.01623992
#
# Stress axis : x y z
#
# Youngs Moduli (GPa) = 94.11811 110.96118 50.39386
#
# Poissons Ratio (x) = 0.36110 0.23557
# Poissons Ratio (y) = 0.30629 0.18604
# Poissons Ratio (z) = 0.43996 0.40963
#
# Static dielectric constant tensor:
#      x y z
#    x 3.436780 0.000000 0.000000 
#    y 0.000000 3.902580 0.000000 
#    z 0.000000 0.000000 2.758350 
# 
# 
# High freq. dielectric constant tensor:
#      x y z
#    x 1.705600 0.000000 0.000000 
#    y 0.000000 1.722430 0.000000 
#    z 0.000000 0.000000 1.629110 
# 
# From -- ./inp_files/6314.got.cif
#   From: 2010.03.12/outbox.cif.g09.slc.cpg/sg59_4_cif.got.tgz:6314.got - 2010.04.16 16:29:54.
