data_PCOD8240429
_publ_section_title
;
Structure prediction by ZEFSAII (Michael W. Deem and Ramdas Pophale) SiO2 
 PCOD8240429
Probable space group: P M M N
;
_chemical_formula_sum "Si O2"
_cell_formula_units_Z 56
_cell_length_a 18.363978
_cell_length_b 9.205841
_cell_length_c 20.329729
_cell_angle_alpha 90.000000
_cell_angle_beta 90.000000
_cell_angle_gamma 90.000000
_cell_volume 3436.859852
_symmetry_space_group_name_H-M "P M M N"
_symmetry_group_IT_number 59
_space_group.IT_coordinate_system_code '2'
_symmetry_cell_setting 'orthorhombic'
loop_
_space_group_symop_operation_xyz
x,y,z
1/2-x,1/2-y,z
1/2+x,-y,-z
-x,1/2+y,-z
-x,-y,-z
1/2+x,1/2+y,-z
1/2-x,y,z
x,1/2-y,z
loop_
_atom_site_type_symbol
_atom_site_label
_atom_site_fract_x
_atom_site_fract_y
_atom_site_fract_z
Si Si1 0.332959 0.581122 0.525886
Si Si2 0.464947 0.415202 0.941721
Si Si3 0.168341 0.081497 0.016522
Si Si4 0.965150 0.582345 0.439518
Si Si5 0.904795 0.420768 0.862404
Si Si6 0.112377 0.584897 0.380050
Si Si7 0.334183 0.080926 0.256496
O O1 0.250000 0.533461 0.539731
O O2 0.344650 0.750000 0.540927
O O3 0.386448 0.491022 0.574970
O O4 0.353055 0.546192 0.450551
O O5 0.482387 0.250000 0.957510
O O6 0.507955 0.453604 0.874121
O O7 0.500000 0.500000 0.000000
O O8 0.378028 0.444879 0.948427
O O9 0.250000 0.035965 0.998694
O O10 0.163351 0.250000 0.038559
O O11 0.141396 0.984407 0.077110
O O12 0.953115 0.750000 0.457851
O O13 0.000000 0.500000 0.500000
O O14 0.023917 0.567523 0.380372
O O15 0.888414 0.250000 0.856392
O O16 0.884093 0.496651 0.794923
O O17 0.132977 0.750000 0.360720
O O18 0.147566 0.474868 0.328974
O O19 0.250000 0.051336 0.239963
O O20 0.352767 0.250000 0.252794
#
# Coordination Sequence:
#
# PCOD8240429 Si02
#       7
#     8   8   8   8   8   8   8
#     4   9  17  29  46  69  95 120 146 179 220 263
#     4   8  15  27  42  61  83 109 141 173 208 251
#     4   9  16  27  44  65  89 113 137 172 215 254
#     4   9  17  29  45  65  89 117 148 182 221 264
#     4  10  19  30  44  61  85 117 148 177 209 251
#     4   9  18  32  47  63  87 119 151 182 215 254
#     4  11  23  34  44  62  87 115 148 183 217 255
#
# _framework density 16.293945000000001
#
# number of rings (size 3 to 8) (size 9 to 14) (size 15 to 20)
#    0.000    2.714    0.000    3.000    0.000    7.429 
#    0.000    0.000    0.000    0.000    0.000    1.000 
#    0.000    5.714    0.000    0.000    0.000    0.000 
#
# Total GULP energy -693755.038556 kJ/mol
# GULP energy per Si atom -12388.482831 kJ/mol
# Density = 1.625686 g / cm^3
# Si number density = 16.293945 Si / 1000 Ang^3
#
#
#
# Elastic Constant Matrix: (Units=GPa)
#
#
# Indices 1 2 3 4 5 6 
#
# 1 85.4170 32.7774 9.3915 0.0000 0.0000 0.0000
# 2 32.7774 71.1853 19.9400 0.0000 0.0000 0.0000
# 3 9.3915 19.9400 27.6333 0.0000 0.0000 0.0000
# 4 0.0000 0.0000 0.0000 21.7062 0.0000 0.0000
# 5 0.0000 0.0000 0.0000 0.0000 23.5978 0.0000
# 6 0.0000 0.0000 0.0000 0.0000 0.0000 26.6711
#
#
#
# Elastic Compliance Matrix: (Units=1/GPa)
#
#
# Indices 1 2 3 4 5 6 
#
# 1 0.014220 -0.006510 -0.000136 0.000000 0.000000 0.000000
# 2 -0.006510 0.020587 -0.012643 0.000000 0.000000 0.000000
# 3 -0.000136 -0.012643 0.045357 0.000000 0.000000 0.000000
# 4 0.000000 0.000000 0.000000 0.046070 0.000000 0.000000
# 5 0.000000 0.000000 0.000000 0.000000 0.042377 0.000000
# 6 0.000000 0.000000 0.000000 0.000000 0.000000 0.037494
#
#
# Mechanical properties :
#
#
# Convention : Reuss Voigt Hill
#
# Bulk Modulus (GPa) = 24.04538 34.27259 29.15898
# Shear Modulus (GPa) = 19.33913 22.53681 20.93797
#
# Velocity S-wave (km/s) = 3.44887 3.72309 3.58860
# Velocity P-wave (km/s) = 5.53614 6.28979 5.92496
#
# Compressibility (1/GPa) = 0.04158803
#
# Stress axis : x y z
#
# Youngs Moduli (GPa) = 70.32262 48.57516 22.04719
#
# Poissons Ratio (x) = 0.31621 0.00299
# Poissons Ratio (y) = 0.45778 0.27874
# Poissons Ratio (z) = 0.00953 0.61412
#
# Static dielectric constant tensor:
#      x y z
#    x 3.843890 0.000000 0.000000 
#    y 0.000000 3.227160 0.000000 
#    z 0.000000 0.000000 2.793390 
# 
# 
# High freq. dielectric constant tensor:
#      x y z
#    x 1.637030 0.000000 0.000000 
#    y 0.000000 1.638230 0.000000 
#    z 0.000000 0.000000 1.576250 
# 
# From -- ./inp_files/29296.got.cif
#   From: 2010.03.12/outbox.cif.g09.slc.cpg/sg59_15_cif.got.tgz:29296.got - 2010.04.16 16:29:54.
