data_PCOD8240472
_publ_section_title
;
Structure prediction by ZEFSAII (Michael W. Deem and Ramdas Pophale) SiO2 
 PCOD8240472
Probable space group: P M M N
;
_chemical_formula_sum "Si O2"
_cell_formula_units_Z 64
_cell_length_a 28.196646
_cell_length_b 9.358846
_cell_length_c 15.433325
_cell_angle_alpha 90.000000
_cell_angle_beta 90.000000
_cell_angle_gamma 90.000000
_cell_volume 4072.670311
_symmetry_space_group_name_H-M "P M M N"
_symmetry_group_IT_number 59
_space_group.IT_coordinate_system_code '2'
_symmetry_cell_setting 'orthorhombic'
loop_
_space_group_symop_operation_xyz
x,y,z
1/2-x,1/2-y,z
1/2+x,-y,-z
-x,1/2+y,-z
-x,-y,-z
1/2+x,1/2+y,-z
1/2-x,y,z
x,1/2-y,z
loop_
_atom_site_type_symbol
_atom_site_label
_atom_site_fract_x
_atom_site_fract_y
_atom_site_fract_z
Si Si1 0.446916 0.417088 0.327021
Si Si2 0.951285 0.917542 0.005983
Si Si3 0.804017 0.416566 0.907298
Si Si4 0.303084 0.087149 0.918878
Si Si5 0.387883 0.416590 0.157556
Si Si6 0.048025 0.584889 0.487047
Si Si7 0.395054 0.415050 0.823479
Si Si8 0.056059 0.912064 0.678243
O O1 0.443822 0.250000 0.350138
O O2 0.417608 0.457410 0.242215
O O3 0.424694 0.507809 0.407389
O O4 0.501531 0.463688 0.312362
O O5 0.962022 0.750000 0.003200
O O6 0.918074 0.962164 0.926094
O O7 0.925737 0.964905 0.094203
O O8 0.000000 0.000000 0.000000
O O9 0.750000 0.442485 0.876306
O O10 0.816199 0.250000 0.911876
O O11 0.839089 0.493934 0.839840
O O12 0.812340 0.482497 0.001704
O O13 0.250000 0.068134 0.881697
O O14 0.311779 0.250000 0.951861
O O15 0.339772 0.051310 0.842300
O O16 0.375113 0.250000 0.155646
O O17 0.038047 0.750000 0.463739
O O18 0.075207 0.573879 0.579174
O O19 0.000000 0.500000 0.500000
O O20 0.403680 0.250000 0.804868
O O21 0.409520 0.496695 0.737522
O O22 0.059197 0.750000 0.710611
#
# Coordination Sequence:
#
# PCOD8240472 Si02
#       8
#     8   8   8   8   8   8   8   8
#     4   9  18  31  48  69  93 122 157 192 228 272
#     4  10  20  32  43  61  91 125 159 186 218 265
#     4  10  20  32  47  69  93 117 153 199 239 275
#     4   9  17  32  51  66  86 118 153 192 238 278
#     4  10  19  33  49  66  93 126 158 191 229 279
#     4   9  17  30  47  66  91 121 155 193 233 274
#     4  10  19  30  45  67  90 117 156 192 222 268
#     4   9  18  31  46  66  93 125 153 183 228 273
#
# _framework density 15.714505000000001
#
# number of rings (size 3 to 8) (size 9 to 14) (size 15 to 20)
#    0.000    2.500    1.250    2.250    0.000    6.250 
#    0.000    0.000    0.000    0.000    0.000    0.875 
#    0.000    3.000    0.000    0.000    0.000    0.000 
#
# Total GULP energy -793459.077894 kJ/mol
# GULP energy per Si atom -12397.798092 kJ/mol
# Density = 1.567874 g / cm^3
# Si number density = 15.714505 Si / 1000 Ang^3
#
#
#
# Elastic Constant Matrix: (Units=GPa)
#
#
# Indices 1 2 3 4 5 6 
#
# 1 88.6375 43.1100 43.1308 0.0000 0.0000 0.0000
# 2 43.1100 68.4481 47.3180 0.0000 0.0000 0.0000
# 3 43.1308 47.3180 98.9338 0.0000 0.0000 0.0000
# 4 0.0000 0.0000 0.0000 29.6954 0.0000 0.0000
# 5 0.0000 0.0000 0.0000 0.0000 11.8474 0.0000
# 6 0.0000 0.0000 0.0000 0.0000 0.0000 25.4311
#
#
#
# Elastic Compliance Matrix: (Units=1/GPa)
#
#
# Indices 1 2 3 4 5 6 
#
# 1 0.017006 -0.008344 -0.003423 0.000000 0.000000 0.000000
# 2 -0.008344 0.025920 -0.008759 0.000000 0.000000 0.000000
# 3 -0.003423 -0.008759 0.015789 0.000000 0.000000 0.000000
# 4 0.000000 0.000000 0.000000 0.033675 0.000000 0.000000
# 5 0.000000 0.000000 0.000000 0.000000 0.084406 0.000000
# 6 0.000000 0.000000 0.000000 0.000000 0.000000 0.039322
#
#
# Mechanical properties :
#
#
# Convention : Reuss Voigt Hill
#
# Bulk Modulus (GPa) = 56.61754 58.12634 57.37194
# Shear Modulus (GPa) = 19.00707 21.55885 20.28296
#
# Velocity S-wave (km/s) = 3.48159 3.70795 3.59655
# Velocity P-wave (km/s) = 7.22973 7.44319 7.33724
#
# Compressibility (1/GPa) = 0.01766237
#
# Stress axis : x y z
#
# Youngs Moduli (GPa) = 58.80326 38.57961 63.33356
#
# Poissons Ratio (x) = 0.32192 0.21678
# Poissons Ratio (y) = 0.49068 0.55476
# Poissons Ratio (z) = 0.20127 0.33793
#
# Static dielectric constant tensor:
#      x y z
#    x 2.956040 0.000000 0.000000 
#    y 0.000000 3.068170 0.000000 
#    z 0.000000 0.000000 3.162660 
# 
# 
# High freq. dielectric constant tensor:
#      x y z
#    x 1.582230 0.000000 0.000000 
#    y 0.000000 1.608820 0.000000 
#    z 0.000000 0.000000 1.592480 
# 
# From -- ./inp_files/21805.got.cif
#   From: 2010.03.12/outbox.cif.g09.slc.cpg/sg59_11_cif.got.tgz:21805.got - 2010.04.16 16:29:54.
