data_PCOD8240968
_publ_section_title
;
Structure prediction by ZEFSAII (Michael W. Deem and Ramdas Pophale) SiO2 
 PCOD8240968
Probable space group: P M M N
;
_chemical_formula_sum "Si O2"
_cell_formula_units_Z 64
_cell_length_a 29.218453
_cell_length_b 9.273457
_cell_length_c 12.577313
_cell_angle_alpha 90.000000
_cell_angle_beta 90.000000
_cell_angle_gamma 90.000000
_cell_volume 3407.899270
_symmetry_space_group_name_H-M "P M M N"
_symmetry_group_IT_number 59
_space_group.IT_coordinate_system_code '2'
_symmetry_cell_setting 'orthorhombic'
loop_
_space_group_symop_operation_xyz
x,y,z
1/2-x,1/2-y,z
1/2+x,-y,-z
-x,1/2+y,-z
-x,-y,-z
1/2+x,1/2+y,-z
1/2-x,y,z
x,1/2-y,z
loop_
_atom_site_type_symbol
_atom_site_label
_atom_site_fract_x
_atom_site_fract_y
_atom_site_fract_z
Si Si1 0.962569 0.919056 0.708874
Si Si2 0.818738 0.413921 0.835120
Si Si3 0.421201 0.588201 0.109553
Si Si4 0.614438 0.080679 0.115000
Si Si5 0.606473 0.581614 0.526620
Si Si6 0.300982 0.083256 0.954416
Si Si7 0.300194 0.086471 0.370592
Si Si8 0.065008 0.917656 0.667803
O O1 0.959117 0.750000 0.728416
O O2 0.924687 0.973495 0.624772
O O3 0.012004 0.963439 0.663409
O O4 0.956273 0.990262 0.824616
O O5 0.801233 0.250000 0.848342
O O6 0.873282 0.418503 0.829207
O O7 0.799049 0.479054 0.727751
O O8 0.800012 0.508677 0.931164
O O9 0.440934 0.750000 0.107611
O O10 0.414408 0.530927 0.988912
O O11 0.625949 0.250000 0.104603
O O12 0.584713 0.042297 0.217084
O O13 0.662453 0.995415 0.121948
O O14 0.598212 0.750000 0.509236
O O15 0.659662 0.543532 0.547695
O O16 0.593075 0.503016 0.419379
O O17 0.250000 0.069914 0.904318
O O18 0.315066 0.250000 0.967728
O O19 0.250000 0.076266 0.426537
O O20 0.309453 0.250000 0.330099
O O21 0.071086 0.750000 0.643517
#
# Coordination Sequence:
#
# PCOD8240968 Si02
#       8
#     8   8   8   8   8   8   8   8
#     4  10  20  35  57  84 110 140 179 225 276 330
#     4  10  19  31  50  79 114 147 178 217 265 322
#     4   9  18  32  52  79 111 143 175 217 268 322
#     4   9  20  38  55  77 111 146 181 225 275 324
#     4  10  21  37  56  80 111 144 183 227 272 324
#     4  10  20  33  52  79 108 141 183 226 268 320
#     4  10  20  34  53  78 110 146 181 221 271 324
#     4  10  22  39  58  79 106 142 185 232 277 323
#
# _framework density 18.779897999999999
#
# number of rings (size 3 to 8) (size 9 to 14) (size 15 to 20)
#    0.000    2.250    1.250    2.250    0.000    7.250 
#    0.000    0.625    0.000    2.250    0.000    0.000 
#    0.000    0.000    0.000    0.000    0.000    0.000 
#
# Total GULP energy -793584.459921 kJ/mol
# GULP energy per Si atom -12399.757186 kJ/mol
# Density = 1.873715 g / cm^3
# Si number density = 18.779898 Si / 1000 Ang^3
#
#
#
# Elastic Constant Matrix: (Units=GPa)
#
#
# Indices 1 2 3 4 5 6 
#
# 1 122.0803 44.5375 62.3126 0.0000 0.0000 0.0000
# 2 44.5375 69.3289 42.6408 0.0000 0.0000 0.0000
# 3 62.3126 42.6408 104.0874 0.0000 0.0000 0.0000
# 4 0.0000 0.0000 0.0000 30.6719 0.0000 0.0000
# 5 0.0000 0.0000 0.0000 0.0000 15.1056 0.0000
# 6 0.0000 0.0000 0.0000 0.0000 0.0000 25.3626
#
#
#
# Elastic Compliance Matrix: (Units=1/GPa)
#
#
# Indices 1 2 3 4 5 6 
#
# 1 0.012852 -0.004711 -0.005764 0.000000 0.000000 0.000000
# 2 -0.004711 0.021009 -0.005786 0.000000 0.000000 0.000000
# 3 -0.005764 -0.005786 0.015428 0.000000 0.000000 0.000000
# 4 0.000000 0.000000 0.000000 0.032603 0.000000 0.000000
# 5 0.000000 0.000000 0.000000 0.000000 0.066201 0.000000
# 6 0.000000 0.000000 0.000000 0.000000 0.000000 0.039428
#
#
# Mechanical properties :
#
#
# Convention : Reuss Voigt Hill
#
# Bulk Modulus (GPa) = 59.64161 66.05315 62.84738
# Shear Modulus (GPa) = 22.15976 23.96174 23.06075
#
# Velocity S-wave (km/s) = 3.43880 3.57588 3.50801
# Velocity P-wave (km/s) = 6.89886 7.23173 7.06725
#
# Compressibility (1/GPa) = 0.01676682
#
# Stress axis : x y z
#
# Youngs Moduli (GPa) = 77.80793 47.59766 64.81523
#
# Poissons Ratio (x) = 0.22424 0.37360
# Poissons Ratio (y) = 0.36657 0.37505
# Poissons Ratio (z) = 0.44849 0.27542
#
# Static dielectric constant tensor:
#      x y z
#    x 3.588920 0.000000 0.000000 
#    y 0.000000 3.435470 0.000000 
#    z 0.000000 0.000000 3.215230 
# 
# 
# High freq. dielectric constant tensor:
#      x y z
#    x 1.736580 0.000000 0.000000 
#    y 0.000000 1.727670 0.000000 
#    z 0.000000 0.000000 1.706620 
# 
# From -- ./inp_files/19383.got.cif
#   From: 2010.03.12/outbox.cif.g09.slc.cpg/sg59_10_cif.got.tgz:19383.got - 2010.04.16 16:29:54.
