data_PCOD8240265
_publ_section_title
;
Structure prediction by ZEFSAII (Michael W. Deem and Ramdas Pophale) SiO2 
 PCOD8240265
Probable space group: P M M N
;
_chemical_formula_sum "Si O2"
_cell_formula_units_Z 56
_cell_length_a 9.325282
_cell_length_b 13.614095
_cell_length_c 29.492605
_cell_angle_alpha 90.000000
_cell_angle_beta 90.000000
_cell_angle_gamma 90.000000
_cell_volume 3744.241780
_symmetry_space_group_name_H-M "P M M N"
_symmetry_group_IT_number 59
_space_group.IT_coordinate_system_code '2'
_symmetry_cell_setting 'orthorhombic'
loop_
_space_group_symop_operation_xyz
x,y,z
1/2-x,1/2-y,z
1/2+x,-y,-z
-x,1/2+y,-z
-x,-y,-z
1/2+x,1/2+y,-z
1/2-x,y,z
x,1/2-y,z
loop_
_atom_site_type_symbol
_atom_site_label
_atom_site_fract_x
_atom_site_fract_y
_atom_site_fract_z
Si Si1 0.913925 0.860162 0.986128
Si Si2 0.920308 0.638428 0.345148
Si Si3 0.416738 0.366495 0.850651
Si Si4 0.917904 0.975695 0.431494
Si Si5 0.080384 0.358412 0.752414
Si Si6 0.416775 0.361886 0.478006
Si Si7 0.917493 0.448826 0.933379
O O1 0.750000 0.873386 0.002657
O O2 0.940658 0.750000 0.967480
O O3 0.948324 0.937446 0.946207
O O4 0.015227 0.877481 0.029064
O O5 0.750000 0.641280 0.349768
O O6 0.978683 0.750000 0.350058
O O7 0.982087 0.570572 0.385217
O O8 0.965892 0.591676 0.295671
O O9 0.250000 0.388412 0.860088
O O10 0.446285 0.250000 0.854902
O O11 0.465080 0.407144 0.800445
O O12 0.511479 0.428169 0.885252
O O13 0.750000 0.997316 0.427695
O O14 0.952953 0.900029 0.471756
O O15 0.996819 0.078359 0.440073
O O16 0.250000 0.348997 0.753538
O O17 0.013076 0.250000 0.751370
O O18 0.250000 0.373690 0.467278
O O19 0.467470 0.250000 0.475140
O O20 0.750000 0.425668 0.930364
#
# Coordination Sequence:
#
# PCOD8240265 Si02
#       7
#     8   8   8   8   8   8   8
#     4   9  18  32  45  56  76 106 134 159 190 229
#     4   8  12  20  37  60  82 101 125 160 196 228
#     4   9  16  26  40  58  82 110 133 152 183 232
#     4   9  16  25  40  61  79  98 130 167 198 227
#     4   7  11  20  35  56  79 102 128 155 185 227
#     4   9  17  28  39  53  78 109 134 157 191 236
#     4  10  19  28  41  62  82 101 130 164 194 223
#
# _framework density 14.956300000000001
#
# number of rings (size 3 to 8) (size 9 to 14) (size 15 to 20)
#    0.000    3.286    0.000    3.000    0.000    4.857 
#    0.000    0.000    0.000    2.143    0.000    3.000 
#    0.000    5.714    0.000    0.000    0.000    0.000 
#
# Total GULP energy -693795.073921 kJ/mol
# GULP energy per Si atom -12389.197749 kJ/mol
# Density = 1.492226 g / cm^3
# Si number density = 14.956300 Si / 1000 Ang^3
#
#
#
# Elastic Constant Matrix: (Units=GPa)
#
#
# Indices 1 2 3 4 5 6 
#
# 1 41.7564 33.1090 44.1269 0.0000 0.0000 0.0000
# 2 33.1090 91.1243 57.6339 0.0000 0.0000 0.0000
# 3 44.1269 57.6339 143.2525 0.0000 0.0000 0.0000
# 4 0.0000 0.0000 0.0000 21.2683 0.0000 0.0000
# 5 0.0000 0.0000 0.0000 0.0000 17.5433 0.0000
# 6 0.0000 0.0000 0.0000 0.0000 0.0000 19.8662
#
#
#
# Elastic Compliance Matrix: (Units=1/GPa)
#
#
# Indices 1 2 3 4 5 6 
#
# 1 0.040497 -0.009154 -0.008792 0.000000 0.000000 0.000000
# 2 -0.009154 0.016789 -0.003935 0.000000 0.000000 0.000000
# 3 -0.008792 -0.003935 0.011272 0.000000 0.000000 0.000000
# 4 0.000000 0.000000 0.000000 0.047018 0.000000 0.000000
# 5 0.000000 0.000000 0.000000 0.000000 0.057002 0.000000
# 6 0.000000 0.000000 0.000000 0.000000 0.000000 0.050337
#
#
# Mechanical properties :
#
#
# Convention : Reuss Voigt Hill
#
# Bulk Modulus (GPa) = 40.32704 60.65255 50.48980
# Shear Modulus (GPa) = 18.18571 21.15313 19.66942
#
# Velocity S-wave (km/s) = 3.49079 3.76484 3.63040
# Velocity P-wave (km/s) = 6.57794 7.71621 7.16970
#
# Compressibility (1/GPa) = 0.02479726
#
# Stress axis : x y z
#
# Youngs Moduli (GPa) = 24.69291 59.56448 88.71553
#
# Poissons Ratio (x) = 0.54523 0.77998
# Poissons Ratio (y) = 0.22603 0.34908
# Poissons Ratio (z) = 0.21710 0.23437
#
# Static dielectric constant tensor:
#      x y z
#    x 2.667520 0.000000 0.000000 
#    y 0.000000 2.759510 0.000000 
#    z 0.000000 0.000000 3.189670 
# 
# 
# High freq. dielectric constant tensor:
#      x y z
#    x 1.548700 0.000000 0.000000 
#    y 0.000000 1.542650 0.000000 
#    z 0.000000 0.000000 1.576100 
# 
# From -- ./inp_files/33185.got.cif
#   From: 2010.03.12/outbox.cif.g09.slc.cpg/sg59_17_cif.got.tgz:33185.got - 2010.04.16 16:29:54.
