data_PCOD8240014
_publ_section_title
;
Structure prediction by ZEFSAII (Michael W. Deem and Ramdas Pophale) SiO2 
 PCOD8240014
Probable space group: P M M N
;
_chemical_formula_sum "Si O2"
_cell_formula_units_Z 64
_cell_length_a 8.902323
_cell_length_b 23.773950
_cell_length_c 15.147751
_cell_angle_alpha 90.000000
_cell_angle_beta 90.000000
_cell_angle_gamma 90.000000
_cell_volume 3205.921250
_symmetry_space_group_name_H-M "P M M N"
_symmetry_group_IT_number 59
_space_group.IT_coordinate_system_code '2'
_symmetry_cell_setting 'orthorhombic'
loop_
_space_group_symop_operation_xyz
x,y,z
1/2-x,1/2-y,z
1/2+x,-y,-z
-x,1/2+y,-z
-x,-y,-z
1/2+x,1/2+y,-z
1/2-x,y,z
x,1/2-y,z
loop_
_atom_site_type_symbol
_atom_site_label
_atom_site_fract_x
_atom_site_fract_y
_atom_site_fract_z
Si Si1 0.572700 0.314063 0.044740
Si Si2 0.573998 0.878961 0.115091
Si Si3 0.424915 0.873281 0.447060
Si Si4 0.078058 0.017517 0.625219
Si Si5 0.574710 0.613277 0.812716
Si Si6 0.926448 0.598326 0.612429
Si Si7 0.576155 0.185382 0.729679
Si Si8 0.919353 0.500015 0.169833
O O1 0.750000 0.318088 0.046315
O O2 0.518254 0.250000 0.033412
O O3 0.510206 0.337365 0.136732
O O4 0.513628 0.350224 0.963805
O O5 0.750000 0.868690 0.103028
O O6 0.525570 0.852994 0.208324
O O7 0.536090 0.945601 0.111702
O O8 0.250000 0.874356 0.469806
O O9 0.475756 0.933415 0.411658
O O10 0.515689 0.858074 0.537415
O O11 0.462082 0.826871 0.372686
O O12 0.250000 0.024282 0.593130
O O13 0.066613 0.019578 0.729996
O O14 0.011197 0.959388 0.589178
O O15 0.750000 0.620573 0.828721
O O16 0.529709 0.619778 0.709952
O O17 0.528593 0.552071 0.850579
O O18 0.750000 0.588583 0.605998
O O19 0.750000 0.171407 0.749233
O O20 0.539569 0.250000 0.749933
O O21 0.750000 0.480193 0.148793
#
# Coordination Sequence:
#
# PCOD8240014 Si02
#       8
#     8   8   8   8   8   8   8   8
#     4  11  25  44  65  88 115 152 196 240 291 351
#     4  11  22  38  62  92 121 152 192 239 291 348
#     4  11  21  33  53  80 112 153 197 238 284 339
#     4  10  18  32  53  80 116 153 191 234 280 339
#     4  10  22  40  63  89 117 152 195 246 297 346
#     4  10  21  36  55  82 115 148 189 237 289 345
#     4  10  22  39  57  80 115 157 199 244 292 347
#     4   9  19  35  57  87 123 158 190 231 289 354
#
# _framework density 19.963061
#
# number of rings (size 3 to 8) (size 9 to 14) (size 15 to 20)
#    0.000    1.750    1.250    3.000    0.000    6.750 
#    0.000    0.625    0.000    2.250    0.000    0.000 
#    0.000    0.000    0.000    0.000    0.000    0.000 
#
# Total GULP energy -793742.256425 kJ/mol
# GULP energy per Si atom -12402.222757 kJ/mol
# Density = 1.991762 g / cm^3
# Si number density = 19.963061 Si / 1000 Ang^3
#
#
#
# Elastic Constant Matrix: (Units=GPa)
#
#
# Indices 1 2 3 4 5 6 
#
# 1 64.1199 25.6536 31.9814 0.0000 0.0000 0.0000
# 2 25.6536 45.0032 31.4087 0.0000 0.0000 0.0000
# 3 31.9814 31.4087 64.2482 0.0000 0.0000 0.0000
# 4 0.0000 0.0000 0.0000 27.5197 0.0000 0.0000
# 5 0.0000 0.0000 0.0000 0.0000 36.2709 0.0000
# 6 0.0000 0.0000 0.0000 0.0000 0.0000 27.6932
#
#
#
# Elastic Compliance Matrix: (Units=1/GPa)
#
#
# Indices 1 2 3 4 5 6 
#
# 1 0.022314 -0.007541 -0.007421 0.000000 0.000000 0.000000
# 2 -0.007541 0.036277 -0.013981 0.000000 0.000000 0.000000
# 3 -0.007421 -0.013981 0.026094 0.000000 0.000000 0.000000
# 4 0.000000 0.000000 0.000000 0.036338 0.000000 0.000000
# 5 0.000000 0.000000 0.000000 0.000000 0.027570 0.000000
# 6 0.000000 0.000000 0.000000 0.000000 0.000000 0.036110
#
#
# Mechanical properties :
#
#
# Convention : Reuss Voigt Hill
#
# Bulk Modulus (GPa) = 37.31473 39.05098 38.18285
# Shear Modulus (GPa) = 19.87911 23.91860 21.89885
#
# Velocity S-wave (km/s) = 3.15904 3.46518 3.31565
# Velocity P-wave (km/s) = 5.66026 5.96775 5.81604
#
# Compressibility (1/GPa) = 0.02679907
#
# Stress axis : x y z
#
# Youngs Moduli (GPa) = 44.81459 27.56600 38.32368
#
# Poissons Ratio (x) = 0.20786 0.28441
# Poissons Ratio (y) = 0.33793 0.53580
# Poissons Ratio (z) = 0.33258 0.38540
#
# Static dielectric constant tensor:
#      x y z
#    x 3.686040 0.000000 0.000000 
#    y 0.000000 3.600210 0.000000 
#    z 0.000000 0.000000 3.832400 
# 
# 
# High freq. dielectric constant tensor:
#      x y z
#    x 1.786170 0.000000 0.000000 
#    y 0.000000 1.761060 0.000000 
#    z 0.000000 0.000000 1.788900 
# 
# From -- ./inp_files/21447.got.cif
#   From: 2010.03.12/outbox.cif.g09.slc.cpg/sg59_11_cif.got.tgz:21447.got - 2010.04.16 16:29:54.
