data_PCOD8240439
_publ_section_title
;
Structure prediction by ZEFSAII (Michael W. Deem and Ramdas Pophale) SiO2 
 PCOD8240439
Probable space group: P M M N
;
_chemical_formula_sum "Si O2"
_cell_formula_units_Z 64
_cell_length_a 9.475237
_cell_length_b 19.852581
_cell_length_c 17.574221
_cell_angle_alpha 90.000000
_cell_angle_beta 90.000000
_cell_angle_gamma 90.000000
_cell_volume 3305.849983
_symmetry_space_group_name_H-M "P M M N"
_symmetry_group_IT_number 59
_space_group.IT_coordinate_system_code '2'
_symmetry_cell_setting 'orthorhombic'
loop_
_space_group_symop_operation_xyz
x,y,z
1/2-x,1/2-y,z
1/2+x,-y,-z
-x,1/2+y,-z
-x,-y,-z
1/2+x,1/2+y,-z
1/2-x,y,z
x,1/2-y,z
loop_
_atom_site_type_symbol
_atom_site_label
_atom_site_fract_x
_atom_site_fract_y
_atom_site_fract_z
Si Si1 0.089288 0.676942 0.781253
Si Si2 0.903848 0.173497 0.766819
Si Si3 0.086870 0.173656 0.628679
Si Si4 0.914847 0.466915 0.275317
Si Si5 0.585800 0.533616 0.432985
Si Si6 0.585156 0.853354 0.924418
Si Si7 0.409195 0.497663 0.132593
Si Si8 0.412398 0.638375 0.068074
O O1 0.250000 0.666286 0.810053
O O2 0.076043 0.750000 0.738376
O O3 0.047984 0.613725 0.727184
O O4 0.986406 0.683138 0.853341
O O5 0.750000 0.136347 0.763404
O O6 0.881471 0.250000 0.744531
O O7 0.965938 0.168004 0.851540
O O8 0.009884 0.144976 0.703886
O O9 0.250000 0.175111 0.650311
O O10 0.040142 0.250000 0.602178
O O11 0.057386 0.115013 0.566440
O O12 0.750000 0.479618 0.263592
O O13 0.965449 0.498014 0.355047
O O14 0.992806 0.505471 0.206736
O O15 0.500000 0.500000 0.500000
O O16 0.750000 0.518772 0.446441
O O17 0.750000 0.834313 0.927569
O O18 0.554930 0.932231 0.916032
O O19 0.510379 0.830327 0.002482
O O20 0.250000 0.494618 0.163839
O O21 0.431147 0.558162 0.073708
O O22 0.250000 0.658929 0.052002
#
# Coordination Sequence:
#
# PCOD8240439 Si02
#       8
#     8   8   8   8   8   8   8   8
#     4   9  18  34  54  71  91 126 168 209 259 314
#     4   9  18  31  47  69  95 124 163 208 248 291
#     4   9  18  34  55  77 104 139 174 206 245 299
#     4   9  18  33  53  76  99 125 163 209 252 299
#     4  10  21  36  55  82 113 140 168 205 249 299
#     4  10  20  31  44  66  95 125 163 213 261 303
#     4   9  18  31  47  68  93 124 164 208 254 303
#     4  10  19  30  44  64  94 131 168 207 254 307
#
# _framework density 19.359618999999999
#
# number of rings (size 3 to 8) (size 9 to 14) (size 15 to 20)
#    0.000    2.625    0.000    1.500    0.000    3.250 
#    0.000    1.875    0.000    0.750    0.000    0.000 
#    0.000    0.000    0.000    0.000    0.000    0.000 
#
# Total GULP energy -793086.303013 kJ/mol
# GULP energy per Si atom -12391.973485 kJ/mol
# Density = 1.931556 g / cm^3
# Si number density = 19.359619 Si / 1000 Ang^3
#
#
#
# Elastic Constant Matrix: (Units=GPa)
#
#
# Indices 1 2 3 4 5 6 
#
# 1 66.2254 23.9469 46.6607 0.0000 0.0000 0.0000
# 2 23.9469 90.7289 34.2863 0.0000 0.0000 0.0000
# 3 46.6607 34.2863 91.3691 0.0000 0.0000 0.0000
# 4 0.0000 0.0000 0.0000 16.4508 0.0000 0.0000
# 5 0.0000 0.0000 0.0000 0.0000 33.4524 0.0000
# 6 0.0000 0.0000 0.0000 0.0000 0.0000 17.3886
#
#
#
# Elastic Compliance Matrix: (Units=1/GPa)
#
#
# Indices 1 2 3 4 5 6 
#
# 1 0.023887 -0.001975 -0.011457 0.000000 0.000000 0.000000
# 2 -0.001975 0.013006 -0.003872 0.000000 0.000000 0.000000
# 3 -0.011457 -0.003872 0.018249 0.000000 0.000000 0.000000
# 4 0.000000 0.000000 0.000000 0.060787 0.000000 0.000000
# 5 0.000000 0.000000 0.000000 0.000000 0.029893 0.000000
# 6 0.000000 0.000000 0.000000 0.000000 0.000000 0.057509
#
#
# Mechanical properties :
#
#
# Convention : Reuss Voigt Hill
#
# Bulk Modulus (GPa) = 48.70227 50.90124 49.80175
# Shear Modulus (GPa) = 20.42613 23.02034 21.72324
#
# Velocity S-wave (km/s) = 3.25174 3.45206 3.35340
# Velocity P-wave (km/s) = 6.26974 6.49912 6.38546
#
# Compressibility (1/GPa) = 0.02053292
#
# Stress axis : x y z
#
# Youngs Moduli (GPa) = 41.86432 76.88557 54.79821
#
# Poissons Ratio (x) = 0.15184 0.62785
# Poissons Ratio (y) = 0.08268 0.21218
# Poissons Ratio (z) = 0.47966 0.29771
#
# Static dielectric constant tensor:
#      x y z
#    x 3.650720 0.000000 0.000000 
#    y 0.000000 3.938070 0.000000 
#    z 0.000000 0.000000 3.182670 
# 
# 
# High freq. dielectric constant tensor:
#      x y z
#    x 1.748530 0.000000 0.000000 
#    y 0.000000 1.770190 0.000000 
#    z 0.000000 0.000000 1.716280 
# 
# From -- ./inp_files/26314.got.cif
#   From: 2010.03.12/outbox.cif.g09.slc.cpg/sg59_14_cif.got.tgz:26314.got - 2010.04.16 16:29:54.
