data_PCOD8240424
_publ_section_title
;
Structure prediction by ZEFSAII (Michael W. Deem and Ramdas Pophale) SiO2 
 PCOD8240424
Probable space group: P M M N
;
_chemical_formula_sum "Si O2"
_cell_formula_units_Z 56
_cell_length_a 25.401956
_cell_length_b 9.593449
_cell_length_c 14.335413
_cell_angle_alpha 90.000000
_cell_angle_beta 90.000000
_cell_angle_gamma 90.000000
_cell_volume 3493.430760
_symmetry_space_group_name_H-M "P M M N"
_symmetry_group_IT_number 59
_space_group.IT_coordinate_system_code '2'
_symmetry_cell_setting 'orthorhombic'
loop_
_space_group_symop_operation_xyz
x,y,z
1/2-x,1/2-y,z
1/2+x,-y,-z
-x,1/2+y,-z
-x,-y,-z
1/2+x,1/2+y,-z
1/2-x,y,z
x,1/2-y,z
loop_
_atom_site_type_symbol
_atom_site_label
_atom_site_fract_x
_atom_site_fract_y
_atom_site_fract_z
Si Si1 0.191954 0.415973 0.402998
Si Si2 0.939231 0.089951 0.088096
Si Si3 0.095608 0.084350 0.284394
Si Si4 0.937658 0.588880 0.914703
Si Si5 0.688912 0.589975 0.386632
Si Si6 0.502628 0.085939 0.405969
Si Si7 0.395273 0.912473 0.713213
O O1 0.250000 0.471820 0.374171
O O2 0.192331 0.250000 0.400766
O O3 0.148565 0.477006 0.331834
O O4 0.178187 0.463709 0.508050
O O5 0.928096 0.250000 0.063608
O O6 0.909586 0.044027 0.181626
O O7 0.000866 0.064013 0.103835
O O8 0.917191 0.998159 0.002973
O O9 0.095865 0.250000 0.285924
O O10 0.092771 0.033824 0.177256
O O11 0.044934 0.032298 0.341173
O O12 0.925446 0.750000 0.934647
O O13 0.750000 0.573001 0.361260
O O14 0.671144 0.750000 0.376451
O O15 0.656068 0.497638 0.315174
O O16 0.497727 0.250000 0.427580
O O17 0.556751 0.049630 0.354576
O O18 0.500000 0.000000 0.500000
O O19 0.382034 0.750000 0.707349
#
# Coordination Sequence:
#
# PCOD8240424 Si02
#       7
#     8   8   8   8   8   8   8
#     4   8  14  25  43  67  91 117 151 187 223 266
#     4   9  17  30  45  64  91 119 149 190 231 271
#     4   9  15  26  44  63  89 122 150 182 227 273
#     4   9  16  28  46  66  87 117 155 189 226 273
#     4   9  18  32  49  70  94 120 155 195 228 264
#     4  10  19  30  43  64  94 125 153 185 228 279
#     4  10  19  31  47  67  93 123 155 190 232 283
#
# _framework density 16.030087999999999
#
# number of rings (size 3 to 8) (size 9 to 14) (size 15 to 20)
#    0.000    2.857    1.429    1.714    0.000    2.571 
#    0.000    0.714    0.000    1.714    0.000    2.000 
#    0.000    0.000    0.000    0.000    0.000    0.000 
#
# Total GULP energy -694285.363751 kJ/mol
# GULP energy per Si atom -12397.952924 kJ/mol
# Density = 1.599360 g / cm^3
# Si number density = 16.030088 Si / 1000 Ang^3
#
#
#
# Elastic Constant Matrix: (Units=GPa)
#
#
# Indices 1 2 3 4 5 6 
#
# 1 81.4967 35.1857 64.5200 0.0000 0.0000 0.0000
# 2 35.1857 42.9111 56.0483 0.0000 0.0000 0.0000
# 3 64.5200 56.0483 150.5484 0.0000 0.0000 0.0000
# 4 0.0000 0.0000 0.0000 28.5579 0.0000 0.0000
# 5 0.0000 0.0000 0.0000 0.0000 25.1159 0.0000
# 6 0.0000 0.0000 0.0000 0.0000 0.0000 18.9634
#
#
#
# Elastic Compliance Matrix: (Units=1/GPa)
#
#
# Indices 1 2 3 4 5 6 
#
# 1 0.020751 -0.010510 -0.004980 0.000000 0.000000 0.000000
# 2 -0.010510 0.050686 -0.014366 0.000000 0.000000 0.000000
# 3 -0.004980 -0.014366 0.014125 0.000000 0.000000 0.000000
# 4 0.000000 0.000000 0.000000 0.035017 0.000000 0.000000
# 5 0.000000 0.000000 0.000000 0.000000 0.039815 0.000000
# 6 0.000000 0.000000 0.000000 0.000000 0.000000 0.052733
#
#
# Mechanical properties :
#
#
# Convention : Reuss Voigt Hill
#
# Bulk Modulus (GPa) = 38.68554 65.16268 51.92411
# Shear Modulus (GPa) = 17.76480 22.47426 20.11953
#
# Velocity S-wave (km/s) = 3.33260 3.74840 3.54660
# Velocity P-wave (km/s) = 6.24450 7.71184 7.01663
#
# Compressibility (1/GPa) = 0.02584945
#
# Stress axis : x y z
#
# Youngs Moduli (GPa) = 48.19048 19.72947 70.79621
#
# Poissons Ratio (x) = 0.20736 0.35259
# Poissons Ratio (y) = 0.50649 1.01704
# Poissons Ratio (z) = 0.24001 0.28343
#
# Static dielectric constant tensor:
#      x y z
#    x 3.077160 0.000000 0.000000 
#    y 0.000000 2.761980 0.000000 
#    z 0.000000 0.000000 3.159180 
# 
# 
# High freq. dielectric constant tensor:
#      x y z
#    x 1.603720 0.000000 0.000000 
#    y 0.000000 1.585890 0.000000 
#    z 0.000000 0.000000 1.619970 
# 
# From -- ./inp_files/16183.got.cif
#   From: 2010.03.12/outbox.cif.g09.slc.cpg/sg59_9_cif.got.tgz:16183.got - 2010.04.16 16:29:54.
