data_PCOD8240036
_publ_section_title
;
Structure prediction by ZEFSAII (Michael W. Deem and Ramdas Pophale) SiO2 
 PCOD8240036
Probable space group: P M M N
;
_chemical_formula_sum "Si O2"
_cell_formula_units_Z 48
_cell_length_a 11.254249
_cell_length_b 13.819802
_cell_length_c 15.981139
_cell_angle_alpha 90.000000
_cell_angle_beta 90.000000
_cell_angle_gamma 90.000000
_cell_volume 2485.570406
_symmetry_space_group_name_H-M "P M M N"
_symmetry_group_IT_number 59
_space_group.IT_coordinate_system_code '2'
_symmetry_cell_setting 'orthorhombic'
loop_
_space_group_symop_operation_xyz
x,y,z
1/2-x,1/2-y,z
1/2+x,-y,-z
-x,1/2+y,-z
-x,-y,-z
1/2+x,1/2+y,-z
1/2-x,y,z
x,1/2-y,z
loop_
_atom_site_type_symbol
_atom_site_label
_atom_site_fract_x
_atom_site_fract_y
_atom_site_fract_z
Si Si1 0.010696 0.961725 0.382456
Si Si2 0.750000 0.364260 0.640078
Si Si3 0.479895 0.864597 0.077731
Si Si4 0.114950 0.028760 0.790200
Si Si5 0.250000 0.634990 0.170269
Si Si6 0.111071 0.362844 0.469934
Si Si7 0.613317 0.141102 0.095520
O O1 0.132735 0.906015 0.403441
O O2 0.910389 0.911041 0.439227
O O3 0.031352 0.075497 0.403745
O O4 0.971676 0.947609 0.286508
O O5 0.750000 0.250000 0.630947
O O6 0.750000 0.400967 0.735049
O O7 0.482458 0.750000 0.082377
O O8 0.365710 0.907713 0.125439
O O9 0.593670 0.904598 0.127642
O O10 0.471575 0.896443 0.980229
O O11 0.250000 0.044256 0.760598
O O12 0.091933 0.919288 0.820390
O O13 0.250000 0.750000 0.164925
O O14 0.250000 0.371803 0.447760
O O15 0.071672 0.250000 0.468067
O O16 0.750000 0.133664 0.064448
O O17 0.580022 0.250000 0.119592
#
# Coordination Sequence:
#
# PCOD8240036 Si02
#       7
#     8   4   8   8   4   8   8
#     4  11  22  38  60  85 115 147 187 232 278 344
#     4  11  20  34  57  87 112 139 185 237 277 322
#     4  10  18  32  54  79 108 145 187 230 274 325
#     4  11  23  35  52  82 115 148 184 228 281 333
#     4   9  16  28  52  81 104 135 184 231 272 314
#     4  10  22  41  63  86 114 148 182 226 289 350
#     4   9  18  34  55  77 105 144 190 235 277 322
#
# _framework density 19.311461999999999
#
# number of rings (size 3 to 8) (size 9 to 14) (size 15 to 20)
#    0.000    1.833    3.333    1.500    0.000    1.667 
#    0.000    0.000    0.000    0.000    0.000    0.000 
#    0.000    0.000    0.000    0.000    0.000    0.000 
#
# Total GULP energy -595078.652769 kJ/mol
# GULP energy per Si atom -12397.471933 kJ/mol
# Density = 1.926751 g / cm^3
# Si number density = 19.311462 Si / 1000 Ang^3
#
#
#
# Elastic Constant Matrix: (Units=GPa)
#
#
# Indices 1 2 3 4 5 6 
#
# 1 64.8409 26.2808 20.6556 0.0000 0.0000 0.0000
# 2 26.2808 68.7113 10.4283 0.0000 0.0000 0.0000
# 3 20.6556 10.4283 61.2027 0.0000 0.0000 0.0000
# 4 0.0000 0.0000 0.0000 23.9899 0.0000 0.0000
# 5 0.0000 0.0000 0.0000 0.0000 19.3254 0.0000
# 6 0.0000 0.0000 0.0000 0.0000 0.0000 26.2462
#
#
#
# Elastic Compliance Matrix: (Units=1/GPa)
#
#
# Indices 1 2 3 4 5 6 
#
# 1 0.019948 -0.006783 -0.005577 0.000000 0.000000 0.000000
# 2 -0.006783 0.017247 -0.000649 0.000000 0.000000 0.000000
# 3 -0.005577 -0.000649 0.018332 0.000000 0.000000 0.000000
# 4 0.000000 0.000000 0.000000 0.041684 0.000000 0.000000
# 5 0.000000 0.000000 0.000000 0.000000 0.051745 0.000000
# 6 0.000000 0.000000 0.000000 0.000000 0.000000 0.038101
#
#
# Mechanical properties :
#
#
# Convention : Reuss Voigt Hill
#
# Bulk Modulus (GPa) = 33.88895 34.38715 34.13805
# Shear Modulus (GPa) = 22.43036 23.07162 22.75099
#
# Velocity S-wave (km/s) = 3.41178 3.46021 3.43608
# Velocity P-wave (km/s) = 5.75387 5.81458 5.78431
#
# Compressibility (1/GPa) = 0.02950814
#
# Stress axis : x y z
#
# Youngs Moduli (GPa) = 50.12964 57.98192 54.54985
#
# Poissons Ratio (x) = 0.39332 0.30420
# Poissons Ratio (y) = 0.34005 0.03542
# Poissons Ratio (z) = 0.27955 0.03765
#
# Static dielectric constant tensor:
#      x y z
#    x 3.471150 0.000000 0.000000 
#    y 0.000000 3.493380 0.000000 
#    z 0.000000 0.000000 3.382150 
# 
# 
# High freq. dielectric constant tensor:
#      x y z
#    x 1.743250 0.000000 0.000000 
#    y 0.000000 1.747120 0.000000 
#    z 0.000000 0.000000 1.744580 
# 
# From -- ./inp_files/22419.got.cif
#   From: 2010.03.12/outbox.cif.g09.slc.cpg/sg59_12_cif.got.tgz:22419.got - 2010.04.16 16:29:54.
