data_PCOD8240112
_publ_section_title
;
Structure prediction by ZEFSAII (Michael W. Deem and Ramdas Pophale) SiO2 
 PCOD8240112
Probable space group: P M M N
;
_chemical_formula_sum "Si O2"
_cell_formula_units_Z 64
_cell_length_a 14.005922
_cell_length_b 28.375308
_cell_length_c 8.852312
_cell_angle_alpha 90.000000
_cell_angle_beta 90.000000
_cell_angle_gamma 90.000000
_cell_volume 3518.106643
_symmetry_space_group_name_H-M "P M M N"
_symmetry_group_IT_number 59
_space_group.IT_coordinate_system_code '2'
_symmetry_cell_setting 'orthorhombic'
loop_
_space_group_symop_operation_xyz
x,y,z
1/2-x,1/2-y,z
1/2+x,-y,-z
-x,1/2+y,-z
-x,-y,-z
1/2+x,1/2+y,-z
1/2-x,y,z
x,1/2-y,z
loop_
_atom_site_type_symbol
_atom_site_label
_atom_site_fract_x
_atom_site_fract_y
_atom_site_fract_z
Si Si1 0.639357 0.804600 0.855532
Si Si2 0.352627 0.195671 0.496045
Si Si3 0.025819 0.872554 0.917488
Si Si4 0.497826 0.937035 0.638715
Si Si5 0.035436 0.653150 0.449951
Si Si6 0.359015 0.803708 0.722752
Si Si7 0.859874 0.397863 0.793881
Si Si8 0.140287 0.984961 0.426841
O O1 0.750000 0.814680 0.895872
O O2 0.614274 0.750000 0.896311
O O3 0.619310 0.813600 0.678672
O O4 0.571962 0.842278 0.943256
O O5 0.250000 0.171273 0.532128
O O6 0.339907 0.250000 0.526798
O O7 0.436534 0.177087 0.605376
O O8 0.013385 0.917057 0.806812
O O9 0.105091 0.836602 0.856942
O O10 0.065890 0.896234 0.068784
O O11 0.502015 0.895017 0.520675
O O12 0.408902 0.969590 0.585242
O O13 0.595497 0.966455 0.632552
O O14 0.084929 0.687479 0.568909
O O15 0.110081 0.645121 0.315693
O O16 0.250000 0.816266 0.691215
O O17 0.373910 0.750000 0.773589
O O18 0.750000 0.390668 0.845264
O O19 0.872419 0.446858 0.706137
O O20 0.250000 0.993636 0.465387
#
# Coordination Sequence:
#
# PCOD8240112 Si02
#       8
#     8   8   8   8   8   8   8   8
#     4   9  17  31  52  78 106 136 171 212 260 307
#     4   9  16  28  50  78 103 129 167 212 258 306
#     4  11  20  33  54  78 107 138 175 218 255 304
#     4   9  19  32  55  82  96 126 174 216 257 310
#     4  10  18  33  53  75 103 133 169 214 263 307
#     4  10  19  31  50  75 102 135 180 224 256 293
#     4  10  22  37  52  72 104 143 174 206 259 319
#     4   9  19  37  55  75 105 133 164 213 266 313
#
# _framework density 18.191603000000001
#
# number of rings (size 3 to 8) (size 9 to 14) (size 15 to 20)
#    0.000    2.375    2.500    2.250    0.000    5.000 
#    0.000    3.125    0.000    9.000    0.000    0.000 
#    0.000    0.000    0.000    0.000    0.000    0.000 
#
# Total GULP energy -793241.569030 kJ/mol
# GULP energy per Si atom -12394.399516 kJ/mol
# Density = 1.815020 g / cm^3
# Si number density = 18.191603 Si / 1000 Ang^3
#
#
#
# Elastic Constant Matrix: (Units=GPa)
#
#
# Indices 1 2 3 4 5 6 
#
# 1 135.6678 41.3627 24.6600 0.0000 0.0000 0.0000
# 2 41.3627 44.6770 10.9626 0.0000 0.0000 0.0000
# 3 24.6600 10.9626 49.0342 0.0000 0.0000 0.0000
# 4 0.0000 0.0000 0.0000 7.5484 0.0000 0.0000
# 5 0.0000 0.0000 0.0000 0.0000 -199.2764 0.0000
# 6 0.0000 0.0000 0.0000 0.0000 0.0000 31.3882
#
#
#
# Elastic Compliance Matrix: (Units=1/GPa)
#
#
# Indices 1 2 3 4 5 6 
#
# 1 0.010772 -0.009146 -0.003373 0.000000 0.000000 0.000000
# 2 -0.009146 0.031447 -0.002431 0.000000 0.000000 0.000000
# 3 -0.003373 -0.002431 0.022634 0.000000 0.000000 0.000000
# 4 0.000000 0.000000 0.000000 0.132478 0.000000 0.000000
# 5 0.000000 0.000000 0.000000 0.000000 -0.005018 0.000000
# 6 0.000000 0.000000 0.000000 0.000000 0.000000 0.031859
#
#
# Mechanical properties :
#
#
# Convention : Reuss Voigt Hill
#
# Bulk Modulus (GPa) = 28.60942 42.59440 35.60191
# Shear Modulus (GPa) = 18.81669 -21.90836 -1.54584
#
# Velocity S-wave (km/s) = 3.21964 -3.47408 -0.92282
# Velocity P-wave (km/s) = 5.43896 2.71529 4.29855
#
# Compressibility (1/GPa) = 0.03495352
#
# Stress axis : x y z
#
# Youngs Moduli (GPa) = 92.83024 31.80001 44.18186
#
# Poissons Ratio (x) = 0.29083 0.14902
# Poissons Ratio (y) = 0.84899 0.10741
# Poissons Ratio (z) = 0.31311 0.07731
#
# Static dielectric constant tensor:
#      x y z
#    x 3.534160 0.000000 0.000000 
#    y 0.000000 3.370520 0.000000 
#    z 0.000000 0.000000 3.064710 
# 
# 
# High freq. dielectric constant tensor:
#      x y z
#    x 1.724350 0.000000 0.000000 
#    y 0.000000 1.701560 0.000000 
#    z 0.000000 0.000000 1.664110 
# 
# From -- ./inp_files/9763.got.cif
#   From: 2010.03.12/outbox.cif.g09.slc.cpg/sg59_5_cif.got.tgz:9763.got - 2010.04.16 16:29:54.
