data_PCOD8240391
_publ_section_title
;
Structure prediction by ZEFSAII (Michael W. Deem and Ramdas Pophale) SiO2 
 PCOD8240391
Probable space group: P M M N
;
_chemical_formula_sum "Si O2"
_cell_formula_units_Z 64
_cell_length_a 9.414750
_cell_length_b 19.079838
_cell_length_c 21.299710
_cell_angle_alpha 90.000000
_cell_angle_beta 90.000000
_cell_angle_gamma 90.000000
_cell_volume 3826.107479
_symmetry_space_group_name_H-M "P M M N"
_symmetry_group_IT_number 59
_space_group.IT_coordinate_system_code '2'
_symmetry_cell_setting 'orthorhombic'
loop_
_space_group_symop_operation_xyz
x,y,z
1/2-x,1/2-y,z
1/2+x,-y,-z
-x,1/2+y,-z
-x,-y,-z
1/2+x,1/2+y,-z
1/2-x,y,z
x,1/2-y,z
loop_
_atom_site_type_symbol
_atom_site_label
_atom_site_fract_x
_atom_site_fract_y
_atom_site_fract_z
Si Si1 0.906529 0.631494 0.240553
Si Si2 0.593779 0.475214 0.192171
Si Si3 0.583792 0.088572 0.649081
Si Si4 0.587377 0.167616 0.390423
Si Si5 0.081627 0.672350 0.469505
Si Si6 0.917334 0.565014 0.695302
Si Si7 0.418398 0.325631 0.890707
Si Si8 0.582069 0.970848 0.058961
O O1 0.750000 0.660366 0.258826
O O2 0.892449 0.551741 0.220169
O O3 0.973847 0.672900 0.181355
O O4 0.009292 0.638659 0.299979
O O5 0.750000 0.438998 0.195638
O O6 0.480375 0.432659 0.233906
O O7 0.544052 0.481371 0.119579
O O8 0.750000 0.100768 0.657080
O O9 0.529428 0.114342 0.580726
O O10 0.544176 0.007231 0.659198
O O11 0.750000 0.142521 0.380826
O O12 0.575230 0.250000 0.377592
O O13 0.532485 0.149776 0.460802
O O14 0.485135 0.128424 0.342601
O O15 0.250000 0.676966 0.470011
O O16 0.021167 0.750000 0.452817
O O17 0.750000 0.576146 0.700564
O O18 0.250000 0.334353 0.886551
O O19 0.462260 0.250000 0.920523
O O20 0.475709 0.390978 0.931177
O O21 0.750000 0.971921 0.046159
O O22 0.500000 0.000000 0.000000
#
# Coordination Sequence:
#
# PCOD8240391 Si02
#       8
#     8   8   8   8   8   8   8   8
#     4   8  14  25  41  61  85 114 147 180 213 253
#     4   8  15  29  46  64  88 117 148 178 212 263
#     4   9  17  28  42  64  93 120 147 181 223 268
#     4   9  18  33  51  66  81 111 155 193 228 277
#     4   8  15  29  46  61  82 117 156 187 218 268
#     4  10  19  29  45  70  95 116 141 184 236 272
#     4   8  14  26  44  65  90 121 156 189 219 258
#     4   9  17  29  48  72  95 123 157 190 225 265
#
# _framework density 16.727181999999999
#
# number of rings (size 3 to 8) (size 9 to 14) (size 15 to 20)
#    0.000    3.375    0.000    2.625    0.000    2.250 
#    0.000    2.500    0.000    2.625    0.000    3.500 
#    0.000    0.000    0.000    0.000    0.000    0.000 
#
# Total GULP energy -793010.618227 kJ/mol
# GULP energy per Si atom -12390.790910 kJ/mol
# Density = 1.668911 g / cm^3
# Si number density = 16.727182 Si / 1000 Ang^3
#
#
#
# Elastic Constant Matrix: (Units=GPa)
#
#
# Indices 1 2 3 4 5 6 
#
# 1 56.4557 34.3446 52.4107 0.0000 0.0000 0.0000
# 2 34.3446 69.3429 58.8730 0.0000 0.0000 0.0000
# 3 52.4107 58.8730 133.1842 0.0000 0.0000 0.0000
# 4 0.0000 0.0000 0.0000 19.3206 0.0000 0.0000
# 5 0.0000 0.0000 0.0000 0.0000 27.1175 0.0000
# 6 0.0000 0.0000 0.0000 0.0000 0.0000 13.4719
#
#
#
# Elastic Compliance Matrix: (Units=1/GPa)
#
#
# Indices 1 2 3 4 5 6 
#
# 1 0.030352 -0.007831 -0.008482 0.000000 0.000000 0.000000
# 2 -0.007831 0.025105 -0.008016 0.000000 0.000000 0.000000
# 3 -0.008482 -0.008016 0.014390 0.000000 0.000000 0.000000
# 4 0.000000 0.000000 0.000000 0.051758 0.000000 0.000000
# 5 0.000000 0.000000 0.000000 0.000000 0.036877 0.000000
# 6 0.000000 0.000000 0.000000 0.000000 0.000000 0.074229
#
#
# Mechanical properties :
#
#
# Convention : Reuss Voigt Hill
#
# Bulk Modulus (GPa) = 47.19659 61.13771 54.16715
# Shear Modulus (GPa) = 17.33515 19.53897 18.43706
#
# Velocity S-wave (km/s) = 3.22273 3.42145 3.32357
# Velocity P-wave (km/s) = 6.49035 7.22757 6.86886
#
# Compressibility (1/GPa) = 0.02118797
#
# Stress axis : x y z
#
# Youngs Moduli (GPa) = 32.94726 39.83209 69.49418
#
# Poissons Ratio (x) = 0.31193 0.58947
# Poissons Ratio (y) = 0.25802 0.55706
# Poissons Ratio (z) = 0.27947 0.31929
#
# Static dielectric constant tensor:
#      x y z
#    x 3.065570 0.000000 0.000000 
#    y 0.000000 3.060610 0.000000 
#    z 0.000000 0.000000 3.279380 
# 
# 
# High freq. dielectric constant tensor:
#      x y z
#    x 1.618990 0.000000 0.000000 
#    y 0.000000 1.625670 0.000000 
#    z 0.000000 0.000000 1.638950 
# 
# From -- ./inp_files/29760.got.cif
#   From: 2010.03.12/outbox.cif.g09.slc.cpg/sg59_15_cif.got.tgz:29760.got - 2010.04.16 16:29:54.
