data_PCOD8240132
_publ_section_title
;
Structure prediction by ZEFSAII (Michael W. Deem and Ramdas Pophale) SiO2 
 PCOD8240132
Probable space group: P M M N
;
_chemical_formula_sum "Si O2"
_cell_formula_units_Z 64
_cell_length_a 9.073826
_cell_length_b 18.898298
_cell_length_c 20.032756
_cell_angle_alpha 90.000000
_cell_angle_beta 90.000000
_cell_angle_gamma 90.000000
_cell_volume 3435.214350
_symmetry_space_group_name_H-M "P M M N"
_symmetry_group_IT_number 59
_space_group.IT_coordinate_system_code '2'
_symmetry_cell_setting 'orthorhombic'
loop_
_space_group_symop_operation_xyz
x,y,z
1/2-x,1/2-y,z
1/2+x,-y,-z
-x,1/2+y,-z
-x,-y,-z
1/2+x,1/2+y,-z
1/2-x,y,z
x,1/2-y,z
loop_
_atom_site_type_symbol
_atom_site_label
_atom_site_fract_x
_atom_site_fract_y
_atom_site_fract_z
Si Si1 0.078668 0.426459 0.988965
Si Si2 0.424799 0.438444 0.216077
Si Si3 0.418891 0.168448 0.717029
Si Si4 0.582654 0.926828 0.160907
Si Si5 0.423688 0.594805 0.401039
Si Si6 0.075638 0.439348 0.365602
Si Si7 0.925223 0.671059 0.892794
Si Si8 0.424526 0.168874 0.475316
O O1 0.250000 0.438823 0.003136
O O2 0.048279 0.399850 0.913799
O O3 0.016045 0.368207 0.040620
O O4 0.000000 0.500000 0.000000
O O5 0.250000 0.441852 0.218817
O O6 0.477074 0.509395 0.180524
O O7 0.491506 0.432461 0.291029
O O8 0.478613 0.371130 0.173071
O O9 0.250000 0.157003 0.693459
O O10 0.462329 0.250000 0.716400
O O11 0.443570 0.140112 0.791580
O O12 0.529743 0.127496 0.669187
O O13 0.750000 0.954780 0.166381
O O14 0.250000 0.603007 0.410476
O O15 0.473181 0.512657 0.400584
O O16 0.504364 0.636259 0.459276
O O17 0.250000 0.437009 0.359876
O O18 0.018439 0.374347 0.410747
O O19 0.750000 0.675145 0.894389
O O20 0.992878 0.750000 0.890283
O O21 0.250000 0.162761 0.483243
O O22 0.474602 0.250000 0.466893
#
# Coordination Sequence:
#
# PCOD8240132 Si02
#       8
#     8   8   8   8   8   8   8   8
#     4  10  19  32  53  78 106 140 178 219 261 313
#     4  10  18  33  56  79 106 139 176 219 263 314
#     4  10  21  36  53  76 107 141 175 213 262 316
#     4  10  20  33  52  78 105 137 177 218 261 311
#     4  11  21  35  56  80 107 138 174 218 262 314
#     4   9  19  34  54  80 105 134 176 218 260 310
#     4   9  18  31  51  81 110 138 176 222 268 309
#     4  10  21  37  55  76 106 141 175 215 264 316
#
# _framework density 18.630569000000001
#
# number of rings (size 3 to 8) (size 9 to 14) (size 15 to 20)
#    0.000    2.125    2.500    1.125    0.000    3.000 
#    0.000    6.250    0.000    1.500    0.000    1.750 
#    0.000    0.000    0.000    0.000    0.000    0.000 
#
# Total GULP energy -793595.622019 kJ/mol
# GULP energy per Si atom -12399.931594 kJ/mol
# Density = 1.858816 g / cm^3
# Si number density = 18.630569 Si / 1000 Ang^3
#
#
#
# Elastic Constant Matrix: (Units=GPa)
#
#
# Indices 1 2 3 4 5 6 
#
# 1 18.5065 25.2524 25.9285 0.0000 0.0000 0.0000
# 2 25.2524 148.3852 61.9503 0.0000 0.0000 0.0000
# 3 25.9285 61.9503 115.1797 0.0000 0.0000 0.0000
# 4 0.0000 0.0000 0.0000 36.0631 0.0000 0.0000
# 5 0.0000 0.0000 0.0000 0.0000 19.9638 0.0000
# 6 0.0000 0.0000 0.0000 0.0000 0.0000 22.6525
#
#
#
# Elastic Compliance Matrix: (Units=1/GPa)
#
#
# Indices 1 2 3 4 5 6 
#
# 1 0.086515 -0.008501 -0.014903 0.000000 0.000000 0.000000
# 2 -0.008501 0.009526 -0.003210 0.000000 0.000000 0.000000
# 3 -0.014903 -0.003210 0.013764 0.000000 0.000000 0.000000
# 4 0.000000 0.000000 0.000000 0.027729 0.000000 0.000000
# 5 0.000000 0.000000 0.000000 0.000000 0.050091 0.000000
# 6 0.000000 0.000000 0.000000 0.000000 0.000000 0.044145
#
#
# Mechanical properties :
#
#
# Convention : Reuss Voigt Hill
#
# Bulk Modulus (GPa) = 17.67537 56.48155 37.07846
# Shear Modulus (GPa) = 16.45508 26.99855 21.72682
#
# Velocity S-wave (km/s) = 2.97514 3.81090 3.41866
# Velocity P-wave (km/s) = 4.61626 7.05311 5.96055
#
# Compressibility (1/GPa) = 0.05657591
#
# Stress axis : x y z
#
# Youngs Moduli (GPa) = 11.55867 104.97467 72.65587
#
# Poissons Ratio (x) = 0.89241 1.08281
# Poissons Ratio (y) = 0.09826 0.23322
# Poissons Ratio (z) = 0.17226 0.33696
#
# Static dielectric constant tensor:
#      x y z
#    x 3.159000 0.000000 0.000000 
#    y 0.000000 3.603220 0.000000 
#    z 0.000000 0.000000 3.827990 
# 
# 
# High freq. dielectric constant tensor:
#      x y z
#    x 1.689600 0.000000 0.000000 
#    y 0.000000 1.726080 0.000000 
#    z 0.000000 0.000000 1.740070 
# 
# From -- ./inp_files/26173.got.cif
#   From: 2010.03.12/outbox.cif.g09.slc.cpg/sg59_14_cif.got.tgz:26173.got - 2010.04.16 16:29:54.
