data_PCOD8240873
_publ_section_title
;
Structure prediction by ZEFSAII (Michael W. Deem and Ramdas Pophale) SiO2 
 PCOD8240873
Probable space group: P M M N
;
_chemical_formula_sum "Si O2"
_cell_formula_units_Z 56
_cell_length_a 20.310154
_cell_length_b 13.313269
_cell_length_c 10.904859
_cell_angle_alpha 90.000000
_cell_angle_beta 90.000000
_cell_angle_gamma 90.000000
_cell_volume 2948.614373
_symmetry_space_group_name_H-M "P M M N"
_symmetry_group_IT_number 59
_space_group.IT_coordinate_system_code '2'
_symmetry_cell_setting 'orthorhombic'
loop_
_space_group_symop_operation_xyz
x,y,z
1/2-x,1/2-y,z
1/2+x,-y,-z
-x,1/2+y,-z
-x,-y,-z
1/2+x,1/2+y,-z
1/2-x,y,z
x,1/2-y,z
loop_
_atom_site_type_symbol
_atom_site_label
_atom_site_fract_x
_atom_site_fract_y
_atom_site_fract_z
Si Si1 0.554288 0.862537 0.763408
Si Si2 0.923298 0.868455 0.478932
Si Si3 0.440808 0.960771 0.077808
Si Si4 0.324504 0.516503 0.645974
Si Si5 0.402707 0.865023 0.841269
Si Si6 0.543940 0.365919 0.678919
Si Si7 0.179542 0.632571 0.411429
O O1 0.579338 0.750000 0.793115
O O2 0.568828 0.891617 0.622957
O O3 0.476452 0.871736 0.788396
O O4 0.591804 0.942671 0.851952
O O5 0.914322 0.750000 0.455709
O O6 0.988093 0.911731 0.409406
O O7 0.860508 0.922990 0.419763
O O8 0.471615 0.885536 0.179059
O O9 0.394537 0.899161 0.984345
O O10 0.500000 0.000000 0.000000
O O11 0.250000 0.481880 0.675722
O O12 0.358322 0.555104 0.769545
O O13 0.325804 0.611698 0.555705
O O14 0.377270 0.750000 0.830688
O O15 0.547607 0.250000 0.647709
O O16 0.615844 0.416133 0.653903
O O17 0.250000 0.587974 0.361813
O O18 0.179772 0.750000 0.388735
#
# Coordination Sequence:
#
# PCOD8240873 Si02
#       7
#     8   8   8   8   8   8   8
#     4   9  18  32  53  81 109 136 171 218 269 318
#     4  10  20  34  54  80 106 134 173 222 272 318
#     4  10  19  31  49  73 106 143 178 217 257 300
#     4  11  22  35  52  74 102 138 176 216 266 319
#     4  10  20  34  51  75 107 141 178 217 258 312
#     4  10  19  32  53  79 105 134 170 214 265 318
#     4   9  18  32  51  77 106 132 160 202 260 322
#
# _framework density 18.991969999999998
#
# number of rings (size 3 to 8) (size 9 to 14) (size 15 to 20)
#    0.000    2.143    0.000    4.286    0.000    5.714 
#    0.000    1.429    0.000    2.571    0.000    0.000 
#    0.000    2.286    0.000    0.000    0.000    0.000 
#
# Total GULP energy -693811.835785 kJ/mol
# GULP energy per Si atom -12389.497068 kJ/mol
# Density = 1.894874 g / cm^3
# Si number density = 18.991970 Si / 1000 Ang^3
#
#
#
# Elastic Constant Matrix: (Units=GPa)
#
#
# Indices 1 2 3 4 5 6 
#
# 1 85.6326 30.6298 36.8110 0.0000 0.0000 0.0000
# 2 30.6298 81.6253 44.7508 0.0000 0.0000 0.0000
# 3 36.8110 44.7508 127.1272 0.0000 0.0000 0.0000
# 4 0.0000 0.0000 0.0000 40.6853 0.0000 0.0000
# 5 0.0000 0.0000 0.0000 0.0000 16.4650 0.0000
# 6 0.0000 0.0000 0.0000 0.0000 0.0000 20.2006
#
#
#
# Elastic Compliance Matrix: (Units=1/GPa)
#
#
# Indices 1 2 3 4 5 6 
#
# 1 0.014238 -0.003820 -0.002778 0.000000 0.000000 0.000000
# 2 -0.003820 0.016206 -0.004599 0.000000 0.000000 0.000000
# 3 -0.002778 -0.004599 0.010289 0.000000 0.000000 0.000000
# 4 0.000000 0.000000 0.000000 0.024579 0.000000 0.000000
# 5 0.000000 0.000000 0.000000 0.000000 0.060735 0.000000
# 6 0.000000 0.000000 0.000000 0.000000 0.000000 0.049503
#
#
# Mechanical properties :
#
#
# Convention : Reuss Voigt Hill
#
# Bulk Modulus (GPa) = 54.52511 57.64094 56.08302
# Shear Modulus (GPa) = 24.50291 27.61640 26.05966
#
# Velocity S-wave (km/s) = 3.59579 3.81742 3.70826
# Velocity P-wave (km/s) = 6.78318 7.06019 6.92307
#
# Compressibility (1/GPa) = 0.01834017
#
# Stress axis : x y z
#
# Youngs Moduli (GPa) = 70.23271 61.70694 97.18744
#
# Poissons Ratio (x) = 0.23571 0.27001
# Poissons Ratio (y) = 0.26827 0.44693
# Poissons Ratio (z) = 0.19512 0.28377
#
# Static dielectric constant tensor:
#      x y z
#    x 3.581840 0.000000 0.000000 
#    y 0.000000 3.731250 0.000000 
#    z 0.000000 0.000000 3.458260 
# 
# 
# High freq. dielectric constant tensor:
#      x y z
#    x 1.705230 0.000000 0.000000 
#    y 0.000000 1.747490 0.000000 
#    z 0.000000 0.000000 1.738950 
# 
# From -- ./inp_files/11445.got.cif
#   From: 2010.03.12/outbox.cif.g09.slc.cpg/sg59_6_cif.got.tgz:11445.got - 2010.04.16 16:29:54.
