data_PCOD8240243
_publ_section_title
;
Structure prediction by ZEFSAII (Michael W. Deem and Ramdas Pophale) SiO2 
 PCOD8240243
Probable space group: P M M N
;
_chemical_formula_sum "Si O2"
_cell_formula_units_Z 64
_cell_length_a 18.504052
_cell_length_b 9.399766
_cell_length_c 21.657819
_cell_angle_alpha 90.000000
_cell_angle_beta 90.000000
_cell_angle_gamma 90.000000
_cell_volume 3767.025867
_symmetry_space_group_name_H-M "P M M N"
_symmetry_group_IT_number 59
_space_group.IT_coordinate_system_code '2'
_symmetry_cell_setting 'orthorhombic'
loop_
_space_group_symop_operation_xyz
x,y,z
1/2-x,1/2-y,z
1/2+x,-y,-z
-x,1/2+y,-z
-x,-y,-z
1/2+x,1/2+y,-z
1/2-x,y,z
x,1/2-y,z
loop_
_atom_site_type_symbol
_atom_site_label
_atom_site_fract_x
_atom_site_fract_y
_atom_site_fract_z
Si Si1 0.525983 0.419548 0.560009
Si Si2 0.335371 0.085697 0.136143
Si Si3 0.667825 0.582144 0.231595
Si Si4 0.664247 0.409184 0.115335
Si Si5 0.329175 0.918385 0.377893
Si Si6 0.540872 0.917445 0.314686
Si Si7 0.103676 0.917483 0.250482
Si Si8 0.835865 0.409894 0.979389
O O1 0.500000 0.500000 0.500000
O O2 0.520945 0.250000 0.550375
O O3 0.608436 0.468924 0.574869
O O4 0.475165 0.474604 0.616397
O O5 0.250000 0.064186 0.142745
O O6 0.357439 0.250000 0.136820
O O7 0.374088 0.006212 0.191488
O O8 0.364914 0.018527 0.072175
O O9 0.750000 0.533887 0.245750
O O10 0.662408 0.750000 0.222889
O O11 0.636470 0.514437 0.168621
O O12 0.618093 0.528791 0.288645
O O13 0.750000 0.412288 0.114504
O O14 0.636688 0.250000 0.130078
O O15 0.635726 0.457214 0.047507
O O16 0.250000 0.979709 0.396996
O O17 0.328424 0.750000 0.379343
O O18 0.346422 0.965295 0.307947
O O19 0.540023 0.750000 0.320774
O O20 0.478362 0.960885 0.266740
O O21 0.112036 0.750000 0.236479
O O22 0.750000 0.411928 0.979736
O O23 0.862982 0.250000 0.964359
#
# Coordination Sequence:
#
# PCOD8240243 Si02
#       8
#     8   8   8   8   8   8   8   8
#     4   9  17  31  50  69  93 123 151 181 216 258
#     4  10  19  27  37  60  93 119 140 178 228 267
#     4   9  16  27  46  69  90 114 144 178 220 270
#     4   8  14  25  41  62  87 112 142 185 229 262
#     4   8  14  26  46  69  88 112 152 193 220 248
#     4   8  16  31  48  67  90 116 147 180 214 256
#     4   9  16  28  47  64  81 113 153 186 215 256
#     4   8  14  25  40  57  80 114 152 183 215 262
#
# _framework density 16.989529999999998
#
# number of rings (size 3 to 8) (size 9 to 14) (size 15 to 20)
#    0.000    3.375    0.000    3.000    0.000    1.750 
#    0.000    6.875    0.000    2.625    0.000    0.000 
#    0.000    0.000    0.000    0.000    0.000    0.000 
#
# Total GULP energy -793012.806764 kJ/mol
# GULP energy per Si atom -12390.825106 kJ/mol
# Density = 1.695086 g / cm^3
# Si number density = 16.989530 Si / 1000 Ang^3
#
#
#
# Elastic Constant Matrix: (Units=GPa)
#
#
# Indices 1 2 3 4 5 6 
#
# 1 86.5797 32.8537 71.4869 0.0000 0.0000 0.0000
# 2 32.8537 56.0034 56.4842 0.0000 0.0000 0.0000
# 3 71.4869 56.4842 151.9313 0.0000 0.0000 0.0000
# 4 0.0000 0.0000 0.0000 30.6606 0.0000 0.0000
# 5 0.0000 0.0000 0.0000 0.0000 22.1352 0.0000
# 6 0.0000 0.0000 0.0000 0.0000 0.0000 12.9232
#
#
#
# Elastic Compliance Matrix: (Units=1/GPa)
#
#
# Indices 1 2 3 4 5 6 
#
# 1 0.019298 -0.003460 -0.007794 0.000000 0.000000 0.000000
# 2 -0.003460 0.029189 -0.009223 0.000000 0.000000 0.000000
# 3 -0.007794 -0.009223 0.013678 0.000000 0.000000 0.000000
# 4 0.000000 0.000000 0.000000 0.032615 0.000000 0.000000
# 5 0.000000 0.000000 0.000000 0.000000 0.045177 0.000000
# 6 0.000000 0.000000 0.000000 0.000000 0.000000 0.077380
#
#
# Mechanical properties :
#
#
# Convention : Reuss Voigt Hill
#
# Bulk Modulus (GPa) = 47.14787 68.46266 57.80527
# Shear Modulus (GPa) = 18.84218 22.05646 20.44932
#
# Velocity S-wave (km/s) = 3.33385 3.60702 3.47312
# Velocity P-wave (km/s) = 6.52922 7.59815 7.08388
#
# Compressibility (1/GPa) = 0.02120987
#
# Stress axis : x y z
#
# Youngs Moduli (GPa) = 51.81811 34.25984 73.10971
#
# Poissons Ratio (x) = 0.11855 0.56980
# Poissons Ratio (y) = 0.17931 0.67432
# Poissons Ratio (z) = 0.40386 0.31599
#
# Static dielectric constant tensor:
#      x y z
#    x 3.418100 0.000000 0.000000 
#    y 0.000000 2.969650 0.000000 
#    z 0.000000 0.000000 3.397470 
# 
# 
# High freq. dielectric constant tensor:
#      x y z
#    x 1.631320 0.000000 0.000000 
#    y 0.000000 1.627640 0.000000 
#    z 0.000000 0.000000 1.656290 
# 
# From -- ./inp_files/31026.got.cif
#   From: 2010.03.12/outbox.cif.g09.slc.cpg/sg59_16_cif.got.tgz:31026.got - 2010.04.16 16:29:54.
