data_PCOD8240433
_publ_section_title
;
Structure prediction by ZEFSAII (Michael W. Deem and Ramdas Pophale) SiO2 
 PCOD8240433
Probable space group: P M M N
;
_chemical_formula_sum "Si O2"
_cell_formula_units_Z 48
_cell_length_a 13.033439
_cell_length_b 29.569340
_cell_length_c 7.693992
_cell_angle_alpha 90.000000
_cell_angle_beta 90.000000
_cell_angle_gamma 90.000000
_cell_volume 2965.189032
_symmetry_space_group_name_H-M "P M M N"
_symmetry_group_IT_number 59
_space_group.IT_coordinate_system_code '2'
_symmetry_cell_setting 'orthorhombic'
loop_
_space_group_symop_operation_xyz
x,y,z
1/2-x,1/2-y,z
1/2+x,-y,-z
-x,1/2+y,-z
-x,-y,-z
1/2+x,1/2+y,-z
1/2-x,y,z
x,1/2-y,z
loop_
_atom_site_type_symbol
_atom_site_label
_atom_site_fract_x
_atom_site_fract_y
_atom_site_fract_z
Si Si1 0.870160 0.799867 0.161787
Si Si2 0.987334 0.061059 0.145828
Si Si3 0.367322 0.141181 0.157127
Si Si4 0.130756 0.130078 0.552676
Si Si5 0.132261 0.974359 0.158495
Si Si6 0.474344 0.947741 0.479217
O O1 0.750000 0.796373 0.195926
O O2 0.920090 0.750000 0.185026
O O3 0.914678 0.834581 0.306074
O O4 0.892182 0.815662 0.963702
O O5 0.934526 0.070166 0.333762
O O6 0.058887 0.102066 0.087223
O O7 0.895808 0.055351 0.009592
O O8 0.061293 0.018066 0.160690
O O9 0.250000 0.125390 0.128335
O O10 0.386270 0.151729 0.360844
O O11 0.250000 0.119640 0.587298
O O12 0.073861 0.081943 0.573510
O O13 0.250000 0.989108 0.151247
O O14 0.111754 0.943619 0.329736
O O15 0.500000 0.000000 0.500000
#
# Coordination Sequence:
#
# PCOD8240433 Si02
#       6
#     8   8   8   8   8   8
#     4   9  17  27  40  62  90 119 152 185 217 261
#     4   9  18  31  44  63  86 113 151 185 213 257
#     4   9  16  27  44  62  84 116 148 179 216 256
#     4   9  17  29  45  64  89 123 155 183 220 266
#     4  10  19  30  44  62  87 117 147 182 222 258
#     4   9  18  30  44  64  88 115 152 191 220 257
#
# _framework density 16.187837999999999
#
# number of rings (size 3 to 8) (size 9 to 14) (size 15 to 20)
#    0.000    2.833    0.000    1.500    0.000    5.333 
#    0.000   11.667    0.000    0.000    0.000    0.000 
#    0.000   10.667    0.000   29.333    0.000    1.667 
#
# Total GULP energy -594810.723562 kJ/mol
# GULP energy per Si atom -12391.890074 kJ/mol
# Density = 1.615099 g / cm^3
# Si number density = 16.187838 Si / 1000 Ang^3
#
#
#
# Elastic Constant Matrix: (Units=GPa)
#
#
# Indices 1 2 3 4 5 6 
#
# 1 46.2301 15.6837 35.3749 0.0000 0.0000 0.0000
# 2 15.6837 92.8143 39.1877 0.0000 0.0000 0.0000
# 3 35.3749 39.1877 107.3054 0.0000 0.0000 0.0000
# 4 0.0000 0.0000 0.0000 23.4045 0.0000 0.0000
# 5 0.0000 0.0000 0.0000 0.0000 20.1666 0.0000
# 6 0.0000 0.0000 0.0000 0.0000 0.0000 16.8400
#
#
#
# Elastic Compliance Matrix: (Units=1/GPa)
#
#
# Indices 1 2 3 4 5 6 
#
# 1 0.029010 -0.001022 -0.009190 0.000000 0.000000 0.000000
# 2 -0.001022 0.012774 -0.004328 0.000000 0.000000 0.000000
# 3 -0.009190 -0.004328 0.013930 0.000000 0.000000 0.000000
# 4 0.000000 0.000000 0.000000 0.042727 0.000000 0.000000
# 5 0.000000 0.000000 0.000000 0.000000 0.049587 0.000000
# 6 0.000000 0.000000 0.000000 0.000000 0.000000 0.059382
#
#
# Mechanical properties :
#
#
# Convention : Reuss Voigt Hill
#
# Bulk Modulus (GPa) = 37.54746 47.42695 42.48720
# Shear Modulus (GPa) = 20.37748 22.48912 21.43330
#
# Velocity S-wave (km/s) = 3.55183 3.73132 3.64268
# Velocity P-wave (km/s) = 6.32976 6.92280 6.63291
#
# Compressibility (1/GPa) = 0.02663296
#
# Stress axis : x y z
#
# Youngs Moduli (GPa) = 34.47085 78.28183 71.78909
#
# Poissons Ratio (x) = 0.07998 0.65978
# Poissons Ratio (y) = 0.03522 0.31073
# Poissons Ratio (z) = 0.31680 0.33883
#
# Static dielectric constant tensor:
#      x y z
#    x 2.699580 0.000000 0.000000 
#    y 0.000000 3.031120 0.000000 
#    z 0.000000 0.000000 3.612860 
# 
# 
# High freq. dielectric constant tensor:
#      x y z
#    x 1.571110 0.000000 0.000000 
#    y 0.000000 1.601210 0.000000 
#    z 0.000000 0.000000 1.649230 
# 
# From -- ./inp_files/7581.got.cif
#   From: 2010.03.12/outbox.cif.g09.slc.cpg/sg59_4_cif.got.tgz:7581.got - 2010.04.16 16:29:54.
