data_PCOD8240528
_publ_section_title
;
Structure prediction by ZEFSAII (Michael W. Deem and Ramdas Pophale) SiO2 
 PCOD8240528
Probable space group: P M M N
;
_chemical_formula_sum "Si O2"
_cell_formula_units_Z 56
_cell_length_a 15.341231
_cell_length_b 13.799057
_cell_length_c 13.513743
_cell_angle_alpha 90.000000
_cell_angle_beta 90.000000
_cell_angle_gamma 90.000000
_cell_volume 2860.785352
_symmetry_space_group_name_H-M "P M M N"
_symmetry_group_IT_number 59
_space_group.IT_coordinate_system_code '2'
_symmetry_cell_setting 'orthorhombic'
loop_
_space_group_symop_operation_xyz
x,y,z
1/2-x,1/2-y,z
1/2+x,-y,-z
-x,1/2+y,-z
-x,-y,-z
1/2+x,1/2+y,-z
1/2-x,y,z
x,1/2-y,z
loop_
_atom_site_type_symbol
_atom_site_label
_atom_site_fract_x
_atom_site_fract_y
_atom_site_fract_z
Si Si1 0.346677 0.044988 0.327781
Si Si2 0.151607 0.643215 0.001635
Si Si3 0.103509 0.040763 0.107058
Si Si4 0.348552 0.859330 0.449142
Si Si5 0.083507 0.545228 0.825447
Si Si6 0.472990 0.862419 0.630922
Si Si7 0.650447 0.641840 0.090205
O O1 0.250000 0.080405 0.364322
O O2 0.344873 0.051121 0.209383
O O3 0.424564 0.108608 0.375740
O O4 0.361971 0.933197 0.358675
O O5 0.250000 0.645638 0.040230
O O6 0.109286 0.750000 0.007793
O O7 0.154678 0.605441 0.887570
O O8 0.098545 0.570965 0.072112
O O9 0.005986 0.076764 0.122256
O O10 0.147696 0.106565 0.023589
O O11 0.250000 0.869768 0.493448
O O12 0.362361 0.750000 0.409102
O O13 0.422382 0.883824 0.529767
O O14 0.079671 0.574143 0.711116
O O15 0.099134 0.429811 0.835565
O O16 0.467423 0.750000 0.660190
O O17 0.750000 0.642428 0.124601
O O18 0.610729 0.750000 0.098870
#
# Coordination Sequence:
#
# PCOD8240528 Si02
#       7
#     8   8   8   8   8   8   8
#     4  10  20  35  55  79 108 140 175 217 265 316
#     4  10  19  30  46  69  98 131 166 208 257 305
#     4  10  20  32  48  72 101 133 171 212 255 308
#     4   9  19  36  58  82 106 135 173 217 266 320
#     4  10  20  33  50  73 101 134 173 216 258 305
#     4  10  21  36  55  81 109 139 178 220 266 317
#     4  10  20  34  52  73 101 139 179 218 261 312
#
# _framework density 19.575043999999998
#
# number of rings (size 3 to 8) (size 9 to 14) (size 15 to 20)
#    0.000    2.143    0.000    5.143    0.000    6.571 
#    0.000    5.000    0.000    0.857    0.000    0.000 
#    0.000    0.000    0.000    0.000    0.000    0.000 
#
# Total GULP energy -694139.120483 kJ/mol
# GULP energy per Si atom -12395.341437 kJ/mol
# Density = 1.953049 g / cm^3
# Si number density = 19.575044 Si / 1000 Ang^3
#
#
#
# Elastic Constant Matrix: (Units=GPa)
#
#
# Indices 1 2 3 4 5 6 
#
# 1 70.2003 20.4305 27.3073 0.0000 0.0000 0.0000
# 2 20.4305 115.7612 32.6603 0.0000 0.0000 0.0000
# 3 27.3073 32.6603 59.0217 0.0000 0.0000 0.0000
# 4 0.0000 0.0000 0.0000 21.8164 0.0000 0.0000
# 5 0.0000 0.0000 0.0000 0.0000 22.5240 0.0000
# 6 0.0000 0.0000 0.0000 0.0000 0.0000 31.2440
#
#
#
# Elastic Compliance Matrix: (Units=1/GPa)
#
#
# Indices 1 2 3 4 5 6 
#
# 1 0.017459 -0.000951 -0.007552 0.000000 0.000000 0.000000
# 2 -0.000951 0.010288 -0.005253 0.000000 0.000000 0.000000
# 3 -0.007552 -0.005253 0.023344 0.000000 0.000000 0.000000
# 4 0.000000 0.000000 0.000000 0.045837 0.000000 0.000000
# 5 0.000000 0.000000 0.000000 0.000000 0.044397 0.000000
# 6 0.000000 0.000000 0.000000 0.000000 0.000000 0.032006
#
#
# Mechanical properties :
#
#
# Convention : Reuss Voigt Hill
#
# Bulk Modulus (GPa) = 42.40895 45.08661 43.74778
# Shear Modulus (GPa) = 23.95746 26.08921 25.02334
#
# Velocity S-wave (km/s) = 3.50219 3.65469 3.57925
# Velocity P-wave (km/s) = 6.16974 6.39466 6.28320
#
# Compressibility (1/GPa) = 0.02357993
#
# Stress axis : x y z
#
# Youngs Moduli (GPa) = 57.27641 97.19667 42.83792
#
# Poissons Ratio (x) = 0.09241 0.32350
# Poissons Ratio (y) = 0.05446 0.22504
# Poissons Ratio (z) = 0.43253 0.51061
#
# Static dielectric constant tensor:
#      x y z
#    x 3.682070 0.000000 0.000000 
#    y 0.000000 3.717520 0.000000 
#    z 0.000000 0.000000 3.305130 
# 
# 
# High freq. dielectric constant tensor:
#      x y z
#    x 1.772550 0.000000 0.000000 
#    y 0.000000 1.764480 0.000000 
#    z 0.000000 0.000000 1.732720 
# 
# From -- ./inp_files/16986.got.cif
#   From: 2010.03.12/outbox.cif.g09.slc.cpg/sg59_9_cif.got.tgz:16986.got - 2010.04.16 16:29:54.
