data_PCOD8240622
_publ_section_title
;
Structure prediction by ZEFSAII (Michael W. Deem and Ramdas Pophale) SiO2 
 PCOD8240622
Probable space group: P M M N
;
_chemical_formula_sum "Si O2"
_cell_formula_units_Z 56
_cell_length_a 8.931174
_cell_length_b 13.792536
_cell_length_c 26.183141
_cell_angle_alpha 90.000000
_cell_angle_beta 90.000000
_cell_angle_gamma 90.000000
_cell_volume 3225.331968
_symmetry_space_group_name_H-M "P M M N"
_symmetry_group_IT_number 59
_space_group.IT_coordinate_system_code '2'
_symmetry_cell_setting 'orthorhombic'
loop_
_space_group_symop_operation_xyz
x,y,z
1/2-x,1/2-y,z
1/2+x,-y,-z
-x,1/2+y,-z
-x,-y,-z
1/2+x,1/2+y,-z
1/2-x,y,z
x,1/2-y,z
loop_
_atom_site_type_symbol
_atom_site_label
_atom_site_fract_x
_atom_site_fract_y
_atom_site_fract_z
Si Si1 0.926283 0.861301 0.075058
Si Si2 0.922741 0.140766 0.516083
Si Si3 0.426964 0.468438 0.122316
Si Si4 0.575435 0.954259 0.576982
Si Si5 0.420617 0.635302 0.971306
Si Si6 0.576807 0.638794 0.775365
Si Si7 0.073620 0.860536 0.671250
O O1 0.750000 0.878056 0.077119
O O2 0.969988 0.750000 0.083993
O O3 0.008596 0.922434 0.119226
O O4 0.987106 0.900536 0.020756
O O5 0.750000 0.128449 0.499883
O O6 0.955890 0.250000 0.535494
O O7 0.021003 0.119969 0.466302
O O8 0.963066 0.065085 0.560994
O O9 0.250000 0.466629 0.114296
O O10 0.503770 0.403754 0.079409
O O11 0.472985 0.426806 0.177209
O O12 0.750000 0.938272 0.585123
O O13 0.493723 0.932997 0.629780
O O14 0.250000 0.597584 0.975505
O O15 0.426550 0.750000 0.968398
O O16 0.750000 0.623842 0.761864
O O17 0.542698 0.750000 0.789782
O O18 0.481576 0.605177 0.726670
O O19 0.250000 0.868720 0.669141
O O20 0.020406 0.750000 0.660571
#
# Coordination Sequence:
#
# PCOD8240622 Si02
#       7
#     8   8   8   8   8   8   8
#     4  10  21  36  52  70  95 128 165 203 241 284
#     4   9  18  32  48  69 100 134 166 201 241 284
#     4  11  21  33  52  75 100 128 158 197 245 295
#     4  10  19  30  48  73  99 130 167 203 240 285
#     4  10  20  33  50  73 101 131 162 196 236 288
#     4   9  19  35  53  74  99 126 157 194 238 288
#     4  10  20  33  50  72  99 130 161 196 239 285
#
# _framework density 17.362553999999999
#
# number of rings (size 3 to 8) (size 9 to 14) (size 15 to 20)
#    0.000    2.143    0.000    3.429    0.000    6.857 
#    0.000    1.429    0.000    0.857    0.000    2.000 
#    0.000    0.000    0.000    0.000    0.000    0.000 
#
# Total GULP energy -694555.584159 kJ/mol
# GULP energy per Si atom -12402.778289 kJ/mol
# Density = 1.732304 g / cm^3
# Si number density = 17.362554 Si / 1000 Ang^3
#
#
#
# Elastic Constant Matrix: (Units=GPa)
#
#
# Indices 1 2 3 4 5 6 
#
# 1 80.1836 38.9986 56.0221 0.0000 0.0000 0.0000
# 2 38.9986 89.4508 65.5291 0.0000 0.0000 0.0000
# 3 56.0221 65.5291 124.4316 0.0000 0.0000 0.0000
# 4 0.0000 0.0000 0.0000 27.6771 0.0000 0.0000
# 5 0.0000 0.0000 0.0000 0.0000 32.8336 0.0000
# 6 0.0000 0.0000 0.0000 0.0000 0.0000 27.5588
#
#
#
# Elastic Compliance Matrix: (Units=1/GPa)
#
#
# Indices 1 2 3 4 5 6 
#
# 1 0.018755 -0.003241 -0.006737 0.000000 0.000000 0.000000
# 2 -0.003241 0.018761 -0.008421 0.000000 0.000000 0.000000
# 3 -0.006737 -0.008421 0.015504 0.000000 0.000000 0.000000
# 4 0.000000 0.000000 0.000000 0.036131 0.000000 0.000000
# 5 0.000000 0.000000 0.000000 0.000000 0.030457 0.000000
# 6 0.000000 0.000000 0.000000 0.000000 0.000000 0.036286
#
#
# Mechanical properties :
#
#
# Convention : Reuss Voigt Hill
#
# Bulk Modulus (GPa) = 61.64416 68.35174 64.99795
# Shear Modulus (GPa) = 25.23981 26.51498 25.87739
#
# Velocity S-wave (km/s) = 3.81687 3.91210 3.86478
# Velocity P-wave (km/s) = 7.41659 7.73685 7.57841
#
# Compressibility (1/GPa) = 0.01622214
#
# Stress axis : x y z
#
# Youngs Moduli (GPa) = 53.31985 53.30080 64.49833
#
# Poissons Ratio (x) = 0.17277 0.43451
# Poissons Ratio (y) = 0.17284 0.54313
# Poissons Ratio (z) = 0.35920 0.44884
#
# Static dielectric constant tensor:
#      x y z
#    x 3.391670 0.000000 0.000000 
#    y 0.000000 3.357440 0.000000 
#    z 0.000000 0.000000 3.137380 
# 
# 
# High freq. dielectric constant tensor:
#      x y z
#    x 1.683700 0.000000 0.000000 
#    y 0.000000 1.669120 0.000000 
#    z 0.000000 0.000000 1.654560 
# 
# From -- ./inp_files/29158.got.cif
#   From: 2010.03.12/outbox.cif.g09.slc.cpg/sg59_15_cif.got.tgz:29158.got - 2010.04.16 16:29:54.
