data_PCOD8240849
_publ_section_title
;
Structure prediction by ZEFSAII (Michael W. Deem and Ramdas Pophale) SiO2 
 PCOD8240849
Probable space group: P M M N
;
_chemical_formula_sum "Si O2"
_cell_formula_units_Z 48
_cell_length_a 9.145886
_cell_length_b 20.407174
_cell_length_c 14.012914
_cell_angle_alpha 90.000000
_cell_angle_beta 90.000000
_cell_angle_gamma 90.000000
_cell_volume 2615.393909
_symmetry_space_group_name_H-M "P M M N"
_symmetry_group_IT_number 59
_space_group.IT_coordinate_system_code '2'
_symmetry_cell_setting 'orthorhombic'
loop_
_space_group_symop_operation_xyz
x,y,z
1/2-x,1/2-y,z
1/2+x,-y,-z
-x,1/2+y,-z
-x,-y,-z
1/2+x,1/2+y,-z
1/2-x,y,z
x,1/2-y,z
loop_
_atom_site_type_symbol
_atom_site_label
_atom_site_fract_x
_atom_site_fract_y
_atom_site_fract_z
Si Si1 0.913964 0.478545 0.231139
Si Si2 0.418901 0.324552 0.522535
Si Si3 0.578908 0.065391 0.032112
Si Si4 0.590097 0.325094 0.704432
Si Si5 0.079724 0.455040 0.422562
Si Si6 0.082457 0.381218 0.868284
O O1 0.750000 0.470513 0.272147
O O2 0.942166 0.425119 0.146499
O O3 0.933184 0.549040 0.183069
O O4 0.027527 0.470441 0.315993
O O5 0.250000 0.324372 0.552215
O O6 0.465983 0.250000 0.492167
O O7 0.504882 0.354071 0.613489
O O8 0.449565 0.377167 0.439021
O O9 0.750000 0.060962 0.006485
O O10 0.500785 0.122355 0.970610
O O11 0.500000 0.000000 0.000000
O O12 0.750000 0.359387 0.715014
O O13 0.613607 0.250000 0.681373
O O14 0.495847 0.329590 0.800127
O O15 0.250000 0.471430 0.429823
O O16 0.000000 0.500000 0.500000
O O17 0.250000 0.361356 0.884898
#
# Coordination Sequence:
#
# PCOD8240849 Si02
#       6
#     8   8   8   8   8   8
#     4   9  19  33  48  70 100 129 158 196 242 291
#     4   9  19  36  53  69  95 132 170 204 242 293
#     4   9  17  30  48  70  96 126 158 194 238 290
#     4  10  20  32  48  72  98 125 160 201 245 293
#     4  11  22  33  50  75 101 130 164 207 254 295
#     4  10  19  31  49  72  98 129 162 196 240 293
#
# _framework density 18.352875000000001
#
# number of rings (size 3 to 8) (size 9 to 14) (size 15 to 20)
#    0.000    2.333    0.000    4.000    0.000   10.333 
#    0.000    0.000    0.000    1.000    0.000    4.667 
#    0.000    0.000    0.000    0.000    0.000    0.000 
#
# Total GULP energy -594871.780233 kJ/mol
# GULP energy per Si atom -12393.162088 kJ/mol
# Density = 1.831110 g / cm^3
# Si number density = 18.352875 Si / 1000 Ang^3
#
#
#
# Elastic Constant Matrix: (Units=GPa)
#
#
# Indices 1 2 3 4 5 6 
#
# 1 126.7662 25.5233 57.0817 0.0000 0.0000 0.0000
# 2 25.5233 40.6679 20.6782 0.0000 0.0000 0.0000
# 3 57.0817 20.6782 103.7031 0.0000 0.0000 0.0000
# 4 0.0000 0.0000 0.0000 25.9314 0.0000 0.0000
# 5 0.0000 0.0000 0.0000 0.0000 38.3372 0.0000
# 6 0.0000 0.0000 0.0000 0.0000 0.0000 21.1264
#
#
#
# Elastic Compliance Matrix: (Units=1/GPa)
#
#
# Indices 1 2 3 4 5 6 
#
# 1 0.011127 -0.004306 -0.005266 0.000000 0.000000 0.000000
# 2 -0.004306 0.029030 -0.003419 0.000000 0.000000 0.000000
# 3 -0.005266 -0.003419 0.013223 0.000000 0.000000 0.000000
# 4 0.000000 0.000000 0.000000 0.038563 0.000000 0.000000
# 5 0.000000 0.000000 0.000000 0.000000 0.026084 0.000000
# 6 0.000000 0.000000 0.000000 0.000000 0.000000 0.047334
#
#
# Mechanical properties :
#
#
# Convention : Reuss Voigt Hill
#
# Bulk Modulus (GPa) = 36.49711 53.07819 44.78765
# Shear Modulus (GPa) = 24.94083 28.26928 26.60505
#
# Velocity S-wave (km/s) = 3.69041 3.92895 3.81154
# Velocity P-wave (km/s) = 6.17157 7.04030 6.62020
#
# Compressibility (1/GPa) = 0.02739943
#
# Stress axis : x y z
#
# Youngs Moduli (GPa) = 89.87432 34.44734 75.62507
#
# Poissons Ratio (x) = 0.14832 0.39824
# Poissons Ratio (y) = 0.38696 0.25853
# Poissons Ratio (z) = 0.47328 0.11776
#
# Static dielectric constant tensor:
#      x y z
#    x 3.750110 0.000000 0.000000 
#    y 0.000000 2.986060 0.000000 
#    z 0.000000 0.000000 2.257450 
# 
# 
# High freq. dielectric constant tensor:
#      x y z
#    x 1.728040 0.000000 0.000000 
#    y 0.000000 1.676460 0.000000 
#    z 0.000000 0.000000 1.706890 
# 
# From -- ./inp_files/20777.got.cif
#   From: 2010.03.12/outbox.cif.g09.slc.cpg/sg59_11_cif.got.tgz:20777.got - 2010.04.16 16:29:54.
