data_PCOD8240298
_publ_section_title
;
Structure prediction by ZEFSAII (Michael W. Deem and Ramdas Pophale) SiO2 
 PCOD8240298
Probable space group: P M M N
;
_chemical_formula_sum "Si O2"
_cell_formula_units_Z 64
_cell_length_a 22.444657
_cell_length_b 9.176257
_cell_length_c 20.313947
_cell_angle_alpha 90.000000
_cell_angle_beta 90.000000
_cell_angle_gamma 90.000000
_cell_volume 4183.818696
_symmetry_space_group_name_H-M "P M M N"
_symmetry_group_IT_number 59
_space_group.IT_coordinate_system_code '2'
_symmetry_cell_setting 'orthorhombic'
loop_
_space_group_symop_operation_xyz
x,y,z
1/2-x,1/2-y,z
1/2+x,-y,-z
-x,1/2+y,-z
-x,-y,-z
1/2+x,1/2+y,-z
1/2-x,y,z
x,1/2-y,z
loop_
_atom_site_type_symbol
_atom_site_label
_atom_site_fract_x
_atom_site_fract_y
_atom_site_fract_z
Si Si1 0.818719 0.419683 0.558593
Si Si2 0.089723 0.085465 0.523011
Si Si3 0.511456 0.915964 0.910713
Si Si4 0.816426 0.579964 0.933272
Si Si5 0.593026 0.416197 0.007775
Si Si6 0.998536 0.585335 0.599545
Si Si7 0.397368 0.084149 0.191279
Si Si8 0.595886 0.420468 0.677813
O O1 0.750000 0.466680 0.564604
O O2 0.825605 0.250000 0.541683
O O3 0.849002 0.509083 0.499338
O O4 0.850705 0.456704 0.627514
O O5 0.103699 0.250000 0.545958
O O6 0.043372 0.085554 0.463686
O O7 0.060509 0.996499 0.583426
O O8 0.529003 0.750000 0.933361
O O9 0.439725 0.936983 0.920578
O O10 0.534389 0.935224 0.835469
O O11 0.544486 0.035752 0.954220
O O12 0.750000 0.516970 0.925935
O O13 0.815459 0.750000 0.945962
O O14 0.852393 0.540707 0.867265
O O15 0.847065 0.509518 0.998100
O O16 0.610724 0.250000 0.995617
O O17 0.012875 0.750000 0.622071
O O18 0.964994 0.501696 0.658076
O O19 0.386181 0.250000 0.214704
O O20 0.383951 0.976343 0.251023
O O21 0.582343 0.250000 0.680053
#
# Coordination Sequence:
#
# PCOD8240298 Si02
#       8
#     8   8   8   8   8   8   8   8
#     4   9  18  31  43  56  80 114 145 171 203 243
#     4   9  16  26  42  63  82 100 129 171 212 246
#     4   8  15  27  41  57  79 105 131 164 210 257
#     4   9  18  31  43  56  80 114 145 172 206 248
#     4   9  15  24  41  62  79  98 130 172 212 247
#     4   9  16  27  43  60  79 105 134 165 207 255
#     4   9  17  29  42  56  78 110 144 172 201 244
#     4  10  19  29  41  59  83 110 142 179 211 238
#
# _framework density 15.297029999999999
#
# number of rings (size 3 to 8) (size 9 to 14) (size 15 to 20)
#    0.000    3.000    0.000    2.250    0.000    7.000 
#    0.000    0.000    0.000    0.000    0.000    0.000 
#    0.000    1.000    0.000    5.250    0.000    5.125 
#
# Total GULP energy -793115.937672 kJ/mol
# GULP energy per Si atom -12392.436526 kJ/mol
# Density = 1.526221 g / cm^3
# Si number density = 15.297030 Si / 1000 Ang^3
#
#
#
# Elastic Constant Matrix: (Units=GPa)
#
#
# Indices 1 2 3 4 5 6 
#
# 1 105.1652 51.7779 51.8546 0.0000 0.0000 0.0000
# 2 51.7779 76.1295 26.5458 0.0000 0.0000 0.0000
# 3 51.8546 26.5458 29.4235 0.0000 0.0000 0.0000
# 4 0.0000 0.0000 0.0000 22.5400 0.0000 0.0000
# 5 0.0000 0.0000 0.0000 0.0000 14.8250 0.0000
# 6 0.0000 0.0000 0.0000 0.0000 0.0000 23.2503
#
#
#
# Elastic Compliance Matrix: (Units=1/GPa)
#
#
# Indices 1 2 3 4 5 6 
#
# 1 0.075182 -0.007197 -0.126005 0.000000 0.000000 0.000000
# 2 -0.007197 0.019853 -0.005228 0.000000 0.000000 0.000000
# 3 -0.126005 -0.005228 0.260769 0.000000 0.000000 0.000000
# 4 0.000000 0.000000 0.000000 0.044366 0.000000 0.000000
# 5 0.000000 0.000000 0.000000 0.000000 0.067454 0.000000
# 6 0.000000 0.000000 0.000000 0.000000 0.000000 0.043010
#
#
# Mechanical properties :
#
#
# Convention : Reuss Voigt Hill
#
# Bulk Modulus (GPa) = 12.66716 52.34163 32.50439
# Shear Modulus (GPa) = 6.14395 17.49239 11.81817
#
# Velocity S-wave (km/s) = 2.00628 3.38526 2.78255
# Velocity P-wave (km/s) = 3.69671 7.04068 5.62302
#
# Compressibility (1/GPa) = 0.07894431
#
# Stress axis : x y z
#
# Youngs Moduli (GPa) = 13.30099 50.36932 3.83481
#
# Poissons Ratio (x) = 0.36250 0.48321
# Poissons Ratio (y) = 0.09572 0.02005
# Poissons Ratio (z) = 1.67599 0.26335
#
# Static dielectric constant tensor:
#      x y z
#    x 3.049630 0.000000 0.000000 
#    y 0.000000 3.037950 0.000000 
#    z 0.000000 0.000000 2.704120 
# 
# 
# High freq. dielectric constant tensor:
#      x y z
#    x 1.569680 0.000000 0.000000 
#    y 0.000000 1.598650 0.000000 
#    z 0.000000 0.000000 1.543080 
# 
# From -- ./inp_files/28434.got.cif
#   From: 2010.03.12/outbox.cif.g09.slc.cpg/sg59_15_cif.got.tgz:28434.got - 2010.04.16 16:29:54.
