data_PCOD8240107
_publ_section_title
;
Structure prediction by ZEFSAII (Michael W. Deem and Ramdas Pophale) SiO2 
 PCOD8240107
Probable space group: P M M N
;
_chemical_formula_sum "Si O2"
_cell_formula_units_Z 52
_cell_length_a 7.590912
_cell_length_b 27.021985
_cell_length_c 14.858039
_cell_angle_alpha 90.000000
_cell_angle_beta 90.000000
_cell_angle_gamma 90.000000
_cell_volume 3047.703398
_symmetry_space_group_name_H-M "P M M N"
_symmetry_group_IT_number 59
_space_group.IT_coordinate_system_code '2'
_symmetry_cell_setting 'orthorhombic'
loop_
_space_group_symop_operation_xyz
x,y,z
1/2-x,1/2-y,z
1/2+x,-y,-z
-x,1/2+y,-z
-x,-y,-z
1/2+x,1/2+y,-z
1/2-x,y,z
x,1/2-y,z
loop_
_atom_site_type_symbol
_atom_site_label
_atom_site_fract_x
_atom_site_fract_y
_atom_site_fract_z
Si Si1 0.750000 0.308725 0.189730
Si Si2 0.250000 0.808714 0.437924
Si Si3 0.544118 0.451623 0.601170
Si Si4 0.958384 0.695330 0.134815
Si Si5 0.553941 0.690960 0.938207
Si Si6 0.750000 0.136056 0.373054
Si Si7 0.546088 0.645721 0.315174
Si Si8 0.445747 0.061983 0.401782
O O1 0.750000 0.250000 0.188837
O O2 0.577465 0.329311 0.138068
O O3 0.750000 0.325833 0.291745
O O4 0.250000 0.750000 0.447580
O O5 0.250000 0.833057 0.535780
O O6 0.427325 0.825862 0.387908
O O7 0.750000 0.444322 0.580687
O O8 0.478108 0.413378 0.676666
O O9 0.501796 0.507193 0.634375
O O10 0.442200 0.439339 0.509761
O O11 0.750000 0.699621 0.133272
O O12 0.039622 0.750000 0.151927
O O13 0.021186 0.659717 0.215298
O O14 0.016879 0.674064 0.037212
O O15 0.750000 0.669891 0.918393
O O16 0.559764 0.750000 0.938661
O O17 0.578247 0.102150 0.363218
O O18 0.750000 0.661157 0.330226
O O19 0.250000 0.076281 0.368703
#
# Coordination Sequence:
#
# PCOD8240107 Si02
#       8
#     4   4   8   8   8   4   8   8
#     4  10  21  35  54  75  99 134 177 218 259 306
#     4  12  25  37  46  67 109 152 179 202 241 298
#     4  10  18  33  52  77 103 131 168 221 261 297
#     4   8  15  28  47  73 105 133 163 204 249 302
#     4   8  15  31  52  73  97 126 164 215 262 297
#     4  12  23  38  50  76 102 136 177 222 258 300
#     4  11  20  32  51  76 107 142 176 202 245 310
#     4  10  20  33  54  74  99 131 171 221 268 295
#
# _framework density 17.062028000000002
#
# number of rings (size 3 to 8) (size 9 to 14) (size 15 to 20)
#    0.000    2.154    3.077    2.077    2.154    2.154 
#    0.000    1.538    0.000    2.769    0.000    1.077 
#    0.000    0.000    0.000    0.000    0.000    0.000 
#
# Total GULP energy -644615.208022 kJ/mol
# GULP energy per Si atom -12396.446308 kJ/mol
# Density = 1.702319 g / cm^3
# Si number density = 17.062028 Si / 1000 Ang^3
#
#
#
# Elastic Constant Matrix: (Units=GPa)
#
#
# Indices 1 2 3 4 5 6 
#
# 1 95.2778 33.5205 43.6263 0.0000 0.0000 0.0000
# 2 33.5205 59.7611 28.2562 0.0000 0.0000 0.0000
# 3 43.6263 28.2562 99.6879 0.0000 0.0000 0.0000
# 4 0.0000 0.0000 0.0000 11.5380 0.0000 0.0000
# 5 0.0000 0.0000 0.0000 0.0000 14.9625 0.0000
# 6 0.0000 0.0000 0.0000 0.0000 0.0000 19.7365
#
#
#
# Elastic Compliance Matrix: (Units=1/GPa)
#
#
# Indices 1 2 3 4 5 6 
#
# 1 0.014806 -0.006052 -0.004764 0.000000 0.000000 0.000000
# 2 -0.006052 0.021797 -0.003530 0.000000 0.000000 0.000000
# 3 -0.004764 -0.003530 0.013117 0.000000 0.000000 0.000000
# 4 0.000000 0.000000 0.000000 0.086670 0.000000 0.000000
# 5 0.000000 0.000000 0.000000 0.000000 0.066834 0.000000
# 6 0.000000 0.000000 0.000000 0.000000 0.000000 0.050667
#
#
# Mechanical properties :
#
#
# Convention : Reuss Voigt Hill
#
# Bulk Modulus (GPa) = 47.55621 51.72586 49.64104
# Shear Modulus (GPa) = 17.26560 19.20232 18.23396
#
# Velocity S-wave (km/s) = 3.18454 3.35840 3.27262
# Velocity P-wave (km/s) = 6.43854 6.73948 6.59073
#
# Compressibility (1/GPa) = 0.02102775
#
# Stress axis : x y z
#
# Youngs Moduli (GPa) = 67.53818 45.87786 76.23865
#
# Poissons Ratio (x) = 0.27767 0.36321
# Poissons Ratio (y) = 0.40877 0.26909
# Poissons Ratio (z) = 0.32176 0.16193
#
# Static dielectric constant tensor:
#      x y z
#    x 3.350630 0.000000 0.000000 
#    y 0.000000 3.163270 0.000000 
#    z 0.000000 0.000000 3.152040 
# 
# 
# High freq. dielectric constant tensor:
#      x y z
#    x 1.671500 0.000000 0.000000 
#    y 0.000000 1.631370 0.000000 
#    z 0.000000 0.000000 1.636080 
# 
# From -- ./inp_files/21662.got.cif
#   From: 2010.03.12/outbox.cif.g09.slc.cpg/sg59_11_cif.got.tgz:21662.got - 2010.04.16 16:29:54.
