data_PCOD8240650
_publ_section_title
;
Structure prediction by ZEFSAII (Michael W. Deem and Ramdas Pophale) SiO2 
 PCOD8240650
Probable space group: P M M N
;
_chemical_formula_sum "Si O2"
_cell_formula_units_Z 40
_cell_length_a 9.566330
_cell_length_b 14.339022
_cell_length_c 16.591874
_cell_angle_alpha 90.000000
_cell_angle_beta 90.000000
_cell_angle_gamma 90.000000
_cell_volume 2275.937493
_symmetry_space_group_name_H-M "P M M N"
_symmetry_group_IT_number 59
_space_group.IT_coordinate_system_code '2'
_symmetry_cell_setting 'orthorhombic'
loop_
_space_group_symop_operation_xyz
x,y,z
1/2-x,1/2-y,z
1/2+x,-y,-z
-x,1/2+y,-z
-x,-y,-z
1/2+x,1/2+y,-z
1/2-x,y,z
x,1/2-y,z
loop_
_atom_site_type_symbol
_atom_site_label
_atom_site_fract_x
_atom_site_fract_y
_atom_site_fract_z
Si Si1 0.906776 0.640130 0.397203
Si Si2 0.087674 0.019483 0.116827
Si Si3 0.085064 0.993135 0.300424
Si Si4 0.087854 0.857163 0.996714
Si Si5 0.583919 0.647173 0.575926
O O1 0.750000 0.600766 0.384308
O O2 0.906315 0.750000 0.386952
O O3 0.962834 0.613583 0.486777
O O4 0.009671 0.600063 0.329874
O O5 0.250000 0.045295 0.108333
O O6 0.041061 0.013110 0.209150
O O7 0.054750 0.919800 0.075316
O O8 0.001065 0.103704 0.077755
O O9 0.250000 0.978335 0.308542
O O10 0.028249 0.077371 0.355928
O O11 0.250000 0.864380 0.973021
O O12 0.045464 0.750000 0.014947
O O13 0.750000 0.652396 0.577450
O O14 0.522332 0.750000 0.594650
#
# Coordination Sequence:
#
# PCOD8240650 Si02
#       5
#     8   8   8   8   8
#     4   9  18  32  48  66  93 131 167 195 229 276
#     4   9  19  33  49  74 101 122 153 196 239 285
#     4  10  19  30  49  75  98 122 154 197 243 278
#     4   9  18  34  53  69  92 128 161 191 234 285
#     4   8  15  29  47  67  94 128 163 196 233 278
#
# _framework density 17.575175000000002
#
# number of rings (size 3 to 8) (size 9 to 14) (size 15 to 20)
#    0.000    3.000    0.000    1.800    0.000    3.200 
#    0.000    4.000    0.000    1.800    0.000    0.000 
#    0.000    0.000    0.000    0.000    0.000    0.000 
#
# Total GULP energy -495927.290719 kJ/mol
# GULP energy per Si atom -12398.182268 kJ/mol
# Density = 1.753517 g / cm^3
# Si number density = 17.575175 Si / 1000 Ang^3
#
#
#
# Elastic Constant Matrix: (Units=GPa)
#
#
# Indices 1 2 3 4 5 6 
#
# 1 39.6229 34.0674 41.2648 0.0000 0.0000 0.0000
# 2 34.0674 83.8007 38.8057 0.0000 0.0000 0.0000
# 3 41.2648 38.8057 107.5012 0.0000 0.0000 0.0000
# 4 0.0000 0.0000 0.0000 18.4375 0.0000 0.0000
# 5 0.0000 0.0000 0.0000 0.0000 19.5244 0.0000
# 6 0.0000 0.0000 0.0000 0.0000 0.0000 27.4323
#
#
#
# Elastic Compliance Matrix: (Units=1/GPa)
#
#
# Indices 1 2 3 4 5 6 
#
# 1 0.054005 -0.014835 -0.015375 0.000000 0.000000 0.000000
# 2 -0.014835 0.018403 -0.000949 0.000000 0.000000 0.000000
# 3 -0.015375 -0.000949 0.015546 0.000000 0.000000 0.000000
# 4 0.000000 0.000000 0.000000 0.054237 0.000000 0.000000
# 5 0.000000 0.000000 0.000000 0.000000 0.051218 0.000000
# 6 0.000000 0.000000 0.000000 0.000000 0.000000 0.036453
#
#
# Mechanical properties :
#
#
# Convention : Reuss Voigt Hill
#
# Bulk Modulus (GPa) = 39.00544 51.02229 45.01387
# Shear Modulus (GPa) = 16.62642 20.86462 18.74552
#
# Velocity S-wave (km/s) = 3.07908 3.44926 3.26941
# Velocity P-wave (km/s) = 5.90615 6.70501 6.31822
#
# Compressibility (1/GPa) = 0.02563745
#
# Stress axis : x y z
#
# Youngs Moduli (GPa) = 18.51684 54.33834 64.32336
#
# Poissons Ratio (x) = 0.80610 0.98897
# Poissons Ratio (y) = 0.27469 0.06103
# Poissons Ratio (z) = 0.28470 0.05155
#
# Static dielectric constant tensor:
#      x y z
#    x 3.058540 0.000000 0.000000 
#    y 0.000000 3.356660 0.000000 
#    z 0.000000 0.000000 3.332170 
# 
# 
# High freq. dielectric constant tensor:
#      x y z
#    x 1.656670 0.000000 0.000000 
#    y 0.000000 1.681150 0.000000 
#    z 0.000000 0.000000 1.678760 
# 
# From -- ./inp_files/19851.got.cif
#   From: 2010.03.12/outbox.cif.g09.slc.cpg/sg59_10_cif.got.tgz:19851.got - 2010.04.16 16:29:54.
