data_PCOD8240378
_publ_section_title
;
Structure prediction by ZEFSAII (Michael W. Deem and Ramdas Pophale) SiO2 
 PCOD8240378
Probable space group: P M M N
;
_chemical_formula_sum "Si O2"
_cell_formula_units_Z 48
_cell_length_a 19.317918
_cell_length_b 9.101127
_cell_length_c 15.445584
_cell_angle_alpha 90.000000
_cell_angle_beta 90.000000
_cell_angle_gamma 90.000000
_cell_volume 2715.562649
_symmetry_space_group_name_H-M "P M M N"
_symmetry_group_IT_number 59
_space_group.IT_coordinate_system_code '2'
_symmetry_cell_setting 'orthorhombic'
loop_
_space_group_symop_operation_xyz
x,y,z
1/2-x,1/2-y,z
1/2+x,-y,-z
-x,1/2+y,-z
-x,-y,-z
1/2+x,1/2+y,-z
1/2-x,y,z
x,1/2-y,z
loop_
_atom_site_type_symbol
_atom_site_label
_atom_site_fract_x
_atom_site_fract_y
_atom_site_fract_z
Si Si1 0.418789 0.584292 0.914837
Si Si2 0.575983 0.922607 0.256718
Si Si3 0.083782 0.921979 0.253921
Si Si4 0.326564 0.424365 0.591479
Si Si5 0.416404 0.415751 0.082099
Si Si6 0.831265 0.581926 0.602526
O O1 0.390060 0.750000 0.914607
O O2 0.394215 0.502781 0.828019
O O3 0.501172 0.583115 0.919757
O O4 0.387444 0.499889 0.997763
O O5 0.586948 0.750000 0.242877
O O6 0.495996 0.961220 0.272641
O O7 0.618343 0.984286 0.339062
O O8 0.094217 0.750000 0.239419
O O9 0.110819 0.003157 0.167861
O O10 0.128117 0.974161 0.334765
O O11 0.250000 0.487132 0.613213
O O12 0.323662 0.250000 0.594353
O O13 0.349005 0.471590 0.494864
O O14 0.387538 0.250000 0.081643
O O15 0.750000 0.567556 0.620285
O O16 0.855355 0.750000 0.617418
#
# Coordination Sequence:
#
# PCOD8240378 Si02
#       6
#     8   8   8   8   8   8
#     4   9  16  26  42  66  95 124 153 188 232 278
#     4   9  17  29  46  70  97 123 154 192 233 277
#     4  10  19  29  44  70 100 124 149 189 239 282
#     4   8  15  30  51  70  89 120 161 197 227 267
#     4   9  16  27  44  65  91 124 158 190 226 273
#     4   9  18  33  51  68  88 120 161 197 229 273
#
# _framework density 17.675894
#
# number of rings (size 3 to 8) (size 9 to 14) (size 15 to 20)
#    0.000    3.000    0.000    2.500    0.000    5.667 
#    0.000    0.833    0.000    2.500    0.000    2.333 
#    0.000    0.000    0.000    0.000    0.000    0.000 
#
# Total GULP energy -595119.235809 kJ/mol
# GULP energy per Si atom -12398.317413 kJ/mol
# Density = 1.763566 g / cm^3
# Si number density = 17.675894 Si / 1000 Ang^3
#
#
#
# Elastic Constant Matrix: (Units=GPa)
#
#
# Indices 1 2 3 4 5 6 
#
# 1 39.8419 29.0090 53.9096 0.0000 0.0000 0.0000
# 2 29.0090 88.6814 65.3666 0.0000 0.0000 0.0000
# 3 53.9096 65.3666 170.6861 0.0000 0.0000 0.0000
# 4 0.0000 0.0000 0.0000 30.6331 0.0000 0.0000
# 5 0.0000 0.0000 0.0000 0.0000 1.3068 0.0000
# 6 0.0000 0.0000 0.0000 0.0000 0.0000 15.7227
#
#
#
# Elastic Compliance Matrix: (Units=1/GPa)
#
#
# Indices 1 2 3 4 5 6 
#
# 1 0.046049 -0.006051 -0.012227 0.000000 0.000000 0.000000
# 2 -0.006051 0.016506 -0.004410 0.000000 0.000000 0.000000
# 3 -0.012227 -0.004410 0.011409 0.000000 0.000000 0.000000
# 4 0.000000 0.000000 0.000000 0.032644 0.000000 0.000000
# 5 0.000000 0.000000 0.000000 0.000000 0.765246 0.000000
# 6 0.000000 0.000000 0.000000 0.000000 0.000000 0.063602
#
#
# Mechanical properties :
#
#
# Convention : Reuss Voigt Hill
#
# Bulk Modulus (GPa) = 34.97884 66.19777 50.58830
# Shear Modulus (GPa) = 5.04865 19.59411 12.32138
#
# Velocity S-wave (km/s) = 1.69187 3.33306 2.64308
# Velocity P-wave (km/s) = 4.86298 7.23495 6.16413
#
# Compressibility (1/GPa) = 0.02858871
#
# Stress axis : x y z
#
# Youngs Moduli (GPa) = 21.71605 60.58238 87.64703
#
# Poissons Ratio (x) = 0.36658 1.07165
# Poissons Ratio (y) = 0.13140 0.38654
# Poissons Ratio (z) = 0.26552 0.26718
#
# Static dielectric constant tensor:
#      x y z
#    x 2.990840 0.000000 0.000000 
#    y 0.000000 3.202130 0.000000 
#    z 0.000000 0.000000 3.521560 
# 
# 
# High freq. dielectric constant tensor:
#      x y z
#    x 1.638140 0.000000 0.000000 
#    y 0.000000 1.674610 0.000000 
#    z 0.000000 0.000000 1.698870 
# 
# From -- ./inp_files/20445.got.cif
#   From: 2010.03.12/outbox.cif.g09.slc.cpg/sg59_11_cif.got.tgz:20445.got - 2010.04.16 16:29:54.
