data_PCOD8240434
_publ_section_title
;
Structure prediction by ZEFSAII (Michael W. Deem and Ramdas Pophale) SiO2 
 PCOD8240434
Probable space group: P M M N
;
_chemical_formula_sum "Si O2"
_cell_formula_units_Z 64
_cell_length_a 20.622332
_cell_length_b 9.171678
_cell_length_c 18.873471
_cell_angle_alpha 90.000000
_cell_angle_beta 90.000000
_cell_angle_gamma 90.000000
_cell_volume 3569.754515
_symmetry_space_group_name_H-M "P M M N"
_symmetry_group_IT_number 59
_space_group.IT_coordinate_system_code '2'
_symmetry_cell_setting 'orthorhombic'
loop_
_space_group_symop_operation_xyz
x,y,z
1/2-x,1/2-y,z
1/2+x,-y,-z
-x,1/2+y,-z
-x,-y,-z
1/2+x,1/2+y,-z
1/2-x,y,z
x,1/2-y,z
loop_
_atom_site_type_symbol
_atom_site_label
_atom_site_fract_x
_atom_site_fract_y
_atom_site_fract_z
Si Si1 0.821721 0.414700 0.511667
Si Si2 0.026448 0.410817 0.291665
Si Si3 0.099012 0.414708 0.880455
Si Si4 0.676576 0.911580 0.371040
Si Si5 0.118017 0.909759 0.750823
Si Si6 0.432188 0.577758 0.010698
Si Si7 0.961415 0.078786 0.564208
Si Si8 0.051179 0.587682 0.163489
O O1 0.750000 0.435471 0.548552
O O2 0.826218 0.250000 0.481013
O O3 0.828580 0.531359 0.450215
O O4 0.883165 0.442948 0.562373
O O5 0.054277 0.250000 0.311360
O O6 0.017634 0.508739 0.361528
O O7 0.070516 0.485675 0.230265
O O8 0.958637 0.392741 0.252602
O O9 0.123902 0.250000 0.889961
O O10 0.139331 0.490347 0.816992
O O11 0.023693 0.418770 0.859895
O O12 0.115095 0.504326 0.952590
O O13 0.750000 0.906334 0.344583
O O14 0.645553 0.750000 0.368265
O O15 0.637941 0.020237 0.322506
O O16 0.150195 0.750000 0.759025
O O17 0.439259 0.750000 0.996048
O O18 0.408028 0.548702 0.091825
O O19 0.500000 0.500000 0.000000
O O20 0.979618 0.250000 0.562548
O O21 0.000000 0.000000 0.500000
O O22 0.068309 0.750000 0.189149
#
# Coordination Sequence:
#
# PCOD8240434 Si02
#       8
#     8   8   8   8   8   8   8   8
#     4   9  19  36  54  70  90 120 158 195 232 277
#     4  10  20  31  44  64  90 119 151 186 225 272
#     4   9  16  25  38  57  82 113 147 183 221 261
#     4  10  20  32  47  67  88 112 145 186 230 272
#     4  10  19  30  44  62  87 120 154 186 222 266
#     4   9  15  23  36  55  80 111 147 183 218 260
#     4  11  22  34  50  71  96 124 154 192 236 283
#     4   8  15  26  39  56  81 114 148 181 218 260
#
# _framework density 17.928404
#
# number of rings (size 3 to 8) (size 9 to 14) (size 15 to 20)
#    0.000    2.500    0.000    3.750    0.000    9.750 
#    0.000    0.000    0.000    0.000    0.000    0.000 
#    0.000    1.000    0.000    8.250    0.000    6.125 
#
# Total GULP energy -792914.423288 kJ/mol
# GULP energy per Si atom -12389.287864 kJ/mol
# Density = 1.788760 g / cm^3
# Si number density = 17.928404 Si / 1000 Ang^3
#
#
#
# Elastic Constant Matrix: (Units=GPa)
#
#
# Indices 1 2 3 4 5 6 
#
# 1 30.3400 13.7294 7.7219 0.0000 0.0000 0.0000
# 2 13.7294 147.6681 59.8092 0.0000 0.0000 0.0000
# 3 7.7219 59.8092 103.1998 0.0000 0.0000 0.0000
# 4 0.0000 0.0000 0.0000 34.8025 0.0000 0.0000
# 5 0.0000 0.0000 0.0000 0.0000 8.8342 0.0000
# 6 0.0000 0.0000 0.0000 0.0000 0.0000 13.8987
#
#
#
# Elastic Compliance Matrix: (Units=1/GPa)
#
#
# Indices 1 2 3 4 5 6 
#
# 1 0.034478 -0.002823 -0.000943 0.000000 0.000000 0.000000
# 2 -0.002823 0.009080 -0.005051 0.000000 0.000000 0.000000
# 3 -0.000943 -0.005051 0.012688 0.000000 0.000000 0.000000
# 4 0.000000 0.000000 0.000000 0.028734 0.000000 0.000000
# 5 0.000000 0.000000 0.000000 0.000000 0.113197 0.000000
# 6 0.000000 0.000000 0.000000 0.000000 0.000000 0.071949
#
#
# Mechanical properties :
#
#
# Convention : Reuss Voigt Hill
#
# Bulk Modulus (GPa) = 25.90030 49.30320 37.60175
# Shear Modulus (GPa) = 16.63167 24.83691 20.73429
#
# Velocity S-wave (km/s) = 3.04907 3.72605 3.40443
# Velocity P-wave (km/s) = 5.18398 6.78756 6.03923
#
# Compressibility (1/GPa) = 0.03860959
#
# Stress axis : x y z
#
# Youngs Moduli (GPa) = 29.00441 110.12839 78.81489
#
# Poissons Ratio (x) = 0.31094 0.07436
# Poissons Ratio (y) = 0.08189 0.39811
# Poissons Ratio (z) = 0.02737 0.55628
#
# Static dielectric constant tensor:
#      x y z
#    x 3.003580 0.000000 0.000000 
#    y 0.000000 3.676430 0.000000 
#    z 0.000000 0.000000 3.624740 
# 
# 
# High freq. dielectric constant tensor:
#      x y z
#    x 1.624890 0.000000 0.000000 
#    y 0.000000 1.716080 0.000000 
#    z 0.000000 0.000000 1.693730 
# 
# From -- ./inp_files/28432.got.cif
#   From: 2010.03.12/outbox.cif.g09.slc.cpg/sg59_15_cif.got.tgz:28432.got - 2010.04.16 16:29:54.
