data_PCOD8240789
_publ_section_title
;
Structure prediction by ZEFSAII (Michael W. Deem and Ramdas Pophale) SiO2 
 PCOD8240789
Probable space group: P M M N
;
_chemical_formula_sum "Si O2"
_cell_formula_units_Z 64
_cell_length_a 23.725225
_cell_length_b 9.046646
_cell_length_c 16.369659
_cell_angle_alpha 90.000000
_cell_angle_beta 90.000000
_cell_angle_gamma 90.000000
_cell_volume 3513.480673
_symmetry_space_group_name_H-M "P M M N"
_symmetry_group_IT_number 59
_space_group.IT_coordinate_system_code '2'
_symmetry_cell_setting 'orthorhombic'
loop_
_space_group_symop_operation_xyz
x,y,z
1/2-x,1/2-y,z
1/2+x,-y,-z
-x,1/2+y,-z
-x,-y,-z
1/2+x,1/2+y,-z
1/2-x,y,z
x,1/2-y,z
loop_
_atom_site_type_symbol
_atom_site_label
_atom_site_fract_x
_atom_site_fract_y
_atom_site_fract_z
Si Si1 0.117546 0.424351 0.286402
Si Si2 0.815729 0.577780 0.232102
Si Si3 0.587027 0.076968 0.144953
Si Si4 0.021661 0.924668 0.194669
Si Si5 0.594433 0.420289 0.959520
Si Si6 0.314969 0.923825 0.426448
Si Si7 0.683434 0.412370 0.391282
Si Si8 0.312628 0.423415 0.128655
O O1 0.106993 0.250000 0.292041
O O2 0.058437 0.504939 0.267554
O O3 0.143522 0.482762 0.370063
O O4 0.161135 0.467542 0.215412
O O5 0.750000 0.540591 0.217703
O O6 0.828018 0.750000 0.222016
O O7 0.851429 0.487480 0.165662
O O8 0.835728 0.529264 0.322885
O O9 0.585856 0.250000 0.164519
O O10 0.540445 0.994315 0.199507
O O11 0.572879 0.044781 0.050214
O O12 0.017917 0.750000 0.207394
O O13 0.047634 0.968891 0.106472
O O14 0.609460 0.250000 0.948116
O O15 0.651941 0.509016 0.945319
O O16 0.250000 0.972628 0.412304
O O17 0.321434 0.750000 0.408766
O O18 0.335620 0.962507 0.518351
O O19 0.750000 0.398798 0.393505
O O20 0.658118 0.250000 0.370094
O O21 0.250000 0.489936 0.125489
O O22 0.311948 0.250000 0.116172
#
# Coordination Sequence:
#
# PCOD8240789 Si02
#       8
#     8   8   8   8   8   8   8   8
#     4  10  19  31  48  72 103 137 173 210 249 295
#     4  10  21  36  54  78 106 134 166 204 248 298
#     4  11  22  36  55  77 100 128 165 207 253 304
#     4  10  20  36  55  74  99 130 168 212 255 297
#     4   9  20  35  51  73  98 128 167 211 255 298
#     4   9  17  29  48  76 107 138 172 208 248 295
#     4   8  15  30  51  74 102 135 168 204 248 295
#     4   9  18  31  46  67  99 137 171 205 248 295
#
# _framework density 18.215554999999998
#
# number of rings (size 3 to 8) (size 9 to 14) (size 15 to 20)
#    0.000    2.500    0.000    3.000    0.000    4.750 
#    0.000    3.750    0.000    0.750    0.000    0.000 
#    0.000    0.000    0.000    0.000    0.000    0.000 
#
# Total GULP energy -793600.324951 kJ/mol
# GULP energy per Si atom -12400.005077 kJ/mol
# Density = 1.817410 g / cm^3
# Si number density = 18.215555 Si / 1000 Ang^3
#
#
#
# Elastic Constant Matrix: (Units=GPa)
#
#
# Indices 1 2 3 4 5 6 
#
# 1 81.1692 37.2903 22.1904 0.0000 0.0000 0.0000
# 2 37.2903 73.9434 33.4157 0.0000 0.0000 0.0000
# 3 22.1904 33.4157 65.8838 0.0000 0.0000 0.0000
# 4 0.0000 0.0000 0.0000 29.5480 0.0000 0.0000
# 5 0.0000 0.0000 0.0000 0.0000 20.2110 0.0000
# 6 0.0000 0.0000 0.0000 0.0000 0.0000 31.2484
#
#
#
# Elastic Compliance Matrix: (Units=1/GPa)
#
#
# Indices 1 2 3 4 5 6 
#
# 1 0.016181 -0.007391 -0.001701 0.000000 0.000000 0.000000
# 2 -0.007391 0.020922 -0.008122 0.000000 0.000000 0.000000
# 3 -0.001701 -0.008122 0.019870 0.000000 0.000000 0.000000
# 4 0.000000 0.000000 0.000000 0.033843 0.000000 0.000000
# 5 0.000000 0.000000 0.000000 0.000000 0.049478 0.000000
# 6 0.000000 0.000000 0.000000 0.000000 0.000000 0.032002
#
#
# Mechanical properties :
#
#
# Convention : Reuss Voigt Hill
#
# Bulk Modulus (GPa) = 44.35670 45.19879 44.77775
# Shear Modulus (GPa) = 23.33843 24.74147 24.03995
#
# Velocity S-wave (km/s) = 3.58332 3.68946 3.63678
# Velocity P-wave (km/s) = 6.44392 6.55871 6.50157
#
# Compressibility (1/GPa) = 0.02254451
#
# Stress axis : x y z
#
# Youngs Moduli (GPa) = 61.80216 47.79734 50.32600
#
# Poissons Ratio (x) = 0.35329 0.08560
# Poissons Ratio (y) = 0.45680 0.40874
# Poissons Ratio (z) = 0.10513 0.38820
#
# Static dielectric constant tensor:
#      x y z
#    x 3.248220 0.000000 0.000000 
#    y 0.000000 3.344040 0.000000 
#    z 0.000000 0.000000 3.393460 
# 
# 
# High freq. dielectric constant tensor:
#      x y z
#    x 1.689130 0.000000 0.000000 
#    y 0.000000 1.709900 0.000000 
#    z 0.000000 0.000000 1.696780 
# 
# From -- ./inp_files/28218.got.cif
#   From: 2010.03.12/outbox.cif.g09.slc.cpg/sg59_15_cif.got.tgz:28218.got - 2010.04.16 16:29:54.
