data_PCOD8240051
_publ_section_title
;
Structure prediction by ZEFSAII (Michael W. Deem and Ramdas Pophale) SiO2 
 PCOD8240051
Probable space group: P M M N
;
_chemical_formula_sum "Si O2"
_cell_formula_units_Z 64
_cell_length_a 18.195094
_cell_length_b 9.156942
_cell_length_c 21.349370
_cell_angle_alpha 90.000000
_cell_angle_beta 90.000000
_cell_angle_gamma 90.000000
_cell_volume 3557.048861
_symmetry_space_group_name_H-M "P M M N"
_symmetry_group_IT_number 59
_space_group.IT_coordinate_system_code '2'
_symmetry_cell_setting 'orthorhombic'
loop_
_space_group_symop_operation_xyz
x,y,z
1/2-x,1/2-y,z
1/2+x,-y,-z
-x,1/2+y,-z
-x,-y,-z
1/2+x,1/2+y,-z
1/2-x,y,z
x,1/2-y,z
loop_
_atom_site_type_symbol
_atom_site_label
_atom_site_fract_x
_atom_site_fract_y
_atom_site_fract_z
Si Si1 0.164835 0.080258 0.254947
Si Si2 0.165355 0.920095 0.503341
Si Si3 0.970840 0.915650 0.059319
Si Si4 0.090664 0.577034 0.756464
Si Si5 0.930945 0.422561 0.382468
Si Si6 0.596548 0.922289 0.612506
Si Si7 0.046188 0.918165 0.187529
Si Si8 0.333108 0.079597 0.863752
O O1 0.250000 0.041276 0.253473
O O2 0.150330 0.250000 0.241112
O O3 0.132500 0.034088 0.321803
O O4 0.126420 0.983666 0.201189
O O5 0.250000 0.947993 0.519173
O O6 0.148553 0.750000 0.493294
O O7 0.118902 0.985206 0.561560
O O8 0.144394 0.003833 0.440888
O O9 0.961164 0.750000 0.037924
O O10 0.891316 0.975176 0.083772
O O11 0.030965 0.932556 0.113766
O O12 0.000000 0.000000 0.000000
O O13 0.089623 0.750000 0.766989
O O14 0.105393 0.534588 0.684133
O O15 0.154334 0.506511 0.798975
O O16 0.011484 0.513778 0.773823
O O17 0.935240 0.250000 0.386692
O O18 0.013541 0.484715 0.389134
O O19 0.599082 0.750000 0.601934
O O20 0.040903 0.750000 0.208860
O O21 0.250000 0.051453 0.887378
O O22 0.347982 0.250000 0.849904
#
# Coordination Sequence:
#
# PCOD8240051 Si02
#       8
#     8   8   8   8   8   8   8   8
#     4  10  20  34  54  79 105 136 176 222 270 317
#     4  10  21  35  49  70 101 134 170 215 267 319
#     4   9  19  35  56  81 107 143 182 217 259 307
#     4  10  18  32  55  80 105 135 177 220 262 315
#     4   9  18  33  53  74  99 134 172 215 264 316
#     4  10  19  35  55  73  97 132 176 219 264 315
#     4  10  20  35  54  78 110 141 172 211 263 318
#     4   9  19  36  55  79 114 147 177 219 270 318
#
# _framework density 17.992442
#
# number of rings (size 3 to 8) (size 9 to 14) (size 15 to 20)
#    0.000    2.375    1.250    2.250    0.000    4.750 
#    0.000    3.125    0.000    2.250    0.000    0.000 
#    0.000    0.000    0.000    0.000    0.000    0.000 
#
# Total GULP energy -793598.837324 kJ/mol
# GULP energy per Si atom -12399.981833 kJ/mol
# Density = 1.795149 g / cm^3
# Si number density = 17.992442 Si / 1000 Ang^3
#
#
#
# Elastic Constant Matrix: (Units=GPa)
#
#
# Indices 1 2 3 4 5 6 
#
# 1 126.0613 39.2737 57.9059 0.0000 0.0000 0.0000
# 2 39.2737 55.7878 42.2966 0.0000 0.0000 0.0000
# 3 57.9059 42.2966 97.3943 0.0000 0.0000 0.0000
# 4 0.0000 0.0000 0.0000 30.5029 0.0000 0.0000
# 5 0.0000 0.0000 0.0000 0.0000 25.1828 0.0000
# 6 0.0000 0.0000 0.0000 0.0000 0.0000 27.0225
#
#
#
# Elastic Compliance Matrix: (Units=1/GPa)
#
#
# Indices 1 2 3 4 5 6 
#
# 1 0.011587 -0.004374 -0.004990 0.000000 0.000000 0.000000
# 2 -0.004374 0.028376 -0.009722 0.000000 0.000000 0.000000
# 3 -0.004990 -0.009722 0.017456 0.000000 0.000000 0.000000
# 4 0.000000 0.000000 0.000000 0.032784 0.000000 0.000000
# 5 0.000000 0.000000 0.000000 0.000000 0.039710 0.000000
# 6 0.000000 0.000000 0.000000 0.000000 0.000000 0.037006
#
#
# Mechanical properties :
#
#
# Convention : Reuss Voigt Hill
#
# Bulk Modulus (GPa) = 51.95633 62.02176 56.98905
# Shear Modulus (GPa) = 23.63986 25.85946 24.74966
#
# Velocity S-wave (km/s) = 3.62868 3.79521 3.71288
# Velocity P-wave (km/s) = 6.81879 7.33148 7.07978
#
# Compressibility (1/GPa) = 0.01924693
#
# Stress axis : x y z
#
# Youngs Moduli (GPa) = 86.30046 35.24141 57.28590
#
# Poissons Ratio (x) = 0.15416 0.28583
# Poissons Ratio (y) = 0.37751 0.55695
# Poissons Ratio (z) = 0.43060 0.34263
#
# Static dielectric constant tensor:
#      x y z
#    x 3.462080 0.000000 0.000000 
#    y 0.000000 3.252300 0.000000 
#    z 0.000000 0.000000 3.319040 
# 
# 
# High freq. dielectric constant tensor:
#      x y z
#    x 1.699940 0.000000 0.000000 
#    y 0.000000 1.684140 0.000000 
#    z 0.000000 0.000000 1.691680 
# 
# From -- ./inp_files/29515.got.cif
#   From: 2010.03.12/outbox.cif.g09.slc.cpg/sg59_15_cif.got.tgz:29515.got - 2010.04.16 16:29:54.
