data_PCOD8240827
_publ_section_title
;
Structure prediction by ZEFSAII (Michael W. Deem and Ramdas Pophale) SiO2 
 PCOD8240827
Probable space group: P M M N
;
_chemical_formula_sum "Si O2"
_cell_formula_units_Z 48
_cell_length_a 8.969035
_cell_length_b 16.560013
_cell_length_c 18.166332
_cell_angle_alpha 90.000000
_cell_angle_beta 90.000000
_cell_angle_gamma 90.000000
_cell_volume 2698.196900
_symmetry_space_group_name_H-M "P M M N"
_symmetry_group_IT_number 59
_space_group.IT_coordinate_system_code '2'
_symmetry_cell_setting 'orthorhombic'
loop_
_space_group_symop_operation_xyz
x,y,z
1/2-x,1/2-y,z
1/2+x,-y,-z
-x,1/2+y,-z
-x,-y,-z
1/2+x,1/2+y,-z
1/2-x,y,z
x,1/2-y,z
loop_
_atom_site_type_symbol
_atom_site_label
_atom_site_fract_x
_atom_site_fract_y
_atom_site_fract_z
Si Si1 0.422140 0.840433 0.825665
Si Si2 0.916361 0.920274 0.700914
Si Si3 0.427218 0.486830 0.578382
Si Si4 0.575680 0.158355 0.659051
Si Si5 0.585736 0.423159 0.801492
Si Si6 0.424418 0.990019 0.922162
O O1 0.250000 0.857209 0.807685
O O2 0.448297 0.750000 0.856442
O O3 0.510483 0.848991 0.748920
O O4 0.476345 0.904355 0.887298
O O5 0.750000 0.894436 0.675965
O O6 0.909536 0.998103 0.751592
O O7 0.016457 0.940012 0.629939
O O8 0.500000 0.500000 0.500000
O O9 0.250000 0.490116 0.572833
O O10 0.476361 0.399504 0.608679
O O11 0.750000 0.136038 0.647899
O O12 0.541916 0.250000 0.635583
O O13 0.534617 0.148271 0.746100
O O14 0.750000 0.405358 0.834581
O O15 0.472485 0.435915 0.868987
O O16 0.250000 0.994220 0.933887
O O17 0.500000 0.000000 0.000000
#
# Coordination Sequence:
#
# PCOD8240827 Si02
#       6
#     8   8   8   8   8   8
#     4   9  18  33  52  74  99 128 165 209 257 306
#     4   9  17  31  51  74  98 126 163 202 243 295
#     4  11  21  34  53  76 104 137 172 209 250 298
#     4   9  18  34  55  78 104 133 166 207 255 303
#     4   8  15  29  49  71  95 125 160 196 237 291
#     4  10  19  31  49  71  97 131 168 207 250 299
#
# _framework density 17.789659
#
# number of rings (size 3 to 8) (size 9 to 14) (size 15 to 20)
#    0.000    2.667    0.000    3.500    0.000    5.333 
#    0.000    1.667    0.000   10.000    0.000    0.000 
#    0.000    0.000    0.000    0.000    0.000    0.000 
#
# Total GULP energy -595011.168532 kJ/mol
# GULP energy per Si atom -12396.066011 kJ/mol
# Density = 1.774917 g / cm^3
# Si number density = 17.789659 Si / 1000 Ang^3
#
#
#
# Elastic Constant Matrix: (Units=GPa)
#
#
# Indices 1 2 3 4 5 6 
#
# 1 116.3651 38.9375 70.7323 0.0000 0.0000 0.0000
# 2 38.9375 70.8382 43.4485 0.0000 0.0000 0.0000
# 3 70.7323 43.4485 132.3019 0.0000 0.0000 0.0000
# 4 0.0000 0.0000 0.0000 18.1024 0.0000 0.0000
# 5 0.0000 0.0000 0.0000 0.0000 35.3360 0.0000
# 6 0.0000 0.0000 0.0000 0.0000 0.0000 22.4588
#
#
#
# Elastic Compliance Matrix: (Units=1/GPa)
#
#
# Indices 1 2 3 4 5 6 
#
# 1 0.013479 -0.003743 -0.005977 0.000000 0.000000 0.000000
# 2 -0.003743 0.018717 -0.004146 0.000000 0.000000 0.000000
# 3 -0.005977 -0.004146 0.012115 0.000000 0.000000 0.000000
# 4 0.000000 0.000000 0.000000 0.055241 0.000000 0.000000
# 5 0.000000 0.000000 0.000000 0.000000 0.028300 0.000000
# 6 0.000000 0.000000 0.000000 0.000000 0.000000 0.044526
#
#
# Mechanical properties :
#
#
# Convention : Reuss Voigt Hill
#
# Bulk Modulus (GPa) = 60.31359 69.52687 64.92023
# Shear Modulus (GPa) = 24.31468 26.27188 25.29328
#
# Velocity S-wave (km/s) = 3.70102 3.84709 3.77476
# Velocity P-wave (km/s) = 7.22778 7.67470 7.45459
#
# Compressibility (1/GPa) = 0.01658001
#
# Stress axis : x y z
#
# Youngs Moduli (GPa) = 74.18742 53.42798 82.53920
#
# Poissons Ratio (x) = 0.19999 0.49335
# Poissons Ratio (y) = 0.27769 0.34217
# Poissons Ratio (z) = 0.44343 0.22149
#
# Static dielectric constant tensor:
#      x y z
#    x 3.475620 0.000000 0.000000 
#    y 0.000000 3.357180 0.000000 
#    z 0.000000 0.000000 3.337800 
# 
# 
# High freq. dielectric constant tensor:
#      x y z
#    x 1.693160 0.000000 0.000000 
#    y 0.000000 1.666720 0.000000 
#    z 0.000000 0.000000 1.678890 
# 
# From -- ./inp_files/25763.got.cif
#   From: 2010.03.12/outbox.cif.g09.slc.cpg/sg59_13_cif.got.tgz:25763.got - 2010.04.16 16:29:54.
