data_PCOD8240341
_publ_section_title
;
Structure prediction by ZEFSAII (Michael W. Deem and Ramdas Pophale) SiO2 
 PCOD8240341
Probable space group: P M M N
;
_chemical_formula_sum "Si O2"
_cell_formula_units_Z 64
_cell_length_a 8.978408
_cell_length_b 17.746162
_cell_length_c 21.650890
_cell_angle_alpha 90.000000
_cell_angle_beta 90.000000
_cell_angle_gamma 90.000000
_cell_volume 3449.685730
_symmetry_space_group_name_H-M "P M M N"
_symmetry_group_IT_number 59
_space_group.IT_coordinate_system_code '2'
_symmetry_cell_setting 'orthorhombic'
loop_
_space_group_symop_operation_xyz
x,y,z
1/2-x,1/2-y,z
1/2+x,-y,-z
-x,1/2+y,-z
-x,-y,-z
1/2+x,1/2+y,-z
1/2-x,y,z
x,1/2-y,z
loop_
_atom_site_type_symbol
_atom_site_label
_atom_site_fract_x
_atom_site_fract_y
_atom_site_fract_z
Si Si1 0.424806 0.662911 0.635340
Si Si2 0.079546 0.833845 0.866413
Si Si3 0.422430 0.947886 0.178846
Si Si4 0.579212 0.660930 0.266842
Si Si5 0.421252 0.398024 0.247097
Si Si6 0.417817 0.839723 0.390316
Si Si7 0.417870 0.160307 0.488761
Si Si8 0.075210 0.518126 0.935763
O O1 0.250000 0.651758 0.628679
O O2 0.466669 0.750000 0.647289
O O3 0.484595 0.613114 0.691266
O O4 0.499668 0.632367 0.572776
O O5 0.250000 0.845822 0.845142
O O6 0.054934 0.750000 0.894034
O O7 0.037652 0.895010 0.918519
O O8 0.977655 0.842302 0.806274
O O9 0.250000 0.934332 0.163404
O O10 0.491178 0.873675 0.209282
O O11 0.444998 0.016422 0.226097
O O12 0.508431 0.962649 0.115371
O O13 0.750000 0.634479 0.265590
O O14 0.564689 0.750000 0.260771
O O15 0.507364 0.631786 0.330613
O O16 0.250000 0.379024 0.260593
O O17 0.250000 0.871462 0.386875
O O18 0.416609 0.750000 0.392584
O O19 0.496815 0.872440 0.451494
O O20 0.250000 0.128932 0.488829
O O21 0.418737 0.250000 0.491557
O O22 0.250000 0.503612 0.940779
O O23 0.000000 0.500000 0.000000
#
# Coordination Sequence:
#
# PCOD8240341 Si02
#       8
#     8   8   8   8   8   8   8   8
#     4  10  19  29  43  66  97 133 172 212 255 304
#     4   9  18  33  53  77 104 135 173 214 254 298
#     4  10  21  37  56  78 104 135 170 206 249 304
#     4  10  20  34  54  80 106 131 165 211 259 305
#     4  10  20  32  48  72 101 133 169 209 253 301
#     4   9  16  27  45  69  97 129 165 206 254 307
#     4   9  16  26  41  63  93 128 167 212 258 302
#     4  10  20  36  58  81 108 142 177 213 254 304
#
# _framework density 18.552413999999999
#
# number of rings (size 3 to 8) (size 9 to 14) (size 15 to 20)
#    0.000    2.375    0.000    3.000    0.000    8.250 
#    0.000    0.625    0.000    3.000    0.000    0.000 
#    0.000    0.000    0.000    0.000    0.000    0.000 
#
# Total GULP energy -793755.037271 kJ/mol
# GULP energy per Si atom -12402.422457 kJ/mol
# Density = 1.851019 g / cm^3
# Si number density = 18.552414 Si / 1000 Ang^3
#
#
#
# Elastic Constant Matrix: (Units=GPa)
#
#
# Indices 1 2 3 4 5 6 
#
# 1 133.7047 32.6942 75.8059 0.0000 0.0000 0.0000
# 2 32.6942 38.8344 42.1001 0.0000 0.0000 0.0000
# 3 75.8059 42.1001 152.6171 0.0000 0.0000 0.0000
# 4 0.0000 0.0000 0.0000 20.9070 0.0000 0.0000
# 5 0.0000 0.0000 0.0000 0.0000 42.2070 0.0000
# 6 0.0000 0.0000 0.0000 0.0000 0.0000 22.9223
#
#
#
# Elastic Compliance Matrix: (Units=1/GPa)
#
#
# Indices 1 2 3 4 5 6 
#
# 1 0.010995 -0.004759 -0.004148 0.000000 0.000000 0.000000
# 2 -0.004759 0.038797 -0.008338 0.000000 0.000000 0.000000
# 3 -0.004148 -0.008338 0.010913 0.000000 0.000000 0.000000
# 4 0.000000 0.000000 0.000000 0.047831 0.000000 0.000000
# 5 0.000000 0.000000 0.000000 0.000000 0.023693 0.000000
# 6 0.000000 0.000000 0.000000 0.000000 0.000000 0.043626
#
#
# Mechanical properties :
#
#
# Convention : Reuss Voigt Hill
#
# Bulk Modulus (GPa) = 38.14943 69.59519 53.87231
# Shear Modulus (GPa) = 22.82240 28.84434 25.83337
#
# Velocity S-wave (km/s) = 3.51117 3.94731 3.73561
# Velocity P-wave (km/s) = 6.08649 7.63997 6.90705
#
# Compressibility (1/GPa) = 0.02621271
#
# Stress axis : x y z
#
# Youngs Moduli (GPa) = 90.95115 25.77548 91.63361
#
# Poissons Ratio (x) = 0.12267 0.38013
# Poissons Ratio (y) = 0.43286 0.76407
# Poissons Ratio (z) = 0.37730 0.21492
#
# Static dielectric constant tensor:
#      x y z
#    x 3.631790 0.000000 0.000000 
#    y 0.000000 3.116440 0.000000 
#    z 0.000000 0.000000 3.398460 
# 
# 
# High freq. dielectric constant tensor:
#      x y z
#    x 1.738180 0.000000 0.000000 
#    y 0.000000 1.685770 0.000000 
#    z 0.000000 0.000000 1.718080 
# 
# From -- ./inp_files/29365.got.cif
#   From: 2010.03.12/outbox.cif.g09.slc.cpg/sg59_15_cif.got.tgz:29365.got - 2010.04.16 16:29:54.
