data_PCOD8240038
_publ_section_title
;
Structure prediction by ZEFSAII (Michael W. Deem and Ramdas Pophale) SiO2 
 PCOD8240038
Probable space group: P M M N
;
_chemical_formula_sum "Si O2"
_cell_formula_units_Z 64
_cell_length_a 16.591655
_cell_length_b 16.563873
_cell_length_c 12.437552
_cell_angle_alpha 90.000000
_cell_angle_beta 90.000000
_cell_angle_gamma 90.000000
_cell_volume 3418.113740
_symmetry_space_group_name_H-M "P M M N"
_symmetry_group_IT_number 59
_space_group.IT_coordinate_system_code '2'
_symmetry_cell_setting 'orthorhombic'
loop_
_space_group_symop_operation_xyz
x,y,z
1/2-x,1/2-y,z
1/2+x,-y,-z
-x,1/2+y,-z
-x,-y,-z
1/2+x,1/2+y,-z
1/2-x,y,z
x,1/2-y,z
loop_
_atom_site_type_symbol
_atom_site_label
_atom_site_fract_x
_atom_site_fract_y
_atom_site_fract_z
Si Si1 0.343461 0.935587 0.990866
Si Si2 0.154813 0.344172 0.684495
Si Si3 0.013764 0.658903 0.916284
Si Si4 0.424169 0.085866 0.893258
Si Si5 0.017703 0.034761 0.244407
Si Si6 0.341409 0.540223 0.367092
Si Si7 0.656908 0.162125 0.801932
Si Si8 0.419073 0.493219 0.568409
O O1 0.250000 0.923673 0.962921
O O2 0.365049 0.907630 0.112374
O O3 0.396341 0.878346 0.914750
O O4 0.368858 0.027926 0.968095
O O5 0.250000 0.359619 0.673052
O O6 0.133725 0.250000 0.661824
O O7 0.129028 0.366883 0.805873
O O8 0.108102 0.401169 0.598118
O O9 0.022099 0.750000 0.883813
O O10 0.965775 0.616552 0.819583
O O11 0.966793 0.649913 0.028691
O O12 0.498149 0.037413 0.839041
O O13 0.098745 0.023765 0.313050
O O14 0.938061 0.040533 0.321164
O O15 0.250000 0.517563 0.335852
O O16 0.364120 0.628118 0.317270
O O17 0.350815 0.537917 0.496814
O O18 0.750000 0.180432 0.811828
O O19 0.612816 0.250000 0.819912
O O20 0.500000 0.500000 0.500000
#
# Coordination Sequence:
#
# PCOD8240038 Si02
#       8
#     8   8   8   8   8   8   8   8
#     4  10  19  32  53  77 103 140 183 223 265 322
#     4  10  20  35  57  84 111 139 180 237 286 322
#     4  11  21  33  51  75 109 147 178 214 261 319
#     4  10  19  34  53  77 108 143 179 214 265 327
#     4   9  19  35  51  73 103 136 173 212 258 318
#     4  10  18  32  55  75  95 131 175 219 267 318
#     4   9  17  28  44  72 105 129 161 215 266 304
#     4   9  19  36  55  76 103 135 174 219 269 329
#
# _framework density 18.723776000000001
#
# number of rings (size 3 to 8) (size 9 to 14) (size 15 to 20)
#    0.000    2.250    0.000    4.500    0.000    0.750 
#    0.000   11.250    0.000    2.625    0.000    0.000 
#    0.000    0.000    0.000    0.000    0.000    0.000 
#
# Total GULP energy -792914.887103 kJ/mol
# GULP energy per Si atom -12389.295111 kJ/mol
# Density = 1.868116 g / cm^3
# Si number density = 18.723776 Si / 1000 Ang^3
#
#
#
# Elastic Constant Matrix: (Units=GPa)
#
#
# Indices 1 2 3 4 5 6 
#
# 1 93.9288 37.3782 31.0491 0.0000 0.0000 0.0000
# 2 37.3782 84.8169 40.3726 0.0000 0.0000 0.0000
# 3 31.0491 40.3726 89.8626 0.0000 0.0000 0.0000
# 4 0.0000 0.0000 0.0000 11.9200 0.0000 0.0000
# 5 0.0000 0.0000 0.0000 0.0000 28.7168 0.0000
# 6 0.0000 0.0000 0.0000 0.0000 0.0000 16.8993
#
#
#
# Elastic Compliance Matrix: (Units=1/GPa)
#
#
# Indices 1 2 3 4 5 6 
#
# 1 0.013339 -0.004687 -0.002503 0.000000 0.000000 0.000000
# 2 -0.004687 0.016644 -0.005858 0.000000 0.000000 0.000000
# 3 -0.002503 -0.005858 0.014625 0.000000 0.000000 0.000000
# 4 0.000000 0.000000 0.000000 0.083892 0.000000 0.000000
# 5 0.000000 0.000000 0.000000 0.000000 0.034823 0.000000
# 6 0.000000 0.000000 0.000000 0.000000 0.000000 0.059174
#
#
# Mechanical properties :
#
#
# Convention : Reuss Voigt Hill
#
# Bulk Modulus (GPa) = 54.02104 54.02311 54.02208
# Shear Modulus (GPa) = 19.62598 22.16112 20.89355
#
# Velocity S-wave (km/s) = 3.24108 3.44405 3.34411
# Velocity P-wave (km/s) = 6.55136 6.68810 6.62008
#
# Compressibility (1/GPa) = 0.01851130
#
# Stress axis : x y z
#
# Youngs Moduli (GPa) = 74.96866 60.08137 68.37637
#
# Poissons Ratio (x) = 0.28159 0.17116
# Poissons Ratio (y) = 0.35137 0.40057
# Poissons Ratio (z) = 0.18766 0.35197
#
# Static dielectric constant tensor:
#      x y z
#    x 3.526310 0.000000 0.000000 
#    y 0.000000 3.378590 0.000000 
#    z 0.000000 0.000000 3.836160 
# 
# 
# High freq. dielectric constant tensor:
#      x y z
#    x 1.730680 0.000000 0.000000 
#    y 0.000000 1.704320 0.000000 
#    z 0.000000 0.000000 1.726680 
# 
# From -- ./inp_files/17956.got.cif
#   From: 2010.03.12/outbox.cif.g09.slc.cpg/sg59_9_cif.got.tgz:17956.got - 2010.04.16 16:29:54.
