data_PCOD8240273
_publ_section_title
;
Structure prediction by ZEFSAII (Michael W. Deem and Ramdas Pophale) SiO2 
 PCOD8240273
Probable space group: P M M N
;
_chemical_formula_sum "Si O2"
_cell_formula_units_Z 64
_cell_length_a 8.933420
_cell_length_b 17.951928
_cell_length_c 21.451972
_cell_angle_alpha 90.000000
_cell_angle_beta 90.000000
_cell_angle_gamma 90.000000
_cell_volume 3440.298070
_symmetry_space_group_name_H-M "P M M N"
_symmetry_group_IT_number 59
_space_group.IT_coordinate_system_code '2'
_symmetry_cell_setting 'orthorhombic'
loop_
_space_group_symop_operation_xyz
x,y,z
1/2-x,1/2-y,z
1/2+x,-y,-z
-x,1/2+y,-z
-x,-y,-z
1/2+x,1/2+y,-z
1/2-x,y,z
x,1/2-y,z
loop_
_atom_site_type_symbol
_atom_site_label
_atom_site_fract_x
_atom_site_fract_y
_atom_site_fract_z
Si Si1 0.922673 0.162345 0.262086
Si Si2 0.418208 0.338618 0.387421
Si Si3 0.580456 0.100492 0.750359
Si Si4 0.572474 0.527180 0.063280
Si Si5 0.075090 0.164704 0.634288
Si Si6 0.081244 0.838763 0.490302
Si Si7 0.576155 0.335008 0.880835
Si Si8 0.077623 0.451413 0.178413
O O1 0.750000 0.139018 0.259619
O O2 0.944809 0.250000 0.254040
O O3 0.988552 0.134133 0.327778
O O4 0.011109 0.124665 0.205436
O O5 0.250000 0.370086 0.382143
O O6 0.417079 0.250000 0.390356
O O7 0.493609 0.371275 0.449929
O O8 0.750000 0.118520 0.729622
O O9 0.470335 0.116002 0.693521
O O10 0.533997 0.152515 0.808558
O O11 0.562224 0.014647 0.769086
O O12 0.750000 0.522824 0.058813
O O13 0.523228 0.612446 0.075399
O O14 0.515567 0.473304 0.117704
O O15 0.500000 0.500000 0.000000
O O16 0.250000 0.157844 0.622778
O O17 0.026617 0.250000 0.646340
O O18 0.994909 0.132107 0.572959
O O19 0.250000 0.868802 0.492802
O O20 0.076306 0.750000 0.492028
O O21 0.750000 0.356518 0.890571
O O22 0.543255 0.250000 0.899508
O O23 0.250000 0.439678 0.159223
#
# Coordination Sequence:
#
# PCOD8240273 Si02
#       8
#     8   8   8   8   8   8   8   8
#     4  10  20  34  54  81 109 135 168 212 262 314
#     4   9  16  27  45  69  97 129 166 210 259 309
#     4   9  18  32  50  72 100 136 173 209 253 305
#     4  11  22  38  60  84 113 147 182 218 259 310
#     4  10  19  28  41  66  99 133 171 215 259 304
#     4   9  16  26  41  62  91 128 169 213 260 309
#     4   9  18  34  56  82 112 144 180 222 264 307
#     4  10  21  38  58  80 106 137 174 212 255 308
#
# _framework density 18.603038999999999
#
# number of rings (size 3 to 8) (size 9 to 14) (size 15 to 20)
#    0.000    2.375    0.000    4.125    0.000    7.750 
#    0.000    0.625    0.000    4.500    0.000    0.000 
#    0.000    0.000    0.000    0.000    0.000    0.000 
#
# Total GULP energy -793742.231312 kJ/mol
# GULP energy per Si atom -12402.222364 kJ/mol
# Density = 1.856070 g / cm^3
# Si number density = 18.603039 Si / 1000 Ang^3
#
#
#
# Elastic Constant Matrix: (Units=GPa)
#
#
# Indices 1 2 3 4 5 6 
#
# 1 140.8320 43.2513 67.6049 0.0000 0.0000 0.0000
# 2 43.2513 48.8402 48.3586 0.0000 0.0000 0.0000
# 3 67.6049 48.3586 124.6651 0.0000 0.0000 0.0000
# 4 0.0000 0.0000 0.0000 19.3996 0.0000 0.0000
# 5 0.0000 0.0000 0.0000 0.0000 38.4393 0.0000
# 6 0.0000 0.0000 0.0000 0.0000 0.0000 25.6752
#
#
#
# Elastic Compliance Matrix: (Units=1/GPa)
#
#
# Indices 1 2 3 4 5 6 
#
# 1 0.010578 -0.005988 -0.003414 0.000000 0.000000 0.000000
# 2 -0.005988 0.036632 -0.010963 0.000000 0.000000 0.000000
# 3 -0.003414 -0.010963 0.014125 0.000000 0.000000 0.000000
# 4 0.000000 0.000000 0.000000 0.051547 0.000000 0.000000
# 5 0.000000 0.000000 0.000000 0.000000 0.026015 0.000000
# 6 0.000000 0.000000 0.000000 0.000000 0.000000 0.038948
#
#
# Mechanical properties :
#
#
# Convention : Reuss Voigt Hill
#
# Bulk Modulus (GPa) = 48.52689 70.30741 59.41715
# Shear Modulus (GPa) = 22.17845 27.04433 24.61139
#
# Velocity S-wave (km/s) = 3.45656 3.81696 3.64122
# Velocity P-wave (km/s) = 6.48633 7.56975 7.04889
#
# Compressibility (1/GPa) = 0.02060713
#
# Stress axis : x y z
#
# Youngs Moduli (GPa) = 94.53278 27.29848 70.79434
#
# Poissons Ratio (x) = 0.16345 0.24169
# Poissons Ratio (y) = 0.56602 0.77611
# Poissons Ratio (z) = 0.32273 0.29927
#
# Static dielectric constant tensor:
#      x y z
#    x 3.539450 0.000000 0.000000 
#    y 0.000000 3.152640 0.000000 
#    z 0.000000 0.000000 3.398400 
# 
# 
# High freq. dielectric constant tensor:
#      x y z
#    x 1.733800 0.000000 0.000000 
#    y 0.000000 1.688920 0.000000 
#    z 0.000000 0.000000 1.721080 
# 
# From -- ./inp_files/26200.got.cif
#   From: 2010.03.12/outbox.cif.g09.slc.cpg/sg59_14_cif.got.tgz:26200.got - 2010.04.16 16:29:54.
