data_PCOD8240676
_publ_section_title
;
Structure prediction by ZEFSAII (Michael W. Deem and Ramdas Pophale) SiO2 
 PCOD8240676
Probable space group: P M M N
;
_chemical_formula_sum "Si O2"
_cell_formula_units_Z 56
_cell_length_a 8.959014
_cell_length_b 15.466990
_cell_length_c 21.522215
_cell_angle_alpha 90.000000
_cell_angle_beta 90.000000
_cell_angle_gamma 90.000000
_cell_volume 2982.311379
_symmetry_space_group_name_H-M "P M M N"
_symmetry_group_IT_number 59
_space_group.IT_coordinate_system_code '2'
_symmetry_cell_setting 'orthorhombic'
loop_
_space_group_symop_operation_xyz
x,y,z
1/2-x,1/2-y,z
1/2+x,-y,-z
-x,1/2+y,-z
-x,-y,-z
1/2+x,1/2+y,-z
1/2-x,y,z
x,1/2-y,z
loop_
_atom_site_type_symbol
_atom_site_label
_atom_site_fract_x
_atom_site_fract_y
_atom_site_fract_z
Si Si1 0.426391 0.907363 0.000118
Si Si2 0.072951 0.844621 0.866624
Si Si3 0.923361 0.650561 0.576960
Si Si4 0.427424 0.154403 0.563571
Si Si5 0.078922 0.346883 0.879538
Si Si6 0.927582 0.500334 0.351059
Si Si7 0.427623 0.495482 0.788740
O O1 0.250000 0.917523 0.003621
O O2 0.477725 0.859681 0.937384
O O3 0.482302 0.852176 0.058272
O O4 0.500000 0.000000 0.000000
O O5 0.250000 0.848262 0.862988
O O6 0.014457 0.750000 0.845363
O O7 0.006423 0.918136 0.821272
O O8 0.750000 0.627005 0.583389
O O9 0.952060 0.750000 0.595772
O O10 0.979320 0.634014 0.506592
O O11 0.017547 0.590577 0.622427
O O12 0.250000 0.155047 0.565788
O O13 0.485935 0.250000 0.583701
O O14 0.492552 0.080914 0.609148
O O15 0.250000 0.370496 0.895912
O O16 0.066008 0.250000 0.852551
O O17 0.016463 0.412262 0.827377
O O18 0.750000 0.500485 0.352615
O O19 0.989569 0.510604 0.281162
O O20 0.250000 0.498001 0.787629
#
# Coordination Sequence:
#
# PCOD8240676 Si02
#       7
#     8   8   8   8   8   8   8
#     4  11  20  33  55  78 102 130 168 214 260 304
#     4   9  17  30  49  70  95 128 162 198 246 302
#     4   9  18  33  51  70  99 137 168 201 255 313
#     4   8  15  29  49  74 102 131 165 206 253 304
#     4  10  20  35  54  76 104 136 169 208 255 305
#     4  10  19  30  51  78 101 129 171 216 250 290
#     4   9  18  32  47  72 105 133 163 202 252 301
#
# _framework density 18.777381999999999
#
# number of rings (size 3 to 8) (size 9 to 14) (size 15 to 20)
#    0.000    2.571    1.429    2.143    0.000    2.286 
#    0.000    5.000    0.000    1.286    0.000    0.000 
#    0.000    0.000    0.000    0.000    0.000    0.000 
#
# Total GULP energy -694271.885235 kJ/mol
# GULP energy per Si atom -12397.712236 kJ/mol
# Density = 1.873464 g / cm^3
# Si number density = 18.777382 Si / 1000 Ang^3
#
#
#
# Elastic Constant Matrix: (Units=GPa)
#
#
# Indices 1 2 3 4 5 6 
#
# 1 24.0440 17.8173 19.4091 0.0000 0.0000 0.0000
# 2 17.8173 147.1001 75.2317 0.0000 0.0000 0.0000
# 3 19.4091 75.2317 141.8795 0.0000 0.0000 0.0000
# 4 0.0000 0.0000 0.0000 19.4285 0.0000 0.0000
# 5 0.0000 0.0000 0.0000 0.0000 18.9444 0.0000
# 6 0.0000 0.0000 0.0000 0.0000 0.0000 20.9294
#
#
#
# Elastic Compliance Matrix: (Units=1/GPa)
#
#
# Indices 1 2 3 4 5 6 
#
# 1 0.047937 -0.003365 -0.004774 0.000000 0.000000 0.000000
# 2 -0.003365 0.009564 -0.004611 0.000000 0.000000 0.000000
# 3 -0.004774 -0.004611 0.010146 0.000000 0.000000 0.000000
# 4 0.000000 0.000000 0.000000 0.051471 0.000000 0.000000
# 5 0.000000 0.000000 0.000000 0.000000 0.052786 0.000000
# 6 0.000000 0.000000 0.000000 0.000000 0.000000 0.047780
#
#
# Mechanical properties :
#
#
# Convention : Reuss Voigt Hill
#
# Bulk Modulus (GPa) = 23.72568 59.77110 41.74839
# Shear Modulus (GPa) = 19.28773 25.23149 22.25961
#
# Velocity S-wave (km/s) = 3.20844 3.66965 3.44677
# Velocity P-wave (km/s) = 5.13694 7.06085 6.17429
#
# Compressibility (1/GPa) = 0.04214842
#
# Stress axis : x y z
#
# Youngs Moduli (GPa) = 20.86060 104.56055 98.55928
#
# Poissons Ratio (x) = 0.35185 0.47047
# Poissons Ratio (y) = 0.07020 0.45445
# Poissons Ratio (z) = 0.09958 0.48212
#
# Static dielectric constant tensor:
#      x y z
#    x 3.003800 0.000000 0.000000 
#    y 0.000000 3.735750 0.000000 
#    z 0.000000 0.000000 3.669840 
# 
# 
# High freq. dielectric constant tensor:
#      x y z
#    x 1.677320 0.000000 0.000000 
#    y 0.000000 1.747350 0.000000 
#    z 0.000000 0.000000 1.727510 
# 
# From -- ./inp_files/29008.got.cif
#   From: 2010.03.12/outbox.cif.g09.slc.cpg/sg59_15_cif.got.tgz:29008.got - 2010.04.16 16:29:54.
