data_PCOD8240359
_publ_section_title
;
Structure prediction by ZEFSAII (Michael W. Deem and Ramdas Pophale) SiO2 
 PCOD8240359
Probable space group: P M M N
;
_chemical_formula_sum "Si O2"
_cell_formula_units_Z 64
_cell_length_a 9.050483
_cell_length_b 14.025492
_cell_length_c 31.244547
_cell_angle_alpha 90.000000
_cell_angle_beta 90.000000
_cell_angle_gamma 90.000000
_cell_volume 3966.103963
_symmetry_space_group_name_H-M "P M M N"
_symmetry_group_IT_number 59
_space_group.IT_coordinate_system_code '2'
_symmetry_cell_setting 'orthorhombic'
loop_
_space_group_symop_operation_xyz
x,y,z
1/2-x,1/2-y,z
1/2+x,-y,-z
-x,1/2+y,-z
-x,-y,-z
1/2+x,1/2+y,-z
1/2-x,y,z
x,1/2-y,z
loop_
_atom_site_type_symbol
_atom_site_label
_atom_site_fract_x
_atom_site_fract_y
_atom_site_fract_z
Si Si1 0.422411 0.138469 0.311473
Si Si2 0.421723 0.954016 0.936734
Si Si3 0.080039 0.141247 0.985886
Si Si4 0.076612 0.402705 0.488157
Si Si5 0.916169 0.136830 0.227443
Si Si6 0.418757 0.851319 0.433975
Si Si7 0.924326 0.860171 0.858340
Si Si8 0.423320 0.454123 0.396957
O O1 0.250000 0.116628 0.305306
O O2 0.450805 0.250000 0.317175
O O3 0.506651 0.096545 0.270202
O O4 0.492702 0.087788 0.353508
O O5 0.250000 0.933268 0.928765
O O6 0.512233 0.928935 0.894569
O O7 0.449793 0.065916 0.947600
O O8 0.475574 0.885359 0.974710
O O9 0.250000 0.132513 0.001222
O O10 0.045747 0.250000 0.970737
O O11 0.250000 0.405837 0.496420
O O12 0.043807 0.384142 0.437584
O O13 0.000000 0.500000 0.500000
O O14 0.003810 0.329549 0.521270
O O15 0.750000 0.096485 0.224417
O O16 0.916484 0.250000 0.229541
O O17 0.007617 0.103281 0.186193
O O18 0.250000 0.878006 0.445299
O O19 0.428144 0.750000 0.408553
O O20 0.486163 0.938703 0.406257
O O21 0.750000 0.872373 0.855878
O O22 0.967620 0.750000 0.867742
O O23 0.250000 0.459982 0.389086
#
# Coordination Sequence:
#
# PCOD8240359 Si02
#       8
#     8   8   8   8   8   8   8   8
#     4   9  16  27  43  61  82 108 136 166 205 256
#     4  10  19  29  44  67  91 117 153 192 225 258
#     4   9  18  32  46  61  88 125 158 187 222 263
#     4   9  16  27  42  59  81 108 139 174 210 248
#     4   9  17  29  44  63  87 111 136 170 212 257
#     4   9  17  29  43  59  82 112 144 178 214 247
#     4  10  19  30  45  65  90 119 147 176 215 263
#     4   8  15  27  42  60  81 107 139 171 204 249
#
# _framework density 16.136744
#
# number of rings (size 3 to 8) (size 9 to 14) (size 15 to 20)
#    0.000    2.875    0.000    2.625    0.000    5.250 
#    0.000    4.375    0.000    1.500    0.000    0.875 
#    0.000    3.000    0.000    0.000    0.000    0.000 
#
# Total GULP energy -792958.134837 kJ/mol
# GULP energy per Si atom -12389.970857 kJ/mol
# Density = 1.610002 g / cm^3
# Si number density = 16.136744 Si / 1000 Ang^3
#
#
#
# Elastic Constant Matrix: (Units=GPa)
#
#
# Indices 1 2 3 4 5 6 
#
# 1 72.4014 28.4389 51.4241 0.0000 0.0000 0.0000
# 2 28.4389 75.9553 44.4645 0.0000 0.0000 0.0000
# 3 51.4241 44.4645 132.1457 0.0000 0.0000 0.0000
# 4 0.0000 0.0000 0.0000 20.3872 0.0000 0.0000
# 5 0.0000 0.0000 0.0000 0.0000 26.9580 0.0000
# 6 0.0000 0.0000 0.0000 0.0000 0.0000 14.4441
#
#
#
# Elastic Compliance Matrix: (Units=1/GPa)
#
#
# Indices 1 2 3 4 5 6 
#
# 1 0.019858 -0.003626 -0.006508 0.000000 0.000000 0.000000
# 2 -0.003626 0.017057 -0.004328 0.000000 0.000000 0.000000
# 3 -0.006508 -0.004328 0.011556 0.000000 0.000000 0.000000
# 4 0.000000 0.000000 0.000000 0.049050 0.000000 0.000000
# 5 0.000000 0.000000 0.000000 0.000000 0.037095 0.000000
# 6 0.000000 0.000000 0.000000 0.000000 0.000000 0.069233
#
#
# Mechanical properties :
#
#
# Convention : Reuss Voigt Hill
#
# Bulk Modulus (GPa) = 51.15644 58.79526 54.97585
# Shear Modulus (GPa) = 20.89523 22.76953 21.83238
#
# Velocity S-wave (km/s) = 3.60236 3.76045 3.68225
# Velocity P-wave (km/s) = 7.00523 7.44106 7.22643
#
# Compressibility (1/GPa) = 0.01954788
#
# Stress axis : x y z
#
# Youngs Moduli (GPa) = 50.35683 58.62692 86.53234
#
# Poissons Ratio (x) = 0.21255 0.56314
# Poissons Ratio (y) = 0.18257 0.37455
# Poissons Ratio (z) = 0.32772 0.25377
#
# Static dielectric constant tensor:
#      x y z
#    x 3.202620 0.000000 0.000000 
#    y 0.000000 3.093860 0.000000 
#    z 0.000000 0.000000 3.226610 
# 
# 
# High freq. dielectric constant tensor:
#      x y z
#    x 1.618530 0.000000 0.000000 
#    y 0.000000 1.596160 0.000000 
#    z 0.000000 0.000000 1.609440 
# 
# From -- ./inp_files/33255.got.cif
#   From: 2010.03.12/outbox.cif.g09.slc.cpg/sg59_17_cif.got.tgz:33255.got - 2010.04.16 16:29:54.
