data_PCOD8240048
_publ_section_title
;
Structure prediction by ZEFSAII (Michael W. Deem and Ramdas Pophale) SiO2 
 PCOD8240048
Probable space group: P M M N
;
_chemical_formula_sum "Si O2"
_cell_formula_units_Z 64
_cell_length_a 8.814515
_cell_length_b 14.715199
_cell_length_c 26.081772
_cell_angle_alpha 90.000000
_cell_angle_beta 90.000000
_cell_angle_gamma 90.000000
_cell_volume 3382.997329
_symmetry_space_group_name_H-M "P M M N"
_symmetry_group_IT_number 59
_space_group.IT_coordinate_system_code '2'
_symmetry_cell_setting 'orthorhombic'
loop_
_space_group_symop_operation_xyz
x,y,z
1/2-x,1/2-y,z
1/2+x,-y,-z
-x,1/2+y,-z
-x,-y,-z
1/2+x,1/2+y,-z
1/2-x,y,z
x,1/2-y,z
loop_
_atom_site_type_symbol
_atom_site_label
_atom_site_fract_x
_atom_site_fract_y
_atom_site_fract_z
Si Si1 0.428858 0.145035 0.362940
Si Si2 0.428943 0.902821 0.999107
Si Si3 0.929192 0.499341 0.290560
Si Si4 0.571050 0.151996 0.891776
Si Si5 0.578930 0.147881 0.112488
Si Si6 0.073254 0.501074 0.444966
Si Si7 0.429853 0.855069 0.362015
Si Si8 0.071460 0.005591 0.180413
O O1 0.250000 0.140143 0.352827
O O2 0.484072 0.250000 0.366582
O O3 0.471634 0.091645 0.415198
O O4 0.510083 0.092973 0.316631
O O5 0.250000 0.909999 0.002231
O O6 0.477144 0.852979 0.946685
O O7 0.491901 0.852721 0.049943
O O8 0.500000 0.000000 0.000000
O O9 0.750000 0.502172 0.296394
O O10 0.996764 0.592223 0.314230
O O11 0.976236 0.494598 0.231937
O O12 0.750000 0.138319 0.893422
O O13 0.525709 0.250000 0.869047
O O14 0.504448 0.076364 0.854029
O O15 0.750000 0.107185 0.116930
O O16 0.577920 0.250000 0.132585
O O17 0.460730 0.096150 0.148421
O O18 0.250000 0.505805 0.453722
O O19 0.020093 0.590669 0.413420
O O20 0.000000 0.500000 0.500000
O O21 0.250000 0.859249 0.354837
O O22 0.485959 0.750000 0.364682
O O23 0.250000 0.997592 0.192506
#
# Coordination Sequence:
#
# PCOD8240048 Si02
#       8
#     8   8   8   8   8   8   8   8
#     4   9  19  38  61  82 108 147 193 234 274 325
#     4  10  18  32  55  79 105 137 173 213 261 317
#     4  11  23  38  57  82 112 142 178 232 288 336
#     4   9  18  33  54  79 104 134 174 214 255 313
#     4  10  21  36  55  79 108 141 175 217 271 324
#     4   9  18  32  52  83 120 154 187 226 272 321
#     4   9  19  38  61  82 109 150 196 234 271 323
#     4  11  22  37  57  80 106 140 180 223 270 326
#
# _framework density 18.918134999999999
#
# number of rings (size 3 to 8) (size 9 to 14) (size 15 to 20)
#    0.000    2.250    1.250    2.625    0.000    5.750 
#    0.000    1.250    0.000    3.750    0.000    0.000 
#    0.000    0.000    0.000    0.000    0.000    0.000 
#
# Total GULP energy -793349.690558 kJ/mol
# GULP energy per Si atom -12396.088915 kJ/mol
# Density = 1.887508 g / cm^3
# Si number density = 18.918135 Si / 1000 Ang^3
#
#
#
# Elastic Constant Matrix: (Units=GPa)
#
#
# Indices 1 2 3 4 5 6 
#
# 1 31.4842 31.3032 31.9437 0.0000 0.0000 0.0000
# 2 31.3032 157.3376 65.5155 0.0000 0.0000 0.0000
# 3 31.9437 65.5155 140.0626 0.0000 0.0000 0.0000
# 4 0.0000 0.0000 0.0000 62.0648 0.0000 0.0000
# 5 0.0000 0.0000 0.0000 0.0000 26.7151 0.0000
# 6 0.0000 0.0000 0.0000 0.0000 0.0000 18.0873
#
#
#
# Elastic Compliance Matrix: (Units=1/GPa)
#
#
# Indices 1 2 3 4 5 6 
#
# 1 0.045278 -0.005847 -0.007591 0.000000 0.000000 0.000000
# 2 -0.005847 0.008648 -0.002712 0.000000 0.000000 0.000000
# 3 -0.007591 -0.002712 0.010139 0.000000 0.000000 0.000000
# 4 0.000000 0.000000 0.000000 0.016112 0.000000 0.000000
# 5 0.000000 0.000000 0.000000 0.000000 0.037432 0.000000
# 6 0.000000 0.000000 0.000000 0.000000 0.000000 0.055287
#
#
# Mechanical properties :
#
#
# Convention : Reuss Voigt Hill
#
# Bulk Modulus (GPa) = 31.48134 65.15659 48.31897
# Shear Modulus (GPa) = 23.17116 34.71491 28.94303
#
# Velocity S-wave (km/s) = 3.50353 4.28835 3.91565
# Velocity P-wave (km/s) = 5.74832 7.68349 6.78525
#
# Compressibility (1/GPa) = 0.03176484
#
# Stress axis : x y z
#
# Youngs Moduli (GPa) = 22.08599 115.63001 98.62498
#
# Poissons Ratio (x) = 0.67612 0.74868
# Poissons Ratio (y) = 0.12914 0.26745
# Poissons Ratio (z) = 0.16766 0.31356
#
# Static dielectric constant tensor:
#      x y z
#    x 3.278600 0.000000 0.000000 
#    y 0.000000 3.687820 0.000000 
#    z 0.000000 0.000000 4.341580 
# 
# 
# High freq. dielectric constant tensor:
#      x y z
#    x 1.713930 0.000000 0.000000 
#    y 0.000000 1.742780 0.000000 
#    z 0.000000 0.000000 1.737140 
# 
# From -- ./inp_files/31685.got.cif
#   From: 2010.03.12/outbox.cif.g09.slc.cpg/sg59_16_cif.got.tgz:31685.got - 2010.04.16 16:29:54.
