data_PCOD8240098
_publ_section_title
;
Structure prediction by ZEFSAII (Michael W. Deem and Ramdas Pophale) SiO2 
 PCOD8240098
Probable space group: P M M N
;
_chemical_formula_sum "Si O2"
_cell_formula_units_Z 56
_cell_length_a 23.660325
_cell_length_b 8.316961
_cell_length_c 13.655695
_cell_angle_alpha 90.000000
_cell_angle_beta 90.000000
_cell_angle_gamma 90.000000
_cell_volume 2687.194977
_symmetry_space_group_name_H-M "P M M N"
_symmetry_group_IT_number 59
_space_group.IT_coordinate_system_code '2'
_symmetry_cell_setting 'orthorhombic'
loop_
_space_group_symop_operation_xyz
x,y,z
1/2-x,1/2-y,z
1/2+x,-y,-z
-x,1/2+y,-z
-x,-y,-z
1/2+x,1/2+y,-z
1/2-x,y,z
x,1/2-y,z
loop_
_atom_site_type_symbol
_atom_site_label
_atom_site_fract_x
_atom_site_fract_y
_atom_site_fract_z
Si Si1 0.250000 0.935868 0.635626
Si Si2 0.187120 0.058540 0.216754
Si Si3 0.250000 0.061450 0.849144
Si Si4 0.628534 0.439333 0.436299
Si Si5 0.341258 0.059432 0.002456
Si Si6 0.031665 0.061103 0.702356
Si Si7 0.088702 0.437332 0.359477
Si Si8 0.956648 0.940004 0.077573
O O1 0.250000 0.750000 0.612042
O O2 0.308625 0.006966 0.591184
O O3 0.250000 0.961509 0.750802
O O4 0.250000 0.002021 0.251596
O O5 0.184908 0.250000 0.216485
O O6 0.176635 0.987742 0.107792
O O7 0.137839 0.992250 0.288138
O O8 0.250000 0.250000 0.823536
O O9 0.302178 0.006317 0.913903
O O10 0.630048 0.250000 0.458326
O O11 0.583082 0.471436 0.351115
O O12 0.608694 0.536944 0.530436
O O13 0.341061 0.250000 0.013782
O O14 0.400030 0.987091 0.967648
O O15 0.043973 0.250000 0.697015
O O16 0.030772 0.994704 0.813664
O O17 0.970620 0.027166 0.655397
O O18 0.078676 0.250000 0.339295
O O19 0.954187 0.750000 0.081951
O O20 0.000000 0.000000 0.000000
#
# Coordination Sequence:
#
# PCOD8240098 Si02
#       8
#     4   8   4   8   8   8   8   8
#     4  10  24  42  59  84 120 156 189 236 303 368
#     4   9  17  31  53  86 122 154 194 244 296 351
#     4  10  18  32  59  86 110 146 191 238 279 332
#     4  11  24  43  64  86 117 158 200 246 306 367
#     4   9  16  30  53  83 115 147 187 234 284 335
#     4  11  23  41  62  89 123 158 203 253 301 356
#     4  11  23  38  62  90 119 156 202 253 305 360
#     4  10  21  35  55  84 118 155 194 240 291 347
#
# _framework density 20.839572
#
# number of rings (size 3 to 8) (size 9 to 14) (size 15 to 20)
#    0.000    1.857    0.714    3.429    1.000    4.571 
#    0.000    0.714    0.000    1.714    0.000    0.000 
#    0.000    0.000    0.000    0.000    0.000    0.000 
#
# Total GULP energy -694196.058071 kJ/mol
# GULP energy per Si atom -12396.358180 kJ/mol
# Density = 2.079214 g / cm^3
# Si number density = 20.839572 Si / 1000 Ang^3
#
#
#
# Elastic Constant Matrix: (Units=GPa)
#
#
# Indices 1 2 3 4 5 6 
#
# 1 187.8623 6.4428 59.7499 0.0000 0.0000 0.0000
# 2 6.4428 24.5846 0.6079 0.0000 0.0000 0.0000
# 3 59.7499 0.6079 124.8029 0.0000 0.0000 0.0000
# 4 0.0000 0.0000 0.0000 23.4631 0.0000 0.0000
# 5 0.0000 0.0000 0.0000 0.0000 41.5238 0.0000
# 6 0.0000 0.0000 0.0000 0.0000 0.0000 11.7025
#
#
#
# Elastic Compliance Matrix: (Units=1/GPa)
#
#
# Indices 1 2 3 4 5 6 
#
# 1 0.006340 -0.001587 -0.003028 0.000000 0.000000 0.000000
# 2 -0.001587 0.041078 0.000560 0.000000 0.000000 0.000000
# 3 -0.003028 0.000560 0.009459 0.000000 0.000000 0.000000
# 4 0.000000 0.000000 0.000000 0.042620 0.000000 0.000000
# 5 0.000000 0.000000 0.000000 0.000000 0.024083 0.000000
# 6 0.000000 0.000000 0.000000 0.000000 0.000000 0.085452
#
#
# Mechanical properties :
#
#
# Convention : Reuss Voigt Hill
#
# Bulk Modulus (GPa) = 20.50530 52.31680 36.41105
# Shear Modulus (GPa) = 21.42262 33.36782 27.39522
#
# Velocity S-wave (km/s) = 3.20969 4.00581 3.62964
# Velocity P-wave (km/s) = 4.85768 6.82308 5.92248
#
# Compressibility (1/GPa) = 0.04876788
#
# Stress axis : x y z
#
# Youngs Moduli (GPa) = 157.71724 24.34400 105.71406
#
# Poissons Ratio (x) = 0.03863 0.32008
# Poissons Ratio (y) = 0.25026 -0.05916
# Poissons Ratio (z) = 0.47754 -0.01362
#
# Static dielectric constant tensor:
#      x y z
#    x 4.219780 0.000000 0.000000 
#    y 0.000000 3.360470 0.000000 
#    z 0.000000 0.000000 3.907330 
# 
# 
# High freq. dielectric constant tensor:
#      x y z
#    x 1.839200 0.000000 0.000000 
#    y 0.000000 1.778700 0.000000 
#    z 0.000000 0.000000 1.828720 
# 
# From -- ./inp_files/24424.got.cif
#   From: 2010.03.12/outbox.cif.g09.slc.cpg/sg59_13_cif.got.tgz:24424.got - 2010.04.16 16:29:54.
