data_PCOD8240267
_publ_section_title
;
Structure prediction by ZEFSAII (Michael W. Deem and Ramdas Pophale) SiO2 
 PCOD8240267
Probable space group: P M M N
;
_chemical_formula_sum "Si O2"
_cell_formula_units_Z 64
_cell_length_a 9.416813
_cell_length_b 13.727282
_cell_length_c 31.748685
_cell_angle_alpha 90.000000
_cell_angle_beta 90.000000
_cell_angle_gamma 90.000000
_cell_volume 4104.065125
_symmetry_space_group_name_H-M "P M M N"
_symmetry_group_IT_number 59
_space_group.IT_coordinate_system_code '2'
_symmetry_cell_setting 'orthorhombic'
loop_
_space_group_symop_operation_xyz
x,y,z
1/2-x,1/2-y,z
1/2+x,-y,-z
-x,1/2+y,-z
-x,-y,-z
1/2+x,1/2+y,-z
1/2-x,y,z
x,1/2-y,z
loop_
_atom_site_type_symbol
_atom_site_label
_atom_site_fract_x
_atom_site_fract_y
_atom_site_fract_z
Si Si1 0.410743 0.634842 0.979245
Si Si2 0.414734 0.365710 0.363279
Si Si3 0.913600 0.457809 0.106699
Si Si4 0.086682 0.358442 0.941806
Si Si5 0.917515 0.856227 0.728191
Si Si6 0.915896 0.050918 0.438841
Si Si7 0.415391 0.135550 0.180702
Si Si8 0.412392 0.140148 0.512981
O O1 0.250000 0.596821 0.985245
O O2 0.419116 0.750000 0.978312
O O3 0.471377 0.596939 0.934847
O O4 0.503169 0.596063 0.018415
O O5 0.250000 0.387099 0.373297
O O6 0.444011 0.250000 0.366928
O O7 0.457351 0.406777 0.316383
O O8 0.512552 0.427004 0.394396
O O9 0.750000 0.430656 0.114734
O O10 0.935297 0.573438 0.099009
O O11 0.000412 0.427210 0.147210
O O12 0.250000 0.356865 0.955558
O O13 0.032466 0.250000 0.930075
O O14 0.750000 0.841842 0.728959
O O15 0.989555 0.750000 0.727776
O O16 0.961212 0.906235 0.772672
O O17 0.750000 0.075483 0.436379
O O18 0.984938 0.120267 0.473877
O O19 0.943082 0.937057 0.449781
O O20 0.250000 0.118458 0.172466
O O21 0.452547 0.250000 0.176912
O O22 0.250000 0.128672 0.497181
O O23 0.440085 0.250000 0.529776
#
# Coordination Sequence:
#
# PCOD8240267 Si02
#       8
#     8   8   8   8   8   8   8   8
#     4   9  17  28  41  58  81 107 133 163 201 243
#     4   9  16  27  44  63  85 115 143 164 197 250
#     4  10  19  29  42  61  85 111 135 163 204 247
#     4   9  18  31  44  58  78 106 141 176 203 230
#     4   7  12  25  43  61  82 109 138 164 193 237
#     4  10  19  28  41  64  88 108 139 184 219 240
#     4   9  17  29  45  65  87 109 135 166 197 237
#     4   9  18  32  45  56  79 118 153 175 205 252
#
# _framework density 15.594294
#
# number of rings (size 3 to 8) (size 9 to 14) (size 15 to 20)
#    0.000    3.000    0.000    3.000    0.000    4.250 
#    0.000    1.875    0.000    2.250    0.000    0.875 
#    0.000    7.000    0.000    0.000    0.000    0.000 
#
# Total GULP energy -793010.456341 kJ/mol
# GULP energy per Si atom -12390.788380 kJ/mol
# Density = 1.555880 g / cm^3
# Si number density = 15.594294 Si / 1000 Ang^3
#
#
#
# Elastic Constant Matrix: (Units=GPa)
#
#
# Indices 1 2 3 4 5 6 
#
# 1 61.5560 32.9751 60.7447 0.0000 0.0000 0.0000
# 2 32.9751 64.4360 52.0295 0.0000 0.0000 0.0000
# 3 60.7447 52.0295 143.1398 0.0000 0.0000 0.0000
# 4 0.0000 0.0000 0.0000 18.8677 0.0000 0.0000
# 5 0.0000 0.0000 0.0000 0.0000 26.6086 0.0000
# 6 0.0000 0.0000 0.0000 0.0000 0.0000 18.7638
#
#
#
# Elastic Compliance Matrix: (Units=1/GPa)
#
#
# Indices 1 2 3 4 5 6 
#
# 1 0.030148 -0.007215 -0.010171 0.000000 0.000000 0.000000
# 2 -0.007215 0.023693 -0.005550 0.000000 0.000000 0.000000
# 3 -0.010171 -0.005550 0.013320 0.000000 0.000000 0.000000
# 4 0.000000 0.000000 0.000000 0.053001 0.000000 0.000000
# 5 0.000000 0.000000 0.000000 0.000000 0.037582 0.000000
# 6 0.000000 0.000000 0.000000 0.000000 0.000000 0.053294
#
#
# Mechanical properties :
#
#
# Convention : Reuss Voigt Hill
#
# Bulk Modulus (GPa) = 46.97579 62.29228 54.63404
# Shear Modulus (GPa) = 18.93891 21.07353 20.00622
#
# Velocity S-wave (km/s) = 3.48872 3.68007 3.58567
# Velocity P-wave (km/s) = 6.81302 7.62165 7.22865
#
# Compressibility (1/GPa) = 0.02128756
#
# Stress axis : x y z
#
# Youngs Moduli (GPa) = 33.17012 42.20606 75.07505
#
# Poissons Ratio (x) = 0.30453 0.76360
# Poissons Ratio (y) = 0.23933 0.41669
# Poissons Ratio (z) = 0.33738 0.23426
#
# Static dielectric constant tensor:
#      x y z
#    x 2.964480 0.000000 0.000000 
#    y 0.000000 2.919340 0.000000 
#    z 0.000000 0.000000 3.097730 
# 
# 
# High freq. dielectric constant tensor:
#      x y z
#    x 1.589010 0.000000 0.000000 
#    y 0.000000 1.576540 0.000000 
#    z 0.000000 0.000000 1.591920 
# 
# From -- ./inp_files/33221.got.cif
#   From: 2010.03.12/outbox.cif.g09.slc.cpg/sg59_17_cif.got.tgz:33221.got - 2010.04.16 16:29:54.
