data_PCOD8240792
_publ_section_title
;
Structure prediction by ZEFSAII (Michael W. Deem and Ramdas Pophale) SiO2 
 PCOD8240792
Probable space group: P M M N
;
_chemical_formula_sum "Si O2"
_cell_formula_units_Z 48
_cell_length_a 8.791997
_cell_length_b 20.527340
_cell_length_c 15.058105
_cell_angle_alpha 90.000000
_cell_angle_beta 90.000000
_cell_angle_gamma 90.000000
_cell_volume 2717.631252
_symmetry_space_group_name_H-M "P M M N"
_symmetry_group_IT_number 59
_space_group.IT_coordinate_system_code '2'
_symmetry_cell_setting 'orthorhombic'
loop_
_space_group_symop_operation_xyz
x,y,z
1/2-x,1/2-y,z
1/2+x,-y,-z
-x,1/2+y,-z
-x,-y,-z
1/2+x,1/2+y,-z
1/2-x,y,z
x,1/2-y,z
loop_
_atom_site_type_symbol
_atom_site_label
_atom_site_fract_x
_atom_site_fract_y
_atom_site_fract_z
Si Si1 0.929743 0.551766 0.068152
Si Si2 0.570280 0.178245 0.388328
Si Si3 0.928834 0.954777 0.574172
Si Si4 0.928027 0.322031 0.005659
Si Si5 0.918395 0.345329 0.196631
Si Si6 0.580060 0.009970 0.245947
O O1 0.750000 0.545624 0.058855
O O2 0.980066 0.539750 0.170789
O O3 0.982058 0.625354 0.051196
O O4 0.000000 0.500000 0.000000
O O5 0.750000 0.162472 0.386711
O O6 0.538319 0.250000 0.431205
O O7 0.489850 0.119255 0.440369
O O8 0.502501 0.179118 0.287660
O O9 0.750000 0.953619 0.562927
O O10 0.969869 0.985677 0.669583
O O11 0.000000 0.000000 0.500000
O O12 0.750000 0.341311 0.008002
O O13 0.952017 0.250000 0.964004
O O14 0.997572 0.321145 0.106111
O O15 0.750000 0.315258 0.197430
O O16 0.915536 0.422748 0.193184
O O17 0.750000 0.991686 0.279747
#
# Coordination Sequence:
#
# PCOD8240792 Si02
#       6
#     8   8   8   8   8   8
#     4  11  21  34  53  75 105 141 181 222 262 311
#     4   9  17  31  52  77 108 143 174 207 256 320
#     4  11  22  36  56  81 109 138 173 221 269 319
#     4  10  19  31  48  72 105 144 183 221 264 313
#     4   8  13  26  47  71 100 136 173 204 247 308
#     4   9  18  34  54  75 101 137 177 219 264 313
#
# _framework density 17.662441000000001
#
# number of rings (size 3 to 8) (size 9 to 14) (size 15 to 20)
#    0.000    2.333    1.667    3.500    0.000    4.000 
#    0.000    0.000    0.000    3.000    0.000    4.667 
#    0.000    0.000    0.000    0.000    0.000    0.000 
#
# Total GULP energy -594764.166968 kJ/mol
# GULP energy per Si atom -12390.920145 kJ/mol
# Density = 1.762224 g / cm^3
# Si number density = 17.662441 Si / 1000 Ang^3
#
#
#
# Elastic Constant Matrix: (Units=GPa)
#
#
# Indices 1 2 3 4 5 6 
#
# 1 82.9960 48.1377 42.4304 0.0000 0.0000 0.0000
# 2 48.1377 132.3134 64.6005 0.0000 0.0000 0.0000
# 3 42.4304 64.6005 78.7842 0.0000 0.0000 0.0000
# 4 0.0000 0.0000 0.0000 21.2320 0.0000 0.0000
# 5 0.0000 0.0000 0.0000 0.0000 24.1287 0.0000
# 6 0.0000 0.0000 0.0000 0.0000 0.0000 26.1743
#
#
#
# Elastic Compliance Matrix: (Units=1/GPa)
#
#
# Indices 1 2 3 4 5 6 
#
# 1 0.017271 -0.002905 -0.006920 0.000000 0.000000 0.000000
# 2 -0.002905 0.013092 -0.009171 0.000000 0.000000 0.000000
# 3 -0.006920 -0.009171 0.023939 0.000000 0.000000 0.000000
# 4 0.000000 0.000000 0.000000 0.047099 0.000000 0.000000
# 5 0.000000 0.000000 0.000000 0.000000 0.041444 0.000000
# 6 0.000000 0.000000 0.000000 0.000000 0.000000 0.038205
#
#
# Mechanical properties :
#
#
# Convention : Reuss Voigt Hill
#
# Bulk Modulus (GPa) = 61.30456 67.15898 64.23177
# Shear Modulus (GPa) = 22.27379 23.56866 22.92123
#
# Velocity S-wave (km/s) = 3.55502 3.65690 3.60632
# Velocity P-wave (km/s) = 7.18577 7.47908 7.33389
#
# Compressibility (1/GPa) = 0.01631200
#
# Stress axis : x y z
#
# Youngs Moduli (GPa) = 57.89953 76.38162 41.77269
#
# Poissons Ratio (x) = 0.22190 0.28905
# Poissons Ratio (y) = 0.16821 0.38308
# Poissons Ratio (z) = 0.40064 0.70046
#
# Static dielectric constant tensor:
#      x y z
#    x 3.163700 0.000000 0.000000 
#    y 0.000000 3.382600 0.000000 
#    z 0.000000 0.000000 3.154080 
# 
# 
# High freq. dielectric constant tensor:
#      x y z
#    x 1.659600 0.000000 0.000000 
#    y 0.000000 1.686800 0.000000 
#    z 0.000000 0.000000 1.657260 
# 
# From -- ./inp_files/20726.got.cif
#   From: 2010.03.12/outbox.cif.g09.slc.cpg/sg59_11_cif.got.tgz:20726.got - 2010.04.16 16:29:54.
