data_PCOD8240956
_publ_section_title
;
Structure prediction by ZEFSAII (Michael W. Deem and Ramdas Pophale) SiO2 
 PCOD8240956
Probable space group: P M M N
;
_chemical_formula_sum "Si O2"
_cell_formula_units_Z 56
_cell_length_a 19.622019
_cell_length_b 8.922715
_cell_length_c 16.141019
_cell_angle_alpha 90.000000
_cell_angle_beta 90.000000
_cell_angle_gamma 90.000000
_cell_volume 2825.996776
_symmetry_space_group_name_H-M "P M M N"
_symmetry_group_IT_number 59
_space_group.IT_coordinate_system_code '2'
_symmetry_cell_setting 'orthorhombic'
loop_
_space_group_symop_operation_xyz
x,y,z
1/2-x,1/2-y,z
1/2+x,-y,-z
-x,1/2+y,-z
-x,-y,-z
1/2+x,1/2+y,-z
1/2-x,y,z
x,1/2-y,z
loop_
_atom_site_type_symbol
_atom_site_label
_atom_site_fract_x
_atom_site_fract_y
_atom_site_fract_z
Si Si1 0.325211 0.072110 0.162347
Si Si2 0.040226 0.575173 0.425204
Si Si3 0.458769 0.428008 0.251617
Si Si4 0.174097 0.428036 0.977232
Si Si5 0.826090 0.422655 0.486716
Si Si6 0.826386 0.573315 0.320335
Si Si7 0.419514 0.428367 0.830177
O O1 0.250000 0.013446 0.190028
O O2 0.324411 0.250000 0.159120
O O3 0.382673 0.017273 0.226565
O O4 0.342460 0.012898 0.069725
O O5 0.021171 0.750000 0.421419
O O6 0.019778 0.500123 0.338746
O O7 0.121323 0.549326 0.438472
O O8 0.000000 0.500000 0.500000
O O9 0.463789 0.250000 0.258114
O O10 0.508473 0.488283 0.179514
O O11 0.250000 0.482891 0.950798
O O12 0.173098 0.250000 0.974125
O O13 0.116977 0.488091 0.913696
O O14 0.750000 0.477864 0.512976
O O15 0.824519 0.250000 0.461435
O O16 0.854360 0.510743 0.407046
O O17 0.750000 0.512950 0.304862
O O18 0.827272 0.750000 0.325887
O O19 0.873138 0.517094 0.246053
O O20 0.430339 0.250000 0.830847
#
# Coordination Sequence:
#
# PCOD8240956 Si02
#       7
#     8   8   8   8   8   8   8
#     4   8  16  33  55  78 105 138 179 225 266 305
#     4  11  23  39  58  78 104 138 175 216 262 315
#     4  11  23  36  52  77 107 139 175 216 264 315
#     4   8  14  28  53  81 106 137 179 222 260 301
#     4   9  19  35  53  73  97 127 164 207 258 312
#     4   9  17  29  47  73 103 133 167 208 251 298
#     4  10  19  31  50  77 108 139 174 216 261 310
#
# _framework density 19.816016999999999
#
# number of rings (size 3 to 8) (size 9 to 14) (size 15 to 20)
#    0.000    2.571    0.000    3.000    0.000    6.857 
#    0.000    0.000    0.000    3.429    0.000    4.000 
#    0.000    0.000    0.000    0.000    0.000    0.000 
#
# Total GULP energy -694227.391116 kJ/mol
# GULP energy per Si atom -12396.917699 kJ/mol
# Density = 1.977092 g / cm^3
# Si number density = 19.816017 Si / 1000 Ang^3
#
#
#
# Elastic Constant Matrix: (Units=GPa)
#
#
# Indices 1 2 3 4 5 6 
#
# 1 109.1341 32.6623 53.5282 0.0000 0.0000 0.0000
# 2 32.6623 41.1548 26.0356 0.0000 0.0000 0.0000
# 3 53.5282 26.0356 94.7986 0.0000 0.0000 0.0000
# 4 0.0000 0.0000 0.0000 17.7077 0.0000 0.0000
# 5 0.0000 0.0000 0.0000 0.0000 36.5993 0.0000
# 6 0.0000 0.0000 0.0000 0.0000 0.0000 24.7297
#
#
#
# Elastic Compliance Matrix: (Units=1/GPa)
#
#
# Indices 1 2 3 4 5 6 
#
# 1 0.014405 -0.007609 -0.006044 0.000000 0.000000 0.000000
# 2 -0.007609 0.033427 -0.004884 0.000000 0.000000 0.000000
# 3 -0.006044 -0.004884 0.015303 0.000000 0.000000 0.000000
# 4 0.000000 0.000000 0.000000 0.056473 0.000000 0.000000
# 5 0.000000 0.000000 0.000000 0.000000 0.027323 0.000000
# 6 0.000000 0.000000 0.000000 0.000000 0.000000 0.040437
#
#
# Mechanical properties :
#
#
# Convention : Reuss Voigt Hill
#
# Bulk Modulus (GPa) = 38.37179 52.17107 45.27143
# Shear Modulus (GPa) = 21.44749 24.66478 23.05614
#
# Velocity S-wave (km/s) = 3.29345 3.53184 3.41473
# Velocity P-wave (km/s) = 5.81966 6.55872 6.20021
#
# Compressibility (1/GPa) = 0.02606081
#
# Stress axis : x y z
#
# Youngs Moduli (GPa) = 69.42211 29.91606 65.34739
#
# Poissons Ratio (x) = 0.22762 0.39496
# Poissons Ratio (y) = 0.52820 0.31917
# Poissons Ratio (z) = 0.41959 0.14612
#
# Static dielectric constant tensor:
#      x y z
#    x 4.041220 0.000000 0.000000 
#    y 0.000000 3.215990 0.000000 
#    z 0.000000 0.000000 3.636840 
# 
# 
# High freq. dielectric constant tensor:
#      x y z
#    x 1.786970 0.000000 0.000000 
#    y 0.000000 1.735080 0.000000 
#    z 0.000000 0.000000 1.766660 
# 
# From -- ./inp_files/24267.got.cif
#   From: 2010.03.12/outbox.cif.g09.slc.cpg/sg59_13_cif.got.tgz:24267.got - 2010.04.16 16:29:54.
