data_PCOD8240950
_publ_section_title
;
Structure prediction by ZEFSAII (Michael W. Deem and Ramdas Pophale) SiO2 
 PCOD8240950
Probable space group: P M M N
;
_chemical_formula_sum "Si O2"
_cell_formula_units_Z 64
_cell_length_a 15.928741
_cell_length_b 9.012680
_cell_length_c 23.271570
_cell_angle_alpha 90.000000
_cell_angle_beta 90.000000
_cell_angle_gamma 90.000000
_cell_volume 3340.881610
_symmetry_space_group_name_H-M "P M M N"
_symmetry_group_IT_number 59
_space_group.IT_coordinate_system_code '2'
_symmetry_cell_setting 'orthorhombic'
loop_
_space_group_symop_operation_xyz
x,y,z
1/2-x,1/2-y,z
1/2+x,-y,-z
-x,1/2+y,-z
-x,-y,-z
1/2+x,1/2+y,-z
1/2-x,y,z
x,1/2-y,z
loop_
_atom_site_type_symbol
_atom_site_label
_atom_site_fract_x
_atom_site_fract_y
_atom_site_fract_z
Si Si1 0.844421 0.575852 0.930047
Si Si2 0.344019 0.422443 0.307100
Si Si3 0.655280 0.077273 0.049970
Si Si4 0.009396 0.925095 0.862330
Si Si5 0.654954 0.585484 0.457669
Si Si6 0.093758 0.080478 0.425430
Si Si7 0.577625 0.419942 0.362331
Si Si8 0.998753 0.426101 0.743692
O O1 0.750000 0.530292 0.908271
O O2 0.849559 0.750000 0.939155
O O3 0.917537 0.525765 0.886071
O O4 0.864517 0.504581 0.991001
O O5 0.250000 0.440020 0.283478
O O6 0.373985 0.250000 0.305229
O O7 0.349575 0.482140 0.372774
O O8 0.404009 0.517118 0.266325
O O9 0.750000 0.038682 0.072116
O O10 0.647116 0.250000 0.037060
O O11 0.584839 0.027619 0.095373
O O12 0.011026 0.750000 0.849433
O O13 0.028850 0.015976 0.805043
O O14 0.750000 0.598922 0.477073
O O15 0.617027 0.750000 0.444999
O O16 0.609292 0.504140 0.512480
O O17 0.652886 0.489717 0.399038
O O18 0.120001 0.250000 0.435151
O O19 0.998462 0.060902 0.406710
O O20 0.596013 0.250000 0.346232
O O21 0.562003 0.508901 0.303843
O O22 0.001446 0.250000 0.741401
#
# Coordination Sequence:
#
# PCOD8240950 Si02
#       8
#     8   8   8   8   8   8   8   8
#     4   9  18  32  52  80 112 143 173 205 246 303
#     4   9  17  32  54  77 104 139 174 208 253 312
#     4   9  18  33  54  80 108 137 171 214 263 311
#     4  10  20  35  54  76 105 141 179 217 260 312
#     4  10  19  31  50  77 106 131 159 203 259 314
#     4   8  15  29  51  77 101 129 165 203 249 309
#     4  10  20  36  55  72  96 133 175 213 254 309
#     4  11  23  37  53  74 101 134 177 224 266 308
#
# _framework density 19.156621000000001
#
# number of rings (size 3 to 8) (size 9 to 14) (size 15 to 20)
#    0.000    2.500    0.000    3.375    0.000    3.500 
#    0.000    4.375    0.000    5.250    0.000    0.000 
#    0.000    0.000    0.000    0.000    0.000    0.000 
#
# Total GULP energy -793264.488318 kJ/mol
# GULP energy per Si atom -12394.757630 kJ/mol
# Density = 1.911302 g / cm^3
# Si number density = 19.156621 Si / 1000 Ang^3
#
#
#
# Elastic Constant Matrix: (Units=GPa)
#
#
# Indices 1 2 3 4 5 6 
#
# 1 66.8791 21.0416 40.3840 0.0000 0.0000 0.0000
# 2 21.0416 70.4532 43.3241 0.0000 0.0000 0.0000
# 3 40.3840 43.3241 119.2714 0.0000 0.0000 0.0000
# 4 0.0000 0.0000 0.0000 30.9972 0.0000 0.0000
# 5 0.0000 0.0000 0.0000 0.0000 17.1722 0.0000
# 6 0.0000 0.0000 0.0000 0.0000 0.0000 20.2095
#
#
#
# Elastic Compliance Matrix: (Units=1/GPa)
#
#
# Indices 1 2 3 4 5 6 
#
# 1 0.019061 -0.002220 -0.005647 0.000000 0.000000 0.000000
# 2 -0.002220 0.018535 -0.005981 0.000000 0.000000 0.000000
# 3 -0.005647 -0.005981 0.012469 0.000000 0.000000 0.000000
# 4 0.000000 0.000000 0.000000 0.032261 0.000000 0.000000
# 5 0.000000 0.000000 0.000000 0.000000 0.058234 0.000000
# 6 0.000000 0.000000 0.000000 0.000000 0.000000 0.049482
#
#
# Mechanical properties :
#
#
# Convention : Reuss Voigt Hill
#
# Bulk Modulus (GPa) = 44.70680 51.78924 48.24802
# Shear Modulus (GPa) = 22.20314 23.79938 23.00126
#
# Velocity S-wave (km/s) = 3.40815 3.52853 3.46886
# Velocity P-wave (km/s) = 6.23502 6.61015 6.42532
#
# Compressibility (1/GPa) = 0.02236796
#
# Stress axis : x y z
#
# Youngs Moduli (GPa) = 52.46332 53.95293 80.19944
#
# Poissons Ratio (x) = 0.11977 0.45292
# Poissons Ratio (y) = 0.11646 0.47966
# Poissons Ratio (z) = 0.29628 0.32269
#
# Static dielectric constant tensor:
#      x y z
#    x 3.558910 0.000000 0.000000 
#    y 0.000000 3.338920 0.000000 
#    z 0.000000 0.000000 3.452440 
# 
# 
# High freq. dielectric constant tensor:
#      x y z
#    x 1.741450 0.000000 0.000000 
#    y 0.000000 1.723040 0.000000 
#    z 0.000000 0.000000 1.743080 
# 
# From -- ./inp_files/32173.got.cif
#   From: 2010.03.12/outbox.cif.g09.slc.cpg/sg59_17_cif.got.tgz:32173.got - 2010.04.16 16:29:54.
