data_PCOD8240292
_publ_section_title
;
Structure prediction by ZEFSAII (Michael W. Deem and Ramdas Pophale) SiO2 
 PCOD8240292
Probable space group: P M M N
;
_chemical_formula_sum "Si O2"
_cell_formula_units_Z 64
_cell_length_a 9.229723
_cell_length_b 29.988572
_cell_length_c 15.369685
_cell_angle_alpha 90.000000
_cell_angle_beta 90.000000
_cell_angle_gamma 90.000000
_cell_volume 4254.116902
_symmetry_space_group_name_H-M "P M M N"
_symmetry_group_IT_number 59
_space_group.IT_coordinate_system_code '2'
_symmetry_cell_setting 'orthorhombic'
loop_
_space_group_symop_operation_xyz
x,y,z
1/2-x,1/2-y,z
1/2+x,-y,-z
-x,1/2+y,-z
-x,-y,-z
1/2+x,1/2+y,-z
1/2-x,y,z
x,1/2-y,z
loop_
_atom_site_type_symbol
_atom_site_label
_atom_site_fract_x
_atom_site_fract_y
_atom_site_fract_z
Si Si1 0.919391 0.367567 0.408931
Si Si2 0.415851 0.303089 0.289785
Si Si3 0.581642 0.372620 0.610111
Si Si4 0.579941 0.300399 0.748927
Si Si5 0.578350 0.798790 0.898733
Si Si6 0.086129 0.044724 0.399975
Si Si7 0.087486 0.196709 0.915731
Si Si8 0.086424 0.459679 0.606857
O O1 0.750000 0.373987 0.391258
O O2 0.952018 0.360412 0.510603
O O3 0.977310 0.324000 0.360302
O O4 0.002420 0.410667 0.371730
O O5 0.250000 0.316156 0.311631
O O6 0.434360 0.250000 0.292037
O O7 0.460653 0.322398 0.193358
O O8 0.750000 0.384267 0.622934
O O9 0.532566 0.330444 0.667422
O O10 0.490630 0.415195 0.641922
O O11 0.750000 0.301060 0.762136
O O12 0.524378 0.250000 0.731009
O O13 0.512134 0.320535 0.837239
O O14 0.750000 0.793061 0.902892
O O15 0.505405 0.750000 0.896253
O O16 0.531067 0.822776 0.989930
O O17 0.250000 0.046086 0.363539
O O18 0.087069 0.040499 0.503229
O O19 0.002469 0.002489 0.358865
O O20 0.250000 0.180049 0.896404
O O21 0.082458 0.250000 0.922021
O O22 0.250000 0.461847 0.643231
#
# Coordination Sequence:
#
# PCOD8240292 Si02
#       8
#     8   8   8   8   8   8   8   8
#     4  10  19  29  41  58  81 109 142 176 204 232
#     4   9  17  29  43  58  79 109 142 172 203 242
#     4   9  18  30  41  54  78 113 145 169 199 241
#     4   9  17  28  40  55  78 109 142 172 201 235
#     4   7  11  22  40  58  75  98 128 162 203 249
#     4   9  16  27  43  60  79 103 130 162 205 252
#     4   8  13  23  40  59  76  96 126 165 207 246
#     4   9  16  26  42  62  80  98 127 169 210 243
#
# _framework density 15.044250999999999
#
# number of rings (size 3 to 8) (size 9 to 14) (size 15 to 20)
#    0.000    3.250    0.000    2.625    0.000    4.750 
#    0.000    1.875    0.000    3.750    0.000    0.000 
#    0.000    1.000    0.000    3.000    0.000    4.625 
#
# Total GULP energy -793012.998049 kJ/mol
# GULP energy per Si atom -12390.828095 kJ/mol
# Density = 1.501001 g / cm^3
# Si number density = 15.044251 Si / 1000 Ang^3
#
#
#
# Elastic Constant Matrix: (Units=GPa)
#
#
# Indices 1 2 3 4 5 6 
#
# 1 72.3697 39.9556 37.3823 0.0000 0.0000 0.0000
# 2 39.9556 65.1983 39.5879 0.0000 0.0000 0.0000
# 3 37.3823 39.5879 76.0167 0.0000 0.0000 0.0000
# 4 0.0000 0.0000 0.0000 1.5660 0.0000 0.0000
# 5 0.0000 0.0000 0.0000 0.0000 18.1056 0.0000
# 6 0.0000 0.0000 0.0000 0.0000 0.0000 24.3883
#
#
#
# Elastic Compliance Matrix: (Units=1/GPa)
#
#
# Indices 1 2 3 4 5 6 
#
# 1 0.022436 -0.010311 -0.005664 0.000000 0.000000 0.000000
# 2 -0.010311 0.027169 -0.009079 0.000000 0.000000 0.000000
# 3 -0.005664 -0.009079 0.020668 0.000000 0.000000 0.000000
# 4 0.000000 0.000000 0.000000 0.638573 0.000000 0.000000
# 5 0.000000 0.000000 0.000000 0.000000 0.055231 0.000000
# 6 0.000000 0.000000 0.000000 0.000000 0.000000 0.041003
#
#
# Mechanical properties :
#
#
# Convention : Reuss Voigt Hill
#
# Bulk Modulus (GPa) = 49.58516 49.71512 49.65014
# Shear Modulus (GPa) = 5.80107 15.25591 10.52849
#
# Velocity S-wave (km/s) = 1.96580 3.18790 2.64831
# Velocity P-wave (km/s) = 6.17929 6.83139 6.51351
#
# Compressibility (1/GPa) = 0.02016732
#
# Stress axis : x y z
#
# Youngs Moduli (GPa) = 44.57126 36.80672 48.38349
#
# Poissons Ratio (x) = 0.37950 0.27403
# Poissons Ratio (y) = 0.45955 0.43926
# Poissons Ratio (z) = 0.25244 0.33416
#
# Static dielectric constant tensor:
#      x y z
#    x 2.900570 0.000000 0.000000 
#    y 0.000000 2.734410 0.000000 
#    z 0.000000 0.000000 2.951510 
# 
# 
# High freq. dielectric constant tensor:
#      x y z
#    x 1.573590 0.000000 0.000000 
#    y 0.000000 1.545250 0.000000 
#    z 0.000000 0.000000 1.552960 
# 
# From -- ./inp_files/21953.got.cif
#   From: 2010.03.12/outbox.cif.g09.slc.cpg/sg59_11_cif.got.tgz:21953.got - 2010.04.16 16:29:54.
