data_PCOD8240158
_publ_section_title
;
Structure prediction by ZEFSAII (Michael W. Deem and Ramdas Pophale) SiO2 
 PCOD8240158
Probable space group: P M M N
;
_chemical_formula_sum "Si O2"
_cell_formula_units_Z 64
_cell_length_a 30.547684
_cell_length_b 8.789915
_cell_length_c 11.900853
_cell_angle_alpha 90.000000
_cell_angle_beta 90.000000
_cell_angle_gamma 90.000000
_cell_volume 3195.516435
_symmetry_space_group_name_H-M "P M M N"
_symmetry_group_IT_number 59
_space_group.IT_coordinate_system_code '2'
_symmetry_cell_setting 'orthorhombic'
loop_
_space_group_symop_operation_xyz
x,y,z
1/2-x,1/2-y,z
1/2+x,-y,-z
-x,1/2+y,-z
-x,-y,-z
1/2+x,1/2+y,-z
1/2-x,y,z
x,1/2-y,z
loop_
_atom_site_type_symbol
_atom_site_label
_atom_site_fract_x
_atom_site_fract_y
_atom_site_fract_z
Si Si1 0.299280 0.077051 0.764555
Si Si2 0.123770 0.572565 0.636348
Si Si3 0.298433 0.069352 0.239782
Si Si4 0.573652 0.428451 0.002541
Si Si5 0.335061 0.075385 0.002901
Si Si6 0.623468 0.929593 0.606471
Si Si7 0.448965 0.924728 0.246429
Si Si8 0.047766 0.424975 0.777476
O O1 0.250000 0.036083 0.727699
O O2 0.310974 0.250000 0.729568
O O3 0.302104 0.059591 0.898913
O O4 0.331838 0.963765 0.702227
O O5 0.120826 0.750000 0.613481
O O6 0.123926 0.487730 0.519024
O O7 0.081879 0.523846 0.707967
O O8 0.250000 0.005268 0.269854
O O9 0.297680 0.250000 0.245015
O O10 0.334266 0.003947 0.327017
O O11 0.310821 0.016163 0.114354
O O12 0.565717 0.250000 0.018516
O O13 0.624134 0.467736 0.022894
O O14 0.544920 0.518169 0.094095
O O15 0.559468 0.484921 0.879463
O O16 0.350957 0.250000 0.017946
O O17 0.625403 0.750000 0.604907
O O18 0.578719 0.977728 0.666369
O O19 0.434073 0.750000 0.255828
O O20 0.499953 0.943676 0.277464
O O21 0.063121 0.250000 0.776047
#
# Coordination Sequence:
#
# PCOD8240158 Si02
#       8
#     8   8   8   8   8   8   8   8
#     4  10  21  38  63  93 124 160 202 246 294 357
#     4  12  26  43  62  86 120 160 202 256 311 359
#     4   9  18  34  59  92 123 153 196 244 289 344
#     4  11  21  35  59  92 128 160 191 238 302 363
#     4  10  18  33  60  91 123 159 195 238 292 353
#     4  11  23  40  64  90 117 158 207 253 301 359
#     4  10  23  41  62  90 125 159 195 246 305 363
#     4  11  23  41  64  89 119 159 204 248 298 361
#
# _framework density 20.028061999999998
#
# number of rings (size 3 to 8) (size 9 to 14) (size 15 to 20)
#    0.000    1.500    2.500    3.000    0.000    4.250 
#    0.000    1.250    0.000    3.750    0.000    0.000 
#    0.000    0.000    0.000    0.000    0.000    0.000 
#
# Total GULP energy -793836.534877 kJ/mol
# GULP energy per Si atom -12403.695857 kJ/mol
# Density = 1.998248 g / cm^3
# Si number density = 20.028062 Si / 1000 Ang^3
#
#
#
# Elastic Constant Matrix: (Units=GPa)
#
#
# Indices 1 2 3 4 5 6 
#
# 1 107.4764 22.6351 34.2432 0.0000 0.0000 0.0000
# 2 22.6351 35.9009 11.2575 0.0000 0.0000 0.0000
# 3 34.2432 11.2575 111.7487 0.0000 0.0000 0.0000
# 4 0.0000 0.0000 0.0000 31.0383 0.0000 0.0000
# 5 0.0000 0.0000 0.0000 0.0000 8.7785 0.0000
# 6 0.0000 0.0000 0.0000 0.0000 0.0000 23.3358
#
#
#
# Elastic Compliance Matrix: (Units=1/GPa)
#
#
# Indices 1 2 3 4 5 6 
#
# 1 0.011575 -0.006387 -0.002903 0.000000 0.000000 0.000000
# 2 -0.006387 0.032288 -0.001295 0.000000 0.000000 0.000000
# 3 -0.002903 -0.001295 0.009969 0.000000 0.000000 0.000000
# 4 0.000000 0.000000 0.000000 0.032218 0.000000 0.000000
# 5 0.000000 0.000000 0.000000 0.000000 0.113915 0.000000
# 6 0.000000 0.000000 0.000000 0.000000 0.000000 0.042853
#
#
# Mechanical properties :
#
#
# Convention : Reuss Voigt Hill
#
# Bulk Modulus (GPa) = 30.61929 43.48863 37.05396
# Shear Modulus (GPa) = 18.19004 25.09652 21.64328
#
# Velocity S-wave (km/s) = 3.01695 3.54371 3.29089
# Velocity P-wave (km/s) = 5.23998 6.20523 5.74292
#
# Compressibility (1/GPa) = 0.03265915
#
# Stress axis : x y z
#
# Youngs Moduli (GPa) = 86.39609 30.97151 100.31270
#
# Poissons Ratio (x) = 0.19782 0.29124
# Poissons Ratio (y) = 0.55183 0.12995
# Poissons Ratio (z) = 0.25084 0.04012
#
# Static dielectric constant tensor:
#      x y z
#    x 3.773870 0.000000 0.000000 
#    y 0.000000 3.483070 0.000000 
#    z 0.000000 0.000000 3.689290 
# 
# 
# High freq. dielectric constant tensor:
#      x y z
#    x 1.791370 0.000000 0.000000 
#    y 0.000000 1.765470 0.000000 
#    z 0.000000 0.000000 1.783240 
# 
# From -- ./inp_files/19280.got.cif
#   From: 2010.03.12/outbox.cif.g09.slc.cpg/sg59_10_cif.got.tgz:19280.got - 2010.04.16 16:29:54.
