data_PCOD8240616
_publ_section_title
;
Structure prediction by ZEFSAII (Michael W. Deem and Ramdas Pophale) SiO2 
 PCOD8240616
Probable space group: P M M N
;
_chemical_formula_sum "Si O2"
_cell_formula_units_Z 48
_cell_length_a 9.543109
_cell_length_b 32.765546
_cell_length_c 8.999145
_cell_angle_alpha 90.000000
_cell_angle_beta 90.000000
_cell_angle_gamma 90.000000
_cell_volume 2813.899246
_symmetry_space_group_name_H-M "P M M N"
_symmetry_group_IT_number 59
_space_group.IT_coordinate_system_code '2'
_symmetry_cell_setting 'orthorhombic'
loop_
_space_group_symop_operation_xyz
x,y,z
1/2-x,1/2-y,z
1/2+x,-y,-z
-x,1/2+y,-z
-x,-y,-z
1/2+x,1/2+y,-z
1/2-x,y,z
x,1/2-y,z
loop_
_atom_site_type_symbol
_atom_site_label
_atom_site_fract_x
_atom_site_fract_y
_atom_site_fract_z
Si Si1 0.903709 0.832185 0.638733
Si Si2 0.916014 0.127234 0.937988
Si Si3 0.913101 0.538967 0.545628
Si Si4 0.086380 0.381376 0.640397
Si Si5 0.094520 0.413722 0.171364
Si Si6 0.910741 0.204531 0.128761
O O1 0.750000 0.811767 0.638020
O O2 0.947946 0.843934 0.471245
O O3 0.898340 0.873421 0.731361
O O4 0.009702 0.800735 0.714722
O O5 0.750000 0.120572 0.926430
O O6 0.956326 0.171543 0.005482
O O7 0.985307 0.124915 0.778373
O O8 0.981004 0.091252 0.040305
O O9 0.750000 0.528629 0.532355
O O10 0.952440 0.575844 0.435881
O O11 0.950610 0.549974 0.717014
O O12 0.000000 0.500000 0.500000
O O13 0.250000 0.380462 0.687101
O O14 0.250000 0.422230 0.103898
O O15 0.750000 0.198087 0.169381
O O16 0.940320 0.250000 0.065781
#
# Coordination Sequence:
#
# PCOD8240616 Si02
#       6
#     8   8   8   8   8   8
#     4   8  15  29  49  69  88 116 156 193 223 268
#     4  10  19  30  48  73  96 124 163 197 227 275
#     4   9  18  32  51  73  95 122 156 195 240 285
#     4   9  18  33  50  69  96 126 153 188 237 282
#     4   8  15  30  49  67  91 124 156 188 233 280
#     4   9  18  32  48  68  96 125 152 189 237 280
#
# _framework density 17.05818
#
# number of rings (size 3 to 8) (size 9 to 14) (size 15 to 20)
#    0.000    3.167    0.000    2.500    0.000    3.000 
#    0.000    5.000    0.000    3.000    0.000    0.000 
#    0.000    0.000    0.000    0.000    0.000    0.000 
#
# Total GULP energy -594918.679822 kJ/mol
# GULP energy per Si atom -12394.139163 kJ/mol
# Density = 1.701936 g / cm^3
# Si number density = 17.058180 Si / 1000 Ang^3
#
#
#
# Elastic Constant Matrix: (Units=GPa)
#
#
# Indices 1 2 3 4 5 6 
#
# 1 88.6038 40.1134 68.5077 0.0000 0.0000 0.0000
# 2 40.1134 66.4466 31.9504 0.0000 0.0000 0.0000
# 3 68.5077 31.9504 115.1326 0.0000 0.0000 0.0000
# 4 0.0000 0.0000 0.0000 17.3729 0.0000 0.0000
# 5 0.0000 0.0000 0.0000 0.0000 32.2585 0.0000
# 6 0.0000 0.0000 0.0000 0.0000 0.0000 25.9713
#
#
#
# Elastic Compliance Matrix: (Units=1/GPa)
#
#
# Indices 1 2 3 4 5 6 
#
# 1 0.024934 -0.009138 -0.012301 0.000000 0.000000 0.000000
# 2 -0.009138 0.020716 -0.000312 0.000000 0.000000 0.000000
# 3 -0.012301 -0.000312 0.016091 0.000000 0.000000 0.000000
# 4 0.000000 0.000000 0.000000 0.057561 0.000000 0.000000
# 5 0.000000 0.000000 0.000000 0.000000 0.031000 0.000000
# 6 0.000000 0.000000 0.000000 0.000000 0.000000 0.038504
#
#
# Mechanical properties :
#
#
# Convention : Reuss Voigt Hill
#
# Bulk Modulus (GPa) = 54.82104 61.25844 58.03974
# Shear Modulus (GPa) = 20.97437 23.76130 22.36784
#
# Velocity S-wave (km/s) = 3.51034 3.73628 3.62507
# Velocity P-wave (km/s) = 6.97405 7.38935 7.18470
#
# Compressibility (1/GPa) = 0.01824117
#
# Stress axis : x y z
#
# Youngs Moduli (GPa) = 40.10607 48.27211 62.14494
#
# Poissons Ratio (x) = 0.44110 0.76442
# Poissons Ratio (y) = 0.36648 0.01937
# Poissons Ratio (z) = 0.49333 0.01504
#
# Static dielectric constant tensor:
#      x y z
#    x 3.409970 0.000000 0.000000 
#    y 0.000000 3.103940 0.000000 
#    z 0.000000 0.000000 3.215370 
# 
# 
# High freq. dielectric constant tensor:
#      x y z
#    x 1.660320 0.000000 0.000000 
#    y 0.000000 1.636770 0.000000 
#    z 0.000000 0.000000 1.651140 
# 
# From -- ./inp_files/6273.got.cif
#   From: 2010.03.12/outbox.cif.g09.slc.cpg/sg59_4_cif.got.tgz:6273.got - 2010.04.16 16:29:54.
