data_PCOD8240376
_publ_section_title
;
Structure prediction by ZEFSAII (Michael W. Deem and Ramdas Pophale) SiO2 
 PCOD8240376
Probable space group: P M M N
;
_chemical_formula_sum "Si O2"
_cell_formula_units_Z 56
_cell_length_a 28.017287
_cell_length_b 8.739348
_cell_length_c 13.783871
_cell_angle_alpha 90.000000
_cell_angle_beta 90.000000
_cell_angle_gamma 90.000000
_cell_volume 3375.019700
_symmetry_space_group_name_H-M "P M M N"
_symmetry_group_IT_number 59
_space_group.IT_coordinate_system_code '2'
_symmetry_cell_setting 'orthorhombic'
loop_
_space_group_symop_operation_xyz
x,y,z
1/2-x,1/2-y,z
1/2+x,-y,-z
-x,1/2+y,-z
-x,-y,-z
1/2+x,1/2+y,-z
1/2-x,y,z
x,1/2-y,z
loop_
_atom_site_type_symbol
_atom_site_label
_atom_site_fract_x
_atom_site_fract_y
_atom_site_fract_z
Si Si1 0.803034 0.574738 0.035236
Si Si2 0.986570 0.571412 0.398791
Si Si3 0.897531 0.928394 0.932934
Si Si4 0.104507 0.070968 0.715813
Si Si5 0.537930 0.430632 0.792929
Si Si6 0.448779 0.570342 0.889052
Si Si7 0.696437 0.071351 0.240221
O O1 0.750000 0.546108 0.992005
O O2 0.808848 0.750000 0.070336
O O3 0.812041 0.468304 0.127651
O O4 0.841502 0.536709 0.951372
O O5 0.992591 0.750000 0.409660
O O6 0.931805 0.529028 0.371324
O O7 0.000000 0.500000 0.500000
O O8 0.022248 0.512041 0.314298
O O9 0.908783 0.750000 0.944916
O O10 0.912720 0.986507 0.825312
O O11 0.929848 0.025352 0.005928
O O12 0.101256 0.250000 0.739677
O O13 0.091197 0.976569 0.811459
O O14 0.158789 0.020056 0.691340
O O15 0.544945 0.250000 0.794442
O O16 0.497024 0.477548 0.868866
O O17 0.459177 0.750000 0.883765
O O18 0.750000 0.023036 0.271593
O O19 0.688278 0.250000 0.255133
#
# Coordination Sequence:
#
# PCOD8240376 Si02
#       7
#     8   8   8   8   8   8   8
#     4   9  18  31  46  64  92 131 168 201 237 276
#     4   9  20  36  54  73  94 120 154 198 245 296
#     4  11  20  30  46  68  95 128 165 199 233 278
#     4  10  19  32  48  70  98 130 163 195 238 292
#     4  10  21  35  48  67  95 124 157 193 234 288
#     4  11  20  30  45  66  95 129 162 197 235 273
#     4  10  19  29  44  69  98 129 167 203 235 276
#
# _framework density 16.592496000000001
#
# number of rings (size 3 to 8) (size 9 to 14) (size 15 to 20)
#    0.000    2.000    1.429    4.286    0.000    4.857 
#    0.000    0.000    0.000    0.000    0.000    1.000 
#    0.000    3.429    0.000    0.000    0.000    0.000 
#
# Total GULP energy -694244.485016 kJ/mol
# GULP energy per Si atom -12397.222947 kJ/mol
# Density = 1.655473 g / cm^3
# Si number density = 16.592496 Si / 1000 Ang^3
#
#
#
# Elastic Constant Matrix: (Units=GPa)
#
#
# Indices 1 2 3 4 5 6 
#
# 1 119.6829 31.3907 59.6706 0.0000 0.0000 0.0000
# 2 31.3907 51.3763 24.9726 0.0000 0.0000 0.0000
# 3 59.6706 24.9726 81.7331 0.0000 0.0000 0.0000
# 4 0.0000 0.0000 0.0000 24.5352 0.0000 0.0000
# 5 0.0000 0.0000 0.0000 0.0000 18.9675 0.0000
# 6 0.0000 0.0000 0.0000 0.0000 0.0000 26.5658
#
#
#
# Elastic Compliance Matrix: (Units=1/GPa)
#
#
# Indices 1 2 3 4 5 6 
#
# 1 0.013858 -0.004169 -0.008844 0.000000 0.000000 0.000000
# 2 -0.004169 0.024113 -0.004324 0.000000 0.000000 0.000000
# 3 -0.008844 -0.004324 0.020012 0.000000 0.000000 0.000000
# 4 0.000000 0.000000 0.000000 0.040758 0.000000 0.000000
# 5 0.000000 0.000000 0.000000 0.000000 0.052722 0.000000
# 6 0.000000 0.000000 0.000000 0.000000 0.000000 0.037642
#
#
# Mechanical properties :
#
#
# Convention : Reuss Voigt Hill
#
# Bulk Modulus (GPa) = 42.89822 53.87335 48.38579
# Shear Modulus (GPa) = 21.59377 23.13091 22.36234
#
# Velocity S-wave (km/s) = 3.61143 3.73776 3.67514
# Velocity P-wave (km/s) = 6.58028 7.15310 6.87266
#
# Compressibility (1/GPa) = 0.02331099
#
# Stress axis : x y z
#
# Youngs Moduli (GPa) = 72.16105 41.47137 49.96878
#
# Poissons Ratio (x) = 0.17287 0.44190
# Poissons Ratio (y) = 0.30081 0.21607
# Poissons Ratio (z) = 0.63816 0.17933
#
# Static dielectric constant tensor:
#      x y z
#    x 3.475810 0.000000 0.000000 
#    y 0.000000 3.333820 0.000000 
#    z 0.000000 0.000000 3.144760 
# 
# 
# High freq. dielectric constant tensor:
#      x y z
#    x 1.645280 0.000000 0.000000 
#    y 0.000000 1.649640 0.000000 
#    z 0.000000 0.000000 1.587440 
# 
# From -- ./inp_files/24954.got.cif
#   From: 2010.03.12/outbox.cif.g09.slc.cpg/sg59_13_cif.got.tgz:24954.got - 2010.04.16 16:29:54.
