data_PCOD8240521
_publ_section_title
;
Structure prediction by ZEFSAII (Michael W. Deem and Ramdas Pophale) SiO2 
 PCOD8240521
Probable space group: P M M N
;
_chemical_formula_sum "Si O2"
_cell_formula_units_Z 48
_cell_length_a 9.318369
_cell_length_b 13.704279
_cell_length_c 23.569453
_cell_angle_alpha 90.000000
_cell_angle_beta 90.000000
_cell_angle_gamma 90.000000
_cell_volume 3009.855176
_symmetry_space_group_name_H-M "P M M N"
_symmetry_group_IT_number 59
_space_group.IT_coordinate_system_code '2'
_symmetry_cell_setting 'orthorhombic'
loop_
_space_group_symop_operation_xyz
x,y,z
1/2-x,1/2-y,z
1/2+x,-y,-z
-x,1/2+y,-z
-x,-y,-z
1/2+x,1/2+y,-z
1/2-x,y,z
x,1/2-y,z
loop_
_atom_site_type_symbol
_atom_site_label
_atom_site_fract_x
_atom_site_fract_y
_atom_site_fract_z
Si Si1 0.082999 0.138933 0.473738
Si Si2 0.584272 0.635960 0.181699
Si Si3 0.580676 0.642237 0.309517
Si Si4 0.583406 0.362383 0.028802
Si Si5 0.417761 0.972276 0.085719
Si Si6 0.082181 0.478860 0.585592
O O1 0.250000 0.129620 0.460079
O O2 0.030339 0.250000 0.471900
O O3 0.047227 0.097668 0.535870
O O4 0.998304 0.080265 0.425392
O O5 0.750000 0.612476 0.168070
O O6 0.553427 0.750000 0.172007
O O7 0.545048 0.605911 0.246117
O O8 0.482664 0.572108 0.142493
O O9 0.750000 0.651039 0.317497
O O10 0.513645 0.750000 0.319630
O O11 0.520327 0.566466 0.355908
O O12 0.750000 0.378009 0.043282
O O13 0.537850 0.250000 0.033816
O O14 0.490225 0.423371 0.073520
O O15 0.549283 0.397550 0.965187
O O16 0.250000 0.989307 0.094528
O O17 0.250000 0.501644 0.589640
#
# Coordination Sequence:
#
# PCOD8240521 Si02
#       6
#     8   8   8   8   8   8
#     4   9  17  28  42  62  89 118 143 171 215 265
#     4   9  17  29  46  67  90 117 148 181 218 261
#     4   8  14  26  45  67  88 112 145 182 216 253
#     4   9  18  32  48  66  90 120 151 181 214 255
#     4  10  19  30  46  69  95 119 144 178 220 264
#     4   9  16  27  45  66  86 111 145 182 215 251
#
# _framework density 15.947611999999999
#
# number of rings (size 3 to 8) (size 9 to 14) (size 15 to 20)
#    0.000    3.000    0.000    2.500    0.000    4.333 
#    0.000    0.833    0.000    3.500    0.000    2.333 
#    0.000    0.000    0.000    0.000    0.000    0.000 
#
# Total GULP energy -595156.326335 kJ/mol
# GULP energy per Si atom -12399.090132 kJ/mol
# Density = 1.591131 g / cm^3
# Si number density = 15.947612 Si / 1000 Ang^3
#
#
#
# Elastic Constant Matrix: (Units=GPa)
#
#
# Indices 1 2 3 4 5 6 
#
# 1 53.6585 53.0708 45.5723 0.0000 0.0000 0.0000
# 2 53.0708 128.9898 65.6407 0.0000 0.0000 0.0000
# 3 45.5723 65.6407 106.4144 0.0000 0.0000 0.0000
# 4 0.0000 0.0000 0.0000 26.9468 0.0000 0.0000
# 5 0.0000 0.0000 0.0000 0.0000 23.5185 0.0000
# 6 0.0000 0.0000 0.0000 0.0000 0.0000 25.1899
#
#
#
# Elastic Compliance Matrix: (Units=1/GPa)
#
#
# Indices 1 2 3 4 5 6 
#
# 1 0.036897 -0.010406 -0.009382 0.000000 0.000000 0.000000
# 2 -0.010406 0.014234 -0.004324 0.000000 0.000000 0.000000
# 3 -0.009382 -0.004324 0.016082 0.000000 0.000000 0.000000
# 4 0.000000 0.000000 0.000000 0.037110 0.000000 0.000000
# 5 0.000000 0.000000 0.000000 0.000000 0.042520 0.000000
# 6 0.000000 0.000000 0.000000 0.000000 0.000000 0.039698
#
#
# Mechanical properties :
#
#
# Convention : Reuss Voigt Hill
#
# Bulk Modulus (GPa) = 52.66201 68.62559 60.64380
# Shear Modulus (GPa) = 20.73861 23.44965 22.09413
#
# Velocity S-wave (km/s) = 3.61005 3.83876 3.72616
# Velocity P-wave (km/s) = 7.10424 7.92297 7.52475
#
# Compressibility (1/GPa) = 0.01898902
#
# Stress axis : x y z
#
# Youngs Moduli (GPa) = 27.10250 70.25274 62.17996
#
# Poissons Ratio (x) = 0.73106 0.58339
# Poissons Ratio (y) = 0.28203 0.26886
# Poissons Ratio (z) = 0.25428 0.30376
#
# Static dielectric constant tensor:
#      x y z
#    x 2.863780 0.000000 0.000000 
#    y 0.000000 3.068160 0.000000 
#    z 0.000000 0.000000 3.039970 
# 
# 
# High freq. dielectric constant tensor:
#      x y z
#    x 1.597740 0.000000 0.000000 
#    y 0.000000 1.605960 0.000000 
#    z 0.000000 0.000000 1.604150 
# 
# From -- ./inp_files/28839.got.cif
#   From: 2010.03.12/outbox.cif.g09.slc.cpg/sg59_15_cif.got.tgz:28839.got - 2010.04.16 16:29:54.
