data_PCOD8240828
_publ_section_title
;
Structure prediction by ZEFSAII (Michael W. Deem and Ramdas Pophale) SiO2 
 PCOD8240828
Probable space group: P M M N
;
_chemical_formula_sum "Si O2"
_cell_formula_units_Z 64
_cell_length_a 14.261716
_cell_length_b 8.801264
_cell_length_c 28.209771
_cell_angle_alpha 90.000000
_cell_angle_beta 90.000000
_cell_angle_gamma 90.000000
_cell_volume 3540.922266
_symmetry_space_group_name_H-M "P M M N"
_symmetry_group_IT_number 59
_space_group.IT_coordinate_system_code '2'
_symmetry_cell_setting 'orthorhombic'
loop_
_space_group_symop_operation_xyz
x,y,z
1/2-x,1/2-y,z
1/2+x,-y,-z
-x,1/2+y,-z
-x,-y,-z
1/2+x,1/2+y,-z
1/2-x,y,z
x,1/2-y,z
loop_
_atom_site_type_symbol
_atom_site_label
_atom_site_fract_x
_atom_site_fract_y
_atom_site_fract_z
Si Si1 0.141962 0.427242 0.196259
Si Si2 0.972658 0.429054 0.886506
Si Si3 0.359967 0.424642 0.029091
Si Si4 0.353993 0.572922 0.569748
Si Si5 0.643070 0.426198 0.704534
Si Si6 0.356826 0.571189 0.929566
Si Si7 0.642499 0.927493 0.526758
Si Si8 0.963783 0.927706 0.619860
O O1 0.250000 0.465021 0.184269
O O2 0.121009 0.250000 0.189511
O O3 0.075887 0.522530 0.162027
O O4 0.117996 0.475017 0.249599
O O5 0.984796 0.250000 0.887510
O O6 0.910578 0.481495 0.930467
O O7 0.075493 0.506216 0.888806
O O8 0.250000 0.439632 0.038179
O O9 0.392910 0.250000 0.030971
O O10 0.388018 0.493836 0.978631
O O11 0.250000 0.507639 0.582168
O O12 0.348362 0.750000 0.560191
O O13 0.395324 0.502662 0.521431
O O14 0.425067 0.539689 0.613119
O O15 0.750000 0.458595 0.688355
O O16 0.628459 0.250000 0.716742
O O17 0.572301 0.474637 0.663550
O O18 0.250000 0.528431 0.916358
O O19 0.369647 0.750000 0.934913
O O20 0.750000 0.973320 0.534633
O O21 0.627875 0.750000 0.520843
O O22 0.586772 0.986823 0.572379
O O23 0.942704 0.750000 0.629004
#
# Coordination Sequence:
#
# PCOD8240828 Si02
#       8
#     8   8   8   8   8   8   8   8
#     4  10  21  38  59  81 106 135 166 203 250 305
#     4  12  23  34  53  79 108 140 174 214 258 307
#     4  10  20  34  52  76 108 143 179 218 259 306
#     4   9  18  31  46  67  97 132 170 210 248 286
#     4  10  21  36  54  78 105 129 157 199 251 304
#     4  10  21  37  55  75 103 140 181 222 261 303
#     4   9  17  28  43  66  96 129 166 206 248 296
#     4  10  19  31  49  71  97 132 169 204 246 298
#
# _framework density 18.074384999999999
#
# number of rings (size 3 to 8) (size 9 to 14) (size 15 to 20)
#    0.000    2.000    0.000    4.125    0.000    6.000 
#    0.000    1.250    0.000    0.750    0.000    1.750 
#    0.000    0.000    0.000    0.000    0.000    0.000 
#
# Total GULP energy -793742.585065 kJ/mol
# GULP energy per Si atom -12402.227892 kJ/mol
# Density = 1.803325 g / cm^3
# Si number density = 18.074385 Si / 1000 Ang^3
#
#
#
# Elastic Constant Matrix: (Units=GPa)
#
#
# Indices 1 2 3 4 5 6 
#
# 1 75.6294 31.3309 57.1332 0.0000 0.0000 0.0000
# 2 31.3309 45.7379 17.0298 0.0000 0.0000 0.0000
# 3 57.1332 17.0298 74.7152 0.0000 0.0000 0.0000
# 4 0.0000 0.0000 0.0000 34.3490 0.0000 0.0000
# 5 0.0000 0.0000 0.0000 0.0000 29.8208 0.0000
# 6 0.0000 0.0000 0.0000 0.0000 0.0000 25.4945
#
#
#
# Elastic Compliance Matrix: (Units=1/GPa)
#
#
# Indices 1 2 3 4 5 6 
#
# 1 0.041784 -0.018277 -0.027786 0.000000 0.000000 0.000000
# 2 -0.018277 0.031886 0.006708 0.000000 0.000000 0.000000
# 3 -0.027786 0.006708 0.033102 0.000000 0.000000 0.000000
# 4 0.000000 0.000000 0.000000 0.029113 0.000000 0.000000
# 5 0.000000 0.000000 0.000000 0.000000 0.033534 0.000000
# 6 0.000000 0.000000 0.000000 0.000000 0.000000 0.039224
#
#
# Mechanical properties :
#
#
# Convention : Reuss Voigt Hill
#
# Bulk Modulus (GPa) = 35.63328 45.23002 40.43165
# Shear Modulus (GPa) = 16.85165 23.97209 20.41187
#
# Velocity S-wave (km/s) = 3.05675 3.64579 3.36419
# Velocity P-wave (km/s) = 5.67591 6.54226 6.12442
#
# Compressibility (1/GPa) = 0.02806365
#
# Stress axis : x y z
#
# Youngs Moduli (GPa) = 23.93240 31.36184 30.20934
#
# Poissons Ratio (x) = 0.57320 0.83939
# Poissons Ratio (y) = 0.43741 -0.20266
# Poissons Ratio (z) = 0.66498 -0.21039
#
# Static dielectric constant tensor:
#      x y z
#    x 3.619150 0.000000 0.000000 
#    y 0.000000 3.373540 0.000000 
#    z 0.000000 0.000000 3.208200 
# 
# 
# High freq. dielectric constant tensor:
#      x y z
#    x 1.704420 0.000000 0.000000 
#    y 0.000000 1.706890 0.000000 
#    z 0.000000 0.000000 1.679840 
# 
# From -- ./inp_files/32230.got.cif
#   From: 2010.03.12/outbox.cif.g09.slc.cpg/sg59_17_cif.got.tgz:32230.got - 2010.04.16 16:29:54.
