data_PCOD8240364
_publ_section_title
;
Structure prediction by ZEFSAII (Michael W. Deem and Ramdas Pophale) SiO2 
 PCOD8240364
Probable space group: P M M N
;
_chemical_formula_sum "Si O2"
_cell_formula_units_Z 64
_cell_length_a 13.823428
_cell_length_b 8.933946
_cell_length_c 31.520650
_cell_angle_alpha 90.000000
_cell_angle_beta 90.000000
_cell_angle_gamma 90.000000
_cell_volume 3892.729646
_symmetry_space_group_name_H-M "P M M N"
_symmetry_group_IT_number 59
_space_group.IT_coordinate_system_code '2'
_symmetry_cell_setting 'orthorhombic'
loop_
_space_group_symop_operation_xyz
x,y,z
1/2-x,1/2-y,z
1/2+x,-y,-z
-x,1/2+y,-z
-x,-y,-z
1/2+x,1/2+y,-z
1/2-x,y,z
x,1/2-y,z
loop_
_atom_site_type_symbol
_atom_site_label
_atom_site_fract_x
_atom_site_fract_y
_atom_site_fract_z
Si Si1 0.635686 0.416997 0.469054
Si Si2 0.361241 0.573989 0.687005
Si Si3 0.542514 0.925157 0.392203
Si Si4 0.140567 0.578064 0.013739
Si Si5 0.864883 0.581582 0.228152
Si Si6 0.546637 0.923548 0.063866
Si Si7 0.644334 0.073044 0.562007
Si Si8 0.361138 0.573648 0.857134
O O1 0.750000 0.405203 0.467517
O O2 0.592213 0.250000 0.460549
O O3 0.603181 0.533963 0.433694
O O4 0.606117 0.481313 0.515674
O O5 0.250000 0.526720 0.679189
O O6 0.371251 0.750000 0.691865
O O7 0.424392 0.519139 0.647937
O O8 0.403581 0.500110 0.729740
O O9 0.555541 0.750000 0.382658
O O10 0.431017 0.970596 0.401244
O O11 0.250000 0.545292 0.029511
O O12 0.129490 0.750000 0.998747
O O13 0.065514 0.544629 0.051799
O O14 0.117143 0.473257 0.973993
O O15 0.750000 0.578438 0.228721
O O16 0.905443 0.750000 0.227411
O O17 0.901703 0.496297 0.186379
O O18 0.565483 0.750000 0.073119
O O19 0.570377 0.016962 0.105520
O O20 0.750000 0.004095 0.573179
O O21 0.653502 0.250000 0.558196
O O22 0.250000 0.524770 0.865833
O O23 0.369549 0.750000 0.853333
#
# Coordination Sequence:
#
# PCOD8240364 Si02
#       8
#     8   8   8   8   8   8   8   8
#     4   9  17  30  46  62  85 118 148 174 212 262
#     4  10  20  33  47  64  91 124 149 170 208 266
#     4  11  20  28  44  68  89 112 145 184 219 252
#     4   9  18  32  46  61  88 125 159 193 236 279
#     4   9  17  30  48  69  92 116 145 183 220 255
#     4  10  19  29  44  67  91 118 157 199 232 266
#     4   8  16  31  47  62  83 113 148 183 219 259
#     4  10  19  30  45  66  94 126 154 180 218 269
#
# _framework density 16.440905000000001
#
# number of rings (size 3 to 8) (size 9 to 14) (size 15 to 20)
#    0.000    2.500    0.000    3.750    0.000    7.000 
#    0.000    0.625    0.000    3.000    0.000    0.875 
#    0.000    7.000    0.000    0.000    0.000    0.000 
#
# Total GULP energy -793486.433977 kJ/mol
# GULP energy per Si atom -12398.225531 kJ/mol
# Density = 1.640349 g / cm^3
# Si number density = 16.440905 Si / 1000 Ang^3
#
#
#
# Elastic Constant Matrix: (Units=GPa)
#
#
# Indices 1 2 3 4 5 6 
#
# 1 69.2145 27.5408 52.3945 0.0000 0.0000 0.0000
# 2 27.5408 66.2844 43.5049 0.0000 0.0000 0.0000
# 3 52.3945 43.5049 121.9701 0.0000 0.0000 0.0000
# 4 0.0000 0.0000 0.0000 31.7134 0.0000 0.0000
# 5 0.0000 0.0000 0.0000 0.0000 17.4998 0.0000
# 6 0.0000 0.0000 0.0000 0.0000 0.0000 17.0929
#
#
#
# Elastic Compliance Matrix: (Units=1/GPa)
#
#
# Indices 1 2 3 4 5 6 
#
# 1 0.022142 -0.003861 -0.008134 0.000000 0.000000 0.000000
# 2 -0.003861 0.020371 -0.005608 0.000000 0.000000 0.000000
# 3 -0.008134 -0.005608 0.013693 0.000000 0.000000 0.000000
# 4 0.000000 0.000000 0.000000 0.031532 0.000000 0.000000
# 5 0.000000 0.000000 0.000000 0.000000 0.057144 0.000000
# 6 0.000000 0.000000 0.000000 0.000000 0.000000 0.058504
#
#
# Mechanical properties :
#
#
# Convention : Reuss Voigt Hill
#
# Bulk Modulus (GPa) = 47.61802 56.03881 51.82842
# Shear Modulus (GPa) = 20.35902 22.19646 21.27774
#
# Velocity S-wave (km/s) = 3.52279 3.67832 3.60140
# Velocity P-wave (km/s) = 6.75076 7.22489 6.99185
#
# Compressibility (1/GPa) = 0.02100045
#
# Stress axis : x y z
#
# Youngs Moduli (GPa) = 45.16382 49.08900 73.02974
#
# Poissons Ratio (x) = 0.18953 0.59404
# Poissons Ratio (y) = 0.17437 0.40952
# Poissons Ratio (z) = 0.36737 0.27527
#
# Static dielectric constant tensor:
#      x y z
#    x 3.112980 0.000000 0.000000 
#    y 0.000000 3.170220 0.000000 
#    z 0.000000 0.000000 3.110700 
# 
# 
# High freq. dielectric constant tensor:
#      x y z
#    x 1.605980 0.000000 0.000000 
#    y 0.000000 1.636830 0.000000 
#    z 0.000000 0.000000 1.625350 
# 
# From -- ./inp_files/33236.got.cif
#   From: 2010.03.12/outbox.cif.g09.slc.cpg/sg59_17_cif.got.tgz:33236.got - 2010.04.16 16:29:54.
