data_PCOD8240173
_publ_section_title
;
Structure prediction by ZEFSAII (Michael W. Deem and Ramdas Pophale) SiO2 
 PCOD8240173
Probable space group: P M M N
;
_chemical_formula_sum "Si O2"
_cell_formula_units_Z 48
_cell_length_a 9.420292
_cell_length_b 8.576125
_cell_length_c 28.926939
_cell_angle_alpha 90.000000
_cell_angle_beta 90.000000
_cell_angle_gamma 90.000000
_cell_volume 2336.995881
_symmetry_space_group_name_H-M "P M M N"
_symmetry_group_IT_number 59
_space_group.IT_coordinate_system_code '2'
_symmetry_cell_setting 'orthorhombic'
loop_
_space_group_symop_operation_xyz
x,y,z
1/2-x,1/2-y,z
1/2+x,-y,-z
-x,1/2+y,-z
-x,-y,-z
1/2+x,1/2+y,-z
1/2-x,y,z
x,1/2-y,z
loop_
_atom_site_type_symbol
_atom_site_label
_atom_site_fract_x
_atom_site_fract_y
_atom_site_fract_z
Si Si1 0.250000 0.565843 0.932294
Si Si2 0.090358 0.068059 0.210394
Si Si3 0.085100 0.067419 0.373130
Si Si4 0.033952 0.065249 0.108469
Si Si5 0.084650 0.067906 0.710269
Si Si6 0.750000 0.934009 0.965979
Si Si7 0.412463 0.433587 0.542516
O O1 0.250000 0.750000 0.935547
O O2 0.377960 0.503194 0.901494
O O3 0.250000 0.508040 0.984183
O O4 0.250000 0.043308 0.229776
O O5 0.047846 0.250000 0.212644
O O6 0.086282 0.002320 0.157947
O O7 0.975975 0.969426 0.239103
O O8 0.250000 0.012283 0.372999
O O9 0.077039 0.250000 0.383667
O O10 0.011467 0.032079 0.324471
O O11 0.995121 0.976416 0.411168
O O12 0.049336 0.250000 0.110182
O O13 0.118766 0.003565 0.064113
O O14 0.250000 0.018196 0.707041
O O15 0.067995 0.250000 0.699066
O O16 0.750000 0.750000 0.972560
O O17 0.500000 0.500000 0.500000
O O18 0.250000 0.499219 0.543350
O O19 0.406642 0.250000 0.537468
#
# Coordination Sequence:
#
# PCOD8240173 Si02
#       7
#     4   8   8   8   8   4   8
#     4  10  20  32  50  78 108 138 180 226 271 332
#     4  10  20  37  61  86 110 144 193 241 286 346
#     4  11  24  42  65  94 125 160 207 256 301 358
#     4   9  18  33  54  78 105 139 181 227 276 334
#     4  11  25  42  60  87 122 156 192 240 298 359
#     4  10  18  34  54  74 104 142 178 222 277 332
#     4  11  24  41  63  94 131 171 216 263 310 362
#
# _framework density 20.539187999999999
#
# number of rings (size 3 to 8) (size 9 to 14) (size 15 to 20)
#    0.000    1.667    0.833    3.500    1.167   10.333 
#    0.000    1.667    0.000    0.000    0.000    0.000 
#    0.000    0.000    0.000    0.000    0.000    0.000 
#
# Total GULP energy -595085.840357 kJ/mol
# GULP energy per Si atom -12397.621674 kJ/mol
# Density = 2.049244 g / cm^3
# Si number density = 20.539188 Si / 1000 Ang^3
#
#
#
# Elastic Constant Matrix: (Units=GPa)
#
#
# Indices 1 2 3 4 5 6 
#
# 1 176.6195 34.1990 52.2223 0.0000 0.0000 0.0000
# 2 34.1990 38.4982 10.9489 0.0000 0.0000 0.0000
# 3 52.2223 10.9489 104.2142 0.0000 0.0000 0.0000
# 4 0.0000 0.0000 0.0000 36.0531 0.0000 0.0000
# 5 0.0000 0.0000 0.0000 0.0000 42.0207 0.0000
# 6 0.0000 0.0000 0.0000 0.0000 0.0000 20.1391
#
#
#
# Elastic Compliance Matrix: (Units=1/GPa)
#
#
# Indices 1 2 3 4 5 6 
#
# 1 0.007790 -0.005988 -0.003274 0.000000 0.000000 0.000000
# 2 -0.005988 0.031379 -0.000296 0.000000 0.000000 0.000000
# 3 -0.003274 -0.000296 0.011267 0.000000 0.000000 0.000000
# 4 0.000000 0.000000 0.000000 0.027737 0.000000 0.000000
# 5 0.000000 0.000000 0.000000 0.000000 0.023798 0.000000
# 6 0.000000 0.000000 0.000000 0.000000 0.000000 0.049655
#
#
# Mechanical properties :
#
#
# Convention : Reuss Voigt Hill
#
# Bulk Modulus (GPa) = 31.92957 57.11914 44.52435
# Shear Modulus (GPa) = 27.59651 34.44002 31.01827
#
# Velocity S-wave (km/s) = 3.66950 4.09931 3.89034
# Velocity P-wave (km/s) = 5.79077 7.09056 6.47337
#
# Compressibility (1/GPa) = 0.03131893
#
# Stress axis : x y z
#
# Youngs Moduli (GPa) = 128.37710 31.86832 88.75131
#
# Poissons Ratio (x) = 0.19084 0.29059
# Poissons Ratio (y) = 0.76878 0.02626
# Poissons Ratio (z) = 0.42034 0.00943
#
# Static dielectric constant tensor:
#      x y z
#    x 4.331250 0.000000 0.000000 
#    y 0.000000 3.424880 0.000000 
#    z 0.000000 0.000000 4.290320 
# 
# 
# High freq. dielectric constant tensor:
#      x y z
#    x 1.823490 0.000000 0.000000 
#    y 0.000000 1.776740 0.000000 
#    z 0.000000 0.000000 1.817250 
# 
# From -- ./inp_files/32932.got.cif
#   From: 2010.03.12/outbox.cif.g09.slc.cpg/sg59_17_cif.got.tgz:32932.got - 2010.04.16 16:29:54.
