data_PCOD8240381
_publ_section_title
;
Structure prediction by ZEFSAII (Michael W. Deem and Ramdas Pophale) SiO2 
 PCOD8240381
Probable space group: P M M N
;
_chemical_formula_sum "Si O2"
_cell_formula_units_Z 56
_cell_length_a 21.608704
_cell_length_b 9.294061
_cell_length_c 17.508316
_cell_angle_alpha 90.000000
_cell_angle_beta 90.000000
_cell_angle_gamma 90.000000
_cell_volume 3516.240853
_symmetry_space_group_name_H-M "P M M N"
_symmetry_group_IT_number 59
_space_group.IT_coordinate_system_code '2'
_symmetry_cell_setting 'orthorhombic'
loop_
_space_group_symop_operation_xyz
x,y,z
1/2-x,1/2-y,z
1/2+x,-y,-z
-x,1/2+y,-z
-x,-y,-z
1/2+x,1/2+y,-z
1/2-x,y,z
x,1/2-y,z
loop_
_atom_site_type_symbol
_atom_site_label
_atom_site_fract_x
_atom_site_fract_y
_atom_site_fract_z
Si Si1 0.040456 0.587165 0.272082
Si Si2 0.586876 0.083144 0.053511
Si Si3 0.582852 0.087159 0.443843
Si Si4 0.937358 0.912366 0.586642
Si Si5 0.397337 0.084671 0.700578
Si Si6 0.321578 0.418179 0.847848
Si Si7 0.530890 0.085407 0.895927
O O1 0.055349 0.750000 0.297467
O O2 0.075731 0.482607 0.330655
O O3 0.063603 0.555720 0.185745
O O4 0.967112 0.560537 0.271901
O O5 0.591329 0.250000 0.074931
O O6 0.648410 0.003664 0.081727
O O7 0.526912 0.019757 0.095174
O O8 0.581257 0.058951 0.962242
O O9 0.607056 0.250000 0.451605
O O10 0.509931 0.083650 0.429611
O O11 0.598515 0.001924 0.521640
O O12 0.617832 0.010915 0.373667
O O13 0.911932 0.750000 0.586801
O O14 0.385175 0.250000 0.678387
O O15 0.352488 0.033401 0.768295
O O16 0.250000 0.459171 0.844323
O O17 0.332480 0.250000 0.862035
O O18 0.505966 0.250000 0.898660
#
# Coordination Sequence:
#
# PCOD8240381 Si02
#       7
#     8   8   8   8   8   8   8
#     4   9  15  25  41  58  82 113 144 176 211 258
#     4  10  19  29  45  66  88 113 147 189 229 267
#     4   9  16  25  37  54  78 109 141 171 205 247
#     4   9  16  24  35  55  82 109 139 171 204 245
#     4   9  16  27  42  58  78 109 146 181 215 253
#     4  10  20  34  49  63  85 119 155 188 226 272
#     4   9  17  30  45  63  88 119 149 180 222 275
#
# _framework density 15.926099000000001
#
# number of rings (size 3 to 8) (size 9 to 14) (size 15 to 20)
#    0.000    2.714    1.429    1.286    0.000    5.429 
#    0.000    0.000    0.000    0.000    0.000    0.000 
#    0.000    1.143    0.000    8.286    0.000    4.429 
#
# Total GULP energy -694338.520540 kJ/mol
# GULP energy per Si atom -12398.902153 kJ/mol
# Density = 1.588985 g / cm^3
# Si number density = 15.926099 Si / 1000 Ang^3
#
#
#
# Elastic Constant Matrix: (Units=GPa)
#
#
# Indices 1 2 3 4 5 6 
#
# 1 40.0369 28.3395 33.1694 0.0000 0.0000 0.0000
# 2 28.3395 103.2767 73.4970 0.0000 0.0000 0.0000
# 3 33.1694 73.4970 141.7819 0.0000 0.0000 0.0000
# 4 0.0000 0.0000 0.0000 32.1389 0.0000 0.0000
# 5 0.0000 0.0000 0.0000 0.0000 13.2318 0.0000
# 6 0.0000 0.0000 0.0000 0.0000 0.0000 14.0939
#
#
#
# Elastic Compliance Matrix: (Units=1/GPa)
#
#
# Indices 1 2 3 4 5 6 
#
# 1 0.032926 -0.005630 -0.004784 0.000000 0.000000 0.000000
# 2 -0.005630 0.016306 -0.007135 0.000000 0.000000 0.000000
# 3 -0.004784 -0.007135 0.011871 0.000000 0.000000 0.000000
# 4 0.000000 0.000000 0.000000 0.031115 0.000000 0.000000
# 5 0.000000 0.000000 0.000000 0.000000 0.075576 0.000000
# 6 0.000000 0.000000 0.000000 0.000000 0.000000 0.070953
#
#
# Mechanical properties :
#
#
# Convention : Reuss Voigt Hill
#
# Bulk Modulus (GPa) = 38.45723 61.67860 50.06791
# Shear Modulus (GPa) = 17.69829 21.89889 19.79859
#
# Velocity S-wave (km/s) = 3.33720 3.71216 3.52966
# Velocity P-wave (km/s) = 6.24891 7.56212 6.93666
#
# Compressibility (1/GPa) = 0.02600292
#
# Stress axis : x y z
#
# Youngs Moduli (GPa) = 30.37125 61.32897 84.23778
#
# Poissons Ratio (x) = 0.34529 0.40302
# Poissons Ratio (y) = 0.17100 0.60106
# Poissons Ratio (z) = 0.14531 0.43760
#
# Static dielectric constant tensor:
#      x y z
#    x 2.465020 0.000000 0.000000 
#    y 0.000000 3.143710 0.000000 
#    z 0.000000 0.000000 3.261390 
# 
# 
# High freq. dielectric constant tensor:
#      x y z
#    x 1.535010 0.000000 0.000000 
#    y 0.000000 1.621500 0.000000 
#    z 0.000000 0.000000 1.625980 
# 
# From -- ./inp_files/26061.got.cif
#   From: 2010.03.12/outbox.cif.g09.slc.cpg/sg59_14_cif.got.tgz:26061.got - 2010.04.16 16:29:54.
