data_PCOD8240557
_publ_section_title
;
Structure prediction by ZEFSAII (Michael W. Deem and Ramdas Pophale) SiO2 
 PCOD8240557
Probable space group: P M M N
;
_chemical_formula_sum "Si O2"
_cell_formula_units_Z 64
_cell_length_a 14.380587
_cell_length_b 9.333550
_cell_length_c 27.729221
_cell_angle_alpha 90.000000
_cell_angle_beta 90.000000
_cell_angle_gamma 90.000000
_cell_volume 3721.869499
_symmetry_space_group_name_H-M "P M M N"
_symmetry_group_IT_number 59
_space_group.IT_coordinate_system_code '2'
_symmetry_cell_setting 'orthorhombic'
loop_
_space_group_symop_operation_xyz
x,y,z
1/2-x,1/2-y,z
1/2+x,-y,-z
-x,1/2+y,-z
-x,-y,-z
1/2+x,1/2+y,-z
1/2-x,y,z
x,1/2-y,z
loop_
_atom_site_type_symbol
_atom_site_label
_atom_site_fract_x
_atom_site_fract_y
_atom_site_fract_z
Si Si1 0.145877 0.416032 0.068100
Si Si2 0.357740 0.916495 0.421107
Si Si3 0.354599 0.415764 0.803182
Si Si4 0.357918 0.915017 0.974054
Si Si5 0.034596 0.583561 0.880065
Si Si6 0.147636 0.919874 0.529440
Si Si7 0.022150 0.579366 0.616758
Si Si8 0.642985 0.585684 0.308756
O O1 0.250000 0.465330 0.083367
O O2 0.144091 0.250000 0.054130
O O3 0.109860 0.498553 0.021001
O O4 0.075601 0.446239 0.112377
O O5 0.250000 0.942887 0.408571
O O6 0.383276 0.750000 0.414613
O O7 0.379841 0.969529 0.475628
O O8 0.419229 0.011508 0.384724
O O9 0.250000 0.469965 0.815139
O O10 0.363038 0.250000 0.816530
O O11 0.431098 0.500950 0.833205
O O12 0.376555 0.440983 0.747314
O O13 0.250000 0.940335 0.963651
O O14 0.381806 0.750000 0.983806
O O15 0.412250 0.972769 0.927485
O O16 0.055761 0.750000 0.871721
O O17 0.250000 0.980908 0.542553
O O18 0.151909 0.750000 0.530273
O O19 0.074905 0.976550 0.568722
O O20 0.015499 0.750000 0.619818
O O21 0.076665 0.522351 0.663007
O O22 0.750000 0.550441 0.321136
O O23 0.620460 0.750000 0.322559
#
# Coordination Sequence:
#
# PCOD8240557 Si02
#       8
#     8   8   8   8   8   8   8   8
#     4   9  18  31  45  64  93 128 163 195 226 266
#     4   9  18  33  50  66  92 134 174 203 235 278
#     4   9  19  35  53  73  96 121 151 190 234 280
#     4   9  17  28  42  64  94 124 155 193 235 278
#     4  10  19  30  47  70  95 124 157 194 238 283
#     4   8  15  28  45  68  99 131 162 196 235 282
#     4  11  20  29  48  76 102 127 158 200 245 287
#     4   9  19  36  54  72  97 126 155 190 234 288
#
# _framework density 17.195658999999999
#
# number of rings (size 3 to 8) (size 9 to 14) (size 15 to 20)
#    0.000    2.750    0.000    3.375    0.000    3.250 
#    0.000    3.125    0.000    2.250    0.000    3.500 
#    0.000    0.000    0.000    0.000    0.000    0.000 
#
# Total GULP energy -793518.772263 kJ/mol
# GULP energy per Si atom -12398.730817 kJ/mol
# Density = 1.715652 g / cm^3
# Si number density = 17.195659 Si / 1000 Ang^3
#
#
#
# Elastic Constant Matrix: (Units=GPa)
#
#
# Indices 1 2 3 4 5 6 
#
# 1 97.5794 48.7684 58.2801 0.0000 0.0000 0.0000
# 2 48.7684 63.9030 45.9385 0.0000 0.0000 0.0000
# 3 58.2801 45.9385 78.2439 0.0000 0.0000 0.0000
# 4 0.0000 0.0000 0.0000 29.8233 0.0000 0.0000
# 5 0.0000 0.0000 0.0000 0.0000 29.1016 0.0000
# 6 0.0000 0.0000 0.0000 0.0000 0.0000 25.1416
#
#
#
# Elastic Compliance Matrix: (Units=1/GPa)
#
#
# Indices 1 2 3 4 5 6 
#
# 1 0.020646 -0.008134 -0.010602 0.000000 0.000000 0.000000
# 2 -0.008134 0.030282 -0.011720 0.000000 0.000000 0.000000
# 3 -0.010602 -0.011720 0.027559 0.000000 0.000000 0.000000
# 4 0.000000 0.000000 0.000000 0.033531 0.000000 0.000000
# 5 0.000000 0.000000 0.000000 0.000000 0.034362 0.000000
# 6 0.000000 0.000000 0.000000 0.000000 0.000000 0.039775
#
#
# Mechanical properties :
#
#
# Convention : Reuss Voigt Hill
#
# Bulk Modulus (GPa) = 56.90567 60.63336 58.76952
# Shear Modulus (GPa) = 19.76869 22.59594 21.18231
#
# Velocity S-wave (km/s) = 3.39430 3.62891 3.51357
# Velocity P-wave (km/s) = 6.96610 7.27297 7.12119
#
# Compressibility (1/GPa) = 0.01757294
#
# Stress axis : x y z
#
# Youngs Moduli (GPa) = 48.43629 33.02296 36.28613
#
# Poissons Ratio (x) = 0.26862 0.38471
# Poissons Ratio (y) = 0.39400 0.42528
# Poissons Ratio (z) = 0.51353 0.38704
#
# Static dielectric constant tensor:
#      x y z
#    x 3.319210 0.000000 0.000000 
#    y 0.000000 3.027800 0.000000 
#    z 0.000000 0.000000 3.020030 
# 
# 
# High freq. dielectric constant tensor:
#      x y z
#    x 1.667920 0.000000 0.000000 
#    y 0.000000 1.651640 0.000000 
#    z 0.000000 0.000000 1.642050 
# 
# From -- ./inp_files/33308.got.cif
#   From: 2010.03.12/outbox.cif.g09.slc.cpg/sg59_17_cif.got.tgz:33308.got - 2010.04.16 16:29:54.
