data_PCOD8240648
_publ_section_title
;
Structure prediction by ZEFSAII (Michael W. Deem and Ramdas Pophale) SiO2 
 PCOD8240648
Probable space group: P M M N
;
_chemical_formula_sum "Si O2"
_cell_formula_units_Z 64
_cell_length_a 9.141461
_cell_length_b 16.103898
_cell_length_c 23.775538
_cell_angle_alpha 90.000000
_cell_angle_beta 90.000000
_cell_angle_gamma 90.000000
_cell_volume 3500.071973
_symmetry_space_group_name_H-M "P M M N"
_symmetry_group_IT_number 59
_space_group.IT_coordinate_system_code '2'
_symmetry_cell_setting 'orthorhombic'
loop_
_space_group_symop_operation_xyz
x,y,z
1/2-x,1/2-y,z
1/2+x,-y,-z
-x,1/2+y,-z
-x,-y,-z
1/2+x,1/2+y,-z
1/2-x,y,z
x,1/2-y,z
loop_
_atom_site_type_symbol
_atom_site_label
_atom_site_fract_x
_atom_site_fract_y
_atom_site_fract_z
Si Si1 0.080781 0.161153 0.568644
Si Si2 0.419137 0.432362 0.462951
Si Si3 0.919718 0.089648 0.934582
Si Si4 0.924055 0.999384 0.238825
Si Si5 0.079266 0.659479 0.825944
Si Si6 0.424039 0.498810 0.633198
Si Si7 0.582536 0.420427 0.060272
Si Si8 0.579178 0.842750 0.167641
O O1 0.250000 0.163748 0.584969
O O2 0.007506 0.250000 0.584311
O O3 0.064559 0.150276 0.500857
O O4 0.013768 0.086912 0.606077
O O5 0.500000 0.500000 0.500000
O O6 0.250000 0.456043 0.453835
O O7 0.499961 0.426307 0.402254
O O8 0.750000 0.091343 0.919369
O O9 0.001914 0.151712 0.892835
O O10 0.948790 0.118712 0.998920
O O11 0.977392 0.996757 0.926415
O O12 0.750000 0.999338 0.236038
O O13 0.989608 0.081656 0.208246
O O14 0.978585 0.001991 0.302883
O O15 0.982154 0.914505 0.209460
O O16 0.250000 0.660957 0.812278
O O17 0.012060 0.750000 0.808698
O O18 0.052245 0.648729 0.892612
O O19 0.250000 0.507931 0.627886
O O20 0.750000 0.452803 0.063708
O O21 0.750000 0.856641 0.157745
O O22 0.548883 0.750000 0.192412
#
# Coordination Sequence:
#
# PCOD8240648 Si02
#       8
#     8   8   8   8   8   8   8   8
#     4   8  14  25  43  68  94 119 151 190 228 270
#     4   9  16  28  47  69  93 121 153 189 230 277
#     4  10  19  30  49  75 101 129 160 205 263 313
#     4   9  17  31  49  70  97 127 166 211 245 287
#     4   9  16  28  50  74  93 121 163 209 253 296
#     4   9  17  29  48  70  94 126 161 197 238 283
#     4   9  17  31  51  73  98 127 165 207 250 309
#     4  10  20  34  52  72  98 135 173 209 252 301
#
# _framework density 18.285339
#
# number of rings (size 3 to 8) (size 9 to 14) (size 15 to 20)
#    0.000    2.875    1.250    1.500    0.000    1.750 
#    0.000    5.000    0.000   10.500    0.000    0.000 
#    0.000    0.000    0.000    0.000    0.000    0.000 
#
# Total GULP energy -792934.102039 kJ/mol
# GULP energy per Si atom -12389.595344 kJ/mol
# Density = 1.824372 g / cm^3
# Si number density = 18.285339 Si / 1000 Ang^3
#
#
#
# Elastic Constant Matrix: (Units=GPa)
#
#
# Indices 1 2 3 4 5 6 
#
# 1 37.2696 16.1727 24.8669 0.0000 0.0000 0.0000
# 2 16.1727 111.3070 59.2985 0.0000 0.0000 0.0000
# 3 24.8669 59.2985 135.1672 0.0000 0.0000 0.0000
# 4 0.0000 0.0000 0.0000 16.0911 0.0000 0.0000
# 5 0.0000 0.0000 0.0000 0.0000 24.4296 0.0000
# 6 0.0000 0.0000 0.0000 0.0000 0.0000 12.8496
#
#
#
# Elastic Compliance Matrix: (Units=1/GPa)
#
#
# Indices 1 2 3 4 5 6 
#
# 1 0.030893 -0.001906 -0.004847 0.000000 0.000000 0.000000
# 2 -0.001906 0.011842 -0.004844 0.000000 0.000000 0.000000
# 3 -0.004847 -0.004844 0.010415 0.000000 0.000000 0.000000
# 4 0.000000 0.000000 0.000000 0.062146 0.000000 0.000000
# 5 0.000000 0.000000 0.000000 0.000000 0.040934 0.000000
# 6 0.000000 0.000000 0.000000 0.000000 0.000000 0.077824
#
#
# Mechanical properties :
#
#
# Convention : Reuss Voigt Hill
#
# Bulk Modulus (GPa) = 33.38422 53.82446 43.60434
# Shear Modulus (GPa) = 18.71016 22.90108 20.80562
#
# Velocity S-wave (km/s) = 3.20227 3.54281 3.37683
# Velocity P-wave (km/s) = 5.65418 6.79964 6.25319
#
# Compressibility (1/GPa) = 0.02995427
#
# Stress axis : x y z
#
# Youngs Moduli (GPa) = 32.37001 84.44513 96.01317
#
# Poissons Ratio (x) = 0.16099 0.46538
# Poissons Ratio (y) = 0.06171 0.46513
# Poissons Ratio (z) = 0.15690 0.40909
#
# Static dielectric constant tensor:
#      x y z
#    x 3.078810 0.000000 0.000000 
#    y 0.000000 3.555060 0.000000 
#    z 0.000000 0.000000 3.702560 
# 
# 
# High freq. dielectric constant tensor:
#      x y z
#    x 1.665790 0.000000 0.000000 
#    y 0.000000 1.697270 0.000000 
#    z 0.000000 0.000000 1.708690 
# 
# From -- ./inp_files/31752.got.cif
#   From: 2010.03.12/outbox.cif.g09.slc.cpg/sg59_16_cif.got.tgz:31752.got - 2010.04.16 16:29:54.
