data_PCOD8240223
_publ_section_title
;
Structure prediction by ZEFSAII (Michael W. Deem and Ramdas Pophale) SiO2 
 PCOD8240223
Probable space group: P M M N
;
_chemical_formula_sum "Si O2"
_cell_formula_units_Z 48
_cell_length_a 14.165612
_cell_length_b 8.598985
_cell_length_c 20.426481
_cell_angle_alpha 90.000000
_cell_angle_beta 90.000000
_cell_angle_gamma 90.000000
_cell_volume 2488.147304
_symmetry_space_group_name_H-M "P M M N"
_symmetry_group_IT_number 59
_space_group.IT_coordinate_system_code '2'
_symmetry_cell_setting 'orthorhombic'
loop_
_space_group_symop_operation_xyz
x,y,z
1/2-x,1/2-y,z
1/2+x,-y,-z
-x,1/2+y,-z
-x,-y,-z
1/2+x,1/2+y,-z
1/2-x,y,z
x,1/2-y,z
loop_
_atom_site_type_symbol
_atom_site_label
_atom_site_fract_x
_atom_site_fract_y
_atom_site_fract_z
Si Si1 0.250000 0.565444 0.360910
Si Si2 0.750000 0.931683 0.996973
Si Si3 0.444477 0.432486 0.059737
Si Si4 0.551953 0.565031 0.681014
Si Si5 0.547729 0.435029 0.186882
Si Si6 0.058320 0.065522 0.559413
Si Si7 0.250000 0.934009 0.858371
Si Si8 0.250000 0.934744 0.512794
O O1 0.250000 0.750000 0.356676
O O2 0.157893 0.500331 0.324449
O O3 0.250000 0.511240 0.436926
O O4 0.750000 0.750000 0.014224
O O5 0.750000 0.020113 0.065646
O O6 0.663560 0.980174 0.950681
O O7 0.459056 0.250000 0.060458
O O8 0.484734 0.502104 0.127303
O O9 0.500000 0.500000 0.000000
O O10 0.557076 0.750000 0.677231
O O11 0.502213 0.504609 0.747327
O O12 0.485778 0.499554 0.625025
O O13 0.548690 0.250000 0.186844
O O14 0.655740 0.497518 0.178464
O O15 0.053776 0.250000 0.559467
O O16 0.163624 0.005185 0.552459
O O17 0.000000 0.000000 0.500000
O O18 0.250000 0.750000 0.856052
O O19 0.250000 0.750000 0.517573
#
# Coordination Sequence:
#
# PCOD8240223 Si02
#       8
#     4   4   8   8   8   8   4   4
#     4  11  23  40  63  89 120 158 201 252 310 361
#     4  10  20  31  52  86 119 149 189 244 298 344
#     4  10  19  34  55  83 115 149 195 243 291 346
#     4  11  23  40  63  90 122 162 206 248 302 366
#     4   9  20  36  58  87 117 156 199 243 292 355
#     4  12  24  40  63  93 125 159 202 251 302 358
#     4  10  18  35  60  83 113 153 197 239 286 352
#     4  11  23  40  65  94 124 160 203 253 304 357
#
# _framework density 19.291461000000002
#
# number of rings (size 3 to 8) (size 9 to 14) (size 15 to 20)
#    0.000    1.500    3.333    2.500    0.000    2.000 
#    0.000    7.500    0.000    1.000    0.000    0.000 
#    0.000    0.000    0.000    0.000    0.000    0.000 
#
# Total GULP energy -595155.223547 kJ/mol
# GULP energy per Si atom -12399.067157 kJ/mol
# Density = 1.924755 g / cm^3
# Si number density = 19.291461 Si / 1000 Ang^3
#
#
#
# Elastic Constant Matrix: (Units=GPa)
#
#
# Indices 1 2 3 4 5 6 
#
# 1 209.4315 41.3951 106.6932 0.0000 0.0000 0.0000
# 2 41.3951 53.2943 39.3547 0.0000 0.0000 0.0000
# 3 106.6932 39.3547 177.0509 0.0000 0.0000 0.0000
# 4 0.0000 0.0000 0.0000 27.4695 0.0000 0.0000
# 5 0.0000 0.0000 0.0000 0.0000 37.4461 0.0000
# 6 0.0000 0.0000 0.0000 0.0000 0.0000 27.4857
#
#
#
# Elastic Compliance Matrix: (Units=1/GPa)
#
#
# Indices 1 2 3 4 5 6 
#
# 1 0.007240 -0.002873 -0.003724 0.000000 0.000000 0.000000
# 2 -0.002873 0.023589 -0.003512 0.000000 0.000000 0.000000
# 3 -0.003724 -0.003512 0.008673 0.000000 0.000000 0.000000
# 4 0.000000 0.000000 0.000000 0.036404 0.000000 0.000000
# 5 0.000000 0.000000 0.000000 0.000000 0.026705 0.000000
# 6 0.000000 0.000000 0.000000 0.000000 0.000000 0.036383
#
#
# Mechanical properties :
#
#
# Convention : Reuss Voigt Hill
#
# Bulk Modulus (GPa) = 51.85907 90.51807 71.18857
# Shear Modulus (GPa) = 30.18594 35.30250 32.74422
#
# Velocity S-wave (km/s) = 3.95996 4.28244 4.12435
# Velocity P-wave (km/s) = 6.91727 8.45432 7.72412
#
# Compressibility (1/GPa) = 0.01928303
#
# Stress axis : x y z
#
# Youngs Moduli (GPa) = 138.12021 42.39298 115.30073
#
# Poissons Ratio (x) = 0.12181 0.42941
# Poissons Ratio (y) = 0.39688 0.40491
# Poissons Ratio (z) = 0.51440 0.14887
#
# Static dielectric constant tensor:
#      x y z
#    x 3.936790 0.000000 0.000000 
#    y 0.000000 3.444290 0.000000 
#    z 0.000000 0.000000 3.677000 
# 
# 
# High freq. dielectric constant tensor:
#      x y z
#    x 1.774090 0.000000 0.000000 
#    y 0.000000 1.737880 0.000000 
#    z 0.000000 0.000000 1.751870 
# 
# From -- ./inp_files/27489.got.cif
#   From: 2010.03.12/outbox.cif.g09.slc.cpg/sg59_14_cif.got.tgz:27489.got - 2010.04.16 16:29:54.
