data_PCOD8240723
_publ_section_title
;
Structure prediction by ZEFSAII (Michael W. Deem and Ramdas Pophale) SiO2 
 PCOD8240723
Probable space group: P M M N
;
_chemical_formula_sum "Si O2"
_cell_formula_units_Z 64
_cell_length_a 8.868496
_cell_length_b 28.280713
_cell_length_c 14.530633
_cell_angle_alpha 90.000000
_cell_angle_beta 90.000000
_cell_angle_gamma 90.000000
_cell_volume 3644.390139
_symmetry_space_group_name_H-M "P M M N"
_symmetry_group_IT_number 59
_space_group.IT_coordinate_system_code '2'
_symmetry_cell_setting 'orthorhombic'
loop_
_space_group_symop_operation_xyz
x,y,z
1/2-x,1/2-y,z
1/2+x,-y,-z
-x,1/2+y,-z
-x,-y,-z
1/2+x,1/2+y,-z
1/2-x,y,z
x,1/2-y,z
loop_
_atom_site_type_symbol
_atom_site_label
_atom_site_fract_x
_atom_site_fract_y
_atom_site_fract_z
Si Si1 0.927328 0.570290 0.848230
Si Si2 0.074401 0.473517 0.639692
Si Si3 0.925405 0.303489 0.654668
Si Si4 0.928771 0.885628 0.031180
Si Si5 0.924581 0.527103 0.147907
Si Si6 0.071098 0.427284 0.358085
Si Si7 0.427499 0.889263 0.472136
Si Si8 0.428861 0.302811 0.844559
O O1 0.750000 0.564067 0.845980
O O2 0.984030 0.584324 0.746204
O O3 0.992237 0.520515 0.881592
O O4 0.976427 0.609806 0.923618
O O5 0.250000 0.482065 0.617653
O O6 0.047031 0.460809 0.745740
O O7 0.982335 0.520441 0.612456
O O8 0.013561 0.430107 0.581724
O O9 0.750000 0.306521 0.677993
O O10 0.971928 0.250000 0.626301
O O11 0.968245 0.338422 0.571427
O O12 0.012774 0.320190 0.745712
O O13 0.750000 0.885669 0.041035
O O14 0.993237 0.929993 0.088580
O O15 0.992509 0.837131 0.075130
O O16 0.750000 0.519333 0.126624
O O17 0.250000 0.423558 0.368773
O O18 0.989613 0.389041 0.423423
O O19 0.250000 0.899035 0.470070
O O20 0.250000 0.304211 0.840948
O O21 0.488291 0.250000 0.866191
#
# Coordination Sequence:
#
# PCOD8240723 Si02
#       8
#     8   8   8   8   8   8   8   8
#     4   9  18  31  46  63  89 124 156 188 223 262
#     4  10  19  31  47  69  98 127 154 188 230 275
#     4   9  19  35  52  71  96 122 148 184 232 282
#     4   9  16  28  46  68  93 120 151 185 223 265
#     4   9  17  28  44  66  93 122 150 184 223 264
#     4  10  20  33  47  65  92 126 162 197 232 269
#     4  11  21  32  49  70  91 120 157 193 232 279
#     4   9  17  30  50  74  97 121 149 181 221 273
#
# _framework density 17.561236999999998
#
# number of rings (size 3 to 8) (size 9 to 14) (size 15 to 20)
#    0.000    2.500    0.000    2.625    0.000    3.000 
#    0.000    1.250    0.000    0.750    0.000    1.750 
#    0.000    0.000    0.000    0.000    0.000    0.000 
#
# Total GULP energy -793493.928336 kJ/mol
# GULP energy per Si atom -12398.342630 kJ/mol
# Density = 1.752127 g / cm^3
# Si number density = 17.561237 Si / 1000 Ang^3
#
#
#
# Elastic Constant Matrix: (Units=GPa)
#
#
# Indices 1 2 3 4 5 6 
#
# 1 27.6625 18.3739 22.2942 0.0000 0.0000 0.0000
# 2 18.3739 98.6601 74.6636 0.0000 0.0000 0.0000
# 3 22.2942 74.6636 112.5968 0.0000 0.0000 0.0000
# 4 0.0000 0.0000 0.0000 31.9827 0.0000 0.0000
# 5 0.0000 0.0000 0.0000 0.0000 20.2057 0.0000
# 6 0.0000 0.0000 0.0000 0.0000 0.0000 19.0048
#
#
#
# Elastic Compliance Matrix: (Units=1/GPa)
#
#
# Indices 1 2 3 4 5 6 
#
# 1 0.043505 -0.003178 -0.006507 0.000000 0.000000 0.000000
# 2 -0.003178 0.020578 -0.013016 0.000000 0.000000 0.000000
# 3 -0.006507 -0.013016 0.018801 0.000000 0.000000 0.000000
# 4 0.000000 0.000000 0.000000 0.031267 0.000000 0.000000
# 5 0.000000 0.000000 0.000000 0.000000 0.049491 0.000000
# 6 0.000000 0.000000 0.000000 0.000000 0.000000 0.052618
#
#
# Mechanical properties :
#
#
# Convention : Reuss Voigt Hill
#
# Bulk Modulus (GPa) = 26.67955 52.17587 39.42771
# Shear Modulus (GPa) = 18.23784 22.47780 20.35782
#
# Velocity S-wave (km/s) = 3.22612 3.58154 3.40847
# Velocity P-wave (km/s) = 5.39466 6.84679 6.16364
#
# Compressibility (1/GPa) = 0.03748189
#
# Stress axis : x y z
#
# Youngs Moduli (GPa) = 22.98594 48.59562 53.18970
#
# Poissons Ratio (x) = 0.15444 0.34608
# Poissons Ratio (y) = 0.07305 0.69232
# Poissons Ratio (z) = 0.14956 0.63253
#
# Static dielectric constant tensor:
#      x y z
#    x 3.153440 0.000000 0.000000 
#    y 0.000000 3.382450 0.000000 
#    z 0.000000 0.000000 3.577490 
# 
# 
# High freq. dielectric constant tensor:
#      x y z
#    x 1.668780 0.000000 0.000000 
#    y 0.000000 1.658810 0.000000 
#    z 0.000000 0.000000 1.684100 
# 
# From -- ./inp_files/21816.got.cif
#   From: 2010.03.12/outbox.cif.g09.slc.cpg/sg59_11_cif.got.tgz:21816.got - 2010.04.16 16:29:54.
