data_PCOD8240313
_publ_section_title
;
Structure prediction by ZEFSAII (Michael W. Deem and Ramdas Pophale) SiO2 
 PCOD8240313
Probable space group: P M M N
;
_chemical_formula_sum "Si O2"
_cell_formula_units_Z 64
_cell_length_a 9.365079
_cell_length_b 17.760354
_cell_length_c 22.410248
_cell_angle_alpha 90.000000
_cell_angle_beta 90.000000
_cell_angle_gamma 90.000000
_cell_volume 3727.431970
_symmetry_space_group_name_H-M "P M M N"
_symmetry_group_IT_number 59
_space_group.IT_coordinate_system_code '2'
_symmetry_cell_setting 'orthorhombic'
loop_
_space_group_symop_operation_xyz
x,y,z
1/2-x,1/2-y,z
1/2+x,-y,-z
-x,1/2+y,-z
-x,-y,-z
1/2+x,1/2+y,-z
1/2-x,y,z
x,1/2-y,z
loop_
_atom_site_type_symbol
_atom_site_label
_atom_site_fract_x
_atom_site_fract_y
_atom_site_fract_z
Si Si1 0.915551 0.836263 0.543990
Si Si2 0.085419 0.564270 0.466780
Si Si3 0.583290 0.877465 0.078003
Si Si4 0.082969 0.538529 0.878430
Si Si5 0.914271 0.334422 0.036860
Si Si6 0.580004 0.989861 0.249250
Si Si7 0.087897 0.462656 0.361302
Si Si8 0.580634 0.831729 0.207647
O O1 0.750000 0.848749 0.527674
O O2 0.946953 0.750000 0.561867
O O3 0.959712 0.890858 0.598647
O O4 0.008881 0.857198 0.484906
O O5 0.250000 0.566186 0.487547
O O6 0.074811 0.542236 0.396978
O O7 0.000000 0.500000 0.500000
O O8 0.750000 0.861915 0.067607
O O9 0.528676 0.840159 0.139466
O O10 0.549405 0.966209 0.080898
O O11 0.497832 0.840438 0.024615
O O12 0.250000 0.548677 0.870184
O O13 0.018263 0.610901 0.912543
O O14 0.021762 0.529165 0.811400
O O15 0.750000 0.356333 0.024430
O O16 0.928079 0.250000 0.061705
O O17 0.750000 0.994540 0.254700
O O18 0.527482 0.901970 0.247988
O O19 0.513035 0.034126 0.304298
O O20 0.250000 0.450749 0.339946
O O21 0.750000 0.835519 0.206675
O O22 0.527421 0.750000 0.232475
#
# Coordination Sequence:
#
# PCOD8240313 Si02
#       8
#     8   8   8   8   8   8   8   8
#     4   9  18  33  52  74 100 128 158 195 238 278
#     4   9  17  30  49  72  98 127 156 187 228 278
#     4   9  16  28  48  67  83 108 144 187 230 275
#     4   8  16  31  46  62  86 117 152 187 227 271
#     4  10  19  29  42  62  90 119 143 176 228 284
#     4   9  17  30  49  67  85 118 162 196 218 259
#     4   9  18  32  49  70  97 126 153 186 231 275
#     4   8  14  26  44  65  87 111 143 187 235 273
#
# _framework density 17.169998
#
# number of rings (size 3 to 8) (size 9 to 14) (size 15 to 20)
#    0.000    3.125    0.000    3.375    0.000    3.500 
#    0.000    4.375    0.000    4.125    0.000    0.000 
#    0.000    0.000    0.000    0.000    0.000    0.000 
#
# Total GULP energy -793034.494204 kJ/mol
# GULP energy per Si atom -12391.163972 kJ/mol
# Density = 1.713092 g / cm^3
# Si number density = 17.169998 Si / 1000 Ang^3
#
#
#
# Elastic Constant Matrix: (Units=GPa)
#
#
# Indices 1 2 3 4 5 6 
#
# 1 47.7095 25.7854 28.7872 0.0000 0.0000 0.0000
# 2 25.7854 99.4357 37.5333 0.0000 0.0000 0.0000
# 3 28.7872 37.5333 68.5506 0.0000 0.0000 0.0000
# 4 0.0000 0.0000 0.0000 20.6000 0.0000 0.0000
# 5 0.0000 0.0000 0.0000 0.0000 27.5625 0.0000
# 6 0.0000 0.0000 0.0000 0.0000 0.0000 19.6745
#
#
#
# Elastic Compliance Matrix: (Units=1/GPa)
#
#
# Indices 1 2 3 4 5 6 
#
# 1 0.029115 -0.003699 -0.010201 0.000000 0.000000 0.000000
# 2 -0.003699 0.013147 -0.005645 0.000000 0.000000 0.000000
# 3 -0.010201 -0.005645 0.021962 0.000000 0.000000 0.000000
# 4 0.000000 0.000000 0.000000 0.048544 0.000000 0.000000
# 5 0.000000 0.000000 0.000000 0.000000 0.036281 0.000000
# 6 0.000000 0.000000 0.000000 0.000000 0.000000 0.050827
#
#
# Mechanical properties :
#
#
# Convention : Reuss Voigt Hill
#
# Bulk Modulus (GPa) = 39.78745 44.43418 42.11082
# Shear Modulus (GPa) = 20.21481 21.80674 21.01077
#
# Velocity S-wave (km/s) = 3.43495 3.56764 3.50192
# Velocity P-wave (km/s) = 6.24138 6.55026 6.39768
#
# Compressibility (1/GPa) = 0.02513355
#
# Stress axis : x y z
#
# Youngs Moduli (GPa) = 34.34689 76.06459 45.53294
#
# Poissons Ratio (x) = 0.28140 0.46448
# Poissons Ratio (y) = 0.12707 0.25702
# Poissons Ratio (z) = 0.35037 0.42936
#
# Static dielectric constant tensor:
#      x y z
#    x 2.996800 0.000000 0.000000 
#    y 0.000000 3.628350 0.000000 
#    z 0.000000 0.000000 3.199100 
# 
# 
# High freq. dielectric constant tensor:
#      x y z
#    x 1.636080 0.000000 0.000000 
#    y 0.000000 1.664260 0.000000 
#    z 0.000000 0.000000 1.644670 
# 
# From -- ./inp_files/31718.got.cif
#   From: 2010.03.12/outbox.cif.g09.slc.cpg/sg59_16_cif.got.tgz:31718.got - 2010.04.16 16:29:54.
