data_PCOD8240295
_publ_section_title
;
Structure prediction by ZEFSAII (Michael W. Deem and Ramdas Pophale) SiO2 
 PCOD8240295
Probable space group: P M M N
;
_chemical_formula_sum "Si O2"
_cell_formula_units_Z 64
_cell_length_a 25.869909
_cell_length_b 8.961764
_cell_length_c 16.692217
_cell_angle_alpha 90.000000
_cell_angle_beta 90.000000
_cell_angle_gamma 90.000000
_cell_volume 3869.923909
_symmetry_space_group_name_H-M "P M M N"
_symmetry_group_IT_number 59
_space_group.IT_coordinate_system_code '2'
_symmetry_cell_setting 'orthorhombic'
loop_
_space_group_symop_operation_xyz
x,y,z
1/2-x,1/2-y,z
1/2+x,-y,-z
-x,1/2+y,-z
-x,-y,-z
1/2+x,1/2+y,-z
1/2-x,y,z
x,1/2-y,z
loop_
_atom_site_type_symbol
_atom_site_label
_atom_site_fract_x
_atom_site_fract_y
_atom_site_fract_z
Si Si1 0.945812 0.917548 0.089671
Si Si2 0.611148 0.586066 0.378474
Si Si3 0.039179 0.926042 0.749077
Si Si4 0.309315 0.574180 0.520864
Si Si5 0.125146 0.575012 0.368658
Si Si6 0.432575 0.917544 0.065093
Si Si7 0.547163 0.913508 0.533712
Si Si8 0.079999 0.425591 0.226781
O O1 0.923848 0.750000 0.098750
O O2 0.006064 0.912562 0.071052
O O3 0.935269 0.008061 0.170785
O O4 0.916219 0.999538 0.016889
O O5 0.622728 0.750000 0.339837
O O6 0.571042 0.493052 0.325116
O O7 0.663856 0.497713 0.400298
O O8 0.587464 0.614365 0.464550
O O9 0.046943 0.750000 0.749971
O O10 0.978310 0.968627 0.743534
O O11 0.250000 0.524895 0.522316
O O12 0.317180 0.750000 0.529096
O O13 0.331651 0.524055 0.433398
O O14 0.127011 0.750000 0.353074
O O15 0.069300 0.523928 0.399977
O O16 0.126177 0.490953 0.283087
O O17 0.409949 0.750000 0.064299
O O18 0.409064 0.007090 0.139542
O O19 0.532316 0.750000 0.571127
O O20 0.500000 0.000000 0.500000
O O21 0.086410 0.250000 0.221745
#
# Coordination Sequence:
#
# PCOD8240295 Si02
#       8
#     8   8   8   8   8   8   8   8
#     4   9  16  26  40  58  83 116 153 189 221 253
#     4  10  20  31  44  64  87 111 142 180 220 261
#     4  10  19  29  42  61  88 122 155 185 217 255
#     4   9  19  36  54  68  84 109 141 179 224 272
#     4  10  19  30  45  64  85 110 142 179 219 262
#     4   9  16  26  40  58  83 117 155 188 218 254
#     4  10  19  29  41  58  83 114 145 175 209 252
#     4  10  19  29  42  62  90 122 154 186 219 255
#
# _framework density 16.537792
#
# number of rings (size 3 to 8) (size 9 to 14) (size 15 to 20)
#    0.000    2.375    0.000    3.375    0.000    8.750 
#    0.000    0.000    0.000    0.000    0.000    0.000 
#    0.000    1.000    0.000    6.000    0.000    4.625 
#
# Total GULP energy -793046.036984 kJ/mol
# GULP energy per Si atom -12391.344328 kJ/mol
# Density = 1.650015 g / cm^3
# Si number density = 16.537792 Si / 1000 Ang^3
#
#
#
# Elastic Constant Matrix: (Units=GPa)
#
#
# Indices 1 2 3 4 5 6 
#
# 1 37.8245 19.2798 5.8677 0.0000 0.0000 0.0000
# 2 19.2798 100.6251 37.6310 0.0000 0.0000 0.0000
# 3 5.8677 37.6310 78.1308 0.0000 0.0000 0.0000
# 4 0.0000 0.0000 0.0000 33.2032 0.0000 0.0000
# 5 0.0000 0.0000 0.0000 0.0000 13.0119 0.0000
# 6 0.0000 0.0000 0.0000 0.0000 0.0000 14.9617
#
#
#
# Elastic Compliance Matrix: (Units=1/GPa)
#
#
# Indices 1 2 3 4 5 6 
#
# 1 0.029323 -0.005848 0.000615 0.000000 0.000000 0.000000
# 2 -0.005848 0.013287 -0.005961 0.000000 0.000000 0.000000
# 3 0.000615 -0.005961 0.015624 0.000000 0.000000 0.000000
# 4 0.000000 0.000000 0.000000 0.030118 0.000000 0.000000
# 5 0.000000 0.000000 0.000000 0.000000 0.076853 0.000000
# 6 0.000000 0.000000 0.000000 0.000000 0.000000 0.066837
#
#
# Mechanical properties :
#
#
# Convention : Reuss Voigt Hill
#
# Bulk Modulus (GPa) = 27.89698 38.01527 32.95613
# Shear Modulus (GPa) = 18.77021 22.48882 20.62952
#
# Velocity S-wave (km/s) = 3.37261 3.69161 3.53571
# Velocity P-wave (km/s) = 5.66315 6.41930 6.05305
#
# Compressibility (1/GPa) = 0.03584617
#
# Stress axis : x y z
#
# Youngs Moduli (GPa) = 34.10238 75.25875 64.00510
#
# Poissons Ratio (x) = 0.44013 -0.03933
# Poissons Ratio (y) = 0.19944 0.38151
# Poissons Ratio (z) = -0.02096 0.44859
#
# Static dielectric constant tensor:
#      x y z
#    x 2.392800 0.000000 0.000000 
#    y 0.000000 3.392810 0.000000 
#    z 0.000000 0.000000 2.902690 
# 
# 
# High freq. dielectric constant tensor:
#      x y z
#    x 1.567980 0.000000 0.000000 
#    y 0.000000 1.657420 0.000000 
#    z 0.000000 0.000000 1.640360 
# 
# From -- ./inp_files/25093.got.cif
#   From: 2010.03.12/outbox.cif.g09.slc.cpg/sg59_13_cif.got.tgz:25093.got - 2010.04.16 16:29:54.
