data_PCOD8240915
_publ_section_title
;
Structure prediction by ZEFSAII (Michael W. Deem and Ramdas Pophale) SiO2 
 PCOD8240915
Probable space group: P M M N
;
_chemical_formula_sum "Si O2"
_cell_formula_units_Z 64
_cell_length_a 19.647335
_cell_length_b 8.639334
_cell_length_c 21.942508
_cell_angle_alpha 90.000000
_cell_angle_beta 90.000000
_cell_angle_gamma 90.000000
_cell_volume 3724.518878
_symmetry_space_group_name_H-M "P M M N"
_symmetry_group_IT_number 59
_space_group.IT_coordinate_system_code '2'
_symmetry_cell_setting 'orthorhombic'
loop_
_space_group_symop_operation_xyz
x,y,z
1/2-x,1/2-y,z
1/2+x,-y,-z
-x,1/2+y,-z
-x,-y,-z
1/2+x,1/2+y,-z
1/2-x,y,z
x,1/2-y,z
loop_
_atom_site_type_symbol
_atom_site_label
_atom_site_fract_x
_atom_site_fract_y
_atom_site_fract_z
Si Si1 0.827379 0.572730 0.116184
Si Si2 0.905763 0.930865 0.478349
Si Si3 0.826598 0.431296 0.378936
Si Si4 0.525761 0.926459 0.594374
Si Si5 0.466268 0.066646 0.060277
Si Si6 0.049989 0.930673 0.824034
Si Si7 0.550107 0.929595 0.304546
Si Si8 0.176576 0.066480 0.021310
O O1 0.750000 0.558638 0.138489
O O2 0.852611 0.750000 0.120703
O O3 0.871757 0.465722 0.160276
O O4 0.835411 0.507979 0.047603
O O5 0.921724 0.750000 0.464996
O O6 0.906927 0.959323 0.552167
O O7 0.836334 0.981204 0.444444
O O8 0.961668 0.043232 0.449016
O O9 0.750000 0.469575 0.356035
O O10 0.836009 0.250000 0.389285
O O11 0.881749 0.486215 0.328920
O O12 0.525352 0.750000 0.617039
O O13 0.516665 0.033691 0.653893
O O14 0.472475 0.250000 0.056501
O O15 0.502651 0.004357 0.121118
O O16 0.386782 0.012680 0.062961
O O17 0.500000 0.000000 0.000000
O O18 0.039008 0.750000 0.813954
O O19 0.029769 0.017582 0.762685
O O20 0.566055 0.750000 0.305410
O O21 0.250000 0.002553 0.045818
O O22 0.180734 0.250000 0.018671
#
# Coordination Sequence:
#
# PCOD8240915 Si02
#       8
#     8   8   8   8   8   8   8   8
#     4   9  17  30  48  67  89 121 159 196 232 281
#     4   9  16  26  45  71  95 122 153 188 231 275
#     4  10  20  33  49  70  99 133 165 200 238 275
#     4   9  16  28  46  68  94 119 148 192 237 274
#     4  10  19  31  50  73  96 123 155 197 250 298
#     4  11  22  33  46  68  97 128 160 202 252 300
#     4  11  22  34  49  66  89 127 168 204 238 284
#     4   8  14  27  48  71  93 117 148 187 232 285
#
# _framework density 17.183427999999999
#
# number of rings (size 3 to 8) (size 9 to 14) (size 15 to 20)
#    0.000    2.375    1.250    4.875    0.000    3.750 
#    0.000    0.000    0.000    0.375    0.000    0.875 
#    0.000    5.000    0.000    0.000    0.000    0.000 
#
# Total GULP energy -792998.826395 kJ/mol
# GULP energy per Si atom -12390.606662 kJ/mol
# Density = 1.714432 g / cm^3
# Si number density = 17.183428 Si / 1000 Ang^3
#
#
#
# Elastic Constant Matrix: (Units=GPa)
#
#
# Indices 1 2 3 4 5 6 
#
# 1 68.8920 19.7419 51.8836 0.0000 0.0000 0.0000
# 2 19.7419 53.0455 30.0884 0.0000 0.0000 0.0000
# 3 51.8836 30.0884 120.1823 0.0000 0.0000 0.0000
# 4 0.0000 0.0000 0.0000 24.7702 0.0000 0.0000
# 5 0.0000 0.0000 0.0000 0.0000 20.7538 0.0000
# 6 0.0000 0.0000 0.0000 0.0000 0.0000 18.9644
#
#
#
# Elastic Compliance Matrix: (Units=1/GPa)
#
#
# Indices 1 2 3 4 5 6 
#
# 1 0.021982 -0.003261 -0.008673 0.000000 0.000000 0.000000
# 2 -0.003261 0.022456 -0.004214 0.000000 0.000000 0.000000
# 3 -0.008673 -0.004214 0.013120 0.000000 0.000000 0.000000
# 4 0.000000 0.000000 0.000000 0.040371 0.000000 0.000000
# 5 0.000000 0.000000 0.000000 0.000000 0.048184 0.000000
# 6 0.000000 0.000000 0.000000 0.000000 0.000000 0.052730
#
#
# Mechanical properties :
#
#
# Convention : Reuss Voigt Hill
#
# Bulk Modulus (GPa) = 39.58746 49.50527 44.54637
# Shear Modulus (GPa) = 20.87151 22.25806 21.56479
#
# Velocity S-wave (km/s) = 3.48894 3.60296 3.54641
# Velocity P-wave (km/s) = 6.27044 6.79565 6.53832
#
# Compressibility (1/GPa) = 0.02526052
#
# Stress axis : x y z
#
# Youngs Moduli (GPa) = 45.49160 44.53198 76.21934
#
# Poissons Ratio (x) = 0.14524 0.66107
# Poissons Ratio (y) = 0.14837 0.32119
# Poissons Ratio (z) = 0.39456 0.18766
#
# Static dielectric constant tensor:
#      x y z
#    x 3.619730 0.000000 0.000000 
#    y 0.000000 3.115150 0.000000 
#    z 0.000000 0.000000 3.325290 
# 
# 
# High freq. dielectric constant tensor:
#      x y z
#    x 1.638440 0.000000 0.000000 
#    y 0.000000 1.660840 0.000000 
#    z 0.000000 0.000000 1.646720 
# 
# From -- ./inp_files/30979.got.cif
#   From: 2010.03.12/outbox.cif.g09.slc.cpg/sg59_16_cif.got.tgz:30979.got - 2010.04.16 16:29:54.
