data_PCOD8240813
_publ_section_title
;
Structure prediction by ZEFSAII (Michael W. Deem and Ramdas Pophale) SiO2 
 PCOD8240813
Probable space group: P M M N
;
_chemical_formula_sum "Si O2"
_cell_formula_units_Z 56
_cell_length_a 9.202198
_cell_length_b 17.887513
_cell_length_c 18.345025
_cell_angle_alpha 90.000000
_cell_angle_beta 90.000000
_cell_angle_gamma 90.000000
_cell_volume 3019.672500
_symmetry_space_group_name_H-M "P M M N"
_symmetry_group_IT_number 59
_space_group.IT_coordinate_system_code '2'
_symmetry_cell_setting 'orthorhombic'
loop_
_space_group_symop_operation_xyz
x,y,z
1/2-x,1/2-y,z
1/2+x,-y,-z
-x,1/2+y,-z
-x,-y,-z
1/2+x,1/2+y,-z
1/2-x,y,z
x,1/2-y,z
loop_
_atom_site_type_symbol
_atom_site_label
_atom_site_fract_x
_atom_site_fract_y
_atom_site_fract_z
Si Si1 0.589695 0.579644 0.769415
Si Si2 0.419470 0.928763 0.631699
Si Si3 0.583145 0.916096 0.081007
Si Si4 0.078450 0.101255 0.639692
Si Si5 0.916445 0.164100 0.505184
Si Si6 0.082440 0.067543 0.075369
Si Si7 0.585549 0.401802 0.782423
O O1 0.750000 0.602446 0.743234
O O2 0.483007 0.607029 0.705932
O O3 0.554639 0.615050 0.849640
O O4 0.577805 0.490918 0.781159
O O5 0.250000 0.917056 0.637755
O O6 0.479530 0.885161 0.561366
O O7 0.463920 0.015232 0.623999
O O8 0.750000 0.912413 0.106769
O O9 0.487129 0.873108 0.141788
O O10 0.535379 0.001928 0.073884
O O11 0.563855 0.882376 0.998497
O O12 0.250000 0.112402 0.645995
O O13 0.016715 0.151056 0.574800
O O14 0.004694 0.130177 0.714107
O O15 0.750000 0.141382 0.523444
O O16 0.926327 0.250000 0.481574
O O17 0.250000 0.036291 0.078103
O O18 0.750000 0.371699 0.777990
#
# Coordination Sequence:
#
# PCOD8240813 Si02
#       7
#     8   8   8   8   8   8   8
#     4   8  14  24  38  57  82 114 149 183 220 262
#     4   9  18  31  47  68  91 117 151 188 225 266
#     4   9  14  20  32  51  78 112 149 185 220 260
#     4  10  19  31  49  71  92 115 149 191 228 264
#     4  10  21  36  51  67  91 121 149 180 224 276
#     4   8  14  22  31  48  78 115 149 180 220 267
#     4   9  16  26  39  57  84 116 149 182 220 268
#
# _framework density 18.545058000000001
#
# number of rings (size 3 to 8) (size 9 to 14) (size 15 to 20)
#    0.000    3.000    0.000    2.571    0.000    5.429 
#    0.000    0.000    0.000    0.000    0.000    0.000 
#    0.000    1.143    0.000    9.143    0.000    7.286 
#
# Total GULP energy -693902.711649 kJ/mol
# GULP energy per Si atom -12391.119851 kJ/mol
# Density = 1.850285 g / cm^3
# Si number density = 18.545058 Si / 1000 Ang^3
#
#
#
# Elastic Constant Matrix: (Units=GPa)
#
#
# Indices 1 2 3 4 5 6 
#
# 1 80.2186 11.8593 51.2838 0.0000 0.0000 0.0000
# 2 11.8593 18.4399 14.4322 0.0000 0.0000 0.0000
# 3 51.2838 14.4322 154.8673 0.0000 0.0000 0.0000
# 4 0.0000 0.0000 0.0000 1.8580 0.0000 0.0000
# 5 0.0000 0.0000 0.0000 0.0000 38.8716 0.0000
# 6 0.0000 0.0000 0.0000 0.0000 0.0000 10.2906
#
#
#
# Elastic Compliance Matrix: (Units=1/GPa)
#
#
# Indices 1 2 3 4 5 6 
#
# 1 0.016583 -0.006868 -0.004851 0.000000 0.000000 0.000000
# 2 -0.006868 0.061341 -0.003442 0.000000 0.000000 0.000000
# 3 -0.004851 -0.003442 0.008384 0.000000 0.000000 0.000000
# 4 0.000000 0.000000 0.000000 0.538212 0.000000 0.000000
# 5 0.000000 0.000000 0.000000 0.000000 0.025726 0.000000
# 6 0.000000 0.000000 0.000000 0.000000 0.000000 0.097176
#
#
# Mechanical properties :
#
#
# Convention : Reuss Voigt Hill
#
# Bulk Modulus (GPa) = 17.86174 45.40848 31.63511
# Shear Modulus (GPa) = 6.27819 21.93407 14.10613
#
# Velocity S-wave (km/s) = 1.84193 3.44284 2.76096
# Velocity P-wave (km/s) = 3.76511 6.35160 5.22106
#
# Compressibility (1/GPa) = 0.05598559
#
# Stress axis : x y z
#
# Youngs Moduli (GPa) = 60.30377 16.30226 119.26907
#
# Poissons Ratio (x) = 0.11196 0.57861
# Poissons Ratio (y) = 0.41416 0.41054
# Poissons Ratio (z) = 0.29255 0.05611
#
# Static dielectric constant tensor:
#      x y z
#    x 3.441430 0.000000 0.000000 
#    y 0.000000 2.685470 0.000000 
#    z 0.000000 0.000000 4.036650 
# 
# 
# High freq. dielectric constant tensor:
#      x y z
#    x 1.724090 0.000000 0.000000 
#    y 0.000000 1.630250 0.000000 
#    z 0.000000 0.000000 1.749830 
# 
# From -- ./inp_files/26048.got.cif
#   From: 2010.03.12/outbox.cif.g09.slc.cpg/sg59_14_cif.got.tgz:26048.got - 2010.04.16 16:29:54.
