data_PCOD8240039
_publ_section_title
;
Structure prediction by ZEFSAII (Michael W. Deem and Ramdas Pophale) SiO2 
 PCOD8240039
Probable space group: P M M N
;
_chemical_formula_sum "Si O2"
_cell_formula_units_Z 64
_cell_length_a 8.981970
_cell_length_b 14.677976
_cell_length_c 25.920512
_cell_angle_alpha 90.000000
_cell_angle_beta 90.000000
_cell_angle_gamma 90.000000
_cell_volume 3417.286172
_symmetry_space_group_name_H-M "P M M N"
_symmetry_group_IT_number 59
_space_group.IT_coordinate_system_code '2'
_symmetry_cell_setting 'orthorhombic'
loop_
_space_group_symop_operation_xyz
x,y,z
1/2-x,1/2-y,z
1/2+x,-y,-z
-x,1/2+y,-z
-x,-y,-z
1/2+x,1/2+y,-z
1/2-x,y,z
x,1/2-y,z
loop_
_atom_site_type_symbol
_atom_site_label
_atom_site_fract_x
_atom_site_fract_y
_atom_site_fract_z
Si Si1 0.572627 0.499389 0.444433
Si Si2 0.925327 0.004954 0.179582
Si Si3 0.922883 0.143831 0.626306
Si Si4 0.583771 0.852596 0.885858
Si Si5 0.423677 0.356335 0.372637
Si Si6 0.425837 0.403945 0.002207
Si Si7 0.073893 0.152110 0.892162
Si Si8 0.080709 0.999259 0.286918
O O1 0.500000 0.500000 0.500000
O O2 0.750000 0.498669 0.448149
O O3 0.521054 0.592116 0.416213
O O4 0.519097 0.406839 0.416409
O O5 0.750000 0.000116 0.179277
O O6 0.997091 0.924463 0.144657
O O7 0.975190 0.996249 0.238093
O O8 0.975586 0.098516 0.153956
O O9 0.750000 0.135670 0.610277
O O10 0.971329 0.250000 0.630768
O O11 0.949719 0.092550 0.680464
O O12 0.750000 0.895073 0.882881
O O13 0.586649 0.750000 0.866630
O O14 0.523943 0.855324 0.944839
O O15 0.250000 0.365121 0.387304
O O16 0.471133 0.250000 0.367904
O O17 0.455252 0.408961 0.319121
O O18 0.250000 0.413727 0.000593
O O19 0.500000 0.500000 0.000000
O O20 0.483236 0.351474 0.951339
O O21 0.250000 0.139946 0.892163
O O22 0.026592 0.250000 0.869404
O O23 0.250000 0.001997 0.267625
#
# Coordination Sequence:
#
# PCOD8240039 Si02
#       8
#     8   8   8   8   8   8   8   8
#     4  11  22  36  56  85 122 158 191 230 274 323
#     4  11  22  35  53  79 108 139 174 220 272 317
#     4   9  19  38  62  85 111 147 190 233 279 328
#     4  10  21  36  55  77 101 135 177 217 262 321
#     4   9  19  38  62  84 108 144 190 236 282 330
#     4  10  18  32  55  77 100 132 169 211 261 318
#     4   9  18  33  52  74 102 136 171 207 256 320
#     4   9  19  36  57  81 110 144 180 223 274 329
#
# _framework density 18.728311999999999
#
# number of rings (size 3 to 8) (size 9 to 14) (size 15 to 20)
#    0.000    2.250    1.250    2.625    0.000    5.750 
#    0.000    1.250    0.000    3.750    0.000    0.000 
#    0.000    0.000    0.000    0.000    0.000    0.000 
#
# Total GULP energy -793359.638414 kJ/mol
# GULP energy per Si atom -12396.244350 kJ/mol
# Density = 1.868569 g / cm^3
# Si number density = 18.728312 Si / 1000 Ang^3
#
#
#
# Elastic Constant Matrix: (Units=GPa)
#
#
# Indices 1 2 3 4 5 6 
#
# 1 69.6439 40.5206 56.3754 0.0000 0.0000 0.0000
# 2 40.5206 146.7425 59.3663 0.0000 0.0000 0.0000
# 3 56.3754 59.3663 130.1459 0.0000 0.0000 0.0000
# 4 0.0000 0.0000 0.0000 -8.4873 0.0000 0.0000
# 5 0.0000 0.0000 0.0000 0.0000 27.5357 0.0000
# 6 0.0000 0.0000 0.0000 0.0000 0.0000 26.2241
#
#
#
# Elastic Compliance Matrix: (Units=1/GPa)
#
#
# Indices 1 2 3 4 5 6 
#
# 1 0.023046 -0.002851 -0.008682 0.000000 0.000000 0.000000
# 2 -0.002851 0.008710 -0.002738 0.000000 0.000000 0.000000
# 3 -0.008682 -0.002738 0.012693 0.000000 0.000000 0.000000
# 4 0.000000 0.000000 0.000000 -0.117823 0.000000 0.000000
# 5 0.000000 0.000000 0.000000 0.000000 0.036316 0.000000
# 6 0.000000 0.000000 0.000000 0.000000 0.000000 0.038133
#
#
# Mechanical properties :
#
#
# Convention : Reuss Voigt Hill
#
# Bulk Modulus (GPa) = 62.86817 73.22853 68.04835
# Shear Modulus (GPa) = 143.18636 21.73916 82.46276
#
# Velocity S-wave (km/s) = 8.75331 3.41070 6.64279
# Velocity P-wave (km/s) = 11.65341 7.39566 9.75955
#
# Compressibility (1/GPa) = 0.01590630
#
# Stress axis : x y z
#
# Youngs Moduli (GPa) = 43.39204 114.81578 78.78114
#
# Poissons Ratio (x) = 0.32737 0.68399
# Poissons Ratio (y) = 0.12372 0.21569
# Poissons Ratio (z) = 0.37674 0.31435
#
# Static dielectric constant tensor:
#      x y z
#    x 3.265520 0.000000 0.000000 
#    y 0.000000 3.607150 0.000000 
#    z 0.000000 0.000000 2.956870 
# 
# 
# High freq. dielectric constant tensor:
#      x y z
#    x 1.708730 0.000000 0.000000 
#    y 0.000000 1.735120 0.000000 
#    z 0.000000 0.000000 1.727860 
# 
# From -- ./inp_files/31646.got.cif
#   From: 2010.03.12/outbox.cif.g09.slc.cpg/sg59_16_cif.got.tgz:31646.got - 2010.04.16 16:29:54.
