data_PCOD8240007
_publ_section_title
;
Structure prediction by ZEFSAII (Michael W. Deem and Ramdas Pophale) SiO2 
 PCOD8240007
Probable space group: P M M N
;
_chemical_formula_sum "Si O2"
_cell_formula_units_Z 64
_cell_length_a 20.643941
_cell_length_b 8.783519
_cell_length_c 19.713241
_cell_angle_alpha 90.000000
_cell_angle_beta 90.000000
_cell_angle_gamma 90.000000
_cell_volume 3574.531969
_symmetry_space_group_name_H-M "P M M N"
_symmetry_group_IT_number 59
_space_group.IT_coordinate_system_code '2'
_symmetry_cell_setting 'orthorhombic'
loop_
_space_group_symop_operation_xyz
x,y,z
1/2-x,1/2-y,z
1/2+x,-y,-z
-x,1/2+y,-z
-x,-y,-z
1/2+x,1/2+y,-z
1/2-x,y,z
x,1/2-y,z
loop_
_atom_site_type_symbol
_atom_site_label
_atom_site_fract_x
_atom_site_fract_y
_atom_site_fract_z
Si Si1 0.520354 0.569932 0.828413
Si Si2 0.939097 0.569408 0.537850
Si Si3 0.128677 0.929362 0.684519
Si Si4 0.882635 0.925399 0.179111
Si Si5 0.482063 0.070265 0.320389
Si Si6 0.676576 0.924311 0.037492
Si Si7 0.439253 0.928428 0.038600
Si Si8 0.822260 0.574635 0.446560
O O1 0.526552 0.750000 0.837799
O O2 0.445727 0.524605 0.838316
O O3 0.544269 0.515556 0.753178
O O4 0.564349 0.487624 0.884175
O O5 0.945909 0.750000 0.535379
O O6 0.938941 0.510877 0.616362
O O7 0.872652 0.513584 0.502999
O O8 0.000000 0.500000 0.500000
O O9 0.133714 0.750000 0.695548
O O10 0.055681 0.985711 0.668851
O O11 0.152333 0.012031 0.753210
O O12 0.173261 0.978413 0.622143
O O13 0.903135 0.750000 0.188771
O O14 0.832433 0.945435 0.117915
O O15 0.482666 0.250000 0.319855
O O16 0.750000 0.970314 0.019095
O O17 0.662276 0.750000 0.016864
O O18 0.628360 0.032012 0.996458
O O19 0.450002 0.750000 0.038435
O O20 0.500000 0.000000 0.000000
O O21 0.750000 0.553967 0.476331
O O22 0.836948 0.750000 0.429203
#
# Coordination Sequence:
#
# PCOD8240007 Si02
#       8
#     8   8   8   8   8   8   8   8
#     4  10  19  33  54  80 110 142 176 223 272 321
#     4  10  18  32  53  76 101 133 173 218 263 311
#     4  10  19  32  50  73 104 141 180 219 259 311
#     4  10  19  32  52  78 110 145 180 219 264 319
#     4   8  16  30  50  76 104 131 168 216 265 307
#     4  10  22  39  57  79 109 144 180 222 272 325
#     4  12  23  36  57  83 110 143 183 228 274 321
#     4  10  21  34  49  73 105 139 174 216 267 318
#
# _framework density 17.904442
#
# number of rings (size 3 to 8) (size 9 to 14) (size 15 to 20)
#    0.000    2.000    2.500    3.000    0.000    1.500 
#    0.000    1.875    0.000    0.750    0.000    3.500 
#    0.000    0.000    0.000    0.000    0.000    0.000 
#
# Total GULP energy -793494.011995 kJ/mol
# GULP energy per Si atom -12398.343937 kJ/mol
# Density = 1.786369 g / cm^3
# Si number density = 17.904442 Si / 1000 Ang^3
#
#
#
# Elastic Constant Matrix: (Units=GPa)
#
#
# Indices 1 2 3 4 5 6 
#
# 1 92.5812 33.9174 59.8141 0.0000 0.0000 0.0000
# 2 33.9174 77.9182 44.5665 0.0000 0.0000 0.0000
# 3 59.8141 44.5665 136.3261 0.0000 0.0000 0.0000
# 4 0.0000 0.0000 0.0000 25.6814 0.0000 0.0000
# 5 0.0000 0.0000 0.0000 0.0000 24.2276 0.0000
# 6 0.0000 0.0000 0.0000 0.0000 0.0000 21.5169
#
#
#
# Elastic Compliance Matrix: (Units=1/GPa)
#
#
# Indices 1 2 3 4 5 6 
#
# 1 0.015853 -0.003594 -0.005780 0.000000 0.000000 0.000000
# 2 -0.003594 0.016601 -0.003850 0.000000 0.000000 0.000000
# 3 -0.005780 -0.003850 0.011130 0.000000 0.000000 0.000000
# 4 0.000000 0.000000 0.000000 0.038939 0.000000 0.000000
# 5 0.000000 0.000000 0.000000 0.000000 0.041275 0.000000
# 6 0.000000 0.000000 0.000000 0.000000 0.000000 0.046475
#
#
# Mechanical properties :
#
#
# Convention : Reuss Voigt Hill
#
# Bulk Modulus (GPa) = 58.36334 64.82461 61.59398
# Shear Modulus (GPa) = 24.69950 25.52035 25.10992
#
# Velocity S-wave (km/s) = 3.71822 3.77950 3.74898
# Velocity P-wave (km/s) = 7.14852 7.43845 7.29493
#
# Compressibility (1/GPa) = 0.01713404
#
# Stress axis : x y z
#
# Youngs Moduli (GPa) = 63.08062 60.23889 89.84633
#
# Poissons Ratio (x) = 0.21652 0.51935
# Poissons Ratio (y) = 0.22674 0.34589
# Poissons Ratio (z) = 0.36463 0.23191
#
# Static dielectric constant tensor:
#      x y z
#    x 3.128060 0.000000 0.000000 
#    y 0.000000 3.265420 0.000000 
#    z 0.000000 0.000000 3.822840 
# 
# 
# High freq. dielectric constant tensor:
#      x y z
#    x 1.661330 0.000000 0.000000 
#    y 0.000000 1.688630 0.000000 
#    z 0.000000 0.000000 1.702490 
# 
# From -- ./inp_files/30961.got.cif
#   From: 2010.03.12/outbox.cif.g09.slc.cpg/sg59_16_cif.got.tgz:30961.got - 2010.04.16 16:29:54.
