data_PCOD8240354
_publ_section_title
;
Structure prediction by ZEFSAII (Michael W. Deem and Ramdas Pophale) SiO2 
 PCOD8240354
Probable space group: P M M N
;
_chemical_formula_sum "Si O2"
_cell_formula_units_Z 48
_cell_length_a 13.648644
_cell_length_b 9.293874
_cell_length_c 23.928797
_cell_angle_alpha 90.000000
_cell_angle_beta 90.000000
_cell_angle_gamma 90.000000
_cell_volume 3035.338649
_symmetry_space_group_name_H-M "P M M N"
_symmetry_group_IT_number 59
_space_group.IT_coordinate_system_code '2'
_symmetry_cell_setting 'orthorhombic'
loop_
_space_group_symop_operation_xyz
x,y,z
1/2-x,1/2-y,z
1/2+x,-y,-z
-x,1/2+y,-z
-x,-y,-z
1/2+x,1/2+y,-z
1/2-x,y,z
x,1/2-y,z
loop_
_atom_site_type_symbol
_atom_site_label
_atom_site_fract_x
_atom_site_fract_y
_atom_site_fract_z
Si Si1 0.860020 0.085453 0.016235
Si Si2 0.141462 0.920660 0.307097
Si Si3 0.450920 0.417937 0.082639
Si Si4 0.864602 0.417284 0.817080
Si Si5 0.140495 0.416092 0.515735
Si Si6 0.045670 0.918998 0.418153
O O1 0.750000 0.057908 0.038716
O O2 0.873256 0.250000 0.995992
O O3 0.936104 0.051045 0.065943
O O4 0.878617 0.984266 0.963356
O O5 0.250000 0.981847 0.320397
O O6 0.146928 0.750000 0.306046
O O7 0.107534 0.970879 0.245517
O O8 0.066667 0.974819 0.355143
O O9 0.428076 0.250000 0.087037
O O10 0.431954 0.490367 0.142040
O O11 0.750000 0.445197 0.828900
O O12 0.889549 0.250000 0.825527
O O13 0.250000 0.447618 0.537577
O O14 0.126173 0.250000 0.499570
O O15 0.121149 0.507083 0.460311
O O16 0.065750 0.459801 0.565360
O O17 0.065064 0.750000 0.422345
#
# Coordination Sequence:
#
# PCOD8240354 Si02
#       6
#     8   8   8   8   8   8
#     4   9  18  32  47  62  84 115 143 165 199 248
#     4   8  14  25  42  62  80 103 140 177 202 234
#     4  10  19  29  44  67  89 108 136 174 208 239
#     4   9  17  29  44  61  84 114 141 166 204 251
#     4   9  17  27  39  60  89 113 132 164 213 256
#     4   9  16  27  44  62  80 108 144 174 200 240
#
# _framework density 15.813720999999999
#
# number of rings (size 3 to 8) (size 9 to 14) (size 15 to 20)
#    0.000    3.000    0.000    2.500    0.000    4.333 
#    0.000    0.833    0.000    2.000    0.000    2.333 
#    0.000    0.000    0.000    0.000    0.000    0.000 
#
# Total GULP energy -595008.453687 kJ/mol
# GULP energy per Si atom -12396.009452 kJ/mol
# Density = 1.577773 g / cm^3
# Si number density = 15.813721 Si / 1000 Ang^3
#
#
#
# Elastic Constant Matrix: (Units=GPa)
#
#
# Indices 1 2 3 4 5 6 
#
# 1 105.9299 36.2187 69.3028 0.0000 0.0000 0.0000
# 2 36.2187 48.2166 46.4343 0.0000 0.0000 0.0000
# 3 69.3028 46.4343 141.7176 0.0000 0.0000 0.0000
# 4 0.0000 0.0000 0.0000 23.1952 0.0000 0.0000
# 5 0.0000 0.0000 0.0000 0.0000 22.5378 0.0000
# 6 0.0000 0.0000 0.0000 0.0000 0.0000 19.6235
#
#
#
# Elastic Compliance Matrix: (Units=1/GPa)
#
#
# Indices 1 2 3 4 5 6 
#
# 1 0.015036 -0.006156 -0.005336 0.000000 0.000000 0.000000
# 2 -0.006156 0.032821 -0.007744 0.000000 0.000000 0.000000
# 3 -0.005336 -0.007744 0.012203 0.000000 0.000000 0.000000
# 4 0.000000 0.000000 0.000000 0.043112 0.000000 0.000000
# 5 0.000000 0.000000 0.000000 0.000000 0.044370 0.000000
# 6 0.000000 0.000000 0.000000 0.000000 0.000000 0.050959
#
#
# Mechanical properties :
#
#
# Convention : Reuss Voigt Hill
#
# Bulk Modulus (GPa) = 46.31933 66.64173 56.48053
# Shear Modulus (GPa) = 20.47766 22.66520 21.57143
#
# Velocity S-wave (km/s) = 3.60242 3.78995 3.69737
# Velocity P-wave (km/s) = 6.83062 7.83485 7.34991
#
# Compressibility (1/GPa) = 0.02158926
#
# Stress axis : x y z
#
# Youngs Moduli (GPa) = 66.50779 30.46811 81.94795
#
# Poissons Ratio (x) = 0.18756 0.43726
# Poissons Ratio (y) = 0.40941 0.63458
# Poissons Ratio (z) = 0.35488 0.23594
#
# Static dielectric constant tensor:
#      x y z
#    x 3.060940 0.000000 0.000000 
#    y 0.000000 2.895190 0.000000 
#    z 0.000000 0.000000 3.126110 
# 
# 
# High freq. dielectric constant tensor:
#      x y z
#    x 1.598500 0.000000 0.000000 
#    y 0.000000 1.594790 0.000000 
#    z 0.000000 0.000000 1.598090 
# 
# From -- ./inp_files/28822.got.cif
#   From: 2010.03.12/outbox.cif.g09.slc.cpg/sg59_15_cif.got.tgz:28822.got - 2010.04.16 16:29:54.
