data_PCOD8240319
_publ_section_title
;
Structure prediction by ZEFSAII (Michael W. Deem and Ramdas Pophale) SiO2 
 PCOD8240319
Probable space group: P M M N
;
_chemical_formula_sum "Si O2"
_cell_formula_units_Z 64
_cell_length_a 20.030772
_cell_length_b 9.161902
_cell_length_c 19.091632
_cell_angle_alpha 90.000000
_cell_angle_beta 90.000000
_cell_angle_gamma 90.000000
_cell_volume 3503.695733
_symmetry_space_group_name_H-M "P M M N"
_symmetry_group_IT_number 59
_space_group.IT_coordinate_system_code '2'
_symmetry_cell_setting 'orthorhombic'
loop_
_space_group_symop_operation_xyz
x,y,z
1/2-x,1/2-y,z
1/2+x,-y,-z
-x,1/2+y,-z
-x,-y,-z
1/2+x,1/2+y,-z
1/2-x,y,z
x,1/2-y,z
loop_
_atom_site_type_symbol
_atom_site_label
_atom_site_fract_x
_atom_site_fract_y
_atom_site_fract_z
Si Si1 0.105956 0.410565 0.119039
Si Si2 0.174604 0.582468 0.501414
Si Si3 0.564986 0.579616 0.027687
Si Si4 0.451194 0.916076 0.840059
Si Si5 0.962312 0.077958 0.435902
Si Si6 0.825779 0.907574 0.629602
Si Si7 0.134169 0.910646 0.243581
Si Si8 0.982899 0.915147 0.291856
O O1 0.132480 0.250000 0.139331
O O2 0.145371 0.528680 0.165056
O O3 0.027934 0.419284 0.137530
O O4 0.118336 0.437355 0.035915
O O5 0.250000 0.531428 0.524779
O O6 0.177997 0.750000 0.479161
O O7 0.118626 0.556316 0.560717
O O8 0.143741 0.501267 0.433547
O O9 0.549634 0.750000 0.042783
O O10 0.590262 0.501672 0.099082
O O11 0.500000 0.500000 0.000000
O O12 0.424968 0.750000 0.833222
O O13 0.439083 0.998522 0.766059
O O14 0.980205 0.250000 0.436172
O O15 0.984975 0.004268 0.363906
O O16 0.000000 0.000000 0.500000
O O17 0.750000 0.882339 0.608714
O O18 0.862673 0.750000 0.634324
O O19 0.827213 0.986906 0.703393
O O20 0.165756 0.750000 0.246387
O O21 0.057224 0.907099 0.263415
O O22 0.955064 0.750000 0.302869
#
# Coordination Sequence:
#
# PCOD8240319 Si02
#       8
#     8   8   8   8   8   8   8   8
#     4   8  15  25  37  55  81 113 146 180 217 258
#     4   9  19  36  54  70  91 121 157 195 234 278
#     4   9  15  23  36  55  80 112 148 183 220 262
#     4   9  16  26  40  58  82 114 149 184 222 264
#     4  11  22  34  50  72  97 125 157 194 238 286
#     4  10  20  32  47  66  86 111 145 185 228 272
#     4  10  19  29  43  62  86 118 152 185 222 265
#     4  10  20  32  45  64  91 121 152 186 227 275
#
# _framework density 18.266425999999999
#
# number of rings (size 3 to 8) (size 9 to 14) (size 15 to 20)
#    0.000    2.500    0.000    3.750    0.000    9.750 
#    0.000    0.000    0.000    0.000    0.000    0.000 
#    0.000    1.000    0.000    6.500    0.000    5.875 
#
# Total GULP energy -793007.251973 kJ/mol
# GULP energy per Si atom -12390.738312 kJ/mol
# Density = 1.822485 g / cm^3
# Si number density = 18.266426 Si / 1000 Ang^3
#
#
#
# Elastic Constant Matrix: (Units=GPa)
#
#
# Indices 1 2 3 4 5 6 
#
# 1 25.0993 12.1968 5.3022 0.0000 0.0000 0.0000
# 2 12.1968 139.9880 60.4672 0.0000 0.0000 0.0000
# 3 5.3022 60.4672 121.4391 0.0000 0.0000 0.0000
# 4 0.0000 0.0000 0.0000 34.5577 0.0000 0.0000
# 5 0.0000 0.0000 0.0000 0.0000 15.4004 0.0000
# 6 0.0000 0.0000 0.0000 0.0000 0.0000 11.9080
#
#
#
# Elastic Compliance Matrix: (Units=1/GPa)
#
#
# Indices 1 2 3 4 5 6 
#
# 1 0.041603 -0.003618 -0.000015 0.000000 0.000000 0.000000
# 2 -0.003618 0.009416 -0.004530 0.000000 0.000000 0.000000
# 3 -0.000015 -0.004530 0.010491 0.000000 0.000000 0.000000
# 4 0.000000 0.000000 0.000000 0.028937 0.000000 0.000000
# 5 0.000000 0.000000 0.000000 0.000000 0.064933 0.000000
# 6 0.000000 0.000000 0.000000 0.000000 0.000000 0.083977
#
#
# Mechanical properties :
#
#
# Convention : Reuss Voigt Hill
#
# Bulk Modulus (GPa) = 22.13226 49.16208 35.64717
# Shear Modulus (GPa) = 18.46753 26.27721 22.37237
#
# Velocity S-wave (km/s) = 3.18309 3.79694 3.50348
# Velocity P-wave (km/s) = 5.06479 6.79667 5.99361
#
# Compressibility (1/GPa) = 0.04518292
#
# Stress axis : x y z
#
# Youngs Moduli (GPa) = 24.03659 106.20734 95.32047
#
# Poissons Ratio (x) = 0.38430 0.00141
# Poissons Ratio (y) = 0.08697 0.43182
# Poissons Ratio (z) = 0.00035 0.48114
#
# Static dielectric constant tensor:
#      x y z
#    x 2.938470 0.000000 0.000000 
#    y 0.000000 3.830130 0.000000 
#    z 0.000000 0.000000 3.655350 
# 
# 
# High freq. dielectric constant tensor:
#      x y z
#    x 1.639670 0.000000 0.000000 
#    y 0.000000 1.728870 0.000000 
#    z 0.000000 0.000000 1.710480 
# 
# From -- ./inp_files/28416.got.cif
#   From: 2010.03.12/outbox.cif.g09.slc.cpg/sg59_15_cif.got.tgz:28416.got - 2010.04.16 16:29:54.
