data_PCOD8240282
_publ_section_title
;
Structure prediction by ZEFSAII (Michael W. Deem and Ramdas Pophale) SiO2 
 PCOD8240282
Probable space group: P M M N
;
_chemical_formula_sum "Si O2"
_cell_formula_units_Z 48
_cell_length_a 9.193913
_cell_length_b 18.335086
_cell_length_c 16.270780
_cell_angle_alpha 90.000000
_cell_angle_beta 90.000000
_cell_angle_gamma 90.000000
_cell_volume 2742.784674
_symmetry_space_group_name_H-M "P M M N"
_symmetry_group_IT_number 59
_space_group.IT_coordinate_system_code '2'
_symmetry_cell_setting 'orthorhombic'
loop_
_space_group_symop_operation_xyz
x,y,z
1/2-x,1/2-y,z
1/2+x,-y,-z
-x,1/2+y,-z
-x,-y,-z
1/2+x,1/2+y,-z
1/2-x,y,z
x,1/2-y,z
loop_
_atom_site_type_symbol
_atom_site_label
_atom_site_fract_x
_atom_site_fract_y
_atom_site_fract_z
Si Si1 0.582776 0.831217 0.830169
Si Si2 0.084104 0.890108 0.679936
Si Si3 0.583363 0.665046 0.529206
Si Si4 0.423012 0.169494 0.654316
Si Si5 0.417338 0.459618 0.767396
Si Si6 0.578665 0.976972 0.917559
O O1 0.750000 0.842236 0.804913
O O2 0.555779 0.750000 0.867100
O O3 0.491264 0.839018 0.747375
O O4 0.539356 0.892318 0.897524
O O5 0.250000 0.864865 0.674296
O O6 0.011652 0.882057 0.591418
O O7 0.069241 0.974196 0.704154
O O8 0.750000 0.639872 0.537415
O O9 0.568203 0.750000 0.550788
O O10 0.522666 0.649620 0.437418
O O11 0.250000 0.169307 0.651485
O O12 0.479813 0.250000 0.679699
O O13 0.479060 0.111667 0.721094
O O14 0.250000 0.449829 0.796328
O O15 0.519072 0.471266 0.845798
O O16 0.750000 0.988932 0.927130
O O17 0.500000 0.000000 0.000000
#
# Coordination Sequence:
#
# PCOD8240282 Si02
#       6
#     8   8   8   8   8   8
#     4   9  18  33  52  72  94 123 160 196 227 268
#     4  10  19  28  42  69 101 128 154 190 240 289
#     4   9  17  29  45  65  91 126 167 204 233 267
#     4   8  15  30  51  70  89 122 168 207 234 267
#     4   9  18  33  51  71  95 122 155 196 239 282
#     4  10  20  35  55  76  98 124 153 188 233 284
#
# _framework density 17.500464000000001
#
# number of rings (size 3 to 8) (size 9 to 14) (size 15 to 20)
#    0.000    2.833    0.000    2.500    0.000    4.667 
#    0.000    1.667    0.000    6.500    0.000    0.000 
#    0.000    0.000    0.000    0.000    0.000    0.000 
#
# Total GULP energy -595127.017269 kJ/mol
# GULP energy per Si atom -12398.479526 kJ/mol
# Density = 1.746063 g / cm^3
# Si number density = 17.500464 Si / 1000 Ang^3
#
#
#
# Elastic Constant Matrix: (Units=GPa)
#
#
# Indices 1 2 3 4 5 6 
#
# 1 75.1902 45.3550 59.1026 0.0000 0.0000 0.0000
# 2 45.3550 106.3483 78.4398 0.0000 0.0000 0.0000
# 3 59.1026 78.4398 131.6491 0.0000 0.0000 0.0000
# 4 0.0000 0.0000 0.0000 22.8657 0.0000 0.0000
# 5 0.0000 0.0000 0.0000 0.0000 29.7030 0.0000
# 6 0.0000 0.0000 0.0000 0.0000 0.0000 21.3121
#
#
#
# Elastic Compliance Matrix: (Units=1/GPa)
#
#
# Indices 1 2 3 4 5 6 
#
# 1 0.021308 -0.003624 -0.007406 0.000000 0.000000 0.000000
# 2 -0.003624 0.017392 -0.008735 0.000000 0.000000 0.000000
# 3 -0.007406 -0.008735 0.016126 0.000000 0.000000 0.000000
# 4 0.000000 0.000000 0.000000 0.043734 0.000000 0.000000
# 5 0.000000 0.000000 0.000000 0.000000 0.033667 0.000000
# 6 0.000000 0.000000 0.000000 0.000000 0.000000 0.046922
#
#
# Mechanical properties :
#
#
# Convention : Reuss Voigt Hill
#
# Bulk Modulus (GPa) = 65.38991 75.44248 70.41620
# Shear Modulus (GPa) = 22.34375 23.46218 22.90297
#
# Velocity S-wave (km/s) = 3.57704 3.66548 3.62153
# Velocity P-wave (km/s) = 7.38282 7.81772 7.60338
#
# Compressibility (1/GPa) = 0.01529288
#
# Stress axis : x y z
#
# Youngs Moduli (GPa) = 46.93182 57.49866 62.01326
#
# Poissons Ratio (x) = 0.20840 0.45929
# Poissons Ratio (y) = 0.17010 0.54170
# Poissons Ratio (z) = 0.34759 0.50226
#
# Static dielectric constant tensor:
#      x y z
#    x 3.170330 0.000000 0.000000 
#    y 0.000000 3.448030 0.000000 
#    z 0.000000 0.000000 3.168690 
# 
# 
# High freq. dielectric constant tensor:
#      x y z
#    x 1.662950 0.000000 0.000000 
#    y 0.000000 1.675310 0.000000 
#    z 0.000000 0.000000 1.666030 
# 
# From -- ./inp_files/20719.got.cif
#   From: 2010.03.12/outbox.cif.g09.slc.cpg/sg59_11_cif.got.tgz:20719.got - 2010.04.16 16:29:54.
