data_PCOD8240742
_publ_section_title
;
Structure prediction by ZEFSAII (Michael W. Deem and Ramdas Pophale) SiO2 
 PCOD8240742
Probable space group: P M M N
;
_chemical_formula_sum "Si O2"
_cell_formula_units_Z 64
_cell_length_a 17.594349
_cell_length_b 9.038096
_cell_length_c 22.518162
_cell_angle_alpha 90.000000
_cell_angle_beta 90.000000
_cell_angle_gamma 90.000000
_cell_volume 3580.824955
_symmetry_space_group_name_H-M "P M M N"
_symmetry_group_IT_number 59
_space_group.IT_coordinate_system_code '2'
_symmetry_cell_setting 'orthorhombic'
loop_
_space_group_symop_operation_xyz
x,y,z
1/2-x,1/2-y,z
1/2+x,-y,-z
-x,1/2+y,-z
-x,-y,-z
1/2+x,1/2+y,-z
1/2-x,y,z
x,1/2-y,z
loop_
_atom_site_type_symbol
_atom_site_label
_atom_site_fract_x
_atom_site_fract_y
_atom_site_fract_z
Si Si1 0.664750 0.421145 0.298627
Si Si2 0.566943 0.419883 0.033429
Si Si3 0.463142 0.580135 0.378135
Si Si4 0.468476 0.419764 0.140561
Si Si5 0.627566 0.921534 0.418556
Si Si6 0.477674 0.426060 0.745766
Si Si7 0.665029 0.079727 0.538153
Si Si8 0.836024 0.577676 0.948713
O O1 0.750000 0.437606 0.272587
O O2 0.641120 0.250000 0.303558
O O3 0.663826 0.492334 0.363691
O O4 0.606633 0.503303 0.254103
O O5 0.568881 0.250000 0.014439
O O6 0.547389 0.436559 0.103273
O O7 0.500000 0.500000 0.000000
O O8 0.645268 0.495129 0.011251
O O9 0.443553 0.750000 0.367918
O O10 0.536784 0.557641 0.419253
O O11 0.478088 0.512571 0.312681
O O12 0.391434 0.508461 0.412471
O O13 0.457945 0.250000 0.160588
O O14 0.474183 0.524170 0.197494
O O15 0.394435 0.472086 0.103046
O O16 0.650014 0.750000 0.412639
O O17 0.661368 0.985970 0.478498
O O18 0.468682 0.250000 0.744484
O O19 0.750000 0.069565 0.564073
O O20 0.642599 0.250000 0.523968
O O21 0.750000 0.538572 0.929355
O O22 0.846389 0.750000 0.961382
#
# Coordination Sequence:
#
# PCOD8240742 Si02
#       8
#     8   8   8   8   8   8   8   8
#     4  10  20  34  52  73  97 125 158 198 247 303
#     4   9  17  30  50  75 102 132 165 201 244 294
#     4   8  17  33  48  66  92 123 160 199 242 289
#     4   9  18  33  52  74 102 137 172 204 244 296
#     4  10  19  31  49  71  96 123 153 196 245 296
#     4  10  20  34  53  74  97 129 170 211 246 287
#     4  10  19  31  48  68  92 123 157 195 242 296
#     4   9  18  33  53  78 108 139 171 210 254 295
#
# _framework density 17.872976999999999
#
# number of rings (size 3 to 8) (size 9 to 14) (size 15 to 20)
#    0.000    2.625    0.000    3.750    0.000    5.500 
#    0.000    4.375    0.000    1.500    0.000    0.000 
#    0.000    0.000    0.000    0.000    0.000    0.000 
#
# Total GULP energy -793295.599804 kJ/mol
# GULP energy per Si atom -12395.243747 kJ/mol
# Density = 1.783230 g / cm^3
# Si number density = 17.872977 Si / 1000 Ang^3
#
#
#
# Elastic Constant Matrix: (Units=GPa)
#
#
# Indices 1 2 3 4 5 6 
#
# 1 106.7457 36.4355 46.1711 0.0000 0.0000 0.0000
# 2 36.4355 77.7457 33.7120 0.0000 0.0000 0.0000
# 3 46.1711 33.7120 76.2397 0.0000 0.0000 0.0000
# 4 0.0000 0.0000 0.0000 28.0892 0.0000 0.0000
# 5 0.0000 0.0000 0.0000 0.0000 20.0450 0.0000
# 6 0.0000 0.0000 0.0000 0.0000 0.0000 23.5574
#
#
#
# Elastic Compliance Matrix: (Units=1/GPa)
#
#
# Indices 1 2 3 4 5 6 
#
# 1 0.013387 -0.003413 -0.006598 0.000000 0.000000 0.000000
# 2 -0.003413 0.016784 -0.005355 0.000000 0.000000 0.000000
# 3 -0.006598 -0.005355 0.019480 0.000000 0.000000 0.000000
# 4 0.000000 0.000000 0.000000 0.035601 0.000000 0.000000
# 5 0.000000 0.000000 0.000000 0.000000 0.049888 0.000000
# 6 0.000000 0.000000 0.000000 0.000000 0.000000 0.042450
#
#
# Mechanical properties :
#
#
# Convention : Reuss Voigt Hill
#
# Bulk Modulus (GPa) = 52.85516 54.81871 53.83694
# Shear Modulus (GPa) = 23.29629 23.96581 23.63105
#
# Velocity S-wave (km/s) = 3.61423 3.66580 3.64011
# Velocity P-wave (km/s) = 6.85957 6.97533 6.91770
#
# Compressibility (1/GPa) = 0.01891963
#
# Stress axis : x y z
#
# Youngs Moduli (GPa) = 74.70043 59.58156 51.33433
#
# Poissons Ratio (x) = 0.20333 0.33871
# Poissons Ratio (y) = 0.25493 0.27488
# Poissons Ratio (z) = 0.49288 0.31905
#
# Static dielectric constant tensor:
#      x y z
#    x 3.441150 0.000000 0.000000 
#    y 0.000000 3.320740 0.000000 
#    z 0.000000 0.000000 3.296310 
# 
# 
# High freq. dielectric constant tensor:
#      x y z
#    x 1.687990 0.000000 0.000000 
#    y 0.000000 1.688170 0.000000 
#    z 0.000000 0.000000 1.673040 
# 
# From -- ./inp_files/30712.got.cif
#   From: 2010.03.12/outbox.cif.g09.slc.cpg/sg59_16_cif.got.tgz:30712.got - 2010.04.16 16:29:54.
