data_PCOD8240076
_publ_section_title
;
Structure prediction by ZEFSAII (Michael W. Deem and Ramdas Pophale) SiO2 
 PCOD8240076
Probable space group: P M M N
;
_chemical_formula_sum "Si O2"
_cell_formula_units_Z 56
_cell_length_a 8.690448
_cell_length_b 14.963094
_cell_length_c 22.093803
_cell_angle_alpha 90.000000
_cell_angle_beta 90.000000
_cell_angle_gamma 90.000000
_cell_volume 2872.989553
_symmetry_space_group_name_H-M "P M M N"
_symmetry_group_IT_number 59
_space_group.IT_coordinate_system_code '2'
_symmetry_cell_setting 'orthorhombic'
loop_
_space_group_symop_operation_xyz
x,y,z
1/2-x,1/2-y,z
1/2+x,-y,-z
-x,1/2+y,-z
-x,-y,-z
1/2+x,1/2+y,-z
1/2-x,y,z
x,1/2-y,z
loop_
_atom_site_type_symbol
_atom_site_label
_atom_site_fract_x
_atom_site_fract_y
_atom_site_fract_z
Si Si1 0.431518 0.992669 0.789526
Si Si2 0.427577 0.648317 0.140747
Si Si3 0.431304 0.433841 0.335667
Si Si4 0.932408 0.250000 0.380596
Si Si5 0.567900 0.403995 0.990961
Si Si6 0.068104 0.943655 0.445710
Si Si7 0.568268 0.346191 0.118522
Si Si8 0.432557 0.750000 0.481480
O O1 0.250000 0.982214 0.779227
O O2 0.470404 0.091399 0.812943
O O3 0.519253 0.973320 0.728081
O O4 0.500065 0.923955 0.839502
O O5 0.250000 0.617798 0.144784
O O6 0.446897 0.750000 0.161337
O O7 0.490652 0.638378 0.071954
O O8 0.250000 0.419461 0.338149
O O9 0.509394 0.338379 0.346814
O O10 0.485334 0.508382 0.384159
O O11 0.750000 0.250000 0.378018
O O12 0.994169 0.250000 0.449503
O O13 0.750000 0.407920 0.989943
O O14 0.508679 0.348725 0.049197
O O15 0.500000 0.500000 0.000000
O O16 0.250000 0.944028 0.452684
O O17 0.007411 0.840373 0.448016
O O18 0.000000 0.000000 0.500000
O O19 0.750000 0.358066 0.118282
O O20 0.519926 0.250000 0.145844
O O21 0.250000 0.750000 0.481968
#
# Coordination Sequence:
#
# PCOD8240076 Si02
#       8
#     8   8   8   4   8   8   8   4
#     4  11  23  39  60  84 115 156 200 244 293 351
#     4  10  21  38  61  85 112 151 197 246 304 363
#     4  11  24  40  59  88 125 160 197 245 296 350
#     4  11  21  37  65  93 121 157 196 235 288 359
#     4  10  18  32  56  83 112 145 186 239 296 355
#     4  10  20  37  61  87 118 153 193 239 292 346
#     4   9  18  33  54  81 110 144 187 232 284 348
#     4   9  18  35  61  91 117 149 192 239 290 349
#
# _framework density 19.491890999999999
#
# number of rings (size 3 to 8) (size 9 to 14) (size 15 to 20)
#    0.000    1.857    2.857    1.500    1.000    2.571 
#    1.286    0.357    0.000    3.000    0.000    0.000 
#    0.000    0.000    0.000    0.000    0.000    0.000 
#
# Total GULP energy -694256.887795 kJ/mol
# GULP energy per Si atom -12397.444425 kJ/mol
# Density = 1.944753 g / cm^3
# Si number density = 19.491891 Si / 1000 Ang^3
#
#
#
# Elastic Constant Matrix: (Units=GPa)
#
#
# Indices 1 2 3 4 5 6 
#
# 1 28.1742 19.1390 25.8849 0.0000 0.0000 0.0000
# 2 19.1390 149.9549 66.1336 0.0000 0.0000 0.0000
# 3 25.8849 66.1336 138.1437 0.0000 0.0000 0.0000
# 4 0.0000 0.0000 0.0000 18.2126 0.0000 0.0000
# 5 0.0000 0.0000 0.0000 0.0000 25.4174 0.0000
# 6 0.0000 0.0000 0.0000 0.0000 0.0000 27.6730
#
#
#
# Elastic Compliance Matrix: (Units=1/GPa)
#
#
# Indices 1 2 3 4 5 6 
#
# 1 0.043594 -0.002486 -0.006978 0.000000 0.000000 0.000000
# 2 -0.002486 0.008595 -0.003649 0.000000 0.000000 0.000000
# 3 -0.006978 -0.003649 0.010293 0.000000 0.000000 0.000000
# 4 0.000000 0.000000 0.000000 0.054907 0.000000 0.000000
# 5 0.000000 0.000000 0.000000 0.000000 0.039343 0.000000
# 6 0.000000 0.000000 0.000000 0.000000 0.000000 0.036136
#
#
# Mechanical properties :
#
#
# Convention : Reuss Voigt Hill
#
# Bulk Modulus (GPa) = 27.58221 59.84312 43.71266
# Shear Modulus (GPa) = 21.62810 27.93495 24.78153
#
# Velocity S-wave (km/s) = 3.33467 3.78981 3.56950
# Velocity P-wave (km/s) = 5.38591 7.06530 6.28198
#
# Compressibility (1/GPa) = 0.03625526
#
# Stress axis : x y z
#
# Youngs Moduli (GPa) = 22.93909 116.34292 97.15123
#
# Poissons Ratio (x) = 0.28928 0.67793
# Poissons Ratio (y) = 0.05704 0.35450
# Poissons Ratio (z) = 0.16007 0.42453
#
# Static dielectric constant tensor:
#      x y z
#    x 3.307290 0.000000 0.000000 
#    y 0.000000 3.774850 0.000000 
#    z 0.000000 0.000000 3.724550 
# 
# 
# High freq. dielectric constant tensor:
#      x y z
#    x 1.733190 0.000000 0.000000 
#    y 0.000000 1.774030 0.000000 
#    z 0.000000 0.000000 1.759530 
# 
# From -- ./inp_files/29213.got.cif
#   From: 2010.03.12/outbox.cif.g09.slc.cpg/sg59_15_cif.got.tgz:29213.got - 2010.04.16 16:29:54.
