data_PCOD8240290
_publ_section_title
;
Structure prediction by ZEFSAII (Michael W. Deem and Ramdas Pophale) SiO2 
 PCOD8240290
Probable space group: P M M N
;
_chemical_formula_sum "Si O2"
_cell_formula_units_Z 56
_cell_length_a 26.712905
_cell_length_b 8.942682
_cell_length_c 14.644824
_cell_angle_alpha 90.000000
_cell_angle_beta 90.000000
_cell_angle_gamma 90.000000
_cell_volume 3498.428997
_symmetry_space_group_name_H-M "P M M N"
_symmetry_group_IT_number 59
_space_group.IT_coordinate_system_code '2'
_symmetry_cell_setting 'orthorhombic'
loop_
_space_group_symop_operation_xyz
x,y,z
1/2-x,1/2-y,z
1/2+x,-y,-z
-x,1/2+y,-z
-x,-y,-z
1/2+x,1/2+y,-z
1/2-x,y,z
x,1/2-y,z
loop_
_atom_site_type_symbol
_atom_site_label
_atom_site_fract_x
_atom_site_fract_y
_atom_site_fract_z
Si Si1 0.110437 0.074170 0.978654
Si Si2 0.060588 0.424480 0.799838
Si Si3 0.033495 0.418326 0.122915
Si Si4 0.433443 0.072107 0.432072
Si Si5 0.122755 0.416707 0.262644
Si Si6 0.806070 0.570550 0.889165
Si Si7 0.453989 0.925871 0.613096
O O1 0.109594 0.250000 0.996473
O O2 0.105797 0.036508 0.871053
O O3 0.061588 0.014292 0.033603
O O4 0.162293 0.012543 0.022523
O O5 0.059392 0.250000 0.776158
O O6 0.069423 0.515501 0.707419
O O7 0.009782 0.467664 0.850761
O O8 0.011994 0.250000 0.107630
O O9 0.072178 0.412521 0.205490
O O10 0.430559 0.250000 0.441844
O O11 0.391594 0.008898 0.360506
O O12 0.488186 0.024696 0.394810
O O13 0.422820 0.997041 0.529610
O O14 0.141042 0.250000 0.284414
O O15 0.167284 0.493744 0.203495
O O16 0.750000 0.505608 0.895745
O O17 0.805719 0.750000 0.886603
O O18 0.447357 0.750000 0.609946
#
# Coordination Sequence:
#
# PCOD8240290 Si02
#       7
#     8   8   8   8   8   8   8
#     4   8  16  26  38  57  84 113 140 172 212 249
#     4  11  19  26  37  58  86 116 145 175 206 242
#     4   9  15  27  41  55  81 116 145 171 202 242
#     4   9  16  28  42  58  81 111 140 172 210 244
#     4   8  13  23  40  60  83 110 137 167 210 250
#     4   8  13  23  41  64  87 110 136 167 207 260
#     4  10  19  29  41  57  80 114 147 176 204 240
#
# _framework density 16.007185
#
# number of rings (size 3 to 8) (size 9 to 14) (size 15 to 20)
#    0.000    3.000    1.429    3.000    0.000    0.571 
#    0.000    0.714    0.000    0.000    0.000    1.000 
#    0.000   36.000    0.000    0.000    0.000    0.000 
#
# Total GULP energy -693779.238473 kJ/mol
# GULP energy per Si atom -12388.914973 kJ/mol
# Density = 1.597075 g / cm^3
# Si number density = 16.007185 Si / 1000 Ang^3
#
#
#
# Elastic Constant Matrix: (Units=GPa)
#
#
# Indices 1 2 3 4 5 6 
#
# 1 72.2634 12.2569 51.9735 0.0000 0.0000 0.0000
# 2 12.2569 24.6199 25.5522 0.0000 0.0000 0.0000
# 3 51.9735 25.5522 142.1363 0.0000 0.0000 0.0000
# 4 0.0000 0.0000 0.0000 21.0320 0.0000 0.0000
# 5 0.0000 0.0000 0.0000 0.0000 13.0514 0.0000
# 6 0.0000 0.0000 0.0000 0.0000 0.0000 8.6790
#
#
#
# Elastic Compliance Matrix: (Units=1/GPa)
#
#
# Indices 1 2 3 4 5 6 
#
# 1 0.018927 -0.002754 -0.006426 0.000000 0.000000 0.000000
# 2 -0.002754 0.050335 -0.008042 0.000000 0.000000 0.000000
# 3 -0.006426 -0.008042 0.010831 0.000000 0.000000 0.000000
# 4 0.000000 0.000000 0.000000 0.047547 0.000000 0.000000
# 5 0.000000 0.000000 0.000000 0.000000 0.076620 0.000000
# 6 0.000000 0.000000 0.000000 0.000000 0.000000 0.115221
#
#
# Mechanical properties :
#
#
# Convention : Reuss Voigt Hill
#
# Bulk Modulus (GPa) = 21.90581 46.50942 34.20761
# Shear Modulus (GPa) = 13.54503 18.50163 16.02333
#
# Velocity S-wave (km/s) = 2.91208 3.40344 3.16730
# Velocity P-wave (km/s) = 5.00216 6.67555 5.89850
#
# Compressibility (1/GPa) = 0.04564999
#
# Stress axis : x y z
#
# Youngs Moduli (GPa) = 52.83494 19.86696 92.32876
#
# Poissons Ratio (x) = 0.05471 0.59328
# Poissons Ratio (y) = 0.14548 0.74250
# Poissons Ratio (z) = 0.33951 0.15977
#
# Static dielectric constant tensor:
#      x y z
#    x 2.919070 0.000000 0.000000 
#    y 0.000000 2.706490 0.000000 
#    z 0.000000 0.000000 3.302890 
# 
# 
# High freq. dielectric constant tensor:
#      x y z
#    x 1.568270 0.000000 0.000000 
#    y 0.000000 1.579290 0.000000 
#    z 0.000000 0.000000 1.626310 
# 
# From -- ./inp_files/24943.got.cif
#   From: 2010.03.12/outbox.cif.g09.slc.cpg/sg59_13_cif.got.tgz:24943.got - 2010.04.16 16:29:54.
