data_PCOD8240857
_publ_section_title
;
Structure prediction by ZEFSAII (Michael W. Deem and Ramdas Pophale) SiO2 
 PCOD8240857
Probable space group: P M M N
;
_chemical_formula_sum "Si O2"
_cell_formula_units_Z 56
_cell_length_a 8.915266
_cell_length_b 15.047616
_cell_length_c 20.969819
_cell_angle_alpha 90.000000
_cell_angle_beta 90.000000
_cell_angle_gamma 90.000000
_cell_volume 2813.174599
_symmetry_space_group_name_H-M "P M M N"
_symmetry_group_IT_number 59
_space_group.IT_coordinate_system_code '2'
_symmetry_cell_setting 'orthorhombic'
loop_
_space_group_symop_operation_xyz
x,y,z
1/2-x,1/2-y,z
1/2+x,-y,-z
-x,1/2+y,-z
-x,-y,-z
1/2+x,1/2+y,-z
1/2-x,y,z
x,1/2-y,z
loop_
_atom_site_type_symbol
_atom_site_label
_atom_site_fract_x
_atom_site_fract_y
_atom_site_fract_z
Si Si1 0.920548 0.092349 0.344711
Si Si2 0.925253 0.489776 0.094018
Si Si3 0.076412 0.151598 0.717141
Si Si4 0.913719 0.847804 0.543328
Si Si5 0.925058 0.354935 0.980789
Si Si6 0.920875 0.591109 0.414411
Si Si7 0.072679 0.013381 0.225816
O O1 0.750000 0.115934 0.327697
O O2 0.993186 0.164650 0.390988
O O3 0.008624 0.080925 0.278649
O O4 0.938763 0.008173 0.390504
O O5 0.750000 0.502823 0.106600
O O6 0.987278 0.586506 0.071817
O O7 0.007850 0.458550 0.157806
O O8 0.956437 0.407104 0.046710
O O9 0.250000 0.117520 0.718059
O O10 0.062261 0.250000 0.746060
O O11 0.017035 0.151774 0.643892
O O12 0.977327 0.087494 0.760432
O O13 0.750000 0.891263 0.559136
O O14 0.890909 0.750000 0.516072
O O15 0.000043 0.897381 0.483759
O O16 0.750000 0.357856 0.963561
O O17 0.977804 0.250000 0.983724
O O18 0.750000 0.618519 0.427407
O O19 0.250000 0.020292 0.225005
#
# Coordination Sequence:
#
# PCOD8240857 Si02
#       7
#     8   8   8   8   8   8   8
#     4  10  20  35  53  72  97 131 174 218 261 314
#     4  10  20  36  59  86 116 149 184 221 263 314
#     4   9  17  31  51  75 104 137 175 219 268 324
#     4  10  19  31  49  73 100 129 164 210 266 323
#     4   9  19  37  61  89 119 148 179 218 263 310
#     4   8  15  29  50  73  96 127 166 210 264 323
#     4  11  22  36  54  75 104 142 181 221 265 312
#
# _framework density 19.906336
#
# number of rings (size 3 to 8) (size 9 to 14) (size 15 to 20)
#    0.000    2.429    0.000    3.857    0.000    3.714 
#    0.000    3.571    0.000    6.000    0.000    0.000 
#    0.000    0.000    0.000    0.000    0.000    0.000 
#
# Total GULP energy -693764.557410 kJ/mol
# GULP energy per Si atom -12388.652811 kJ/mol
# Density = 1.986103 g / cm^3
# Si number density = 19.906336 Si / 1000 Ang^3
#
#
#
# Elastic Constant Matrix: (Units=GPa)
#
#
# Indices 1 2 3 4 5 6 
#
# 1 98.6685 17.7176 55.0923 0.0000 0.0000 0.0000
# 2 17.7176 68.7849 17.5127 0.0000 0.0000 0.0000
# 3 55.0923 17.5127 125.6351 0.0000 0.0000 0.0000
# 4 0.0000 0.0000 0.0000 12.7778 0.0000 0.0000
# 5 0.0000 0.0000 0.0000 0.0000 30.7377 0.0000
# 6 0.0000 0.0000 0.0000 0.0000 0.0000 21.5586
#
#
#
# Elastic Compliance Matrix: (Units=1/GPa)
#
#
# Indices 1 2 3 4 5 6 
#
# 1 0.013700 -0.002073 -0.005719 0.000000 0.000000 0.000000
# 2 -0.002073 0.015387 -0.001236 0.000000 0.000000 0.000000
# 3 -0.005719 -0.001236 0.010640 0.000000 0.000000 0.000000
# 4 0.000000 0.000000 0.000000 0.078261 0.000000 0.000000
# 5 0.000000 0.000000 0.000000 0.000000 0.032533 0.000000
# 6 0.000000 0.000000 0.000000 0.000000 0.000000 0.046385
#
#
# Mechanical properties :
#
#
# Convention : Reuss Voigt Hill
#
# Bulk Modulus (GPa) = 46.14349 52.63708 49.39029
# Shear Modulus (GPa) = 22.50382 26.53254 24.51818
#
# Velocity S-wave (km/s) = 3.36592 3.65481 3.51333
# Velocity P-wave (km/s) = 6.19165 6.65657 6.42831
#
# Compressibility (1/GPa) = 0.02167153
#
# Stress axis : x y z
#
# Youngs Moduli (GPa) = 72.99110 64.99145 93.98877
#
# Poissons Ratio (x) = 0.13472 0.53750
# Poissons Ratio (y) = 0.15130 0.11615
# Poissons Ratio (z) = 0.41742 0.08032
#
# Static dielectric constant tensor:
#      x y z
#    x 3.518410 0.000000 0.000000 
#    y 0.000000 3.617850 0.000000 
#    z 0.000000 0.000000 3.674230 
# 
# 
# High freq. dielectric constant tensor:
#      x y z
#    x 1.757570 0.000000 0.000000 
#    y 0.000000 1.765680 0.000000 
#    z 0.000000 0.000000 1.781250 
# 
# From -- ./inp_files/29070.got.cif
#   From: 2010.03.12/outbox.cif.g09.slc.cpg/sg59_15_cif.got.tgz:29070.got - 2010.04.16 16:29:54.
