data_PCOD8240461
_publ_section_title
;
Structure prediction by ZEFSAII (Michael W. Deem and Ramdas Pophale) SiO2 
 PCOD8240461
Probable space group: P M M N
;
_chemical_formula_sum "Si O2"
_cell_formula_units_Z 56
_cell_length_a 9.049469
_cell_length_b 24.304954
_cell_length_c 16.274500
_cell_angle_alpha 90.000000
_cell_angle_beta 90.000000
_cell_angle_gamma 90.000000
_cell_volume 3579.526276
_symmetry_space_group_name_H-M "P M M N"
_symmetry_group_IT_number 59
_space_group.IT_coordinate_system_code '2'
_symmetry_cell_setting 'orthorhombic'
loop_
_space_group_symop_operation_xyz
x,y,z
1/2-x,1/2-y,z
1/2+x,-y,-z
-x,1/2+y,-z
-x,-y,-z
1/2+x,1/2+y,-z
1/2-x,y,z
x,1/2-y,z
loop_
_atom_site_type_symbol
_atom_site_label
_atom_site_fract_x
_atom_site_fract_y
_atom_site_fract_z
Si Si1 0.576193 0.686691 0.907342
Si Si2 0.076622 0.016953 0.878779
Si Si3 0.578095 0.507359 0.303377
Si Si4 0.422711 0.586901 0.987557
Si Si5 0.082375 0.813157 0.741149
Si Si6 0.577304 0.554481 0.467849
Si Si7 0.576560 0.398464 0.392304
O O1 0.750000 0.677752 0.912839
O O2 0.532683 0.750000 0.928164
O O3 0.497293 0.645821 0.970670
O O4 0.523656 0.671197 0.815944
O O5 0.250000 0.030743 0.884094
O O6 0.044582 0.955935 0.913865
O O7 0.010439 0.020044 0.786139
O O8 0.989551 0.063202 0.928670
O O9 0.750000 0.497700 0.288161
O O10 0.549587 0.557220 0.368779
O O11 0.514992 0.450707 0.341012
O O12 0.250000 0.596528 0.999834
O O13 0.250000 0.829279 0.766730
O O14 0.069274 0.750000 0.717355
O O15 0.033520 0.844890 0.659350
O O16 0.500000 0.500000 0.500000
O O17 0.750000 0.551402 0.486676
O O18 0.505128 0.604993 0.518662
O O19 0.750000 0.403327 0.409535
#
# Coordination Sequence:
#
# PCOD8240461 Si02
#       7
#     8   8   8   8   8   8   8
#     4  10  20  32  46  65  89 117 149 184 220 259
#     4   9  17  30  46  63  87 118 147 179 220 265
#     4   8  14  25  41  59  81 111 142 171 207 251
#     4  10  19  30  45  66  90 116 146 179 220 268
#     4   9  17  29  45  64  86 114 147 179 212 253
#     4   9  16  26  40  60  84 110 142 175 208 247
#     4   9  16  27  42  61  87 116 143 173 212 255
#
# _framework density 15.644527999999999
#
# number of rings (size 3 to 8) (size 9 to 14) (size 15 to 20)
#    0.000    2.857    0.000    3.000    0.000    4.286 
#    0.000    3.571    0.000    0.000    0.000    1.000 
#    0.000    5.714    0.000    0.000    0.000    0.000 
#
# Total GULP energy -694068.671265 kJ/mol
# GULP energy per Si atom -12394.083415 kJ/mol
# Density = 1.560892 g / cm^3
# Si number density = 15.644528 Si / 1000 Ang^3
#
#
#
# Elastic Constant Matrix: (Units=GPa)
#
#
# Indices 1 2 3 4 5 6 
#
# 1 65.4652 38.2165 44.5710 0.0000 0.0000 0.0000
# 2 38.2165 74.7931 49.7224 0.0000 0.0000 0.0000
# 3 44.5710 49.7224 124.3127 0.0000 0.0000 0.0000
# 4 0.0000 0.0000 0.0000 26.9442 0.0000 0.0000
# 5 0.0000 0.0000 0.0000 0.0000 25.3642 0.0000
# 6 0.0000 0.0000 0.0000 0.0000 0.0000 21.6792
#
#
#
# Elastic Compliance Matrix: (Units=1/GPa)
#
#
# Indices 1 2 3 4 5 6 
#
# 1 0.023859 -0.008860 -0.005011 0.000000 0.000000 0.000000
# 2 -0.008860 0.021503 -0.005424 0.000000 0.000000 0.000000
# 3 -0.005011 -0.005424 0.012010 0.000000 0.000000 0.000000
# 4 0.000000 0.000000 0.000000 0.037114 0.000000 0.000000
# 5 0.000000 0.000000 0.000000 0.000000 0.039426 0.000000
# 6 0.000000 0.000000 0.000000 0.000000 0.000000 0.046127
#
#
# Mechanical properties :
#
#
# Convention : Reuss Voigt Hill
#
# Bulk Modulus (GPa) = 53.23965 58.84341 56.04153
# Shear Modulus (GPa) = 22.23315 23.60159 22.91737
#
# Velocity S-wave (km/s) = 3.77390 3.88830 3.83153
# Velocity P-wave (km/s) = 7.28660 7.60611 7.44807
#
# Compressibility (1/GPa) = 0.01878299
#
# Stress axis : x y z
#
# Youngs Moduli (GPa) = 41.91328 46.50438 83.26203
#
# Poissons Ratio (x) = 0.41203 0.41719
# Poissons Ratio (y) = 0.37135 0.45163
# Poissons Ratio (z) = 0.21001 0.25225
#
# Static dielectric constant tensor:
#      x y z
#    x 3.015980 0.000000 0.000000 
#    y 0.000000 2.983540 0.000000 
#    z 0.000000 0.000000 3.266610 
# 
# 
# High freq. dielectric constant tensor:
#      x y z
#    x 1.596310 0.000000 0.000000 
#    y 0.000000 1.571670 0.000000 
#    z 0.000000 0.000000 1.596420 
# 
# From -- ./inp_files/26412.got.cif
#   From: 2010.03.12/outbox.cif.g09.slc.cpg/sg59_14_cif.got.tgz:26412.got - 2010.04.16 16:29:54.
