data_PCOD8240037
_publ_section_title
;
Structure prediction by ZEFSAII (Michael W. Deem and Ramdas Pophale) SiO2 
 PCOD8240037
Probable space group: P M M N
;
_chemical_formula_sum "Si O2"
_cell_formula_units_Z 64
_cell_length_a 17.492177
_cell_length_b 20.329078
_cell_length_c 9.879778
_cell_angle_alpha 90.000000
_cell_angle_beta 90.000000
_cell_angle_gamma 90.000000
_cell_volume 3513.247383
_symmetry_space_group_name_H-M "P M M N"
_symmetry_group_IT_number 59
_space_group.IT_coordinate_system_code '2'
_symmetry_cell_setting 'orthorhombic'
loop_
_space_group_symop_operation_xyz
x,y,z
1/2-x,1/2-y,z
1/2+x,-y,-z
-x,1/2+y,-z
-x,-y,-z
1/2+x,1/2+y,-z
1/2-x,y,z
x,1/2-y,z
loop_
_atom_site_type_symbol
_atom_site_label
_atom_site_fract_x
_atom_site_fract_y
_atom_site_fract_z
Si Si1 0.446233 0.937325 0.970397
Si Si2 0.484183 0.678854 0.519963
Si Si3 0.661879 0.024872 0.273721
Si Si4 0.833729 0.378479 0.523600
Si Si5 0.034652 0.326053 0.179972
Si Si6 0.334497 0.945983 0.197316
Si Si7 0.663834 0.911896 0.725145
Si Si8 0.934281 0.946616 0.467029
O O1 0.400552 0.915124 0.104655
O O2 0.495255 0.873559 0.929349
O O3 0.500000 0.000000 0.000000
O O4 0.381451 0.953391 0.860716
O O5 0.519722 0.750000 0.483978
O O6 0.394980 0.679816 0.479196
O O7 0.489352 0.665445 0.680021
O O8 0.525995 0.622909 0.433834
O O9 0.750000 0.006003 0.240129
O O10 0.615050 0.963436 0.334682
O O11 0.658719 0.081583 0.385141
O O12 0.750000 0.346415 0.536926
O O13 0.850586 0.428394 0.646469
O O14 0.035010 0.250000 0.130372
O O15 0.121497 0.350833 0.203129
O O16 0.250000 0.919809 0.155235
O O17 0.336676 0.024873 0.176802
O O18 0.750000 0.889281 0.691279
O O19 0.622481 0.935726 0.590329
O O20 0.000000 0.000000 0.500000
#
# Coordination Sequence:
#
# PCOD8240037 Si02
#       8
#     8   8   8   8   8   8   8   8
#     4  12  23  36  58  86 114 151 192 239 289 340
#     4  10  20  34  55  83 116 148 188 239 284 334
#     4  11  21  35  58  87 116 147 189 238 288 343
#     4  10  19  34  58  84 113 149 185 227 285 342
#     4  10  21  38  55  80 113 151 193 236 282 345
#     4  10  20  34  55  85 117 144 181 233 285 336
#     4  10  18  32  54  84 113 143 182 238 293 337
#     4  11  18  31  57  85 114 146 190 236 286 340
#
# _framework density 18.216766
#
# number of rings (size 3 to 8) (size 9 to 14) (size 15 to 20)
#    0.000    1.500    5.000    1.500    1.750    0.500 
#    0.000    0.625    0.000    3.375    0.000    0.000 
#    0.000    0.000    0.000    0.000    0.000    0.000 
#
# Total GULP energy -793278.284731 kJ/mol
# GULP energy per Si atom -12394.973199 kJ/mol
# Density = 1.817530 g / cm^3
# Si number density = 18.216766 Si / 1000 Ang^3
#
#
#
# Elastic Constant Matrix: (Units=GPa)
#
#
# Indices 1 2 3 4 5 6 
#
# 1 147.1035 50.5916 42.5955 0.0000 0.0000 0.0000
# 2 50.5916 103.7598 16.0044 0.0000 0.0000 0.0000
# 3 42.5955 16.0044 55.3608 0.0000 0.0000 0.0000
# 4 0.0000 0.0000 0.0000 21.1248 0.0000 0.0000
# 5 0.0000 0.0000 0.0000 0.0000 34.9081 0.0000
# 6 0.0000 0.0000 0.0000 0.0000 0.0000 20.7147
#
#
#
# Elastic Compliance Matrix: (Units=1/GPa)
#
#
# Indices 1 2 3 4 5 6 
#
# 1 0.010045 -0.003879 -0.006608 0.000000 0.000000 0.000000
# 2 -0.003879 0.011585 -0.000365 0.000000 0.000000 0.000000
# 3 -0.006608 -0.000365 0.023253 0.000000 0.000000 0.000000
# 4 0.000000 0.000000 0.000000 0.047338 0.000000 0.000000
# 5 0.000000 0.000000 0.000000 0.000000 0.028647 0.000000
# 6 0.000000 0.000000 0.000000 0.000000 0.000000 0.048275
#
#
# Mechanical properties :
#
#
# Convention : Reuss Voigt Hill
#
# Bulk Modulus (GPa) = 43.13917 58.28968 50.71443
# Shear Modulus (GPa) = 25.17983 28.48503 26.83243
#
# Velocity S-wave (km/s) = 3.72187 3.95862 3.84207
# Velocity P-wave (km/s) = 6.49632 7.27746 6.89796
#
# Compressibility (1/GPa) = 0.02318079
#
# Stress axis : x y z
#
# Youngs Moduli (GPa) = 99.54989 86.31769 43.00555
#
# Poissons Ratio (x) = 0.33480 0.28417
# Poissons Ratio (y) = 0.38612 0.01569
# Poissons Ratio (z) = 0.65779 0.03149
#
# Static dielectric constant tensor:
#      x y z
#    x 3.710400 0.000000 0.000000 
#    y 0.000000 3.216840 0.000000 
#    z 0.000000 0.000000 3.194100 
# 
# 
# High freq. dielectric constant tensor:
#      x y z
#    x 1.725420 0.000000 0.000000 
#    y 0.000000 1.681980 0.000000 
#    z 0.000000 0.000000 1.685970 
# 
# From -- ./inp_files/10685.got.cif
#   From: 2010.03.12/outbox.cif.g09.slc.cpg/sg59_6_cif.got.tgz:10685.got - 2010.04.16 16:29:54.
