data_PCOD8240171
_publ_section_title
;
Structure prediction by ZEFSAII (Michael W. Deem and Ramdas Pophale) SiO2 
 PCOD8240171
Probable space group: P M M N
;
_chemical_formula_sum "Si O2"
_cell_formula_units_Z 48
_cell_length_a 9.180033
_cell_length_b 9.418881
_cell_length_c 29.118065
_cell_angle_alpha 90.000000
_cell_angle_beta 90.000000
_cell_angle_gamma 90.000000
_cell_volume 2517.712079
_symmetry_space_group_name_H-M "P M M N"
_symmetry_group_IT_number 59
_space_group.IT_coordinate_system_code '2'
_symmetry_cell_setting 'orthorhombic'
loop_
_space_group_symop_operation_xyz
x,y,z
1/2-x,1/2-y,z
1/2+x,-y,-z
-x,1/2+y,-z
-x,-y,-z
1/2+x,1/2+y,-z
1/2-x,y,z
x,1/2-y,z
loop_
_atom_site_type_symbol
_atom_site_label
_atom_site_fract_x
_atom_site_fract_y
_atom_site_fract_z
Si Si1 0.077247 0.588341 0.129596
Si Si2 0.581957 0.250000 0.436564
Si Si3 0.077657 0.250000 0.532243
Si Si4 0.422523 0.415766 0.040401
Si Si5 0.080168 0.463245 0.606453
Si Si6 0.420314 0.090672 0.707323
Si Si7 0.922257 0.914175 0.782538
O O1 0.250000 0.595021 0.130455
O O2 0.014350 0.750000 0.127141
O O3 0.024795 0.494157 0.086646
O O4 0.019398 0.507603 0.174776
O O5 0.750000 0.250000 0.451556
O O6 0.490950 0.250000 0.482542
O O7 0.541242 0.375620 0.402555
O O8 0.250000 0.250000 0.524832
O O9 0.018403 0.382096 0.561985
O O10 0.250000 0.427847 0.033954
O O11 0.470343 0.250000 0.041522
O O12 0.500000 0.500000 0.000000
O O13 0.250000 0.428530 0.608857
O O14 0.014910 0.416856 0.655501
O O15 0.250000 0.051279 0.708184
O O16 0.447075 0.250000 0.726304
O O17 0.504563 0.975072 0.737011
O O18 0.750000 0.928563 0.777479
O O19 0.967387 0.750000 0.789667
#
# Coordination Sequence:
#
# PCOD8240171 Si02
#       7
#     8   4   4   8   8   8   8
#     4   9  17  32  55  79 106 144 185 220 265 326
#     4  10  20  32  50  76 102 128 166 208 249 302
#     4  10  18  34  54  72  98 132 166 204 251 304
#     4  10  20  34  54  81 112 147 187 230 274 321
#     4   9  18  33  53  74  98 132 170 206 250 308
#     4  10  20  36  57  79 103 137 181 221 260 315
#     4  10  21  36  55  81 111 140 173 219 271 321
#
# _framework density 19.064927000000001
#
# number of rings (size 3 to 8) (size 9 to 14) (size 15 to 20)
#    0.000    2.333    0.833    2.000    1.167    4.333 
#    0.000    2.500    0.000    5.000    0.000    0.000 
#    0.000    0.000    0.000    0.000    0.000    0.000 
#
# Total GULP energy -594991.293957 kJ/mol
# GULP energy per Si atom -12395.651957 kJ/mol
# Density = 1.902153 g / cm^3
# Si number density = 19.064927 Si / 1000 Ang^3
#
#
#
# Elastic Constant Matrix: (Units=GPa)
#
#
# Indices 1 2 3 4 5 6 
#
# 1 25.0778 32.4984 28.8600 0.0000 0.0000 0.0000
# 2 32.4984 168.0275 65.0291 0.0000 0.0000 0.0000
# 3 28.8600 65.0291 129.9819 0.0000 0.0000 0.0000
# 4 0.0000 0.0000 0.0000 42.2348 0.0000 0.0000
# 5 0.0000 0.0000 0.0000 0.0000 31.5499 0.0000
# 6 0.0000 0.0000 0.0000 0.0000 0.0000 -16.8848
#
#
#
# Elastic Compliance Matrix: (Units=1/GPa)
#
#
# Indices 1 2 3 4 5 6 
#
# 1 0.061490 -0.008196 -0.009552 0.000000 0.000000 0.000000
# 2 -0.008196 0.008473 -0.002419 0.000000 0.000000 0.000000
# 3 -0.009552 -0.002419 0.011025 0.000000 0.000000 0.000000
# 4 0.000000 0.000000 0.000000 0.023677 0.000000 0.000000
# 5 0.000000 0.000000 0.000000 0.000000 0.031696 0.000000
# 6 0.000000 0.000000 0.000000 0.000000 0.000000 -0.059225
#
#
# Mechanical properties :
#
#
# Convention : Reuss Voigt Hill
#
# Bulk Modulus (GPa) = 24.59871 63.98471 44.29171
# Shear Modulus (GPa) = 38.16175 24.49330 31.32752
#
# Velocity S-wave (km/s) = 4.47886 3.58820 4.05804
# Velocity P-wave (km/s) = 6.29901 7.12750 6.72602
#
# Compressibility (1/GPa) = 0.04065255
#
# Stress axis : x y z
#
# Youngs Moduli (GPa) = 16.26282 118.02415 90.70654
#
# Poissons Ratio (x) = 0.96732 0.86646
# Poissons Ratio (y) = 0.13329 0.21943
# Poissons Ratio (z) = 0.15535 0.28552
#
# Static dielectric constant tensor:
#      x y z
#    x 3.023100 0.000000 0.000000 
#    y 0.000000 3.786340 0.000000 
#    z 0.000000 0.000000 3.610070 
# 
# 
# High freq. dielectric constant tensor:
#      x y z
#    x 1.690720 0.000000 0.000000 
#    y 0.000000 1.763430 0.000000 
#    z 0.000000 0.000000 1.754220 
# 
# From -- ./inp_files/32986.got.cif
#   From: 2010.03.12/outbox.cif.g09.slc.cpg/sg59_17_cif.got.tgz:32986.got - 2010.04.16 16:29:54.
