data_PCOD8240493
_publ_section_title
;
Structure prediction by ZEFSAII (Michael W. Deem and Ramdas Pophale) SiO2 
 PCOD8240493
Probable space group: P M M N
;
_chemical_formula_sum "Si O2"
_cell_formula_units_Z 64
_cell_length_a 14.430960
_cell_length_b 9.713621
_cell_length_c 27.962129
_cell_angle_alpha 90.000000
_cell_angle_beta 90.000000
_cell_angle_gamma 90.000000
_cell_volume 3919.643892
_symmetry_space_group_name_H-M "P M M N"
_symmetry_group_IT_number 59
_space_group.IT_coordinate_system_code '2'
_symmetry_cell_setting 'orthorhombic'
loop_
_space_group_symop_operation_xyz
x,y,z
1/2-x,1/2-y,z
1/2+x,-y,-z
-x,1/2+y,-z
-x,-y,-z
1/2+x,1/2+y,-z
1/2-x,y,z
x,1/2-y,z
loop_
_atom_site_type_symbol
_atom_site_label
_atom_site_fract_x
_atom_site_fract_y
_atom_site_fract_z
Si Si1 0.523640 0.589367 0.615099
Si Si2 0.856870 0.407471 0.978035
Si Si3 0.354379 0.408132 0.932670
Si Si4 0.642889 0.910561 0.808330
Si Si5 0.851616 0.908152 0.417112
Si Si6 0.579817 0.596900 0.515212
Si Si7 0.536566 0.091310 0.882966
Si Si8 0.352249 0.087258 0.299948
O O1 0.497527 0.750000 0.621293
O O2 0.428644 0.506716 0.605954
O O3 0.599301 0.568594 0.571655
O O4 0.572640 0.528518 0.662538
O O5 0.750000 0.429971 0.964816
O O6 0.877781 0.250000 0.992095
O O7 0.915215 0.453431 0.932239
O O8 0.886203 0.501227 0.022468
O O9 0.250000 0.446757 0.915656
O O10 0.359696 0.250000 0.949499
O O11 0.425854 0.433106 0.889011
O O12 0.750000 0.947166 0.819377
O O13 0.625111 0.750000 0.817933
O O14 0.617781 0.950290 0.753866
O O15 0.573796 0.997738 0.840607
O O16 0.750000 0.945879 0.396195
O O17 0.877292 0.750000 0.404670
O O18 0.840583 0.924938 0.475403
O O19 0.500000 0.500000 0.500000
O O20 0.539920 0.750000 0.511210
O O21 0.559112 0.250000 0.870881
O O22 0.250000 0.025194 0.310537
O O23 0.346370 0.250000 0.305929
#
# Coordination Sequence:
#
# PCOD8240493 Si02
#       8
#     8   8   8   8   8   8   8   8
#     4   9  16  27  46  68  87 112 149 188 221 258
#     4   9  17  28  42  63  91 119 147 181 219 257
#     4   9  18  31  45  63  89 120 153 185 214 249
#     4   9  18  32  49  69  91 113 139 175 221 271
#     4   9  17  28  41  60  91 126 152 178 216 260
#     4   8  14  24  38  58  83 111 144 178 211 249
#     4  10  19  30  46  67  91 120 150 181 219 258
#     4   8  15  29  48  69  91 112 137 176 225 269
#
# _framework density 16.328014
#
# number of rings (size 3 to 8) (size 9 to 14) (size 15 to 20)
#    0.000    3.125    0.000    1.500    0.000    2.500 
#    0.000    4.375    0.000    1.875    0.000    7.000 
#    0.000    0.000    0.000    0.000    0.000    0.000 
#
# Total GULP energy -792844.612051 kJ/mol
# GULP energy per Si atom -12388.197063 kJ/mol
# Density = 1.629085 g / cm^3
# Si number density = 16.328014 Si / 1000 Ang^3
#
#
#
# Elastic Constant Matrix: (Units=GPa)
#
#
# Indices 1 2 3 4 5 6 
#
# 1 96.4610 42.3233 67.8669 0.0000 0.0000 0.0000
# 2 42.3233 53.5233 48.9460 0.0000 0.0000 0.0000
# 3 67.8669 48.9460 108.9819 0.0000 0.0000 0.0000
# 4 0.0000 0.0000 0.0000 22.1494 0.0000 0.0000
# 5 0.0000 0.0000 0.0000 0.0000 23.9326 0.0000
# 6 0.0000 0.0000 0.0000 0.0000 0.0000 21.0925
#
#
#
# Elastic Compliance Matrix: (Units=1/GPa)
#
#
# Indices 1 2 3 4 5 6 
#
# 1 0.020100 -0.007547 -0.009127 0.000000 0.000000 0.000000
# 2 -0.007547 0.034539 -0.010812 0.000000 0.000000 0.000000
# 3 -0.009127 -0.010812 0.019716 0.000000 0.000000 0.000000
# 4 0.000000 0.000000 0.000000 0.045148 0.000000 0.000000
# 5 0.000000 0.000000 0.000000 0.000000 0.041784 0.000000
# 6 0.000000 0.000000 0.000000 0.000000 0.000000 0.047410
#
#
# Mechanical properties :
#
#
# Convention : Reuss Voigt Hill
#
# Bulk Modulus (GPa) = 51.59665 64.13762 57.86713
# Shear Modulus (GPa) = 18.50953 20.09024 19.29989
#
# Velocity S-wave (km/s) = 3.37056 3.51153 3.44177
# Velocity P-wave (km/s) = 6.84224 7.47042 7.16322
#
# Compressibility (1/GPa) = 0.01938110
#
# Stress axis : x y z
#
# Youngs Moduli (GPa) = 49.75105 28.95282 50.72063
#
# Poissons Ratio (x) = 0.21851 0.46295
# Poissons Ratio (y) = 0.37548 0.54840
# Poissons Ratio (z) = 0.45410 0.31305
#
# Static dielectric constant tensor:
#      x y z
#    x 2.905840 0.000000 0.000000 
#    y 0.000000 2.990120 0.000000 
#    z 0.000000 0.000000 3.303020 
# 
# 
# High freq. dielectric constant tensor:
#      x y z
#    x 1.620750 0.000000 0.000000 
#    y 0.000000 1.617810 0.000000 
#    z 0.000000 0.000000 1.611670 
# 
# From -- ./inp_files/33317.got.cif
#   From: 2010.03.12/outbox.cif.g09.slc.cpg/sg59_17_cif.got.tgz:33317.got - 2010.04.16 16:29:54.
