data_PCOD8240058
_publ_section_title
;
Structure prediction by ZEFSAII (Michael W. Deem and Ramdas Pophale) SiO2 
 PCOD8240058
Probable space group: P M M N
;
_chemical_formula_sum "Si O2"
_cell_formula_units_Z 48
_cell_length_a 20.711737
_cell_length_b 8.389029
_cell_length_c 14.291874
_cell_angle_alpha 90.000000
_cell_angle_beta 90.000000
_cell_angle_gamma 90.000000
_cell_volume 2483.232578
_symmetry_space_group_name_H-M "P M M N"
_symmetry_group_IT_number 59
_space_group.IT_coordinate_system_code '2'
_symmetry_cell_setting 'orthorhombic'
loop_
_space_group_symop_operation_xyz
x,y,z
1/2-x,1/2-y,z
1/2+x,-y,-z
-x,1/2+y,-z
-x,-y,-z
1/2+x,1/2+y,-z
1/2-x,y,z
x,1/2-y,z
loop_
_atom_site_type_symbol
_atom_site_label
_atom_site_fract_x
_atom_site_fract_y
_atom_site_fract_z
Si Si1 0.177059 0.939655 0.098743
Si Si2 0.250000 0.562693 0.405903
Si Si3 0.822294 0.060853 0.105746
Si Si4 0.001350 0.935633 0.395830
Si Si5 0.250000 0.064229 0.608069
Si Si6 0.624500 0.061426 0.710935
Si Si7 0.123056 0.937043 0.702905
O O1 0.250000 0.002781 0.112638
O O2 0.178139 0.750000 0.103435
O O3 0.132244 0.006865 0.182808
O O4 0.151165 0.995895 0.996209
O O5 0.250000 0.750000 0.431311
O O6 0.250000 0.454810 0.497244
O O7 0.312758 0.513424 0.347572
O O8 0.750000 0.991922 0.121920
O O9 0.817851 0.250000 0.108486
O O10 0.869127 0.003608 0.189308
O O11 0.013089 0.750000 0.403966
O O12 0.060944 0.013445 0.337811
O O13 0.935468 0.968187 0.342055
O O14 0.000000 0.000000 0.500000
O O15 0.250000 0.250000 0.635270
O O16 0.187753 0.975742 0.647638
O O17 0.617683 0.250000 0.715849
O O18 0.108709 0.750000 0.695908
#
# Coordination Sequence:
#
# PCOD8240058 Si02
#       7
#     8   4   8   8   4   8   8
#     4   8  12  23  47  80 111 134 168 219 270 322
#     4  10  18  32  55  82 106 136 179 228 281 332
#     4   8  14  26  49  80 108 135 173 221 269 319
#     4  11  23  38  54  77 111 151 189 227 279 332
#     4  12  24  36  53  80 108 138 179 232 285 330
#     4   9  17  30  51  79 109 139 176 225 275 324
#     4  11  21  37  57  79 108 144 185 226 269 323
#
# _framework density 19.329643999999998
#
# number of rings (size 3 to 8) (size 9 to 14) (size 15 to 20)
#    0.000    2.333    1.667    3.750    0.000    1.333 
#    0.000    1.667    0.000    0.000    0.000    7.000 
#    0.000    0.000    0.000    0.000    0.000    0.000 
#
# Total GULP energy -594925.743232 kJ/mol
# GULP energy per Si atom -12394.286317 kJ/mol
# Density = 1.928565 g / cm^3
# Si number density = 19.329644 Si / 1000 Ang^3
#
#
#
# Elastic Constant Matrix: (Units=GPa)
#
#
# Indices 1 2 3 4 5 6 
#
# 1 128.1809 2.0054 78.0121 0.0000 0.0000 0.0000
# 2 2.0054 24.2015 11.6434 0.0000 0.0000 0.0000
# 3 78.0121 11.6434 198.7116 0.0000 0.0000 0.0000
# 4 0.0000 0.0000 0.0000 14.8666 0.0000 0.0000
# 5 0.0000 0.0000 0.0000 0.0000 35.5000 0.0000
# 6 0.0000 0.0000 0.0000 0.0000 0.0000 3.9403
#
#
#
# Elastic Compliance Matrix: (Units=1/GPa)
#
#
# Indices 1 2 3 4 5 6 
#
# 1 0.010280 0.001121 -0.004102 0.000000 0.000000 0.000000
# 2 0.001121 0.042641 -0.002939 0.000000 0.000000 0.000000
# 3 -0.004102 -0.002939 0.006815 0.000000 0.000000 0.000000
# 4 0.000000 0.000000 0.000000 0.067265 0.000000 0.000000
# 5 0.000000 0.000000 0.000000 0.000000 0.028169 0.000000
# 6 0.000000 0.000000 0.000000 0.000000 0.000000 0.253790
#
#
# Mechanical properties :
#
#
# Convention : Reuss Voigt Hill
#
# Bulk Modulus (GPa) = 20.87778 59.37955 40.12867
# Shear Modulus (GPa) = 11.44785 28.15691 19.80238
#
# Velocity S-wave (km/s) = 2.43624 3.82077 3.20419
# Velocity P-wave (km/s) = 4.32875 7.08876 5.87319
#
# Compressibility (1/GPa) = 0.04789780
#
# Stress axis : x y z
#
# Youngs Moduli (GPa) = 97.27427 23.45181 146.73804
#
# Poissons Ratio (x) = -0.02630 0.60186
# Poissons Ratio (y) = -0.10909 0.43123
# Poissons Ratio (z) = 0.39898 0.06892
#
# Static dielectric constant tensor:
#      x y z
#    x 3.830980 0.000000 0.000000 
#    y 0.000000 3.045530 0.000000 
#    z 0.000000 0.000000 4.154900 
# 
# 
# High freq. dielectric constant tensor:
#      x y z
#    x 1.736000 0.000000 0.000000 
#    y 0.000000 1.706310 0.000000 
#    z 0.000000 0.000000 1.777690 
# 
# From -- ./inp_files/23720.got.cif
#   From: 2010.03.12/outbox.cif.g09.slc.cpg/sg59_12_cif.got.tgz:23720.got - 2010.04.16 16:29:54.
