data_PCOD8240760
_publ_section_title
;
Structure prediction by ZEFSAII (Michael W. Deem and Ramdas Pophale) SiO2 
 PCOD8240760
Probable space group: P M M N
;
_chemical_formula_sum "Si O2"
_cell_formula_units_Z 64
_cell_length_a 9.487192
_cell_length_b 19.917278
_cell_length_c 20.428242
_cell_angle_alpha 90.000000
_cell_angle_beta 90.000000
_cell_angle_gamma 90.000000
_cell_volume 3860.101007
_symmetry_space_group_name_H-M "P M M N"
_symmetry_group_IT_number 59
_space_group.IT_coordinate_system_code '2'
_symmetry_cell_setting 'orthorhombic'
loop_
_space_group_symop_operation_xyz
x,y,z
1/2-x,1/2-y,z
1/2+x,-y,-z
-x,1/2+y,-z
-x,-y,-z
1/2+x,1/2+y,-z
1/2-x,y,z
x,1/2-y,z
loop_
_atom_site_type_symbol
_atom_site_label
_atom_site_fract_x
_atom_site_fract_y
_atom_site_fract_z
Si Si1 0.586592 0.055114 0.194021
Si Si2 0.587775 0.537360 0.688461
Si Si3 0.087310 0.675534 0.494284
Si Si4 0.085350 0.535333 0.442599
Si Si5 0.594992 0.823435 0.964462
Si Si6 0.410438 0.325350 0.377996
Si Si7 0.415318 0.948110 0.957349
Si Si8 0.596301 0.823188 0.810693
O O1 0.750000 0.048963 0.209948
O O2 0.499499 0.011820 0.247569
O O3 0.553369 0.035163 0.118979
O O4 0.535252 0.130740 0.207271
O O5 0.750000 0.520760 0.701804
O O6 0.533400 0.494793 0.626385
O O7 0.561820 0.617809 0.677146
O O8 0.250000 0.675397 0.514035
O O9 0.044415 0.750000 0.466748
O O10 0.056689 0.616054 0.442148
O O11 0.004522 0.657859 0.559792
O O12 0.250000 0.519203 0.453380
O O13 0.000000 0.500000 0.500000
O O14 0.750000 0.846231 0.991670
O O15 0.555374 0.750000 0.994007
O O16 0.472083 0.875865 0.981176
O O17 0.607519 0.816657 0.887639
O O18 0.250000 0.330720 0.402298
O O19 0.442670 0.250000 0.350745
O O20 0.250000 0.951278 0.972334
O O21 0.500000 0.000000 0.000000
O O22 0.750000 0.850914 0.784821
O O23 0.569594 0.750000 0.779435
#
# Coordination Sequence:
#
# PCOD8240760 Si02
#       8
#     8   8   8   8   8   8   8   8
#     4  10  21  33  45  66  94 122 156 199 242 284
#     4  10  20  32  45  64  91 125 162 196 234 284
#     4   9  17  29  46  68  93 120 151 192 239 281
#     4  10  19  31  48  70  94 121 157 196 235 280
#     4   8  14  26  45  69  96 125 156 189 228 277
#     4   9  17  29  44  63  90 124 160 194 225 264
#     4  10  20  33  50  72  97 126 161 202 246 292
#     4   8  14  26  44  63  86 121 159 189 220 265
#
# _framework density 16.579875999999999
#
# number of rings (size 3 to 8) (size 9 to 14) (size 15 to 20)
#    0.000    2.750    1.250    1.500    0.000    3.500 
#    0.000    3.750    0.000    0.000    0.000    0.875 
#    0.000    3.000    0.000    0.000    0.000    0.000 
#
# Total GULP energy -792882.239627 kJ/mol
# GULP energy per Si atom -12388.784994 kJ/mol
# Density = 1.654214 g / cm^3
# Si number density = 16.579876 Si / 1000 Ang^3
#
#
#
# Elastic Constant Matrix: (Units=GPa)
#
#
# Indices 1 2 3 4 5 6 
#
# 1 85.8833 45.4756 54.6618 0.0000 0.0000 0.0000
# 2 45.4756 82.9841 45.3881 0.0000 0.0000 0.0000
# 3 54.6618 45.3881 78.3170 0.0000 0.0000 0.0000
# 4 0.0000 0.0000 0.0000 15.6574 0.0000 0.0000
# 5 0.0000 0.0000 0.0000 0.0000 25.4587 0.0000
# 6 0.0000 0.0000 0.0000 0.0000 0.0000 20.7208
#
#
#
# Elastic Compliance Matrix: (Units=1/GPa)
#
#
# Indices 1 2 3 4 5 6 
#
# 1 0.022536 -0.005486 -0.012550 0.000000 0.000000 0.000000
# 2 -0.005486 0.018978 -0.007170 0.000000 0.000000 0.000000
# 3 -0.012550 -0.007170 0.025683 0.000000 0.000000 0.000000
# 4 0.000000 0.000000 0.000000 0.063868 0.000000 0.000000
# 5 0.000000 0.000000 0.000000 0.000000 0.039279 0.000000
# 6 0.000000 0.000000 0.000000 0.000000 0.000000 0.048261
#
#
# Mechanical properties :
#
#
# Convention : Reuss Voigt Hill
#
# Bulk Modulus (GPa) = 59.57224 59.80393 59.68808
# Shear Modulus (GPa) = 18.20753 19.14465 18.67609
#
# Velocity S-wave (km/s) = 3.31746 3.40176 3.35988
# Velocity P-wave (km/s) = 7.11916 7.18177 7.15054
#
# Compressibility (1/GPa) = 0.01678634
#
# Stress axis : x y z
#
# Youngs Moduli (GPa) = 44.37339 52.69184 38.93575
#
# Poissons Ratio (x) = 0.28905 0.48864
# Poissons Ratio (y) = 0.24341 0.27917
# Poissons Ratio (z) = 0.55689 0.37780
#
# Static dielectric constant tensor:
#      x y z
#    x 3.196450 0.000000 0.000000 
#    y 0.000000 3.423970 0.000000 
#    z 0.000000 0.000000 2.975270 
# 
# 
# High freq. dielectric constant tensor:
#      x y z
#    x 1.641100 0.000000 0.000000 
#    y 0.000000 1.625720 0.000000 
#    z 0.000000 0.000000 1.610460 
# 
# From -- ./inp_files/29696.got.cif
#   From: 2010.03.12/outbox.cif.g09.slc.cpg/sg59_15_cif.got.tgz:29696.got - 2010.04.16 16:29:54.
