data_PCOD8240923
_publ_section_title
;
Structure prediction by ZEFSAII (Michael W. Deem and Ramdas Pophale) SiO2 
 PCOD8240923
Probable space group: P M M N
;
_chemical_formula_sum "Si O2"
_cell_formula_units_Z 48
_cell_length_a 13.831295
_cell_length_b 9.312254
_cell_length_c 20.417732
_cell_angle_alpha 90.000000
_cell_angle_beta 90.000000
_cell_angle_gamma 90.000000
_cell_volume 2629.814748
_symmetry_space_group_name_H-M "P M M N"
_symmetry_group_IT_number 59
_space_group.IT_coordinate_system_code '2'
_symmetry_cell_setting 'orthorhombic'
loop_
_space_group_symop_operation_xyz
x,y,z
1/2-x,1/2-y,z
1/2+x,-y,-z
-x,1/2+y,-z
-x,-y,-z
1/2+x,1/2+y,-z
1/2-x,y,z
x,1/2-y,z
loop_
_atom_site_type_symbol
_atom_site_label
_atom_site_fract_x
_atom_site_fract_y
_atom_site_fract_z
Si Si1 0.860882 0.582364 0.387223
Si Si2 0.362205 0.083238 0.210254
Si Si3 0.643373 0.579482 0.533520
Si Si4 0.970092 0.417842 0.902250
Si Si5 0.970833 0.917450 0.657546
Si Si6 0.361747 0.916738 0.964513
O O1 0.750000 0.541445 0.373674
O O2 0.877592 0.750000 0.377145
O O3 0.891544 0.534061 0.460961
O O4 0.926643 0.497891 0.334805
O O5 0.250000 0.040677 0.206850
O O6 0.377431 0.250000 0.192316
O O7 0.399981 0.048445 0.282685
O O8 0.422638 0.986234 0.161230
O O9 0.750000 0.515919 0.545450
O O10 0.648158 0.750000 0.537955
O O11 0.576046 0.519016 0.591054
O O12 0.986779 0.250000 0.890552
O O13 0.074563 0.489845 0.914525
O O14 0.897279 0.447708 0.961987
O O15 0.992372 0.750000 0.652352
O O16 0.250000 0.963919 0.958740
O O17 0.375098 0.750000 0.946588
#
# Coordination Sequence:
#
# PCOD8240923 Si02
#       6
#     8   8   8   8   8   8
#     4   9  18  32  49  69  95 128 163 201 251 306
#     4  10  21  36  53  74 102 136 171 205 246 300
#     4   8  14  27  48  72  97 125 158 199 249 302
#     4  10  20  34  54  81 110 138 170 208 251 297
#     4  10  19  31  50  74  97 125 165 209 248 290
#     4   9  18  34  56  81 109 139 171 208 249 294
#
# _framework density 18.252237000000001
#
# number of rings (size 3 to 8) (size 9 to 14) (size 15 to 20)
#    0.000    2.667    0.000    3.000    0.000    5.000 
#    0.000    0.833    0.000    3.500    0.000    0.000 
#    0.000    0.000    0.000    0.000    0.000    0.000 
#
# Total GULP energy -595119.252190 kJ/mol
# GULP energy per Si atom -12398.317754 kJ/mol
# Density = 1.821069 g / cm^3
# Si number density = 18.252237 Si / 1000 Ang^3
#
#
#
# Elastic Constant Matrix: (Units=GPa)
#
#
# Indices 1 2 3 4 5 6 
#
# 1 139.2889 57.9424 51.7029 0.0000 0.0000 0.0000
# 2 57.9424 57.6498 36.0779 0.0000 0.0000 0.0000
# 3 51.7029 36.0779 50.5293 0.0000 0.0000 0.0000
# 4 0.0000 0.0000 0.0000 27.3422 0.0000 0.0000
# 5 0.0000 0.0000 0.0000 0.0000 30.1390 0.0000
# 6 0.0000 0.0000 0.0000 0.0000 0.0000 30.3749
#
#
#
# Elastic Compliance Matrix: (Units=1/GPa)
#
#
# Indices 1 2 3 4 5 6 
#
# 1 0.013789 -0.009092 -0.007618 0.000000 0.000000 0.000000
# 2 -0.009092 0.037352 -0.017367 0.000000 0.000000 0.000000
# 3 -0.007618 -0.017367 0.039985 0.000000 0.000000 0.000000
# 4 0.000000 0.000000 0.000000 0.036573 0.000000 0.000000
# 5 0.000000 0.000000 0.000000 0.000000 0.033180 0.000000
# 6 0.000000 0.000000 0.000000 0.000000 0.000000 0.032922
#
#
# Mechanical properties :
#
#
# Convention : Reuss Voigt Hill
#
# Bulk Modulus (GPa) = 43.52749 59.87939 51.70344
# Shear Modulus (GPa) = 18.54521 24.35420 21.44970
#
# Velocity S-wave (km/s) = 3.19101 3.65679 3.43181
# Velocity P-wave (km/s) = 6.12179 7.12090 6.64016
#
# Compressibility (1/GPa) = 0.02297399
#
# Stress axis : x y z
#
# Youngs Moduli (GPa) = 72.52150 26.77225 25.00934
#
# Poissons Ratio (x) = 0.24340 0.19052
# Poissons Ratio (y) = 0.65934 0.43433
# Poissons Ratio (z) = 0.55246 0.46494
#
# Static dielectric constant tensor:
#      x y z
#    x 3.487110 0.000000 0.000000 
#    y 0.000000 3.128790 0.000000 
#    z 0.000000 0.000000 3.276050 
# 
# 
# High freq. dielectric constant tensor:
#      x y z
#    x 1.718290 0.000000 0.000000 
#    y 0.000000 1.688820 0.000000 
#    z 0.000000 0.000000 1.693300 
# 
# From -- ./inp_files/27382.got.cif
#   From: 2010.03.12/outbox.cif.g09.slc.cpg/sg59_14_cif.got.tgz:27382.got - 2010.04.16 16:29:54.
