data_PCOD8240487
_publ_section_title
;
Structure prediction by ZEFSAII (Michael W. Deem and Ramdas Pophale) SiO2 
 PCOD8240487
Probable space group: P M M N
;
_chemical_formula_sum "Si O2"
_cell_formula_units_Z 64
_cell_length_a 17.716377
_cell_length_b 9.091966
_cell_length_c 23.265438
_cell_angle_alpha 90.000000
_cell_angle_beta 90.000000
_cell_angle_gamma 90.000000
_cell_volume 3747.519915
_symmetry_space_group_name_H-M "P M M N"
_symmetry_group_IT_number 59
_space_group.IT_coordinate_system_code '2'
_symmetry_cell_setting 'orthorhombic'
loop_
_space_group_symop_operation_xyz
x,y,z
1/2-x,1/2-y,z
1/2+x,-y,-z
-x,1/2+y,-z
-x,-y,-z
1/2+x,1/2+y,-z
1/2-x,y,z
x,1/2-y,z
loop_
_atom_site_type_symbol
_atom_site_label
_atom_site_fract_x
_atom_site_fract_y
_atom_site_fract_z
Si Si1 0.665521 0.084185 0.318394
Si Si2 0.561978 0.578028 0.962020
Si Si3 0.617014 0.578852 0.427951
Si Si4 0.019739 0.077137 0.870314
Si Si5 0.962460 0.923172 0.260252
Si Si6 0.040289 0.919385 0.371946
Si Si7 0.166181 0.421783 0.938696
Si Si8 0.663448 0.422761 0.543962
O O1 0.750000 0.085068 0.294270
O O2 0.635395 0.250000 0.327517
O O3 0.665149 0.000645 0.379010
O O4 0.617050 0.001830 0.270223
O O5 0.544958 0.750000 0.956843
O O6 0.552635 0.503436 0.899412
O O7 0.500000 0.500000 0.000000
O O8 0.641867 0.550053 0.994413
O O9 0.638245 0.750000 0.428135
O O10 0.528794 0.553484 0.415425
O O11 0.637897 0.509884 0.488339
O O12 0.013441 0.250000 0.882734
O O13 0.010255 0.039063 0.803431
O O14 0.100780 0.017786 0.895271
O O15 0.949120 0.750000 0.268876
O O16 0.021642 0.985049 0.308403
O O17 0.056000 0.750000 0.361785
O O18 0.115062 0.985568 0.401905
O O19 0.250000 0.493347 0.928513
O O20 0.173043 0.250000 0.926995
O O21 0.750000 0.454690 0.558469
O O22 0.648174 0.250000 0.533377
#
# Coordination Sequence:
#
# PCOD8240487 Si02
#       8
#     8   8   8   8   8   8   8   8
#     4  10  20  32  45  64  93 124 151 184 226 271
#     4   9  16  27  45  66  90 121 153 185 221 262
#     4  10  19  31  48  67  88 115 147 184 226 276
#     4   9  17  29  47  69  91 118 153 192 228 263
#     4   9  18  32  49  67  88 119 158 194 224 261
#     4   8  16  31  47  64  87 115 148 184 223 267
#     4   8  14  25  42  66  93 118 146 180 218 261
#     4  10  19  30  46  67  89 113 143 183 232 282
#
# _framework density 17.077960999999998
#
# number of rings (size 3 to 8) (size 9 to 14) (size 15 to 20)
#    0.000    2.875    0.000    3.375    0.000    3.750 
#    0.000    3.750    0.000   10.125    0.000    1.750 
#    0.000    0.000    0.000    0.000    0.000    0.000 
#
# Total GULP energy -792990.726802 kJ/mol
# GULP energy per Si atom -12390.480106 kJ/mol
# Density = 1.703909 g / cm^3
# Si number density = 17.077961 Si / 1000 Ang^3
#
#
#
# Elastic Constant Matrix: (Units=GPa)
#
#
# Indices 1 2 3 4 5 6 
#
# 1 51.1352 25.4643 30.3159 0.0000 0.0000 0.0000
# 2 25.4643 54.0178 45.4971 0.0000 0.0000 0.0000
# 3 30.3159 45.4971 89.9511 0.0000 0.0000 0.0000
# 4 0.0000 0.0000 0.0000 23.9240 0.0000 0.0000
# 5 0.0000 0.0000 0.0000 0.0000 15.9149 0.0000
# 6 0.0000 0.0000 0.0000 0.0000 0.0000 17.4413
#
#
#
# Elastic Compliance Matrix: (Units=1/GPa)
#
#
# Indices 1 2 3 4 5 6 
#
# 1 0.026590 -0.008688 -0.004567 0.000000 0.000000 0.000000
# 2 -0.008688 0.035091 -0.014821 0.000000 0.000000 0.000000
# 3 -0.004567 -0.014821 0.020153 0.000000 0.000000 0.000000
# 4 0.000000 0.000000 0.000000 0.041799 0.000000 0.000000
# 5 0.000000 0.000000 0.000000 0.000000 0.062834 0.000000
# 6 0.000000 0.000000 0.000000 0.000000 0.000000 0.057335
#
#
# Mechanical properties :
#
#
# Convention : Reuss Voigt Hill
#
# Bulk Modulus (GPa) = 38.93808 44.18432 41.56120
# Shear Modulus (GPa) = 16.20667 17.71118 16.95893
#
# Velocity S-wave (km/s) = 3.08390 3.22386 3.15466
# Velocity P-wave (km/s) = 5.96073 6.30762 6.13662
#
# Compressibility (1/GPa) = 0.02568180
#
# Stress axis : x y z
#
# Youngs Moduli (GPa) = 37.60797 28.49728 49.62083
#
# Poissons Ratio (x) = 0.24758 0.22663
# Poissons Ratio (y) = 0.32674 0.73543
# Poissons Ratio (z) = 0.17176 0.42236
#
# Static dielectric constant tensor:
#      x y z
#    x 3.382390 0.000000 0.000000 
#    y 0.000000 3.172420 0.000000 
#    z 0.000000 0.000000 3.408540 
# 
# 
# High freq. dielectric constant tensor:
#      x y z
#    x 1.642310 0.000000 0.000000 
#    y 0.000000 1.641650 0.000000 
#    z 0.000000 0.000000 1.653310 
# 
# From -- ./inp_files/32307.got.cif
#   From: 2010.03.12/outbox.cif.g09.slc.cpg/sg59_17_cif.got.tgz:32307.got - 2010.04.16 16:29:54.
