data_PCOD8240922
_publ_section_title
;
Structure prediction by ZEFSAII (Michael W. Deem and Ramdas Pophale) SiO2 
 PCOD8240922
Probable space group: P M M N
;
_chemical_formula_sum "Si O2"
_cell_formula_units_Z 64
_cell_length_a 9.042350
_cell_length_b 17.616622
_cell_length_c 23.077829
_cell_angle_alpha 90.000000
_cell_angle_beta 90.000000
_cell_angle_gamma 90.000000
_cell_volume 3676.198047
_symmetry_space_group_name_H-M "P M M N"
_symmetry_group_IT_number 59
_space_group.IT_coordinate_system_code '2'
_symmetry_cell_setting 'orthorhombic'
loop_
_space_group_symop_operation_xyz
x,y,z
1/2-x,1/2-y,z
1/2+x,-y,-z
-x,1/2+y,-z
-x,-y,-z
1/2+x,1/2+y,-z
1/2-x,y,z
x,1/2-y,z
loop_
_atom_site_type_symbol
_atom_site_label
_atom_site_fract_x
_atom_site_fract_y
_atom_site_fract_z
Si Si1 0.077140 0.834056 0.562449
Si Si2 0.074819 0.948653 0.132081
Si Si3 0.076794 0.519295 0.631274
Si Si4 0.079579 0.335644 0.184235
Si Si5 0.422933 0.402935 0.066172
Si Si6 0.422567 0.527093 0.764937
Si Si7 0.576578 0.661674 0.052658
Si Si8 0.922684 0.437403 0.538334
O O1 0.250000 0.827524 0.574318
O O2 0.005128 0.750000 0.573271
O O3 0.015060 0.899554 0.606118
O O4 0.048840 0.857457 0.494818
O O5 0.250000 0.942940 0.137694
O O6 0.007471 0.870344 0.108898
O O7 0.024392 0.013847 0.086503
O O8 0.009754 0.967075 0.195339
O O9 0.250000 0.514121 0.617760
O O10 0.041019 0.510198 0.698547
O O11 0.997144 0.446284 0.601580
O O12 0.250000 0.361923 0.191770
O O13 0.055712 0.250000 0.204842
O O14 0.034419 0.343478 0.116705
O O15 0.975538 0.387317 0.223436
O O16 0.250000 0.401661 0.055808
O O17 0.493659 0.377578 0.005087
O O18 0.250000 0.520598 0.778736
O O19 0.750000 0.645483 0.059693
O O20 0.542534 0.750000 0.048553
O O21 0.750000 0.454245 0.543903
O O22 0.000000 0.500000 0.500000
#
# Coordination Sequence:
#
# PCOD8240922 Si02
#       8
#     8   8   8   8   8   8   8   8
#     4   8  14  26  45  70  98 124 149 179 220 269
#     4  10  20  34  51  70  95 127 162 200 244 293
#     4   9  18  31  48  69  92 123 161 199 234 271
#     4   9  17  30  47  68  98 132 161 192 235 289
#     4   8  15  29  49  71  94 124 159 192 234 292
#     4  10  20  33  49  69  93 124 167 210 242 279
#     4  10  19  31  50  74  97 122 154 195 246 300
#     4   9  16  27  46  69  94 125 157 189 224 266
#
# _framework density 17.409289999999999
#
# number of rings (size 3 to 8) (size 9 to 14) (size 15 to 20)
#    0.000    2.875    0.000    3.375    0.000    3.500 
#    0.000    3.750    0.000   13.125    0.000    3.500 
#    0.000    0.000    0.000    0.000    0.000    0.000 
#
# Total GULP energy -793122.129645 kJ/mol
# GULP energy per Si atom -12392.533276 kJ/mol
# Density = 1.736967 g / cm^3
# Si number density = 17.409290 Si / 1000 Ang^3
#
#
#
# Elastic Constant Matrix: (Units=GPa)
#
#
# Indices 1 2 3 4 5 6 
#
# 1 49.1997 37.9715 52.3489 0.0000 0.0000 0.0000
# 2 37.9715 42.6824 40.3148 0.0000 0.0000 0.0000
# 3 52.3489 40.3148 114.5293 0.0000 0.0000 0.0000
# 4 0.0000 0.0000 0.0000 7.7120 0.0000 0.0000
# 5 0.0000 0.0000 0.0000 0.0000 25.2732 0.0000
# 6 0.0000 0.0000 0.0000 0.0000 0.0000 22.9531
#
#
#
# Elastic Compliance Matrix: (Units=1/GPa)
#
#
# Indices 1 2 3 4 5 6 
#
# 1 0.084281 -0.057815 -0.018172 0.000000 0.000000 0.000000
# 2 -0.057815 0.074758 0.000111 0.000000 0.000000 0.000000
# 3 -0.018172 0.000111 0.016998 0.000000 0.000000 0.000000
# 4 0.000000 0.000000 0.000000 0.129668 0.000000 0.000000
# 5 0.000000 0.000000 0.000000 0.000000 0.039568 0.000000
# 6 0.000000 0.000000 0.000000 0.000000 0.000000 0.043567
#
#
# Mechanical properties :
#
#
# Convention : Reuss Voigt Hill
#
# Bulk Modulus (GPa) = 41.17707 51.96463 46.57085
# Shear Modulus (GPa) = 9.11267 16.23940 12.67603
#
# Velocity S-wave (km/s) = 2.29036 3.05749 2.70130
# Velocity P-wave (km/s) = 5.54058 6.50983 6.04467
#
# Compressibility (1/GPa) = 0.02428536
#
# Stress axis : x y z
#
# Youngs Moduli (GPa) = 11.86510 13.37651 58.82903
#
# Poissons Ratio (x) = 0.77336 1.06904
# Poissons Ratio (y) = 0.68598 -0.00652
# Poissons Ratio (z) = 0.21561 -0.00148
#
# Static dielectric constant tensor:
#      x y z
#    x 3.128510 0.000000 0.000000 
#    y 0.000000 2.983650 0.000000 
#    z 0.000000 0.000000 3.362980 
# 
# 
# High freq. dielectric constant tensor:
#      x y z
#    x 1.654040 0.000000 0.000000 
#    y 0.000000 1.655060 0.000000 
#    z 0.000000 0.000000 1.667750 
# 
# From -- ./inp_files/31776.got.cif
#   From: 2010.03.12/outbox.cif.g09.slc.cpg/sg59_16_cif.got.tgz:31776.got - 2010.04.16 16:29:54.
