data_PCOD8240548
_publ_section_title
;
Structure prediction by ZEFSAII (Michael W. Deem and Ramdas Pophale) SiO2 
 PCOD8240548
Probable space group: P M M N
;
_chemical_formula_sum "Si O2"
_cell_formula_units_Z 64
_cell_length_a 9.491449
_cell_length_b 15.851302
_cell_length_c 23.284194
_cell_angle_alpha 90.000000
_cell_angle_beta 90.000000
_cell_angle_gamma 90.000000
_cell_volume 3503.149470
_symmetry_space_group_name_H-M "P M M N"
_symmetry_group_IT_number 59
_space_group.IT_coordinate_system_code '2'
_symmetry_cell_setting 'orthorhombic'
loop_
_space_group_symop_operation_xyz
x,y,z
1/2-x,1/2-y,z
1/2+x,-y,-z
-x,1/2+y,-z
-x,-y,-z
1/2+x,1/2+y,-z
1/2-x,y,z
x,1/2-y,z
loop_
_atom_site_type_symbol
_atom_site_label
_atom_site_fract_x
_atom_site_fract_y
_atom_site_fract_z
Si Si1 0.092371 0.424269 0.860685
Si Si2 0.410636 0.345819 0.973606
Si Si3 0.086084 0.654478 0.448908
Si Si4 0.089975 0.901234 0.926097
Si Si5 0.414629 0.345334 0.435845
Si Si6 0.584672 0.492356 0.763057
Si Si7 0.416757 0.506501 0.365243
Si Si8 0.090843 0.158077 0.172353
O O1 0.250000 0.412181 0.836349
O O2 0.049729 0.350980 0.905625
O O3 0.081016 0.506636 0.899835
O O4 0.989170 0.426133 0.806009
O O5 0.250000 0.378664 0.981690
O O6 0.425887 0.250000 0.993729
O O7 0.514951 0.401812 0.011996
O O8 0.250000 0.639573 0.463057
O O9 0.061479 0.750000 0.425636
O O10 0.031238 0.586448 0.402502
O O11 0.998766 0.638559 0.506094
O O12 0.250000 0.869853 0.933226
O O13 0.008565 0.839185 0.883055
O O14 0.250000 0.357179 0.449536
O O15 0.443904 0.250000 0.412293
O O16 0.467549 0.416258 0.390813
O O17 0.750000 0.474038 0.765477
O O18 0.522769 0.481668 0.698972
O O19 0.545832 0.587711 0.781611
O O20 0.250000 0.505446 0.361666
O O21 0.250000 0.139855 0.151051
O O22 0.080656 0.250000 0.202496
#
# Coordination Sequence:
#
# PCOD8240548 Si02
#       8
#     8   8   8   8   8   8   8   8
#     4   9  19  35  50  65  89 120 150 182 225 271
#     4  10  20  33  49  68  90 116 146 182 225 273
#     4   9  17  30  48  69  95 127 159 190 228 275
#     4  10  19  30  47  70  93 116 144 181 225 273
#     4   9  17  29  47  72 100 126 152 187 231 275
#     4   9  18  32  49  67  88 118 157 193 222 262
#     4   9  17  30  48  70  95 123 156 194 233 270
#     4   9  17  29  45  65  90 120 151 183 222 270
#
# _framework density 18.269275
#
# number of rings (size 3 to 8) (size 9 to 14) (size 15 to 20)
#    0.000    2.750    0.000    1.500    0.000    3.500 
#    0.000    4.375    0.000    0.750    0.000    1.750 
#    0.000    0.000    0.000    0.000    0.000    0.000 
#
# Total GULP energy -793318.295544 kJ/mol
# GULP energy per Si atom -12395.598368 kJ/mol
# Density = 1.822769 g / cm^3
# Si number density = 18.269275 Si / 1000 Ang^3
#
#
#
# Elastic Constant Matrix: (Units=GPa)
#
#
# Indices 1 2 3 4 5 6 
#
# 1 62.8176 21.6549 50.7164 0.0000 0.0000 0.0000
# 2 21.6549 63.4471 41.9401 0.0000 0.0000 0.0000
# 3 50.7164 41.9401 131.1330 0.0000 0.0000 0.0000
# 4 0.0000 0.0000 0.0000 19.5285 0.0000 0.0000
# 5 0.0000 0.0000 0.0000 0.0000 25.9232 0.0000
# 6 0.0000 0.0000 0.0000 0.0000 0.0000 16.2099
#
#
#
# Elastic Compliance Matrix: (Units=1/GPa)
#
#
# Indices 1 2 3 4 5 6 
#
# 1 0.023467 -0.002549 -0.008261 0.000000 0.000000 0.000000
# 2 -0.002549 0.020263 -0.005495 0.000000 0.000000 0.000000
# 3 -0.008261 -0.005495 0.012578 0.000000 0.000000 0.000000
# 4 0.000000 0.000000 0.000000 0.051207 0.000000 0.000000
# 5 0.000000 0.000000 0.000000 0.000000 0.038575 0.000000
# 6 0.000000 0.000000 0.000000 0.000000 0.000000 0.061691
#
#
# Mechanical properties :
#
#
# Convention : Reuss Voigt Hill
#
# Bulk Modulus (GPa) = 42.19520 54.00228 48.09874
# Shear Modulus (GPa) = 20.13758 21.87140 21.00449
#
# Velocity S-wave (km/s) = 3.32364 3.46377 3.39443
# Velocity P-wave (km/s) = 6.15428 6.75427 6.46124
#
# Compressibility (1/GPa) = 0.02369938
#
# Stress axis : x y z
#
# Youngs Moduli (GPa) = 42.61249 49.34991 79.50220
#
# Poissons Ratio (x) = 0.12579 0.65676
# Poissons Ratio (y) = 0.10861 0.43687
# Poissons Ratio (z) = 0.35202 0.27118
#
# Static dielectric constant tensor:
#      x y z
#    x 3.302800 0.000000 0.000000 
#    y 0.000000 3.478380 0.000000 
#    z 0.000000 0.000000 3.395090 
# 
# 
# High freq. dielectric constant tensor:
#      x y z
#    x 1.690700 0.000000 0.000000 
#    y 0.000000 1.707370 0.000000 
#    z 0.000000 0.000000 1.694690 
# 
# From -- ./inp_files/29577.got.cif
#   From: 2010.03.12/outbox.cif.g09.slc.cpg/sg59_15_cif.got.tgz:29577.got - 2010.04.16 16:29:54.
