data_PCOD8240419
_publ_section_title
;
Structure prediction by ZEFSAII (Michael W. Deem and Ramdas Pophale) SiO2 
 PCOD8240419
Probable space group: P M M N
;
_chemical_formula_sum "Si O2"
_cell_formula_units_Z 64
_cell_length_a 30.516084
_cell_length_b 9.003275
_cell_length_c 15.323726
_cell_angle_alpha 90.000000
_cell_angle_beta 90.000000
_cell_angle_gamma 90.000000
_cell_volume 4210.112444
_symmetry_space_group_name_H-M "P M M N"
_symmetry_group_IT_number 59
_space_group.IT_coordinate_system_code '2'
_symmetry_cell_setting 'orthorhombic'
loop_
_space_group_symop_operation_xyz
x,y,z
1/2-x,1/2-y,z
1/2+x,-y,-z
-x,1/2+y,-z
-x,-y,-z
1/2+x,1/2+y,-z
1/2-x,y,z
x,1/2-y,z
loop_
_atom_site_type_symbol
_atom_site_label
_atom_site_fract_x
_atom_site_fract_y
_atom_site_fract_z
Si Si1 0.947919 0.419678 0.906238
Si Si2 0.362252 0.074373 0.093368
Si Si3 0.197805 0.082499 0.401847
Si Si4 0.458347 0.079630 0.916449
Si Si5 0.197898 0.917065 0.572121
Si Si6 0.863569 0.578963 0.105196
Si Si7 0.800354 0.925460 0.252194
Si Si8 0.301677 0.578981 0.227932
O O1 0.932487 0.250000 0.897541
O O2 0.909282 0.521760 0.866797
O O3 0.996328 0.443520 0.861116
O O4 0.956465 0.459880 0.006730
O O5 0.359167 0.250000 0.101158
O O6 0.322727 0.001892 0.145552
O O7 0.358541 0.016101 0.993324
O O8 0.250000 0.081920 0.404425
O O9 0.179625 0.250000 0.398630
O O10 0.178784 0.002369 0.487867
O O11 0.180904 0.995485 0.316808
O O12 0.457481 0.250000 0.953851
O O13 0.413747 0.055806 0.860285
O O14 0.250000 0.916471 0.567345
O O15 0.179332 0.750000 0.572244
O O16 0.182335 0.999966 0.659264
O O17 0.850730 0.750000 0.100626
O O18 0.829539 0.505987 0.173303
O O19 0.750000 0.967241 0.232737
O O20 0.806393 0.750000 0.263386
O O21 0.250000 0.559446 0.218357
O O22 0.315711 0.750000 0.229600
#
# Coordination Sequence:
#
# PCOD8240419 Si02
#       8
#     8   8   8   8   8   8   8   8
#     4   9  15  24  40  59  78 101 132 172 217 258
#     4  10  19  30  43  59  82 112 145 177 208 246
#     4   9  16  27  44  63  80 101 132 168 206 247
#     4   8  14  25  40  57  77 103 135 172 215 258
#     4   9  16  26  40  58  80 104 130 165 209 249
#     4   8  15  27  41  57  79 109 145 180 208 238
#     4   9  16  26  40  57  78 107 142 175 204 237
#     4  10  20  32  44  60  84 112 141 173 207 242
#
# _framework density 15.201492999999999
#
# number of rings (size 3 to 8) (size 9 to 14) (size 15 to 20)
#    0.000    3.000    0.000    2.625    0.000    4.750 
#    0.000    4.375    0.000    1.500    0.000    0.000 
#    0.000    1.000    0.000    2.750    0.000    4.250 
#
# Total GULP energy -792996.562807 kJ/mol
# GULP energy per Si atom -12390.571294 kJ/mol
# Density = 1.516689 g / cm^3
# Si number density = 15.201493 Si / 1000 Ang^3
#
#
#
# Elastic Constant Matrix: (Units=GPa)
#
#
# Indices 1 2 3 4 5 6 
#
# 1 55.3400 32.9424 41.1770 0.0000 0.0000 0.0000
# 2 32.9424 83.2153 41.5172 0.0000 0.0000 0.0000
# 3 41.1770 41.5172 89.7317 0.0000 0.0000 0.0000
# 4 0.0000 0.0000 0.0000 18.0375 0.0000 0.0000
# 5 0.0000 0.0000 0.0000 0.0000 1.9730 0.0000
# 6 0.0000 0.0000 0.0000 0.0000 0.0000 18.4922
#
#
#
# Elastic Compliance Matrix: (Units=1/GPa)
#
#
# Indices 1 2 3 4 5 6 
#
# 1 0.029914 -0.006492 -0.010723 0.000000 0.000000 0.000000
# 2 -0.006492 0.017032 -0.004902 0.000000 0.000000 0.000000
# 3 -0.010723 -0.004902 0.018333 0.000000 0.000000 0.000000
# 4 0.000000 0.000000 0.000000 0.055440 0.000000 0.000000
# 5 0.000000 0.000000 0.000000 0.000000 0.506848 0.000000
# 6 0.000000 0.000000 0.000000 0.000000 0.000000 0.054077
#
#
# Mechanical properties :
#
#
# Convention : Reuss Voigt Hill
#
# Bulk Modulus (GPa) = 47.51616 51.06223 49.28919
# Shear Modulus (GPa) = 6.82229 15.21057 11.01643
#
# Velocity S-wave (km/s) = 2.12077 3.16665 2.69493
# Velocity P-wave (km/s) = 6.10920 6.85809 6.49445
#
# Compressibility (1/GPa) = 0.02104547
#
# Stress axis : x y z
#
# Youngs Moduli (GPa) = 33.42971 58.71178 54.54633
#
# Poissons Ratio (x) = 0.38115 0.58492
# Poissons Ratio (y) = 0.21702 0.26736
# Poissons Ratio (z) = 0.35848 0.28778
#
# Static dielectric constant tensor:
#      x y z
#    x 2.995720 0.000000 0.000000 
#    y 0.000000 2.975160 0.000000 
#    z 0.000000 0.000000 2.826590 
# 
# 
# High freq. dielectric constant tensor:
#      x y z
#    x 1.559660 0.000000 0.000000 
#    y 0.000000 1.587710 0.000000 
#    z 0.000000 0.000000 1.549370 
# 
# From -- ./inp_files/25067.got.cif
#   From: 2010.03.12/outbox.cif.g09.slc.cpg/sg59_13_cif.got.tgz:25067.got - 2010.04.16 16:29:54.
