data_PCOD8240699
_publ_section_title
;
Structure prediction by ZEFSAII (Michael W. Deem and Ramdas Pophale) SiO2 
 PCOD8240699
Probable space group: P M M N
;
_chemical_formula_sum "Si O2"
_cell_formula_units_Z 64
_cell_length_a 24.420664
_cell_length_b 9.187347
_cell_length_c 18.482852
_cell_angle_alpha 90.000000
_cell_angle_beta 90.000000
_cell_angle_gamma 90.000000
_cell_volume 4146.833267
_symmetry_space_group_name_H-M "P M M N"
_symmetry_group_IT_number 59
_space_group.IT_coordinate_system_code '2'
_symmetry_cell_setting 'orthorhombic'
loop_
_space_group_symop_operation_xyz
x,y,z
1/2-x,1/2-y,z
1/2+x,-y,-z
-x,1/2+y,-z
-x,-y,-z
1/2+x,1/2+y,-z
1/2-x,y,z
x,1/2-y,z
loop_
_atom_site_type_symbol
_atom_site_label
_atom_site_fract_x
_atom_site_fract_y
_atom_site_fract_z
Si Si1 0.992749 0.084402 0.727401
Si Si2 0.078268 0.586095 0.533933
Si Si3 0.489489 0.580273 0.106663
Si Si4 0.956617 0.914158 0.596914
Si Si5 0.686840 0.585597 0.207274
Si Si6 0.387291 0.415787 0.664287
Si Si7 0.187026 0.578755 0.938108
Si Si8 0.086689 0.079642 0.998668
O O1 0.972385 0.250000 0.720511
O O2 0.990151 0.031073 0.810028
O O3 0.054299 0.068312 0.701267
O O4 0.954052 0.986290 0.676463
O O5 0.098082 0.750000 0.520678
O O6 0.082478 0.501849 0.457834
O O7 0.118276 0.511112 0.591963
O O8 0.017348 0.581517 0.565149
O O9 0.474906 0.750000 0.097465
O O10 0.443062 0.484589 0.068855
O O11 0.549113 0.548637 0.071858
O O12 0.934863 0.750000 0.603334
O O13 0.750000 0.586578 0.226797
O O14 0.666583 0.750000 0.187459
O O15 0.656429 0.525879 0.277993
O O16 0.673666 0.478536 0.141792
O O17 0.375397 0.250000 0.642075
O O18 0.250000 0.541750 0.959542
O O19 0.176234 0.750000 0.940484
O O20 0.145568 0.498579 0.992345
O O21 0.096709 0.250000 0.010307
#
# Coordination Sequence:
#
# PCOD8240699 Si02
#       8
#     8   8   8   8   8   8   8   8
#     4   9  16  26  40  57  80 110 140 169 204 247
#     4   9  16  25  37  54  76 104 136 165 197 236
#     4   9  18  31  45  63  88 117 146 177 216 260
#     4   9  16  25  37  54  77 103 132 167 201 233
#     4   9  17  29  44  61  82 109 141 176 212 249
#     4   9  16  26  40  58  81 109 140 172 205 242
#     4  10  20  32  46  64  86 113 145 182 222 260
#     4  10  19  31  47  65  86 114 147 181 217 258
#
# _framework density 15.433465
#
# number of rings (size 3 to 8) (size 9 to 14) (size 15 to 20)
#    0.000    2.750    0.000    2.250    0.000    7.250 
#    0.000    2.500    0.000    0.000    0.000    0.000 
#    0.000    1.000    0.000    6.500    0.000    3.875 
#
# Total GULP energy -793530.146485 kJ/mol
# GULP energy per Si atom -12398.908539 kJ/mol
# Density = 1.539834 g / cm^3
# Si number density = 15.433465 Si / 1000 Ang^3
#
#
#
# Elastic Constant Matrix: (Units=GPa)
#
#
# Indices 1 2 3 4 5 6 
#
# 1 40.0931 27.8921 12.8955 0.0000 0.0000 0.0000
# 2 27.8921 93.2393 43.8582 0.0000 0.0000 0.0000
# 3 12.8955 43.8582 84.6458 0.0000 0.0000 0.0000
# 4 0.0000 0.0000 0.0000 29.9438 0.0000 0.0000
# 5 0.0000 0.0000 0.0000 0.0000 20.7392 0.0000
# 6 0.0000 0.0000 0.0000 0.0000 0.0000 18.9089
#
#
#
# Elastic Compliance Matrix: (Units=1/GPa)
#
#
# Indices 1 2 3 4 5 6 
#
# 1 0.031497 -0.009474 0.000110 0.000000 0.000000 0.000000
# 2 -0.009474 0.017031 -0.007381 0.000000 0.000000 0.000000
# 3 0.000110 -0.007381 0.015622 0.000000 0.000000 0.000000
# 4 0.000000 0.000000 0.000000 0.033396 0.000000 0.000000
# 5 0.000000 0.000000 0.000000 0.000000 0.048218 0.000000
# 6 0.000000 0.000000 0.000000 0.000000 0.000000 0.052885
#
#
# Mechanical properties :
#
#
# Convention : Reuss Voigt Hill
#
# Bulk Modulus (GPa) = 32.61545 43.02998 37.82271
# Shear Modulus (GPa) = 20.63051 22.80720 21.71885
#
# Velocity S-wave (km/s) = 3.66011 3.84836 3.75541
# Velocity P-wave (km/s) = 6.24826 6.90565 6.58516
#
# Compressibility (1/GPa) = 0.03066032
#
# Stress axis : x y z
#
# Youngs Moduli (GPa) = 31.74857 58.71558 64.01404
#
# Poissons Ratio (x) = 0.55629 -0.00707
# Poissons Ratio (y) = 0.30079 0.47250
# Poissons Ratio (z) = -0.00351 0.43339
#
# Static dielectric constant tensor:
#      x y z
#    x 2.694040 0.000000 0.000000 
#    y 0.000000 3.089510 0.000000 
#    z 0.000000 0.000000 2.971800 
# 
# 
# High freq. dielectric constant tensor:
#      x y z
#    x 1.547780 0.000000 0.000000 
#    y 0.000000 1.601560 0.000000 
#    z 0.000000 0.000000 1.585130 
# 
# From -- ./inp_files/26552.got.cif
#   From: 2010.03.12/outbox.cif.g09.slc.cpg/sg59_14_cif.got.tgz:26552.got - 2010.04.16 16:29:54.
