data_PCOD8240113
_publ_section_title
;
Structure prediction by ZEFSAII (Michael W. Deem and Ramdas Pophale) SiO2 
 PCOD8240113
Probable space group: P M M N
;
_chemical_formula_sum "Si O2"
_cell_formula_units_Z 64
_cell_length_a 11.012102
_cell_length_b 26.889465
_cell_length_c 11.563891
_cell_angle_alpha 90.000000
_cell_angle_beta 90.000000
_cell_angle_gamma 90.000000
_cell_volume 3424.178344
_symmetry_space_group_name_H-M "P M M N"
_symmetry_group_IT_number 59
_space_group.IT_coordinate_system_code '2'
_symmetry_cell_setting 'orthorhombic'
loop_
_space_group_symop_operation_xyz
x,y,z
1/2-x,1/2-y,z
1/2+x,-y,-z
-x,1/2+y,-z
-x,-y,-z
1/2+x,1/2+y,-z
1/2-x,y,z
x,1/2-y,z
loop_
_atom_site_type_symbol
_atom_site_label
_atom_site_fract_x
_atom_site_fract_y
_atom_site_fract_z
Si Si1 0.517442 0.864019 0.642496
Si Si2 0.889132 0.192152 0.163996
Si Si3 0.109290 0.123154 0.759596
Si Si4 0.108168 0.351991 0.017752
Si Si5 0.381101 0.550788 0.522138
Si Si6 0.382866 0.064205 0.180831
Si Si7 0.892306 0.804868 0.436084
Si Si8 0.011293 0.019461 0.693896
O O1 0.410211 0.839514 0.718930
O O2 0.473944 0.906051 0.553657
O O3 0.613119 0.890510 0.726946
O O4 0.582245 0.822110 0.566717
O O5 0.750000 0.179772 0.119317
O O6 0.897501 0.250000 0.194570
O O7 0.999531 0.180837 0.073923
O O8 0.250000 0.115079 0.735350
O O9 0.085915 0.150174 0.881079
O O10 0.050893 0.157934 0.659726
O O11 0.050443 0.068881 0.759209
O O12 0.250000 0.334852 0.046128
O O13 0.090997 0.409538 0.057647
O O14 0.250000 0.575249 0.528799
O O15 0.385587 0.504590 0.612133
O O16 0.399872 0.530675 0.392364
O O17 0.250000 0.040004 0.182866
O O18 0.477486 0.020489 0.206976
O O19 0.750000 0.802001 0.415719
O O20 0.949631 0.750000 0.419129
#
# Coordination Sequence:
#
# PCOD8240113 Si02
#       8
#     8   8   8   8   8   8   8   8
#     4  10  18  33  53  77 107 142 177 218 272 334
#     4  10  21  37  58  83 112 145 182 231 289 340
#     4  10  20  36  55  78 109 143 184 230 279 328
#     4   9  20  38  59  81 108 146 191 238 281 327
#     4  10  19  30  47  74 106 140 178 212 254 324
#     4   9  18  32  51  77 108 138 179 231 277 321
#     4  10  20  33  52  79 108 139 178 228 281 329
#     4  10  19  31  49  76 105 144 176 217 270 327
#
# _framework density 18.690615000000001
#
# number of rings (size 3 to 8) (size 9 to 14) (size 15 to 20)
#    0.000    2.250    1.250    1.875    0.000    1.750 
#    0.000    3.125    0.000    0.000    0.000    0.000 
#    0.000    0.000    0.000    0.000    0.000    0.000 
#
# Total GULP energy -793046.677510 kJ/mol
# GULP energy per Si atom -12391.354336 kJ/mol
# Density = 1.864807 g / cm^3
# Si number density = 18.690615 Si / 1000 Ang^3
#
#
#
# Elastic Constant Matrix: (Units=GPa)
#
#
# Indices 1 2 3 4 5 6 
#
# 1 66.6431 22.0561 17.7560 0.0000 0.0000 0.0000
# 2 22.0561 99.2439 25.1086 0.0000 0.0000 0.0000
# 3 17.7560 25.1086 69.9213 0.0000 0.0000 0.0000
# 4 0.0000 0.0000 0.0000 18.9929 0.0000 0.0000
# 5 0.0000 0.0000 0.0000 0.0000 9.1469 0.0000
# 6 0.0000 0.0000 0.0000 0.0000 0.0000 21.7475
#
#
#
# Elastic Compliance Matrix: (Units=1/GPa)
#
#
# Indices 1 2 3 4 5 6 
#
# 1 0.016832 -0.002925 -0.003224 0.000000 0.000000 0.000000
# 2 -0.002925 0.011591 -0.003420 0.000000 0.000000 0.000000
# 3 -0.003224 -0.003420 0.016348 0.000000 0.000000 0.000000
# 4 0.000000 0.000000 0.000000 0.052651 0.000000 0.000000
# 5 0.000000 0.000000 0.000000 0.000000 0.109327 0.000000
# 6 0.000000 0.000000 0.000000 0.000000 0.000000 0.045982
#
#
# Mechanical properties :
#
#
# Convention : Reuss Voigt Hill
#
# Bulk Modulus (GPa) = 39.00972 40.62775 39.81874
# Shear Modulus (GPa) = 17.83070 21.36997 19.60033
#
# Velocity S-wave (km/s) = 3.09203 3.38502 3.24183
# Velocity P-wave (km/s) = 5.80208 6.08785 5.94668
#
# Compressibility (1/GPa) = 0.02563464
#
# Stress axis : x y z
#
# Youngs Moduli (GPa) = 59.40918 86.27054 61.16772
#
# Poissons Ratio (x) = 0.25236 0.19721
# Poissons Ratio (y) = 0.17378 0.20917
# Poissons Ratio (z) = 0.19154 0.29501
#
# Static dielectric constant tensor:
#      x y z
#    x 3.276120 0.000000 0.000000 
#    y 0.000000 3.452360 0.000000 
#    z 0.000000 0.000000 3.361530 
# 
# 
# High freq. dielectric constant tensor:
#      x y z
#    x 1.706600 0.000000 0.000000 
#    y 0.000000 1.725480 0.000000 
#    z 0.000000 0.000000 1.719060 
# 
# From -- ./inp_files/16229.got.cif
#   From: 2010.03.12/outbox.cif.g09.slc.cpg/sg59_9_cif.got.tgz:16229.got - 2010.04.16 16:29:54.
