data_PCOD8240335
_publ_section_title
;
Structure prediction by ZEFSAII (Michael W. Deem and Ramdas Pophale) SiO2 
 PCOD8240335
Probable space group: P M M N
;
_chemical_formula_sum "Si O2"
_cell_formula_units_Z 64
_cell_length_a 9.086744
_cell_length_b 19.125429
_cell_length_c 21.244885
_cell_angle_alpha 90.000000
_cell_angle_beta 90.000000
_cell_angle_gamma 90.000000
_cell_volume 3692.103466
_symmetry_space_group_name_H-M "P M M N"
_symmetry_group_IT_number 59
_space_group.IT_coordinate_system_code '2'
_symmetry_cell_setting 'orthorhombic'
loop_
_space_group_symop_operation_xyz
x,y,z
1/2-x,1/2-y,z
1/2+x,-y,-z
-x,1/2+y,-z
-x,-y,-z
1/2+x,1/2+y,-z
1/2-x,y,z
x,1/2-y,z
loop_
_atom_site_type_symbol
_atom_site_label
_atom_site_fract_x
_atom_site_fract_y
_atom_site_fract_z
Si Si1 0.921536 0.098154 0.348853
Si Si2 0.424848 0.327280 0.601931
Si Si3 0.422591 0.056522 0.697348
Si Si4 0.084458 0.981538 0.183573
Si Si5 0.575584 0.473167 0.062486
Si Si6 0.578908 0.830849 0.539771
Si Si7 0.413673 0.138127 0.231441
Si Si8 0.417654 0.825726 0.887133
O O1 0.750000 0.113981 0.347342
O O2 0.985108 0.118157 0.416454
O O3 0.996909 0.146753 0.296012
O O4 0.956244 0.017093 0.335905
O O5 0.250000 0.327357 0.602930
O O6 0.483353 0.250000 0.620616
O O7 0.486135 0.383694 0.651295
O O8 0.475558 0.346216 0.531282
O O9 0.250000 0.065023 0.710767
O O10 0.505848 0.066254 0.763893
O O11 0.250000 0.953992 0.169541
O O12 0.090285 0.058307 0.211268
O O13 0.988333 0.981289 0.120012
O O14 0.750000 0.484342 0.058745
O O15 0.531978 0.390807 0.069540
O O16 0.500000 0.500000 0.000000
O O17 0.750000 0.849263 0.547995
O O18 0.549950 0.750000 0.556954
O O19 0.250000 0.167644 0.242274
O O20 0.489501 0.181616 0.176352
O O21 0.250000 0.839811 0.866808
O O22 0.433695 0.750000 0.922423
#
# Coordination Sequence:
#
# PCOD8240335 Si02
#       8
#     8   8   8   8   8   8   8   8
#     4  10  19  29  43  66  95 124 153 189 236 284
#     4   8  15  30  51  70  88 116 155 197 242 291
#     4   9  17  30  49  72  95 119 151 193 238 283
#     4   9  17  30  48  71  97 122 151 187 227 272
#     4  10  19  32  52  76 102 132 163 194 230 274
#     4   9  18  32  47  62  84 118 159 198 235 282
#     4   9  17  29  45  65  90 121 155 189 225 269
#     4   9  18  32  49  70  97 128 160 194 233 275
#
# _framework density 17.334292000000001
#
# number of rings (size 3 to 8) (size 9 to 14) (size 15 to 20)
#    0.000    2.875    0.000    2.250    0.000    5.500 
#    0.000    0.625    0.000    1.875    0.000    0.000 
#    0.000    0.000    0.000    0.000    0.000    0.000 
#
# Total GULP energy -793342.316850 kJ/mol
# GULP energy per Si atom -12395.973701 kJ/mol
# Density = 1.729484 g / cm^3
# Si number density = 17.334292 Si / 1000 Ang^3
#
#
#
# Elastic Constant Matrix: (Units=GPa)
#
#
# Indices 1 2 3 4 5 6 
#
# 1 88.3390 41.2417 60.4637 0.0000 0.0000 0.0000
# 2 41.2417 77.3447 64.6813 0.0000 0.0000 0.0000
# 3 60.4637 64.6813 138.9154 0.0000 0.0000 0.0000
# 4 0.0000 0.0000 0.0000 19.8339 0.0000 0.0000
# 5 0.0000 0.0000 0.0000 0.0000 31.4191 0.0000
# 6 0.0000 0.0000 0.0000 0.0000 0.0000 14.0587
#
#
#
# Elastic Compliance Matrix: (Units=1/GPa)
#
#
# Indices 1 2 3 4 5 6 
#
# 1 0.017125 -0.004746 -0.005244 0.000000 0.000000 0.000000
# 2 -0.004746 0.022489 -0.008406 0.000000 0.000000 0.000000
# 3 -0.005244 -0.008406 0.013395 0.000000 0.000000 0.000000
# 4 0.000000 0.000000 0.000000 0.050419 0.000000 0.000000
# 5 0.000000 0.000000 0.000000 0.000000 0.031828 0.000000
# 6 0.000000 0.000000 0.000000 0.000000 0.000000 0.071130
#
#
# Mechanical properties :
#
#
# Convention : Reuss Voigt Hill
#
# Bulk Modulus (GPa) = 61.66015 70.81916 66.23965
# Shear Modulus (GPa) = 20.11401 22.27649 21.19525
#
# Velocity S-wave (km/s) = 3.41010 3.58873 3.50056
# Velocity P-wave (km/s) = 7.15216 7.62336 7.39152
#
# Compressibility (1/GPa) = 0.01621793
#
# Stress axis : x y z
#
# Youngs Moduli (GPa) = 58.39442 44.46583 74.65555
#
# Poissons Ratio (x) = 0.21104 0.39149
# Poissons Ratio (y) = 0.27714 0.62753
# Poissons Ratio (z) = 0.30621 0.37376
#
# Static dielectric constant tensor:
#      x y z
#    x 3.258280 0.000000 0.000000 
#    y 0.000000 3.211590 0.000000 
#    z 0.000000 0.000000 3.227310 
# 
# 
# High freq. dielectric constant tensor:
#      x y z
#    x 1.665570 0.000000 0.000000 
#    y 0.000000 1.649410 0.000000 
#    z 0.000000 0.000000 1.660390 
# 
# From -- ./inp_files/29789.got.cif
#   From: 2010.03.12/outbox.cif.g09.slc.cpg/sg59_15_cif.got.tgz:29789.got - 2010.04.16 16:29:54.
