data_PCOD8240417
_publ_section_title
;
Structure prediction by ZEFSAII (Michael W. Deem and Ramdas Pophale) SiO2 
 PCOD8240417
Probable space group: P M M N
;
_chemical_formula_sum "Si O2"
_cell_formula_units_Z 64
_cell_length_a 19.412550
_cell_length_b 14.916961
_cell_length_c 11.517186
_cell_angle_alpha 90.000000
_cell_angle_beta 90.000000
_cell_angle_gamma 90.000000
_cell_volume 3335.103547
_symmetry_space_group_name_H-M "P M M N"
_symmetry_group_IT_number 59
_space_group.IT_coordinate_system_code '2'
_symmetry_cell_setting 'orthorhombic'
loop_
_space_group_symop_operation_xyz
x,y,z
1/2-x,1/2-y,z
1/2+x,-y,-z
-x,1/2+y,-z
-x,-y,-z
1/2+x,1/2+y,-z
1/2-x,y,z
x,1/2-y,z
loop_
_atom_site_type_symbol
_atom_site_label
_atom_site_fract_x
_atom_site_fract_y
_atom_site_fract_z
Si Si1 0.517428 0.148481 0.793202
Si Si2 0.826681 0.852155 0.998854
Si Si3 0.569682 0.851157 0.816067
Si Si4 0.668863 0.503852 0.444080
Si Si5 0.880210 0.534492 0.191960
Si Si6 0.454521 0.584086 0.966173
Si Si7 0.928627 0.643836 0.557319
Si Si8 0.075651 0.853153 0.449332
O O1 0.488166 0.250000 0.785910
O O2 0.454258 0.079338 0.781135
O O3 0.571146 0.131949 0.689182
O O4 0.559980 0.136823 0.913873
O O5 0.750000 0.860178 0.950465
O O6 0.850554 0.750000 0.014364
O O7 0.832115 0.894868 0.125927
O O8 0.876150 0.899711 0.903411
O O9 0.593853 0.750000 0.796740
O O10 0.494996 0.853505 0.874714
O O11 0.569561 0.895282 0.688767
O O12 0.750000 0.506156 0.472931
O O13 0.657710 0.500289 0.306132
O O14 0.633125 0.594006 0.491477
O O15 0.635810 0.415267 0.500559
O O16 0.887492 0.449696 0.103677
O O17 0.500000 0.500000 0.000000
O O18 0.914909 0.750000 0.548469
O O19 0.002052 0.618824 0.502599
O O20 0.093234 0.750000 0.480448
#
# Coordination Sequence:
#
# PCOD8240417 Si02
#       8
#     8   8   8   8   8   8   8   8
#     4  10  19  34  60  89 114 144 190 249 302 345
#     4  10  20  33  50  73 109 155 192 226 277 351
#     4  10  19  33  52  77 112 149 188 231 281 342
#     4  12  26  40  60  87 123 165 201 248 302 361
#     4  11  21  35  55  83 115 151 189 234 293 358
#     4  10  19  29  53  86 110 141 178 237 293 337
#     4  10  22  38  61  90 121 159 202 249 300 356
#     4  10  22  41  65  88 113 156 208 257 299 344
#
# _framework density 19.189807999999999
#
# number of rings (size 3 to 8) (size 9 to 14) (size 15 to 20)
#    0.000    1.625    3.750    2.250    3.500    1.500 
#    0.000    1.875    0.000    0.750    0.000    0.000 
#    0.000    0.000    0.000    0.000    0.000    0.000 
#
# Total GULP energy -793357.464442 kJ/mol
# GULP energy per Si atom -12396.210382 kJ/mol
# Density = 1.914613 g / cm^3
# Si number density = 19.189808 Si / 1000 Ang^3
#
#
#
# Elastic Constant Matrix: (Units=GPa)
#
#
# Indices 1 2 3 4 5 6 
#
# 1 100.8872 39.7801 49.8104 0.0000 0.0000 0.0000
# 2 39.7801 64.3740 32.8128 0.0000 0.0000 0.0000
# 3 49.8104 32.8128 149.2718 0.0000 0.0000 0.0000
# 4 0.0000 0.0000 0.0000 31.9943 0.0000 0.0000
# 5 0.0000 0.0000 0.0000 0.0000 23.6288 0.0000
# 6 0.0000 0.0000 0.0000 0.0000 0.0000 23.8176
#
#
#
# Elastic Compliance Matrix: (Units=1/GPa)
#
#
# Indices 1 2 3 4 5 6 
#
# 1 0.014342 -0.007234 -0.003196 0.000000 0.000000 0.000000
# 2 -0.007234 0.021143 -0.002234 0.000000 0.000000 0.000000
# 3 -0.003196 -0.002234 0.008257 0.000000 0.000000 0.000000
# 4 0.000000 0.000000 0.000000 0.031256 0.000000 0.000000
# 5 0.000000 0.000000 0.000000 0.000000 0.042321 0.000000
# 6 0.000000 0.000000 0.000000 0.000000 0.000000 0.041986
#
#
# Mechanical properties :
#
#
# Convention : Reuss Voigt Hill
#
# Bulk Modulus (GPa) = 54.30325 62.14883 58.22604
# Shear Modulus (GPa) = 26.20966 28.69679 27.45322
#
# Velocity S-wave (km/s) = 3.69970 3.87126 3.78645
# Velocity P-wave (km/s) = 6.82713 7.24147 7.03735
#
# Compressibility (1/GPa) = 0.01841510
#
# Stress axis : x y z
#
# Youngs Moduli (GPa) = 69.72435 47.29696 121.11552
#
# Poissons Ratio (x) = 0.34214 0.38705
# Poissons Ratio (y) = 0.50438 0.27054
# Poissons Ratio (z) = 0.22282 0.10565
#
# Static dielectric constant tensor:
#      x y z
#    x 3.242120 0.000000 0.000000 
#    y 0.000000 3.564270 0.000000 
#    z 0.000000 0.000000 4.026370 
# 
# 
# High freq. dielectric constant tensor:
#      x y z
#    x 1.703970 0.000000 0.000000 
#    y 0.000000 1.741050 0.000000 
#    z 0.000000 0.000000 1.768760 
# 
# From -- ./inp_files/17253.got.cif
#   From: 2010.03.12/outbox.cif.g09.slc.cpg/sg59_9_cif.got.tgz:17253.got - 2010.04.16 16:29:54.
