data_PCOD8240478
_publ_section_title
;
Structure prediction by ZEFSAII (Michael W. Deem and Ramdas Pophale) SiO2 
 PCOD8240478
Probable space group: P M M N
;
_chemical_formula_sum "Si O2"
_cell_formula_units_Z 64
_cell_length_a 28.647921
_cell_length_b 8.893387
_cell_length_c 15.622496
_cell_angle_alpha 90.000000
_cell_angle_beta 90.000000
_cell_angle_gamma 90.000000
_cell_volume 3980.253416
_symmetry_space_group_name_H-M "P M M N"
_symmetry_group_IT_number 59
_space_group.IT_coordinate_system_code '2'
_symmetry_cell_setting 'orthorhombic'
loop_
_space_group_symop_operation_xyz
x,y,z
1/2-x,1/2-y,z
1/2+x,-y,-z
-x,1/2+y,-z
-x,-y,-z
1/2+x,1/2+y,-z
1/2-x,y,z
x,1/2-y,z
loop_
_atom_site_type_symbol
_atom_site_label
_atom_site_fract_x
_atom_site_fract_y
_atom_site_fract_z
Si Si1 0.800503 0.571851 0.585631
Si Si2 0.042660 0.573068 0.809985
Si Si3 0.395073 0.071484 0.334938
Si Si4 0.941603 0.072924 0.820584
Si Si5 0.949817 0.428615 0.511529
Si Si6 0.606806 0.072950 0.344295
Si Si7 0.548657 0.077500 0.004772
Si Si8 0.302248 0.073360 0.607219
O O1 0.750000 0.513622 0.620261
O O2 0.799693 0.750000 0.581081
O O3 0.842138 0.516591 0.646548
O O4 0.808346 0.511410 0.489456
O O5 0.031447 0.750000 0.798550
O O6 0.075869 0.513082 0.734753
O O7 0.070127 0.542095 0.900981
O O8 0.994405 0.482588 0.805644
O O9 0.400724 0.250000 0.343432
O O10 0.406652 0.017610 0.239944
O O11 0.429598 0.992038 0.400716
O O12 0.939137 0.250000 0.800433
O O13 0.923154 0.034390 0.917933
O O14 0.954268 0.250000 0.516555
O O15 0.917157 0.479467 0.432663
O O16 0.000000 0.500000 0.500000
O O17 0.611368 0.250000 0.339612
O O18 0.658622 0.005174 0.334664
O O19 0.536517 0.250000 0.997884
O O20 0.500000 0.000000 0.000000
O O21 0.250000 0.033509 0.640594
O O22 0.310700 0.250000 0.610992
#
# Coordination Sequence:
#
# PCOD8240478 Si02
#       8
#     8   8   8   8   8   8   8   8
#     4   8  15  29  48  67  85 110 149 192 229 269
#     4   9  17  31  48  67  92 123 157 189 224 272
#     4  11  20  31  48  67  89 122 157 190 227 269
#     4  10  19  30  45  68  95 122 153 191 231 272
#     4  11  22  33  44  63  94 128 158 186 220 264
#     4  10  20  31  45  67  93 119 150 188 228 266
#     4   8  15  28  46  65  88 118 151 189 230 268
#     4   9  17  31  50  68  87 115 151 189 228 271
#
# _framework density 16.079377999999998
#
# number of rings (size 3 to 8) (size 9 to 14) (size 15 to 20)
#    0.000    2.500    1.250    2.625    0.000    2.750 
#    0.000    0.000    0.000    1.500    0.000    0.875 
#    0.000    5.000    0.000    0.000    0.000    0.000 
#
# Total GULP energy -793007.587349 kJ/mol
# GULP energy per Si atom -12390.743552 kJ/mol
# Density = 1.604278 g / cm^3
# Si number density = 16.079378 Si / 1000 Ang^3
#
#
#
# Elastic Constant Matrix: (Units=GPa)
#
#
# Indices 1 2 3 4 5 6 
#
# 1 93.1660 22.8053 28.6011 0.0000 0.0000 0.0000
# 2 22.8053 36.5569 19.1381 0.0000 0.0000 0.0000
# 3 28.6011 19.1381 82.5456 0.0000 0.0000 0.0000
# 4 0.0000 0.0000 0.0000 18.3559 0.0000 0.0000
# 5 0.0000 0.0000 0.0000 0.0000 13.0794 0.0000
# 6 0.0000 0.0000 0.0000 0.0000 0.0000 21.9889
#
#
#
# Elastic Compliance Matrix: (Units=1/GPa)
#
#
# Indices 1 2 3 4 5 6 
#
# 1 0.013314 -0.006704 -0.003059 0.000000 0.000000 0.000000
# 2 -0.006704 0.034509 -0.005678 0.000000 0.000000 0.000000
# 3 -0.003059 -0.005678 0.014491 0.000000 0.000000 0.000000
# 4 0.000000 0.000000 0.000000 0.054478 0.000000 0.000000
# 5 0.000000 0.000000 0.000000 0.000000 0.076456 0.000000
# 6 0.000000 0.000000 0.000000 0.000000 0.000000 0.045478
#
#
# Mechanical properties :
#
#
# Convention : Reuss Voigt Hill
#
# Bulk Modulus (GPa) = 31.81467 39.26194 35.53831
# Shear Modulus (GPa) = 17.85175 20.13310 18.99242
#
# Velocity S-wave (km/s) = 3.33562 3.54235 3.44054
# Velocity P-wave (km/s) = 5.88762 6.41885 6.15897
#
# Compressibility (1/GPa) = 0.03143204
#
# Stress axis : x y z
#
# Youngs Moduli (GPa) = 75.11142 28.97757 69.00943
#
# Poissons Ratio (x) = 0.19427 0.21108
# Poissons Ratio (y) = 0.50356 0.39184
# Poissons Ratio (z) = 0.22974 0.16454
#
# Static dielectric constant tensor:
#      x y z
#    x 2.887330 0.000000 0.000000 
#    y 0.000000 2.891720 0.000000 
#    z 0.000000 0.000000 3.524700 
# 
# 
# High freq. dielectric constant tensor:
#      x y z
#    x 1.596680 0.000000 0.000000 
#    y 0.000000 1.614480 0.000000 
#    z 0.000000 0.000000 1.613940 
# 
# From -- ./inp_files/21840.got.cif
#   From: 2010.03.12/outbox.cif.g09.slc.cpg/sg59_11_cif.got.tgz:21840.got - 2010.04.16 16:29:54.
