data_PCOD8240500
_publ_section_title
;
Structure prediction by ZEFSAII (Michael W. Deem and Ramdas Pophale) SiO2 
 PCOD8240500
Probable space group: P M M N
;
_chemical_formula_sum "Si O2"
_cell_formula_units_Z 64
_cell_length_a 20.218585
_cell_length_b 9.072869
_cell_length_c 20.578489
_cell_angle_alpha 90.000000
_cell_angle_beta 90.000000
_cell_angle_gamma 90.000000
_cell_volume 3774.929815
_symmetry_space_group_name_H-M "P M M N"
_symmetry_group_IT_number 59
_space_group.IT_coordinate_system_code '2'
_symmetry_cell_setting 'orthorhombic'
loop_
_space_group_symop_operation_xyz
x,y,z
1/2-x,1/2-y,z
1/2+x,-y,-z
-x,1/2+y,-z
-x,-y,-z
1/2+x,1/2+y,-z
1/2-x,y,z
x,1/2-y,z
loop_
_atom_site_type_symbol
_atom_site_label
_atom_site_fract_x
_atom_site_fract_y
_atom_site_fract_z
Si Si1 0.414610 0.418639 0.685121
Si Si2 0.325604 0.420033 0.951750
Si Si3 0.034264 0.077620 0.159319
Si Si4 0.070580 0.915425 0.425106
Si Si5 0.063962 0.574593 0.031919
Si Si6 0.450997 0.080143 0.303007
Si Si7 0.415088 0.085678 0.547324
Si Si8 0.898394 0.916936 0.175165
O O1 0.442434 0.250000 0.680243
O O2 0.473324 0.533040 0.693303
O O3 0.377407 0.452091 0.616069
O O4 0.370300 0.436248 0.750545
O O5 0.250000 0.461471 0.965567
O O6 0.340241 0.250000 0.970305
O O7 0.339497 0.447299 0.875205
O O8 0.370561 0.528267 0.993681
O O9 0.035330 0.250000 0.141180
O O10 0.071480 0.049783 0.228477
O O11 0.072801 0.983351 0.105397
O O12 0.958106 0.027583 0.160899
O O13 0.095110 0.750000 0.419487
O O14 0.992477 0.932617 0.435835
O O15 0.091765 0.994027 0.357487
O O16 0.107630 0.982442 0.488215
O O17 0.055673 0.750000 0.030669
O O18 0.000000 0.500000 0.000000
O O19 0.445365 0.250000 0.321076
O O20 0.399121 0.250000 0.523868
O O21 0.925650 0.750000 0.166397
#
# Coordination Sequence:
#
# PCOD8240500 Si02
#       8
#     8   8   8   8   8   8   8   8
#     4   8  14  23  35  52  73 102 142 182 220 262
#     4  10  21  36  53  74 100 129 160 196 242 294
#     4  10  19  30  46  68  91 116 151 194 238 283
#     4   9  15  21  30  44  67 101 139 175 214 264
#     4  12  23  35  53  74  97 125 160 201 244 291
#     4   9  16  24  35  53  77 105 138 178 223 269
#     4   8  13  20  29  43  66  97 136 179 216 256
#     4   9  16  28  46  65  88 119 152 190 233 279
#
# _framework density 16.953956999999999
#
# number of rings (size 3 to 8) (size 9 to 14) (size 15 to 20)
#    0.000    2.625    1.250    3.000    0.000    4.750 
#    0.000    0.000    0.000    0.000    0.000    0.000 
#    0.000    0.000    0.000    1.125    0.000   23.750 
#
# Total GULP energy -792872.432992 kJ/mol
# GULP energy per Si atom -12388.631766 kJ/mol
# Density = 1.691537 g / cm^3
# Si number density = 16.953957 Si / 1000 Ang^3
#
#
#
# Elastic Constant Matrix: (Units=GPa)
#
#
# Indices 1 2 3 4 5 6 
#
# 1 38.7470 24.3535 32.0440 0.0000 0.0000 0.0000
# 2 24.3535 117.0799 79.3748 0.0000 0.0000 0.0000
# 3 32.0440 79.3748 160.4132 0.0000 0.0000 0.0000
# 4 0.0000 0.0000 0.0000 30.0152 0.0000 0.0000
# 5 0.0000 0.0000 0.0000 0.0000 9.3437 0.0000
# 6 0.0000 0.0000 0.0000 0.0000 0.0000 11.6825
#
#
#
# Elastic Compliance Matrix: (Units=1/GPa)
#
#
# Indices 1 2 3 4 5 6 
#
# 1 0.031829 -0.003476 -0.004638 0.000000 0.000000 0.000000
# 2 -0.003476 0.013232 -0.005853 0.000000 0.000000 0.000000
# 3 -0.004638 -0.005853 0.010057 0.000000 0.000000 0.000000
# 4 0.000000 0.000000 0.000000 0.033316 0.000000 0.000000
# 5 0.000000 0.000000 0.000000 0.000000 0.107024 0.000000
# 6 0.000000 0.000000 0.000000 0.000000 0.000000 0.085598
#
#
# Mechanical properties :
#
#
# Convention : Reuss Voigt Hill
#
# Bulk Modulus (GPa) = 36.78756 65.30940 51.04848
# Shear Modulus (GPa) = 15.72067 22.23949 18.98008
#
# Velocity S-wave (km/s) = 3.04839 3.62575 3.34953
# Velocity P-wave (km/s) = 5.84259 7.49222 6.71823
#
# Compressibility (1/GPa) = 0.02718310
#
# Stress axis : x y z
#
# Youngs Moduli (GPa) = 31.41786 75.57169 99.43692
#
# Poissons Ratio (x) = 0.26271 0.46119
# Poissons Ratio (y) = 0.10922 0.58202
# Poissons Ratio (z) = 0.14572 0.44234
#
# Static dielectric constant tensor:
#      x y z
#    x 2.435940 0.000000 0.000000 
#    y 0.000000 3.258020 0.000000 
#    z 0.000000 0.000000 3.906820 
# 
# 
# High freq. dielectric constant tensor:
#      x y z
#    x 1.553690 0.000000 0.000000 
#    y 0.000000 1.662570 0.000000 
#    z 0.000000 0.000000 1.686700 
# 
# From -- ./inp_files/30906.got.cif
#   From: 2010.03.12/outbox.cif.g09.slc.cpg/sg59_16_cif.got.tgz:30906.got - 2010.04.16 16:29:54.
