data_PCOD8240682
_publ_section_title
;
Structure prediction by ZEFSAII (Michael W. Deem and Ramdas Pophale) SiO2 
 PCOD8240682
Probable space group: P M M N
;
_chemical_formula_sum "Si O2"
_cell_formula_units_Z 64
_cell_length_a 9.090855
_cell_length_b 15.535883
_cell_length_c 23.807677
_cell_angle_alpha 90.000000
_cell_angle_beta 90.000000
_cell_angle_gamma 90.000000
_cell_volume 3362.464397
_symmetry_space_group_name_H-M "P M M N"
_symmetry_group_IT_number 59
_space_group.IT_coordinate_system_code '2'
_symmetry_cell_setting 'orthorhombic'
loop_
_space_group_symop_operation_xyz
x,y,z
1/2-x,1/2-y,z
1/2+x,-y,-z
-x,1/2+y,-z
-x,-y,-z
1/2+x,1/2+y,-z
1/2-x,y,z
x,1/2-y,z
loop_
_atom_site_type_symbol
_atom_site_label
_atom_site_fract_x
_atom_site_fract_y
_atom_site_fract_z
Si Si1 0.575626 0.845060 0.944824
Si Si2 0.080132 0.082078 0.562697
Si Si3 0.076567 0.343220 0.679075
Si Si4 0.425566 0.993373 0.747392
Si Si5 0.919645 0.904056 0.561312
Si Si6 0.574549 0.998821 0.865876
Si Si7 0.578858 0.650855 0.072257
Si Si8 0.417290 0.655124 0.664643
O O1 0.750000 0.842999 0.943139
O O2 0.516543 0.750000 0.926090
O O3 0.515255 0.920642 0.904963
O O4 0.525083 0.864115 0.008457
O O5 0.250000 0.052334 0.567970
O O6 0.035647 0.144495 0.613583
O O7 0.053824 0.129014 0.502707
O O8 0.977915 0.999977 0.567932
O O9 0.250000 0.343271 0.685912
O O10 0.012383 0.250000 0.697846
O O11 0.015091 0.418783 0.718667
O O12 0.250000 0.993149 0.756604
O O13 0.508231 0.980941 0.805346
O O14 0.479174 0.914916 0.708097
O O15 0.750000 0.903601 0.576885
O O16 0.999059 0.842620 0.605427
O O17 0.750000 0.000825 0.863232
O O18 0.517457 0.090190 0.888128
O O19 0.750000 0.626851 0.079440
O O20 0.552523 0.750000 0.090015
O O21 0.250000 0.631318 0.650950
O O22 0.432222 0.750000 0.691920
#
# Coordination Sequence:
#
# PCOD8240682 Si02
#       8
#     8   8   8   8   8   8   8   8
#     4   8  16  33  56  82 112 145 179 215 262 322
#     4   9  17  32  53  78 107 138 171 212 266 325
#     4   9  17  32  56  78  95 127 177 224 263 309
#     4  10  21  38  55  73 102 141 187 227 261 313
#     4  10  19  30  52  82 110 136 167 214 272 330
#     4  11  22  34  54  83 113 143 177 224 278 318
#     4   9  18  35  59  83 109 145 185 218 254 314
#     4  10  21  38  58  76 101 141 184 225 270 320
#
# _framework density 19.033659
#
# number of rings (size 3 to 8) (size 9 to 14) (size 15 to 20)
#    0.000    2.500    1.250    1.875    0.000    3.000 
#    0.000    3.125    0.000    3.750    0.000    0.000 
#    0.000    0.000    0.000    0.000    0.000    0.000 
#
# Total GULP energy -793350.274934 kJ/mol
# GULP energy per Si atom -12396.098046 kJ/mol
# Density = 1.899034 g / cm^3
# Si number density = 19.033659 Si / 1000 Ang^3
#
#
#
# Elastic Constant Matrix: (Units=GPa)
#
#
# Indices 1 2 3 4 5 6 
#
# 1 46.7486 26.6155 33.8298 0.0000 0.0000 0.0000
# 2 26.6155 112.1768 50.4318 0.0000 0.0000 0.0000
# 3 33.8298 50.4318 106.1663 0.0000 0.0000 0.0000
# 4 0.0000 0.0000 0.0000 15.1676 0.0000 0.0000
# 5 0.0000 0.0000 0.0000 0.0000 30.5728 0.0000
# 6 0.0000 0.0000 0.0000 0.0000 0.0000 17.6747
#
#
#
# Elastic Compliance Matrix: (Units=1/GPa)
#
#
# Indices 1 2 3 4 5 6 
#
# 1 0.028812 -0.003444 -0.007545 0.000000 0.000000 0.000000
# 2 -0.003444 0.011747 -0.004483 0.000000 0.000000 0.000000
# 3 -0.007545 -0.004483 0.013953 0.000000 0.000000 0.000000
# 4 0.000000 0.000000 0.000000 0.065930 0.000000 0.000000
# 5 0.000000 0.000000 0.000000 0.000000 0.032709 0.000000
# 6 0.000000 0.000000 0.000000 0.000000 0.000000 0.056578
#
#
# Mechanical properties :
#
#
# Convention : Reuss Voigt Hill
#
# Bulk Modulus (GPa) = 42.42985 54.09399 48.26192
# Shear Modulus (GPa) = 20.11851 22.96399 21.54125
#
# Velocity S-wave (km/s) = 3.25467 3.47723 3.36779
# Velocity P-wave (km/s) = 6.03857 6.67858 6.36662
#
# Compressibility (1/GPa) = 0.02356831
#
# Stress axis : x y z
#
# Youngs Moduli (GPa) = 34.70821 85.12859 71.67062
#
# Poissons Ratio (x) = 0.29318 0.54074
# Poissons Ratio (y) = 0.11954 0.32128
# Poissons Ratio (z) = 0.26187 0.38160
#
# Static dielectric constant tensor:
#      x y z
#    x 3.195120 0.000000 0.000000 
#    y 0.000000 3.719000 0.000000 
#    z 0.000000 0.000000 3.583910 
# 
# 
# High freq. dielectric constant tensor:
#      x y z
#    x 1.707980 0.000000 0.000000 
#    y 0.000000 1.745450 0.000000 
#    z 0.000000 0.000000 1.740600 
# 
# From -- ./inp_files/31605.got.cif
#   From: 2010.03.12/outbox.cif.g09.slc.cpg/sg59_16_cif.got.tgz:31605.got - 2010.04.16 16:29:54.
