data_PCOD8240137
_publ_section_title
;
Structure prediction by ZEFSAII (Michael W. Deem and Ramdas Pophale) SiO2 
 PCOD8240137
Probable space group: P M M N
;
_chemical_formula_sum "Si O2"
_cell_formula_units_Z 56
_cell_length_a 21.534299
_cell_length_b 9.266537
_cell_length_c 14.743610
_cell_angle_alpha 90.000000
_cell_angle_beta 90.000000
_cell_angle_gamma 90.000000
_cell_volume 2942.063468
_symmetry_space_group_name_H-M "P M M N"
_symmetry_group_IT_number 59
_space_group.IT_coordinate_system_code '2'
_symmetry_cell_setting 'orthorhombic'
loop_
_space_group_symop_operation_xyz
x,y,z
1/2-x,1/2-y,z
1/2+x,-y,-z
-x,1/2+y,-z
-x,-y,-z
1/2+x,1/2+y,-z
1/2-x,y,z
x,1/2-y,z
loop_
_atom_site_type_symbol
_atom_site_label
_atom_site_fract_x
_atom_site_fract_y
_atom_site_fract_z
Si Si1 0.678997 0.916610 0.961861
Si Si2 0.250000 0.085638 0.761068
Si Si3 0.428996 0.585037 0.347733
Si Si4 0.750000 0.584913 0.452125
Si Si5 0.680135 0.417891 0.784651
Si Si6 0.048996 0.579000 0.709375
Si Si7 0.371707 0.915665 0.536317
Si Si8 0.873614 0.580047 0.151884
O O1 0.750000 0.957384 0.988790
O O2 0.674994 0.750000 0.935866
O O3 0.655584 0.004942 0.875312
O O4 0.632495 0.951769 0.044893
O O5 0.250000 0.250000 0.795565
O O6 0.250000 0.069298 0.654837
O O7 0.188015 0.014260 0.800780
O O8 0.448183 0.750000 0.325338
O O9 0.364419 0.543886 0.298851
O O10 0.480749 0.476144 0.313362
O O11 0.420805 0.564874 0.455273
O O12 0.750000 0.750000 0.484439
O O13 0.688344 0.509160 0.489101
O O14 0.750000 0.470443 0.759913
O O15 0.679703 0.250000 0.806270
O O16 0.046913 0.750000 0.720329
O O17 0.095770 0.531052 0.628911
O O18 0.069193 0.506672 0.804447
O O19 0.350410 0.750000 0.545089
O O20 0.882359 0.750000 0.171684
#
# Coordination Sequence:
#
# PCOD8240137 Si02
#       8
#     8   4   8   4   8   8   8   8
#     4   9  17  31  55  84 112 143 178 221 276 329
#     4   9  16  29  51  78 109 144 180 221 259 313
#     4  10  22  40  61  78 102 150 194 223 270 333
#     4  11  21  33  55  86 115 146 182 227 273 319
#     4   9  19  36  58  83 108 136 179 230 275 325
#     4  11  23  37  54  82 115 145 182 233 278 316
#     4  10  22  38  57  81 113 149 185 227 276 326
#     4  10  18  33  56  81 112 149 186 216 263 337
#
# _framework density 19.03426
#
# number of rings (size 3 to 8) (size 9 to 14) (size 15 to 20)
#    0.000    2.143    2.143    1.071    1.000    2.286 
#    0.000    1.071    0.000    0.000    0.000    0.000 
#    0.000    0.000    0.000    0.000    0.000    0.000 
#
# Total GULP energy -694460.914959 kJ/mol
# GULP energy per Si atom -12401.087767 kJ/mol
# Density = 1.899094 g / cm^3
# Si number density = 19.034260 Si / 1000 Ang^3
#
#
#
# Elastic Constant Matrix: (Units=GPa)
#
#
# Indices 1 2 3 4 5 6 
#
# 1 74.2183 36.2942 23.0812 0.0000 0.0000 0.0000
# 2 36.2942 61.8945 33.1605 0.0000 0.0000 0.0000
# 3 23.0812 33.1605 81.1887 0.0000 0.0000 0.0000
# 4 0.0000 0.0000 0.0000 29.0186 0.0000 0.0000
# 5 0.0000 0.0000 0.0000 0.0000 21.2019 0.0000
# 6 0.0000 0.0000 0.0000 0.0000 0.0000 30.6509
#
#
#
# Elastic Compliance Matrix: (Units=1/GPa)
#
#
# Indices 1 2 3 4 5 6 
#
# 1 0.018965 -0.010539 -0.001087 0.000000 0.000000 0.000000
# 2 -0.010539 0.026538 -0.007843 0.000000 0.000000 0.000000
# 3 -0.001087 -0.007843 0.015830 0.000000 0.000000 0.000000
# 4 0.000000 0.000000 0.000000 0.034461 0.000000 0.000000
# 5 0.000000 0.000000 0.000000 0.000000 0.047165 0.000000
# 6 0.000000 0.000000 0.000000 0.000000 0.000000 0.032625
#
#
# Mechanical properties :
#
#
# Convention : Reuss Voigt Hill
#
# Bulk Modulus (GPa) = 44.65274 44.70817 44.68045
# Shear Modulus (GPa) = 22.52371 24.49199 23.50785
#
# Velocity S-wave (km/s) = 3.44368 3.59100 3.51811
# Velocity P-wave (km/s) = 6.27072 6.38223 6.32673
#
# Compressibility (1/GPa) = 0.02239504
#
# Stress axis : x y z
#
# Youngs Moduli (GPa) = 52.72735 37.68142 63.17291
#
# Poissons Ratio (x) = 0.39711 0.06869
# Poissons Ratio (y) = 0.55567 0.49548
# Poissons Ratio (z) = 0.05733 0.29554
#
# Static dielectric constant tensor:
#      x y z
#    x 3.377670 0.000000 0.000000 
#    y 0.000000 3.356340 0.000000 
#    z 0.000000 0.000000 3.459390 
# 
# 
# High freq. dielectric constant tensor:
#      x y z
#    x 1.728850 0.000000 0.000000 
#    y 0.000000 1.727510 0.000000 
#    z 0.000000 0.000000 1.740800 
# 
# From -- ./inp_files/21162.got.cif
#   From: 2010.03.12/outbox.cif.g09.slc.cpg/sg59_11_cif.got.tgz:21162.got - 2010.04.16 16:29:54.
