data_PCOD8240235
_publ_section_title
;
Structure prediction by ZEFSAII (Michael W. Deem and Ramdas Pophale) SiO2 
 PCOD8240235
Probable space group: P M M N
;
_chemical_formula_sum "Si O2"
_cell_formula_units_Z 64
_cell_length_a 8.838412
_cell_length_b 30.918487
_cell_length_c 11.934508
_cell_angle_alpha 90.000000
_cell_angle_beta 90.000000
_cell_angle_gamma 90.000000
_cell_volume 3261.346898
_symmetry_space_group_name_H-M "P M M N"
_symmetry_group_IT_number 59
_space_group.IT_coordinate_system_code '2'
_symmetry_cell_setting 'orthorhombic'
loop_
_space_group_symop_operation_xyz
x,y,z
1/2-x,1/2-y,z
1/2+x,-y,-z
-x,1/2+y,-z
-x,-y,-z
1/2+x,1/2+y,-z
1/2-x,y,z
x,1/2-y,z
loop_
_atom_site_type_symbol
_atom_site_label
_atom_site_fract_x
_atom_site_fract_y
_atom_site_fract_z
Si Si1 0.572936 0.622854 0.116999
Si Si2 0.429820 0.953640 0.979679
Si Si3 0.571698 0.621813 0.376480
Si Si4 0.575312 0.201715 0.007067
Si Si5 0.570269 0.453495 0.485043
Si Si6 0.070758 0.584266 0.747951
Si Si7 0.425575 0.202704 0.480760
Si Si8 0.427482 0.819380 0.744935
O O1 0.750000 0.615171 0.099251
O O2 0.530262 0.627451 0.246899
O O3 0.526922 0.667438 0.057530
O O4 0.485335 0.581554 0.069027
O O5 0.250000 0.956344 0.986646
O O6 0.489102 0.940565 0.856797
O O7 0.500000 0.000000 0.000000
O O8 0.750000 0.615936 0.393900
O O9 0.488516 0.579237 0.420840
O O10 0.508071 0.664361 0.441310
O O11 0.750000 0.187430 0.993704
O O12 0.547955 0.250000 0.958148
O O13 0.532109 0.203522 0.138248
O O14 0.500000 0.500000 0.500000
O O15 0.750000 0.455953 0.492165
O O16 0.511553 0.438466 0.363794
O O17 0.250000 0.585742 0.750592
O O18 0.004943 0.632415 0.750382
O O19 0.250000 0.193952 0.464572
O O20 0.454470 0.250000 0.537138
O O21 0.498338 0.205034 0.358391
O O22 0.250000 0.819436 0.722718
#
# Coordination Sequence:
#
# PCOD8240235 Si02
#       8
#     8   8   8   8   8   8   8   8
#     4  11  24  41  61  86 118 159 203 248 297 349
#     4  11  23  42  64  90 122 157 197 242 296 354
#     4  10  23  42  60  82 117 160 200 242 293 349
#     4  10  21  38  61  88 119 156 196 242 300 360
#     4  11  23  40  62  90 119 153 195 241 295 351
#     4   9  19  37  62  86 117 154 188 237 293 347
#     4  10  21  37  58  86 118 152 193 243 294 344
#     4  10  18  36  61  87 118 154 191 234 293 353
#
# _framework density 19.623795000000001
#
# number of rings (size 3 to 8) (size 9 to 14) (size 15 to 20)
#    0.000    1.750    2.500    1.500    1.750    3.000 
#    0.000    3.125    0.000    0.000    0.000    0.000 
#    0.000    0.000    0.000    0.000    0.000    0.000 
#
# Total GULP energy -793626.094280 kJ/mol
# GULP energy per Si atom -12400.407723 kJ/mol
# Density = 1.957913 g / cm^3
# Si number density = 19.623795 Si / 1000 Ang^3
#
#
#
# Elastic Constant Matrix: (Units=GPa)
#
#
# Indices 1 2 3 4 5 6 
#
# 1 54.1721 39.6686 36.3819 0.0000 0.0000 0.0000
# 2 39.6686 155.7482 52.9621 0.0000 0.0000 0.0000
# 3 36.3819 52.9621 113.8516 0.0000 0.0000 0.0000
# 4 0.0000 0.0000 0.0000 20.3492 0.0000 0.0000
# 5 0.0000 0.0000 0.0000 0.0000 30.8547 0.0000
# 6 0.0000 0.0000 0.0000 0.0000 0.0000 31.5246
#
#
#
# Elastic Compliance Matrix: (Units=1/GPa)
#
#
# Indices 1 2 3 4 5 6 
#
# 1 0.025906 -0.004494 -0.006188 0.000000 0.000000 0.000000
# 2 -0.004494 0.008407 -0.002475 0.000000 0.000000 0.000000
# 3 -0.006188 -0.002475 0.011912 0.000000 0.000000 0.000000
# 4 0.000000 0.000000 0.000000 0.049142 0.000000 0.000000
# 5 0.000000 0.000000 0.000000 0.000000 0.032410 0.000000
# 6 0.000000 0.000000 0.000000 0.000000 0.000000 0.031721
#
#
# Mechanical properties :
#
#
# Convention : Reuss Voigt Hill
#
# Bulk Modulus (GPa) = 50.22146 64.64413 57.43280
# Shear Modulus (GPa) = 25.98095 29.52965 27.75530
#
# Velocity S-wave (km/s) = 3.64256 3.88337 3.76489
# Velocity P-wave (km/s) = 6.58321 7.28839 6.94476
#
# Compressibility (1/GPa) = 0.01991181
#
# Stress axis : x y z
#
# Youngs Moduli (GPa) = 38.60053 118.95232 83.94975
#
# Poissons Ratio (x) = 0.53458 0.51948
# Poissons Ratio (y) = 0.17347 0.20774
# Poissons Ratio (z) = 0.23886 0.29436
#
# Static dielectric constant tensor:
#      x y z
#    x 3.409280 0.000000 0.000000 
#    y 0.000000 3.798720 0.000000 
#    z 0.000000 0.000000 3.742000 
# 
# 
# High freq. dielectric constant tensor:
#      x y z
#    x 1.749160 0.000000 0.000000 
#    y 0.000000 1.783930 0.000000 
#    z 0.000000 0.000000 1.767900 
# 
# From -- ./inp_files/14898.got.cif
#   From: 2010.03.12/outbox.cif.g09.slc.cpg/sg59_8_cif.got.tgz:14898.got - 2010.04.16 16:29:54.
