data_PCOD8240120
_publ_section_title
;
Structure prediction by ZEFSAII (Michael W. Deem and Ramdas Pophale) SiO2 
 PCOD8240120
Probable space group: P M M N
;
_chemical_formula_sum "Si O2"
_cell_formula_units_Z 64
_cell_length_a 8.586233
_cell_length_b 15.390544
_cell_length_c 24.146628
_cell_angle_alpha 90.000000
_cell_angle_beta 90.000000
_cell_angle_gamma 90.000000
_cell_volume 3190.899543
_symmetry_space_group_name_H-M "P M M N"
_symmetry_group_IT_number 59
_space_group.IT_coordinate_system_code '2'
_symmetry_cell_setting 'orthorhombic'
loop_
_space_group_symop_operation_xyz
x,y,z
1/2-x,1/2-y,z
1/2+x,-y,-z
-x,1/2+y,-z
-x,-y,-z
1/2+x,1/2+y,-z
1/2-x,y,z
x,1/2-y,z
loop_
_atom_site_type_symbol
_atom_site_label
_atom_site_fract_x
_atom_site_fract_y
_atom_site_fract_z
Si Si1 0.934936 0.493283 0.699023
Si Si2 0.931299 0.901756 0.881868
Si Si3 0.565808 0.351611 0.496370
Si Si4 0.433935 0.155963 0.233060
Si Si5 0.567290 0.988296 0.421801
Si Si6 0.564766 0.846787 0.999199
Si Si7 0.567634 0.919996 0.114090
Si Si8 0.072320 0.846265 0.216177
O O1 0.750000 0.495298 0.688820
O O2 0.000822 0.580916 0.727828
O O3 0.986874 0.412970 0.737334
O O4 0.023930 0.485497 0.641922
O O5 0.750000 0.883202 0.888451
O O6 0.998863 0.846580 0.830252
O O7 0.010087 0.880863 0.941447
O O8 0.967051 0.999539 0.864915
O O9 0.750000 0.344709 0.497935
O O10 0.501292 0.250000 0.491265
O O11 0.509699 0.401989 0.551413
O O12 0.510895 0.417632 0.446809
O O13 0.250000 0.141794 0.229354
O O14 0.478096 0.250000 0.258457
O O15 0.750000 0.979388 0.430778
O O16 0.750000 0.851499 0.997682
O O17 0.504970 0.750000 0.007304
O O18 0.503325 0.898170 0.052718
O O19 0.750000 0.940237 0.112126
O O20 0.531494 0.847533 0.160177
O O21 0.250000 0.867936 0.200061
O O22 0.056725 0.750000 0.241608
#
# Coordination Sequence:
#
# PCOD8240120 Si02
#       8
#     8   8   8   8   8   8   8   8
#     4  10  20  36  55  80 113 147 187 231 274 324
#     4  10  18  33  55  75  99 134 180 225 271 331
#     4   9  19  38  62  86 117 158 195 225 267 322
#     4   9  17  31  54  80 103 134 182 235 276 317
#     4  10  21  36  57  88 121 152 189 232 275 322
#     4   9  18  31  49  75 102 131 172 223 278 336
#     4  11  21  33  51  76 108 139 172 219 281 341
#     4  10  21  38  58  78 102 140 189 233 274 325
#
# _framework density 20.057040000000001
#
# number of rings (size 3 to 8) (size 9 to 14) (size 15 to 20)
#    0.000    2.250    1.250    1.875    0.000    4.500 
#    0.000    1.875    0.000    3.750    0.000    0.000 
#    0.000    0.000    0.000    0.000    0.000    0.000 
#
# Total GULP energy -793035.697550 kJ/mol
# GULP energy per Si atom -12391.182774 kJ/mol
# Density = 2.001139 g / cm^3
# Si number density = 20.057040 Si / 1000 Ang^3
#
#
#
# Elastic Constant Matrix: (Units=GPa)
#
#
# Indices 1 2 3 4 5 6 
#
# 1 6.1997 2.3506 8.5841 0.0000 0.0000 0.0000
# 2 2.3506 121.5608 35.8116 0.0000 0.0000 0.0000
# 3 8.5841 35.8116 125.5956 0.0000 0.0000 0.0000
# 4 0.0000 0.0000 0.0000 19.1920 0.0000 0.0000
# 5 0.0000 0.0000 0.0000 0.0000 22.7062 0.0000
# 6 0.0000 0.0000 0.0000 0.0000 0.0000 17.7891
#
#
#
# Elastic Compliance Matrix: (Units=1/GPa)
#
#
# Indices 1 2 3 4 5 6 
#
# 1 0.178162 0.000155 -0.012221 0.000000 0.000000 0.000000
# 2 0.000155 0.008981 -0.002571 0.000000 0.000000 0.000000
# 3 -0.012221 -0.002571 0.009531 0.000000 0.000000 0.000000
# 4 0.000000 0.000000 0.000000 0.052105 0.000000 0.000000
# 5 0.000000 0.000000 0.000000 0.000000 0.044041 0.000000
# 6 0.000000 0.000000 0.000000 0.000000 0.000000 0.056214
#
#
# Mechanical properties :
#
#
# Convention : Reuss Voigt Hill
#
# Bulk Modulus (GPa) = 5.97376 38.53875 22.25625
# Shear Modulus (GPa) = 11.51788 25.71145 18.61467
#
# Velocity S-wave (km/s) = 2.39896 3.58427 3.04976
# Velocity P-wave (km/s) = 3.26469 6.03205 4.84994
#
# Compressibility (1/GPa) = 0.16739883
#
# Stress axis : x y z
#
# Youngs Moduli (GPa) = 5.61287 111.34804 104.92605
#
# Poissons Ratio (x) = -0.01728 1.28232
# Poissons Ratio (y) = -0.00087 0.26980
# Poissons Ratio (z) = 0.06860 0.28632
#
# Static dielectric constant tensor:
#      x y z
#    x 3.191530 0.000000 0.000000 
#    y 0.000000 3.886740 0.000000 
#    z 0.000000 0.000000 3.717160 
# 
# 
# High freq. dielectric constant tensor:
#      x y z
#    x 1.740320 0.000000 0.000000 
#    y 0.000000 1.794580 0.000000 
#    z 0.000000 0.000000 1.785500 
# 
# From -- ./inp_files/31494.got.cif
#   From: 2010.03.12/outbox.cif.g09.slc.cpg/sg59_16_cif.got.tgz:31494.got - 2010.04.16 16:29:54.
