data_PCOD8240637
_publ_section_title
;
Structure prediction by ZEFSAII (Michael W. Deem and Ramdas Pophale) SiO2 
 PCOD8240637
Probable space group: P M M N
;
_chemical_formula_sum "Si O2"
_cell_formula_units_Z 64
_cell_length_a 28.833610
_cell_length_b 9.583592
_cell_length_c 12.399716
_cell_angle_alpha 90.000000
_cell_angle_beta 90.000000
_cell_angle_gamma 90.000000
_cell_volume 3426.407994
_symmetry_space_group_name_H-M "P M M N"
_symmetry_group_IT_number 59
_space_group.IT_coordinate_system_code '2'
_symmetry_cell_setting 'orthorhombic'
loop_
_space_group_symop_operation_xyz
x,y,z
1/2-x,1/2-y,z
1/2+x,-y,-z
-x,1/2+y,-z
-x,-y,-z
1/2+x,1/2+y,-z
1/2-x,y,z
x,1/2-y,z
loop_
_atom_site_type_symbol
_atom_site_label
_atom_site_fract_x
_atom_site_fract_y
_atom_site_fract_z
Si Si1 0.342756 0.409755 0.068483
Si Si2 0.851899 0.085235 0.730976
Si Si3 0.956940 0.406073 0.770620
Si Si4 0.640924 0.085779 0.307128
Si Si5 0.459601 0.590730 0.760099
Si Si6 0.801679 0.907132 0.150953
Si Si7 0.574313 0.407099 0.003307
Si Si8 0.197408 0.584403 0.486990
O O1 0.352981 0.250000 0.103235
O O2 0.327720 0.500370 0.172102
O O3 0.387592 0.474346 0.010988
O O4 0.302523 0.417305 0.979073
O O5 0.845275 0.250000 0.751580
O O6 0.906373 0.045958 0.727833
O O7 0.827093 0.033826 0.622334
O O8 0.966655 0.250000 0.730257
O O9 0.959836 0.415344 0.900622
O O10 0.996887 0.501174 0.718404
O O11 0.648351 0.250000 0.293540
O O12 0.586249 0.049478 0.308343
O O13 0.666358 0.027816 0.414020
O O14 0.662767 0.014812 0.202661
O O15 0.472544 0.750000 0.738292
O O16 0.452845 0.562406 0.887011
O O17 0.750000 0.944856 0.189765
O O18 0.815057 0.750000 0.186885
O O19 0.596363 0.250000 0.007548
O O20 0.250000 0.525087 0.494112
O O21 0.198561 0.750000 0.490097
#
# Coordination Sequence:
#
# PCOD8240637 Si02
#       8
#     8   8   8   8   8   8   8   8
#     4  10  19  31  50  76 105 139 174 210 257 315
#     4   9  19  36  55  76 106 137 173 222 267 308
#     4   9  18  30  47  71 102 142 180 212 253 311
#     4  10  20  35  56  81 106 134 175 224 266 309
#     4  10  19  30  48  75 108 140 174 217 260 307
#     4  10  21  35  50  73 108 143 171 208 264 324
#     4   9  17  31  48  71 105 141 176 214 255 302
#     4   9  18  35  60  84 102 129 175 225 270 315
#
# _framework density 18.678453000000001
#
# number of rings (size 3 to 8) (size 9 to 14) (size 15 to 20)
#    0.000    2.500    1.250    1.875    0.000    4.750 
#    0.000    1.250    0.000    0.750    0.000    0.000 
#    0.000    0.000    0.000    0.000    0.000    0.000 
#
# Total GULP energy -793390.430927 kJ/mol
# GULP energy per Si atom -12396.725483 kJ/mol
# Density = 1.863594 g / cm^3
# Si number density = 18.678453 Si / 1000 Ang^3
#
#
#
# Elastic Constant Matrix: (Units=GPa)
#
#
# Indices 1 2 3 4 5 6 
#
# 1 91.0417 32.5499 43.5137 0.0000 0.0000 0.0000
# 2 32.5499 59.2163 28.3053 0.0000 0.0000 0.0000
# 3 43.5137 28.3053 91.4526 0.0000 0.0000 0.0000
# 4 0.0000 0.0000 0.0000 15.8589 0.0000 0.0000
# 5 0.0000 0.0000 0.0000 0.0000 22.4110 0.0000
# 6 0.0000 0.0000 0.0000 0.0000 0.0000 22.5136
#
#
#
# Elastic Compliance Matrix: (Units=1/GPa)
#
#
# Indices 1 2 3 4 5 6 
#
# 1 0.015843 -0.005992 -0.005684 0.000000 0.000000 0.000000
# 2 -0.005992 0.022085 -0.003985 0.000000 0.000000 0.000000
# 3 -0.005684 -0.003985 0.014872 0.000000 0.000000 0.000000
# 4 0.000000 0.000000 0.000000 0.063056 0.000000 0.000000
# 5 0.000000 0.000000 0.000000 0.000000 0.044621 0.000000
# 6 0.000000 0.000000 0.000000 0.000000 0.000000 0.044418
#
#
# Mechanical properties :
#
#
# Convention : Reuss Voigt Hill
#
# Bulk Modulus (GPa) = 46.55410 50.04980 48.30195
# Shear Modulus (GPa) = 20.54446 21.31284 20.92865
#
# Velocity S-wave (km/s) = 3.32007 3.38159 3.35097
# Velocity P-wave (km/s) = 6.29883 6.48849 6.39436
#
# Compressibility (1/GPa) = 0.02148038
#
# Stress axis : x y z
#
# Youngs Moduli (GPa) = 63.12088 45.27875 67.23954
#
# Poissons Ratio (x) = 0.27129 0.38216
# Poissons Ratio (y) = 0.37820 0.26793
# Poissons Ratio (z) = 0.35875 0.18043
#
# Static dielectric constant tensor:
#      x y z
#    x 3.346650 0.000000 0.000000 
#    y 0.000000 3.290700 0.000000 
#    z 0.000000 0.000000 3.403220 
# 
# 
# High freq. dielectric constant tensor:
#      x y z
#    x 1.719340 0.000000 0.000000 
#    y 0.000000 1.710700 0.000000 
#    z 0.000000 0.000000 1.708460 
# 
# From -- ./inp_files/19387.got.cif
#   From: 2010.03.12/outbox.cif.g09.slc.cpg/sg59_10_cif.got.tgz:19387.got - 2010.04.16 16:29:54.
