data_PCOD8240860
_publ_section_title
;
Structure prediction by ZEFSAII (Michael W. Deem and Ramdas Pophale) SiO2 
 PCOD8240860
Probable space group: P M M N
;
_chemical_formula_sum "Si O2"
_cell_formula_units_Z 64
_cell_length_a 23.399226
_cell_length_b 9.038590
_cell_length_c 15.556788
_cell_angle_alpha 90.000000
_cell_angle_beta 90.000000
_cell_angle_gamma 90.000000
_cell_volume 3290.198592
_symmetry_space_group_name_H-M "P M M N"
_symmetry_group_IT_number 59
_space_group.IT_coordinate_system_code '2'
_symmetry_cell_setting 'orthorhombic'
loop_
_space_group_symop_operation_xyz
x,y,z
1/2-x,1/2-y,z
1/2+x,-y,-z
-x,1/2+y,-z
-x,-y,-z
1/2+x,1/2+y,-z
1/2-x,y,z
x,1/2-y,z
loop_
_atom_site_type_symbol
_atom_site_label
_atom_site_fract_x
_atom_site_fract_y
_atom_site_fract_z
Si Si1 0.491820 0.923759 0.753657
Si Si2 0.378516 0.075442 0.264784
Si Si3 0.354243 0.585847 0.095960
Si Si4 0.317205 0.912941 0.607091
Si Si5 0.620637 0.923305 0.251878
Si Si6 0.815987 0.576948 0.077739
Si Si7 0.183452 0.579839 0.415692
Si Si8 0.987638 0.412849 0.916996
O O1 0.485104 0.750000 0.745675
O O2 0.555020 0.976559 0.724635
O O3 0.437151 0.000596 0.709500
O O4 0.482500 0.981010 0.849462
O O5 0.376507 0.250000 0.250353
O O6 0.343615 0.004579 0.184330
O O7 0.348968 0.030237 0.352542
O O8 0.325956 0.750000 0.101697
O O9 0.421176 0.605281 0.092906
O O10 0.331361 0.505032 0.011019
O O11 0.250000 0.904880 0.598838
O O12 0.340464 0.750000 0.634682
O O13 0.340237 0.952898 0.511625
O O14 0.332619 0.036260 0.676753
O O15 0.610718 0.750000 0.250068
O O16 0.644134 0.976740 0.157772
O O17 0.750000 0.542895 0.101263
O O18 0.825283 0.750000 0.061203
O O19 0.250000 0.543772 0.408269
O O20 0.171191 0.750000 0.390152
O O21 0.016914 0.250000 0.915118
O O22 0.000000 0.500000 0.000000
#
# Coordination Sequence:
#
# PCOD8240860 Si02
#       8
#     8   8   8   8   8   8   8   8
#     4  10  21  36  53  76 108 144 184 228 274 328
#     4  10  21  37  58  83 112 147 184 226 276 327
#     4  10  21  35  52  75 103 138 179 219 261 315
#     4   9  19  37  60  85 113 145 181 224 276 331
#     4  11  22  36  57  83 111 146 187 231 280 331
#     4  10  22  38  53  74 108 145 181 226 277 326
#     4   9  19  37  61  87 113 142 178 222 273 329
#     4  10  19  31  49  73 100 133 175 221 267 314
#
# _framework density 19.451713999999999
#
# number of rings (size 3 to 8) (size 9 to 14) (size 15 to 20)
#    0.000    2.125    0.000    3.750    0.000    8.250 
#    0.000    1.875    0.000    0.000    0.000    0.000 
#    0.000    0.000    0.000    0.000    0.000    0.000 
#
# Total GULP energy -793029.470919 kJ/mol
# GULP energy per Si atom -12391.085483 kJ/mol
# Density = 1.940744 g / cm^3
# Si number density = 19.451714 Si / 1000 Ang^3
#
#
#
# Elastic Constant Matrix: (Units=GPa)
#
#
# Indices 1 2 3 4 5 6 
#
# 1 60.0880 38.5189 32.2420 0.0000 0.0000 0.0000
# 2 38.5189 69.5067 41.4939 0.0000 0.0000 0.0000
# 3 32.2420 41.4939 107.7889 0.0000 0.0000 0.0000
# 4 0.0000 0.0000 0.0000 34.5395 0.0000 0.0000
# 5 0.0000 0.0000 0.0000 0.0000 19.6554 0.0000
# 6 0.0000 0.0000 0.0000 0.0000 0.0000 29.5367
#
#
#
# Elastic Compliance Matrix: (Units=1/GPa)
#
#
# Indices 1 2 3 4 5 6 
#
# 1 0.026517 -0.012932 -0.002954 0.000000 0.000000 0.000000
# 2 -0.012932 0.024986 -0.005750 0.000000 0.000000 0.000000
# 3 -0.002954 -0.005750 0.012375 0.000000 0.000000 0.000000
# 4 0.000000 0.000000 0.000000 0.028952 0.000000 0.000000
# 5 0.000000 0.000000 0.000000 0.000000 0.050877 0.000000
# 6 0.000000 0.000000 0.000000 0.000000 0.000000 0.033856
#
#
# Mechanical properties :
#
#
# Convention : Reuss Voigt Hill
#
# Bulk Modulus (GPa) = 48.52916 51.32146 49.92531
# Shear Modulus (GPa) = 21.95838 25.08826 23.52332
#
# Velocity S-wave (km/s) = 3.36351 3.59523 3.48130
# Velocity P-wave (km/s) = 6.33142 6.60875 6.47157
#
# Compressibility (1/GPa) = 0.02060617
#
# Stress axis : x y z
#
# Youngs Moduli (GPa) = 37.71177 40.02168 80.81084
#
# Poissons Ratio (x) = 0.51755 0.23869
# Poissons Ratio (y) = 0.48768 0.46470
# Poissons Ratio (z) = 0.11139 0.23014
#
# Static dielectric constant tensor:
#      x y z
#    x 3.583560 0.000000 0.000000 
#    y 0.000000 3.605360 0.000000 
#    z 0.000000 0.000000 3.518310 
# 
# 
# High freq. dielectric constant tensor:
#      x y z
#    x 1.754890 0.000000 0.000000 
#    y 0.000000 1.761160 0.000000 
#    z 0.000000 0.000000 1.750870 
# 
# From -- ./inp_files/24679.got.cif
#   From: 2010.03.12/outbox.cif.g09.slc.cpg/sg59_13_cif.got.tgz:24679.got - 2010.04.16 16:29:54.
