data_PCOD8240059
_publ_section_title
;
Structure prediction by ZEFSAII (Michael W. Deem and Ramdas Pophale) SiO2 
 PCOD8240059
Probable space group: P M M N
;
_chemical_formula_sum "Si O2"
_cell_formula_units_Z 48
_cell_length_a 15.122986
_cell_length_b 8.895501
_cell_length_c 19.133045
_cell_angle_alpha 90.000000
_cell_angle_beta 90.000000
_cell_angle_gamma 90.000000
_cell_volume 2573.902288
_symmetry_space_group_name_H-M "P M M N"
_symmetry_group_IT_number 59
_space_group.IT_coordinate_system_code '2'
_symmetry_cell_setting 'orthorhombic'
loop_
_space_group_symop_operation_xyz
x,y,z
1/2-x,1/2-y,z
1/2+x,-y,-z
-x,1/2+y,-z
-x,-y,-z
1/2+x,1/2+y,-z
1/2-x,y,z
x,1/2-y,z
loop_
_atom_site_type_symbol
_atom_site_label
_atom_site_fract_x
_atom_site_fract_y
_atom_site_fract_z
Si Si1 0.852837 0.574596 0.169597
Si Si2 0.848473 0.928596 0.825083
Si Si3 0.409436 0.427760 0.675885
Si Si4 0.750000 0.928758 0.575595
Si Si5 0.093652 0.071473 0.326495
Si Si6 0.750000 0.928980 0.418768
Si Si7 0.504175 0.071730 0.075427
O O1 0.750000 0.539499 0.158461
O O2 0.872893 0.750000 0.158505
O O3 0.881548 0.521656 0.246560
O O4 0.906416 0.479187 0.113206
O O5 0.750000 0.988100 0.844043
O O6 0.848358 0.750000 0.823139
O O7 0.876346 0.990308 0.749134
O O8 0.918624 0.987635 0.881863
O O9 0.419323 0.250000 0.671961
O O10 0.499936 0.503897 0.652698
O O11 0.336278 0.487560 0.621757
O O12 0.750000 0.750000 0.574063
O O13 0.663294 0.986367 0.616065
O O14 0.750000 0.994919 0.497237
O O15 0.087213 0.250000 0.325552
O O16 0.750000 0.750000 0.419249
O O17 0.503676 0.250000 0.068968
O O18 0.500000 0.000000 0.000000
#
# Coordination Sequence:
#
# PCOD8240059 Si02
#       7
#     8   8   8   4   8   4   8
#     4  10  20  36  58  81 106 145 191 229 269 326
#     4   9  17  32  55  79 103 136 179 222 266 318
#     4  10  19  33  55  80 109 144 184 227 272 327
#     4   9  18  32  55  81 110 145 184 226 268 324
#     4  10  18  32  55  82 106 136 183 230 269 321
#     4   9  18  34  53  79 112 149 184 220 272 330
#     4  11  23  38  57  83 114 145 178 228 282 331
#
# _framework density 18.648727999999998
#
# number of rings (size 3 to 8) (size 9 to 14) (size 15 to 20)
#    0.000    2.167    3.333    0.500    0.000    1.667 
#    0.000    2.500    0.000    4.500    0.000    0.000 
#    0.000    0.000    0.000    0.000    0.000    0.000 
#
# Total GULP energy -595258.197142 kJ/mol
# GULP energy per Si atom -12401.212440 kJ/mol
# Density = 1.860628 g / cm^3
# Si number density = 18.648728 Si / 1000 Ang^3
#
#
#
# Elastic Constant Matrix: (Units=GPa)
#
#
# Indices 1 2 3 4 5 6 
#
# 1 182.3471 33.8222 92.8829 0.0000 0.0000 0.0000
# 2 33.8222 29.8092 34.3072 0.0000 0.0000 0.0000
# 3 92.8829 34.3072 175.5255 0.0000 0.0000 0.0000
# 4 0.0000 0.0000 0.0000 16.8021 0.0000 0.0000
# 5 0.0000 0.0000 0.0000 0.0000 34.8538 0.0000
# 6 0.0000 0.0000 0.0000 0.0000 0.0000 30.8259
#
#
#
# Elastic Compliance Matrix: (Units=1/GPa)
#
#
# Indices 1 2 3 4 5 6 
#
# 1 0.008159 -0.005533 -0.003236 0.000000 0.000000 0.000000
# 2 -0.005533 0.047035 -0.006265 0.000000 0.000000 0.000000
# 3 -0.003236 -0.006265 0.008634 0.000000 0.000000 0.000000
# 4 0.000000 0.000000 0.000000 0.059516 0.000000 0.000000
# 5 0.000000 0.000000 0.000000 0.000000 0.028691 0.000000
# 6 0.000000 0.000000 0.000000 0.000000 0.000000 0.032440
#
#
# Mechanical properties :
#
#
# Convention : Reuss Voigt Hill
#
# Bulk Modulus (GPa) = 29.62111 78.85629 54.23870
# Shear Modulus (GPa) = 22.14377 31.60766 26.87572
#
# Velocity S-wave (km/s) = 3.44963 4.12138 3.80037
# Velocity P-wave (km/s) = 5.63780 8.06378 6.95735
#
# Compressibility (1/GPa) = 0.03375971
#
# Stress axis : x y z
#
# Youngs Moduli (GPa) = 122.57092 21.26066 115.81958
#
# Poissons Ratio (x) = 0.11763 0.37478
# Poissons Ratio (y) = 0.67815 0.72566
# Poissons Ratio (z) = 0.39662 0.13321
#
# Static dielectric constant tensor:
#      x y z
#    x 3.703180 0.000000 0.000000 
#    y 0.000000 3.012960 0.000000 
#    z 0.000000 0.000000 3.578410 
# 
# 
# High freq. dielectric constant tensor:
#      x y z
#    x 1.741460 0.000000 0.000000 
#    y 0.000000 1.683900 0.000000 
#    z 0.000000 0.000000 1.727650 
# 
# From -- ./inp_files/27478.got.cif
#   From: 2010.03.12/outbox.cif.g09.slc.cpg/sg59_14_cif.got.tgz:27478.got - 2010.04.16 16:29:54.
