data_PCOD8240564
_publ_section_title
;
Structure prediction by ZEFSAII (Michael W. Deem and Ramdas Pophale) SiO2 
 PCOD8240564
Probable space group: P M M N
;
_chemical_formula_sum "Si O2"
_cell_formula_units_Z 64
_cell_length_a 15.807011
_cell_length_b 9.454003
_cell_length_c 23.217437
_cell_angle_alpha 90.000000
_cell_angle_beta 90.000000
_cell_angle_gamma 90.000000
_cell_volume 3469.602860
_symmetry_space_group_name_H-M "P M M N"
_symmetry_group_IT_number 59
_space_group.IT_coordinate_system_code '2'
_symmetry_cell_setting 'orthorhombic'
loop_
_space_group_symop_operation_xyz
x,y,z
1/2-x,1/2-y,z
1/2+x,-y,-z
-x,1/2+y,-z
-x,-y,-z
1/2+x,1/2+y,-z
1/2-x,y,z
x,1/2-y,z
loop_
_atom_site_type_symbol
_atom_site_label
_atom_site_fract_x
_atom_site_fract_y
_atom_site_fract_z
Si Si1 0.990905 0.915088 0.737630
Si Si2 0.099291 0.410340 0.575531
Si Si3 0.657947 0.410470 0.324903
Si Si4 0.347090 0.914248 0.061502
Si Si5 0.846042 0.411381 0.525808
Si Si6 0.343164 0.917077 0.929320
Si Si7 0.487044 0.081612 0.131061
Si Si8 0.422869 0.591914 0.360368
O O1 0.974762 0.750000 0.731068
O O2 0.977305 0.964681 0.802755
O O3 0.086697 0.958448 0.720495
O O4 0.924270 0.991393 0.695373
O O5 0.131351 0.250000 0.568400
O O6 0.161253 0.492759 0.618627
O O7 0.098008 0.485266 0.513376
O O8 0.006984 0.418202 0.601954
O O9 0.750000 0.422002 0.294456
O O10 0.639816 0.250000 0.345170
O O11 0.250000 0.942196 0.080543
O O12 0.370322 0.750000 0.070542
O O13 0.409716 0.010467 0.098119
O O14 0.359526 0.959306 0.995334
O O15 0.750000 0.425354 0.505398
O O16 0.879370 0.250000 0.518839
O O17 0.851164 0.453960 0.593699
O O18 0.250000 0.976786 0.909661
O O19 0.339652 0.750000 0.923284
O O20 0.421586 0.975691 0.891491
O O21 0.481102 0.250000 0.122983
O O22 0.407971 0.750000 0.336758
#
# Coordination Sequence:
#
# PCOD8240564 Si02
#       8
#     8   8   8   8   8   8   8   8
#     4   9  19  33  48  69  95 123 159 198 235 279
#     4  10  19  30  47  71  95 118 147 184 229 283
#     4   9  17  30  47  66  92 126 158 189 228 277
#     4   9  18  33  52  74 101 135 173 209 248 297
#     4  10  20  33  49  69  91 114 145 188 234 279
#     4   8  15  29  50  77 108 138 167 201 244 297
#     4  10  19  31  51  78 104 132 167 210 256 294
#     4   9  19  35  51  66  88 122 158 189 226 273
#
# _framework density 18.445914999999999
#
# number of rings (size 3 to 8) (size 9 to 14) (size 15 to 20)
#    0.000    2.750    0.000    2.250    0.000    4.250 
#    0.000    3.125    0.000    3.375    0.000    1.750 
#    0.000    0.000    0.000    0.000    0.000    0.000 
#
# Total GULP energy -793279.423583 kJ/mol
# GULP energy per Si atom -12394.990993 kJ/mol
# Density = 1.840393 g / cm^3
# Si number density = 18.445915 Si / 1000 Ang^3
#
#
#
# Elastic Constant Matrix: (Units=GPa)
#
#
# Indices 1 2 3 4 5 6 
#
# 1 63.9737 26.2518 39.6923 0.0000 0.0000 0.0000
# 2 26.2518 60.7432 48.7353 0.0000 0.0000 0.0000
# 3 39.6923 48.7353 117.9807 0.0000 0.0000 0.0000
# 4 0.0000 0.0000 0.0000 28.0574 0.0000 0.0000
# 5 0.0000 0.0000 0.0000 0.0000 18.1697 0.0000
# 6 0.0000 0.0000 0.0000 0.0000 0.0000 22.6758
#
#
#
# Elastic Compliance Matrix: (Units=1/GPa)
#
#
# Indices 1 2 3 4 5 6 
#
# 1 0.020735 -0.005032 -0.004897 0.000000 0.000000 0.000000
# 2 -0.005032 0.025845 -0.008983 0.000000 0.000000 0.000000
# 3 -0.004897 -0.008983 0.013834 0.000000 0.000000 0.000000
# 4 0.000000 0.000000 0.000000 0.035641 0.000000 0.000000
# 5 0.000000 0.000000 0.000000 0.000000 0.055037 0.000000
# 6 0.000000 0.000000 0.000000 0.000000 0.000000 0.044100
#
#
# Mechanical properties :
#
#
# Convention : Reuss Voigt Hill
#
# Bulk Modulus (GPa) = 44.26872 52.45073 48.35972
# Shear Modulus (GPa) = 20.78610 22.31513 21.55062
#
# Velocity S-wave (km/s) = 3.36053 3.48193 3.42177
# Velocity P-wave (km/s) = 6.25370 6.68295 6.47188
#
# Compressibility (1/GPa) = 0.02258931
#
# Stress axis : x y z
#
# Youngs Moduli (GPa) = 48.22820 38.69279 72.28464
#
# Poissons Ratio (x) = 0.19470 0.35399
# Poissons Ratio (y) = 0.24268 0.64933
# Poissons Ratio (z) = 0.23618 0.34758
#
# Static dielectric constant tensor:
#      x y z
#    x 3.557360 0.000000 0.000000 
#    y 0.000000 3.282430 0.000000 
#    z 0.000000 0.000000 3.401680 
# 
# 
# High freq. dielectric constant tensor:
#      x y z
#    x 1.713980 0.000000 0.000000 
#    y 0.000000 1.695420 0.000000 
#    z 0.000000 0.000000 1.705900 
# 
# From -- ./inp_files/30843.got.cif
#   From: 2010.03.12/outbox.cif.g09.slc.cpg/sg59_16_cif.got.tgz:30843.got - 2010.04.16 16:29:54.
