data_PCOD8240887
_publ_section_title
;
Structure prediction by ZEFSAII (Michael W. Deem and Ramdas Pophale) SiO2 
 PCOD8240887
Probable space group: P M M N
;
_chemical_formula_sum "Si O2"
_cell_formula_units_Z 64
_cell_length_a 24.483152
_cell_length_b 8.608319
_cell_length_c 16.068748
_cell_angle_alpha 90.000000
_cell_angle_beta 90.000000
_cell_angle_gamma 90.000000
_cell_volume 3386.629765
_symmetry_space_group_name_H-M "P M M N"
_symmetry_group_IT_number 59
_space_group.IT_coordinate_system_code '2'
_symmetry_cell_setting 'orthorhombic'
loop_
_space_group_symop_operation_xyz
x,y,z
1/2-x,1/2-y,z
1/2+x,-y,-z
-x,1/2+y,-z
-x,-y,-z
1/2+x,1/2+y,-z
1/2-x,y,z
x,1/2-y,z
loop_
_atom_site_type_symbol
_atom_site_label
_atom_site_fract_x
_atom_site_fract_y
_atom_site_fract_z
Si Si1 0.811834 0.565803 0.361182
Si Si2 0.921793 0.433205 0.775885
Si Si3 0.031891 0.068152 0.389534
Si Si4 0.955818 0.571072 0.941399
Si Si5 0.814018 0.578334 0.175793
Si Si6 0.084662 0.932000 0.546680
Si Si7 0.308068 0.929435 0.158127
Si Si8 0.855100 0.073495 0.014184
O O1 0.750000 0.504706 0.383939
O O2 0.810675 0.750000 0.364520
O O3 0.828632 0.512365 0.267656
O O4 0.858397 0.506558 0.423718
O O5 0.922846 0.250000 0.757113
O O6 0.948597 0.528806 0.702195
O O7 0.956962 0.469508 0.857508
O O8 0.860336 0.500174 0.793522
O O9 0.036586 0.250000 0.407724
O O10 0.968548 0.013988 0.399838
O O11 0.072694 0.979958 0.451872
O O12 0.966885 0.750000 0.919752
O O13 0.900314 0.553062 0.992507
O O14 0.000000 0.500000 0.000000
O O15 0.750000 0.595550 0.169081
O O16 0.840251 0.750000 0.162288
O O17 0.833389 0.457691 0.106394
O O18 0.093141 0.750000 0.552435
O O19 0.250000 0.005114 0.187200
O O20 0.308010 0.750000 0.181853
O O21 0.309970 0.947974 0.057890
O O22 0.878148 0.250000 0.011396
#
# Coordination Sequence:
#
# PCOD8240887 Si02
#       8
#     8   8   8   8   8   8   8   8
#     4   9  19  36  56  79 111 148 180 216 270 332
#     4  10  20  35  56  82 110 141 179 223 272 323
#     4  10  21  38  59  82 110 143 180 223 271 323
#     4  11  22  37  54  73 102 139 178 220 268 319
#     4   9  18  32  49  72 104 141 180 219 260 310
#     4  10  21  37  59  85 108 136 178 226 273 321
#     4   8  15  29  49  73 102 136 174 217 263 310
#     4  10  19  31  49  74 102 135 177 222 269 318
#
# _framework density 18.897843999999999
#
# number of rings (size 3 to 8) (size 9 to 14) (size 15 to 20)
#    0.000    2.375    0.000    4.500    0.000    4.000 
#    0.000    4.375    0.000    9.750    0.000    0.000 
#    0.000    0.000    0.000    0.000    0.000    0.000 
#
# Total GULP energy -793126.843026 kJ/mol
# GULP energy per Si atom -12392.606922 kJ/mol
# Density = 1.885483 g / cm^3
# Si number density = 18.897844 Si / 1000 Ang^3
#
#
#
# Elastic Constant Matrix: (Units=GPa)
#
#
# Indices 1 2 3 4 5 6 
#
# 1 100.0029 18.7750 57.1247 0.0000 0.0000 0.0000
# 2 18.7750 40.8195 5.6593 0.0000 0.0000 0.0000
# 3 57.1247 5.6593 88.9032 0.0000 0.0000 0.0000
# 4 0.0000 0.0000 0.0000 19.8468 0.0000 0.0000
# 5 0.0000 0.0000 0.0000 0.0000 24.0634 0.0000
# 6 0.0000 0.0000 0.0000 0.0000 0.0000 25.4814
#
#
#
# Elastic Compliance Matrix: (Units=1/GPa)
#
#
# Indices 1 2 3 4 5 6 
#
# 1 0.017351 -0.006492 -0.010736 0.000000 0.000000 0.000000
# 2 -0.006492 0.027145 0.002444 0.000000 0.000000 0.000000
# 3 -0.010736 0.002444 0.017991 0.000000 0.000000 0.000000
# 4 0.000000 0.000000 0.000000 0.050386 0.000000 0.000000
# 5 0.000000 0.000000 0.000000 0.000000 0.041557 0.000000
# 6 0.000000 0.000000 0.000000 0.000000 0.000000 0.039244
#
#
# Mechanical properties :
#
#
# Convention : Reuss Voigt Hill
#
# Bulk Modulus (GPa) = 30.37787 43.64929 37.01358
# Shear Modulus (GPa) = 21.34781 23.75610 22.55196
#
# Velocity S-wave (km/s) = 3.36466 3.54938 3.45825
# Velocity P-wave (km/s) = 5.58608 6.32021 5.96445
#
# Compressibility (1/GPa) = 0.03291870
#
# Stress axis : x y z
#
# Youngs Moduli (GPa) = 57.63305 36.83865 55.58385
#
# Poissons Ratio (x) = 0.23917 0.59673
# Poissons Ratio (y) = 0.37417 -0.13583
# Poissons Ratio (z) = 0.61873 -0.09002
#
# Static dielectric constant tensor:
#      x y z
#    x 3.685800 0.000000 0.000000 
#    y 0.000000 3.479430 0.000000 
#    z 0.000000 0.000000 3.497950 
# 
# 
# High freq. dielectric constant tensor:
#      x y z
#    x 1.733850 0.000000 0.000000 
#    y 0.000000 1.725310 0.000000 
#    z 0.000000 0.000000 1.725380 
# 
# From -- ./inp_files/24752.got.cif
#   From: 2010.03.12/outbox.cif.g09.slc.cpg/sg59_13_cif.got.tgz:24752.got - 2010.04.16 16:29:54.
