data_PCOD8240586
_publ_section_title
;
Structure prediction by ZEFSAII (Michael W. Deem and Ramdas Pophale) SiO2 
 PCOD8240586
Probable space group: P M M N
;
_chemical_formula_sum "Si O2"
_cell_formula_units_Z 48
_cell_length_a 9.320435
_cell_length_b 30.449782
_cell_length_c 9.730604
_cell_angle_alpha 90.000000
_cell_angle_beta 90.000000
_cell_angle_gamma 90.000000
_cell_volume 2761.596150
_symmetry_space_group_name_H-M "P M M N"
_symmetry_group_IT_number 59
_space_group.IT_coordinate_system_code '2'
_symmetry_cell_setting 'orthorhombic'
loop_
_space_group_symop_operation_xyz
x,y,z
1/2-x,1/2-y,z
1/2+x,-y,-z
-x,1/2+y,-z
-x,-y,-z
1/2+x,1/2+y,-z
1/2-x,y,z
x,1/2-y,z
loop_
_atom_site_type_symbol
_atom_site_label
_atom_site_fract_x
_atom_site_fract_y
_atom_site_fract_z
Si Si1 0.411247 0.797852 0.655909
Si Si2 0.585139 0.548937 0.867362
Si Si3 0.082985 0.552566 0.138341
Si Si4 0.911550 0.201462 0.670612
Si Si5 0.580851 0.882166 0.330456
Si Si6 0.084581 0.379853 0.352431
O O1 0.250000 0.805065 0.708908
O O2 0.467701 0.750000 0.707712
O O3 0.416347 0.798232 0.492548
O O4 0.506105 0.837619 0.713693
O O5 0.750000 0.556713 0.912285
O O6 0.559144 0.498515 0.828042
O O7 0.543637 0.577070 0.733671
O O8 0.482320 0.564212 0.990114
O O9 0.250000 0.565570 0.139733
O O10 0.997910 0.578515 0.254226
O O11 0.750000 0.190428 0.720798
O O12 0.957195 0.250000 0.725223
O O13 0.020939 0.164505 0.726152
O O14 0.750000 0.884119 0.302759
O O15 0.540937 0.888446 0.490247
O O16 0.250000 0.368299 0.341949
#
# Coordination Sequence:
#
# PCOD8240586 Si02
#       6
#     8   8   8   8   8   8
#     4   8  14  25  42  66  96 127 157 190 229 274
#     4   9  19  36  53  69  93 124 159 200 242 286
#     4  10  20  34  52  71  92 124 163 198 238 288
#     4   8  14  26  44  66  94 127 160 193 230 274
#     4  10  19  30  47  73 102 128 156 193 236 281
#     4   9  18  31  48  72  99 126 157 194 237 281
#
# _framework density 17.381250999999999
#
# number of rings (size 3 to 8) (size 9 to 14) (size 15 to 20)
#    0.000    3.000    0.000    2.000    0.000    3.333 
#    0.000    3.333    0.000    1.000    0.000    4.667 
#    0.000    0.000    0.000    0.000    0.000    0.000 
#
# Total GULP energy -595012.943352 kJ/mol
# GULP energy per Si atom -12396.102987 kJ/mol
# Density = 1.734169 g / cm^3
# Si number density = 17.381251 Si / 1000 Ang^3
#
#
#
# Elastic Constant Matrix: (Units=GPa)
#
#
# Indices 1 2 3 4 5 6 
#
# 1 99.0201 71.6674 49.0423 0.0000 0.0000 0.0000
# 2 71.6674 126.1718 59.3225 0.0000 0.0000 0.0000
# 3 49.0423 59.3225 59.7079 0.0000 0.0000 0.0000
# 4 0.0000 0.0000 0.0000 3.3625 0.0000 0.0000
# 5 0.0000 0.0000 0.0000 0.0000 22.5729 0.0000
# 6 0.0000 0.0000 0.0000 0.0000 0.0000 35.3388
#
#
#
# Elastic Compliance Matrix: (Units=1/GPa)
#
#
# Indices 1 2 3 4 5 6 
#
# 1 0.019643 -0.006703 -0.009474 0.000000 0.000000 0.000000
# 2 -0.006703 0.017161 -0.011545 0.000000 0.000000 0.000000
# 3 -0.009474 -0.011545 0.036001 0.000000 0.000000 0.000000
# 4 0.000000 0.000000 0.000000 0.297400 0.000000 0.000000
# 5 0.000000 0.000000 0.000000 0.000000 0.044301 0.000000
# 6 0.000000 0.000000 0.000000 0.000000 0.000000 0.028297
#
#
# Mechanical properties :
#
#
# Convention : Reuss Voigt Hill
#
# Bulk Modulus (GPa) = 57.60293 71.66269 64.63281
# Shear Modulus (GPa) = 9.91998 19.24601 14.58299
#
# Velocity S-wave (km/s) = 2.39159 3.33120 2.89970
# Velocity P-wave (km/s) = 6.39054 7.49101 6.96255
#
# Compressibility (1/GPa) = 0.01736023
#
# Stress axis : x y z
#
# Youngs Moduli (GPa) = 50.90974 58.27178 27.77732
#
# Poissons Ratio (x) = 0.39058 0.26318
# Poissons Ratio (y) = 0.34123 0.32068
# Poissons Ratio (z) = 0.48234 0.67274
#
# Static dielectric constant tensor:
#      x y z
#    x 3.349220 0.000000 0.000000 
#    y 0.000000 3.580240 0.000000 
#    z 0.000000 0.000000 2.910680 
# 
# 
# High freq. dielectric constant tensor:
#      x y z
#    x 1.675110 0.000000 0.000000 
#    y 0.000000 1.683490 0.000000 
#    z 0.000000 0.000000 1.628460 
# 
# From -- ./inp_files/6335.got.cif
#   From: 2010.03.12/outbox.cif.g09.slc.cpg/sg59_4_cif.got.tgz:6335.got - 2010.04.16 16:29:54.
