data_PCOD8240623
_publ_section_title
;
Structure prediction by ZEFSAII (Michael W. Deem and Ramdas Pophale) SiO2 
 PCOD8240623
Probable space group: P M M N
;
_chemical_formula_sum "Si O2"
_cell_formula_units_Z 64
_cell_length_a 9.072644
_cell_length_b 19.774425
_cell_length_c 20.120891
_cell_angle_alpha 90.000000
_cell_angle_beta 90.000000
_cell_angle_gamma 90.000000
_cell_volume 3609.814976
_symmetry_space_group_name_H-M "P M M N"
_symmetry_group_IT_number 59
_space_group.IT_coordinate_system_code '2'
_symmetry_cell_setting 'orthorhombic'
loop_
_space_group_symop_operation_xyz
x,y,z
1/2-x,1/2-y,z
1/2+x,-y,-z
-x,1/2+y,-z
-x,-y,-z
1/2+x,1/2+y,-z
1/2-x,y,z
x,1/2-y,z
loop_
_atom_site_type_symbol
_atom_site_label
_atom_site_fract_x
_atom_site_fract_y
_atom_site_fract_z
Si Si1 0.578186 0.598454 0.739204
Si Si2 0.924186 0.048109 0.774208
Si Si3 0.076263 0.930677 0.372748
Si Si4 0.422859 0.057503 0.907631
Si Si5 0.924992 0.919112 0.594682
Si Si6 0.078992 0.912241 0.964718
Si Si7 0.587262 0.827804 0.865113
Si Si8 0.575180 0.171734 0.516478
O O1 0.750000 0.588152 0.728336
O O2 0.520455 0.529317 0.772071
O O3 0.517783 0.611471 0.665191
O O4 0.536339 0.658894 0.788994
O O5 0.750000 0.056703 0.785221
O O6 0.977135 0.080374 0.703629
O O7 0.006446 0.080713 0.837531
O O8 0.250000 0.937484 0.370048
O O9 0.025845 0.865406 0.415100
O O10 0.021755 0.001790 0.406101
O O11 0.250000 0.069970 0.903463
O O12 0.465622 0.980872 0.926821
O O13 0.490252 0.101714 0.967336
O O14 0.750000 0.913065 0.583177
O O15 0.005054 0.872598 0.541418
O O16 0.250000 0.910257 0.982062
O O17 0.036176 0.852860 0.915117
O O18 0.750000 0.861867 0.876706
O O19 0.602820 0.750000 0.876727
O O20 0.750000 0.169902 0.508316
O O21 0.519195 0.250000 0.516567
#
# Coordination Sequence:
#
# PCOD8240623 Si02
#       8
#     8   8   8   8   8   8   8   8
#     4   8  15  28  46  69  94 120 155 198 241 286
#     4   9  15  28  51  72  93 121 156 201 247 293
#     4   8  16  31  51  74  97 127 167 207 250 299
#     4  10  19  30  48  74 100 123 153 200 250 288
#     4   9  17  31  52  74  95 125 168 214 248 285
#     4  10  20  32  47  69  97 129 162 197 237 283
#     4  10  19  31  48  68  94 129 164 198 238 287
#     4  10  20  33  48  69 101 135 164 200 250 306
#
# _framework density 17.72944
#
# number of rings (size 3 to 8) (size 9 to 14) (size 15 to 20)
#    0.000    2.750    1.250    2.625    0.000    2.000 
#    0.000    5.000    0.000    0.750    0.000    1.750 
#    0.000    0.000    0.000    0.000    0.000    0.000 
#
# Total GULP energy -792999.180375 kJ/mol
# GULP energy per Si atom -12390.612193 kJ/mol
# Density = 1.768909 g / cm^3
# Si number density = 17.729440 Si / 1000 Ang^3
#
#
#
# Elastic Constant Matrix: (Units=GPa)
#
#
# Indices 1 2 3 4 5 6 
#
# 1 43.5973 20.9064 42.8449 0.0000 0.0000 0.0000
# 2 20.9064 71.0286 48.7739 0.0000 0.0000 0.0000
# 3 42.8449 48.7739 144.2793 0.0000 0.0000 0.0000
# 4 0.0000 0.0000 0.0000 17.0346 0.0000 0.0000
# 5 0.0000 0.0000 0.0000 0.0000 28.6518 0.0000
# 6 0.0000 0.0000 0.0000 0.0000 0.0000 18.0731
#
#
#
# Elastic Compliance Matrix: (Units=1/GPa)
#
#
# Indices 1 2 3 4 5 6 
#
# 1 0.033203 -0.003910 -0.008538 0.000000 0.000000 0.000000
# 2 -0.003910 0.018795 -0.005193 0.000000 0.000000 0.000000
# 3 -0.008538 -0.005193 0.011222 0.000000 0.000000 0.000000
# 4 0.000000 0.000000 0.000000 0.058704 0.000000 0.000000
# 5 0.000000 0.000000 0.000000 0.000000 0.034902 0.000000
# 6 0.000000 0.000000 0.000000 0.000000 0.000000 0.055331
#
#
# Mechanical properties :
#
#
# Convention : Reuss Voigt Hill
#
# Bulk Modulus (GPa) = 35.79267 53.77284 44.78275
# Shear Modulus (GPa) = 19.47409 22.51057 20.99233
#
# Velocity S-wave (km/s) = 3.31781 3.56711 3.44472
# Velocity P-wave (km/s) = 5.90841 6.88195 6.41368
#
# Compressibility (1/GPa) = 0.02793868
#
# Stress axis : x y z
#
# Youngs Moduli (GPa) = 30.11781 53.20442 89.11161
#
# Poissons Ratio (x) = 0.20802 0.76085
# Poissons Ratio (y) = 0.11776 0.46273
# Poissons Ratio (z) = 0.25715 0.27628
#
# Static dielectric constant tensor:
#      x y z
#    x 3.020160 0.000000 0.000000 
#    y 0.000000 3.122120 0.000000 
#    z 0.000000 0.000000 3.547920 
# 
# 
# High freq. dielectric constant tensor:
#      x y z
#    x 1.658620 0.000000 0.000000 
#    y 0.000000 1.650090 0.000000 
#    z 0.000000 0.000000 1.702630 
# 
# From -- ./inp_files/29801.got.cif
#   From: 2010.03.12/outbox.cif.g09.slc.cpg/sg59_15_cif.got.tgz:29801.got - 2010.04.16 16:29:54.
