data_PCOD8240333
_publ_section_title
;
Structure prediction by ZEFSAII (Michael W. Deem and Ramdas Pophale) SiO2 
 PCOD8240333
Probable space group: P M M N
;
_chemical_formula_sum "Si O2"
_cell_formula_units_Z 64
_cell_length_a 19.274611
_cell_length_b 9.090626
_cell_length_c 20.690743
_cell_angle_alpha 90.000000
_cell_angle_beta 90.000000
_cell_angle_gamma 90.000000
_cell_volume 3625.396398
_symmetry_space_group_name_H-M "P M M N"
_symmetry_group_IT_number 59
_space_group.IT_coordinate_system_code '2'
_symmetry_cell_setting 'orthorhombic'
loop_
_space_group_symop_operation_xyz
x,y,z
1/2-x,1/2-y,z
1/2+x,-y,-z
-x,1/2+y,-z
-x,-y,-z
1/2+x,1/2+y,-z
1/2-x,y,z
x,1/2-y,z
loop_
_atom_site_type_symbol
_atom_site_label
_atom_site_fract_x
_atom_site_fract_y
_atom_site_fract_z
Si Si1 0.084492 0.077935 0.316272
Si Si2 0.583612 0.916277 0.937636
Si Si3 0.080043 0.415950 0.810436
Si Si4 0.668508 0.418121 0.575836
Si Si5 0.085095 0.916014 0.188005
Si Si6 0.918112 0.416253 0.064002
Si Si7 0.173251 0.575421 0.568907
Si Si8 0.424284 0.577238 0.682325
O O1 0.095079 0.250000 0.305148
O O2 0.004433 0.038868 0.329690
O O3 0.128239 0.026348 0.377167
O O4 0.112236 0.995907 0.252417
O O5 0.612016 0.750000 0.938582
O O6 0.500869 0.916668 0.936363
O O7 0.613772 0.998216 0.874583
O O8 0.610978 0.000137 0.001117
O O9 0.108822 0.250000 0.811081
O O10 0.110367 0.501658 0.872348
O O11 0.105345 0.496611 0.745610
O O12 0.997475 0.417101 0.813364
O O13 0.750000 0.431820 0.588789
O O14 0.644130 0.250000 0.587032
O O15 0.650549 0.471820 0.503179
O O16 0.113994 0.750000 0.186958
O O17 0.889685 0.250000 0.063706
O O18 0.250000 0.512510 0.584975
O O19 0.176175 0.750000 0.571031
O O20 0.118206 0.515400 0.620900
O O21 0.413142 0.750000 0.692703
#
# Coordination Sequence:
#
# PCOD8240333 Si02
#       8
#     8   8   8   8   8   8   8   8
#     4  10  19  29  43  66  94 120 146 182 229 274
#     4   9  15  22  33  51  77 109 145 184 224 265
#     4   9  16  25  37  55  81 113 147 183 224 266
#     4   9  18  33  51  68  87 115 151 187 222 265
#     4   9  16  26  39  55  79 113 150 184 219 263
#     4   9  15  22  33  50  75 110 149 184 219 263
#     4   8  15  30  51  70  88 115 151 187 222 264
#     4   9  17  29  45  66  91 118 149 185 225 270
#
# _framework density 17.653241000000001
#
# number of rings (size 3 to 8) (size 9 to 14) (size 15 to 20)
#    0.000    3.000    0.000    2.625    0.000    7.250 
#    0.000    0.625    0.000    1.125    0.000    0.000 
#    0.000    1.000    0.000    6.000    0.000    8.375 
#
# Total GULP energy -793479.672507 kJ/mol
# GULP energy per Si atom -12398.119883 kJ/mol
# Density = 1.761306 g / cm^3
# Si number density = 17.653241 Si / 1000 Ang^3
#
#
#
# Elastic Constant Matrix: (Units=GPa)
#
#
# Indices 1 2 3 4 5 6 
#
# 1 25.9337 24.3944 41.3827 0.0000 0.0000 0.0000
# 2 24.3944 116.9158 77.6510 0.0000 0.0000 0.0000
# 3 41.3827 77.6510 179.6059 0.0000 0.0000 0.0000
# 4 0.0000 0.0000 0.0000 34.3247 0.0000 0.0000
# 5 0.0000 0.0000 0.0000 0.0000 0.1814 0.0000
# 6 0.0000 0.0000 0.0000 0.0000 0.0000 11.2253
#
#
#
# Elastic Compliance Matrix: (Units=1/GPa)
#
#
# Indices 1 2 3 4 5 6 
#
# 1 0.062927 -0.004910 -0.012376 0.000000 0.000000 0.000000
# 2 -0.004910 0.012382 -0.004222 0.000000 0.000000 0.000000
# 3 -0.012376 -0.004222 0.010245 0.000000 0.000000 0.000000
# 4 0.000000 0.000000 0.000000 0.029134 0.000000 0.000000
# 5 0.000000 0.000000 0.000000 0.000000 5.513426 0.000000
# 6 0.000000 0.000000 0.000000 0.000000 0.000000 0.089085
#
#
# Mechanical properties :
#
#
# Convention : Reuss Voigt Hill
#
# Bulk Modulus (GPa) = 23.50864 67.70129 45.60496
# Shear Modulus (GPa) = 0.86589 21.08142 10.97365
#
# Velocity S-wave (km/s) = 0.70112 3.45946 2.49594
# Velocity P-wave (km/s) = 3.74182 7.37503 5.84775
#
# Compressibility (1/GPa) = 0.04253756
#
# Stress axis : x y z
#
# Youngs Moduli (GPa) = 15.89137 80.76533 97.61279
#
# Poissons Ratio (x) = 0.39655 1.20807
# Poissons Ratio (y) = 0.07803 0.41210
# Poissons Ratio (z) = 0.19667 0.34097
#
# Static dielectric constant tensor:
#      x y z
#    x 2.759630 0.000000 0.000000 
#    y 0.000000 3.294540 0.000000 
#    z 0.000000 0.000000 3.534840 
# 
# 
# High freq. dielectric constant tensor:
#      x y z
#    x 1.613210 0.000000 0.000000 
#    y 0.000000 1.682330 0.000000 
#    z 0.000000 0.000000 1.700710 
# 
# From -- ./inp_files/30975.got.cif
#   From: 2010.03.12/outbox.cif.g09.slc.cpg/sg59_16_cif.got.tgz:30975.got - 2010.04.16 16:29:54.
