data_PCOD8240720
_publ_section_title
;
Structure prediction by ZEFSAII (Michael W. Deem and Ramdas Pophale) SiO2 
 PCOD8240720
Probable space group: P M M N
;
_chemical_formula_sum "Si O2"
_cell_formula_units_Z 56
_cell_length_a 13.939907
_cell_length_b 16.515426
_cell_length_c 14.847802
_cell_angle_alpha 90.000000
_cell_angle_beta 90.000000
_cell_angle_gamma 90.000000
_cell_volume 3418.312981
_symmetry_space_group_name_H-M "P M M N"
_symmetry_group_IT_number 59
_space_group.IT_coordinate_system_code '2'
_symmetry_cell_setting 'orthorhombic'
loop_
_space_group_symop_operation_xyz
x,y,z
1/2-x,1/2-y,z
1/2+x,-y,-z
-x,1/2+y,-z
-x,-y,-z
1/2+x,1/2+y,-z
1/2-x,y,z
x,1/2-y,z
loop_
_atom_site_type_symbol
_atom_site_label
_atom_site_fract_x
_atom_site_fract_y
_atom_site_fract_z
Si Si1 0.641467 0.345161 0.681548
Si Si2 0.356004 0.658648 0.850569
Si Si3 0.141357 0.547594 0.677848
Si Si4 0.363885 0.659974 0.520493
Si Si5 0.977331 0.931991 0.929905
Si Si6 0.989439 0.557260 0.211172
Si Si7 0.361425 0.345372 0.932191
O O1 0.750000 0.375756 0.697019
O O2 0.635339 0.250000 0.697101
O O3 0.607162 0.366817 0.580353
O O4 0.574168 0.386919 0.754188
O O5 0.250000 0.651742 0.893831
O O6 0.383092 0.750000 0.826636
O O7 0.360052 0.610981 0.758177
O O8 0.429791 0.625304 0.923814
O O9 0.250000 0.517182 0.659203
O O10 0.096919 0.592911 0.590391
O O11 0.075921 0.470969 0.704471
O O12 0.250000 0.665047 0.529155
O O13 0.405880 0.750000 0.541527
O O14 0.889095 0.877850 0.967329
O O15 0.960427 0.978103 0.834911
O O16 0.000000 0.000000 0.000000
O O17 0.923102 0.607381 0.142314
O O18 0.250000 0.364465 0.915243
O O19 0.382470 0.250000 0.925801
#
# Coordination Sequence:
#
# PCOD8240720 Si02
#       7
#     8   8   8   8   8   8   8
#     4   9  18  32  48  65  88 119 152 185 220 260
#     4   9  16  27  45  67  90 115 143 178 219 260
#     4   9  16  26  43  69  98 122 144 175 216 259
#     4   8  14  26  44  66  93 124 154 180 210 254
#     4   9  19  31  44  63  87 113 141 179 222 265
#     4  10  19  31  47  69  92 114 144 184 226 264
#     4  10  20  34  50  64  83 115 151 183 217 263
#
# _framework density 16.382349999999999
#
# number of rings (size 3 to 8) (size 9 to 14) (size 15 to 20)
#    0.000    2.857    0.000    2.571    0.000    6.286 
#    0.000    2.143    0.000    7.714    0.000    0.000 
#    0.000    1.143    0.000    0.571    0.000    0.000 
#
# Total GULP energy -694021.381950 kJ/mol
# GULP energy per Si atom -12393.238963 kJ/mol
# Density = 1.634506 g / cm^3
# Si number density = 16.382350 Si / 1000 Ang^3
#
#
#
# Elastic Constant Matrix: (Units=GPa)
#
#
# Indices 1 2 3 4 5 6 
#
# 1 79.0858 45.1402 48.0906 0.0000 0.0000 0.0000
# 2 45.1402 69.7208 31.1135 0.0000 0.0000 0.0000
# 3 48.0906 31.1135 71.1704 0.0000 0.0000 0.0000
# 4 0.0000 0.0000 0.0000 28.7650 0.0000 0.0000
# 5 0.0000 0.0000 0.0000 0.0000 23.2626 0.0000
# 6 0.0000 0.0000 0.0000 0.0000 0.0000 26.9958
#
#
#
# Elastic Compliance Matrix: (Units=1/GPa)
#
#
# Indices 1 2 3 4 5 6 
#
# 1 0.027604 -0.011862 -0.013466 0.000000 0.000000 0.000000
# 2 -0.011862 0.022917 -0.002003 0.000000 0.000000 0.000000
# 3 -0.013466 -0.002003 0.024026 0.000000 0.000000 0.000000
# 4 0.000000 0.000000 0.000000 0.034764 0.000000 0.000000
# 5 0.000000 0.000000 0.000000 0.000000 0.042987 0.000000
# 6 0.000000 0.000000 0.000000 0.000000 0.000000 0.037043
#
#
# Mechanical properties :
#
#
# Convention : Reuss Voigt Hill
#
# Bulk Modulus (GPa) = 50.29406 52.07395 51.18401
# Shear Modulus (GPa) = 19.94948 22.18018 21.06483
#
# Velocity S-wave (km/s) = 3.49340 3.68354 3.58973
# Velocity P-wave (km/s) = 6.85847 7.06731 6.96367
#
# Compressibility (1/GPa) = 0.01988306
#
# Stress axis : x y z
#
# Youngs Moduli (GPa) = 36.22671 43.63558 41.62191
#
# Poissons Ratio (x) = 0.51763 0.56049
# Poissons Ratio (y) = 0.42974 0.08337
# Poissons Ratio (z) = 0.48784 0.08740
#
# Static dielectric constant tensor:
#      x y z
#    x 3.057010 0.000000 0.000000 
#    y 0.000000 3.229670 0.000000 
#    z 0.000000 0.000000 3.238990 
# 
# 
# High freq. dielectric constant tensor:
#      x y z
#    x 1.607530 0.000000 0.000000 
#    y 0.000000 1.633930 0.000000 
#    z 0.000000 0.000000 1.624420 
# 
# From -- ./inp_files/23297.got.cif
#   From: 2010.03.12/outbox.cif.g09.slc.cpg/sg59_12_cif.got.tgz:23297.got - 2010.04.16 16:29:54.
