data_PCOD8240743
_publ_section_title
;
Structure prediction by ZEFSAII (Michael W. Deem and Ramdas Pophale) SiO2 
 PCOD8240743
Probable space group: P M M N
;
_chemical_formula_sum "Si O2"
_cell_formula_units_Z 40
_cell_length_a 28.032534
_cell_length_b 9.096504
_cell_length_c 10.101459
_cell_angle_alpha 90.000000
_cell_angle_beta 90.000000
_cell_angle_gamma 90.000000
_cell_volume 2575.852425
_symmetry_space_group_name_H-M "P M M N"
_symmetry_group_IT_number 59
_space_group.IT_coordinate_system_code '2'
_symmetry_cell_setting 'orthorhombic'
loop_
_space_group_symop_operation_xyz
x,y,z
1/2-x,1/2-y,z
1/2+x,-y,-z
-x,1/2+y,-z
-x,-y,-z
1/2+x,1/2+y,-z
1/2-x,y,z
x,1/2-y,z
loop_
_atom_site_type_symbol
_atom_site_label
_atom_site_fract_x
_atom_site_fract_y
_atom_site_fract_z
Si Si1 0.889163 0.082823 0.148349
Si Si2 0.554580 0.921614 0.359297
Si Si3 0.803481 0.082746 0.983313
Si Si4 0.611693 0.922753 0.893618
Si Si5 0.041760 0.079509 0.339695
O O1 0.907853 0.250000 0.155161
O O2 0.902013 0.999573 0.283210
O O3 0.831496 0.076947 0.125215
O O4 0.913276 0.001564 0.020748
O O5 0.556208 0.750000 0.329540
O O6 0.561021 0.957435 0.514077
O O7 0.504650 0.984470 0.305707
O O8 0.750000 0.019897 0.999986
O O9 0.802232 0.250000 0.930727
O O10 0.833824 0.984083 0.878812
O O11 0.612828 0.750000 0.918664
O O12 0.583105 0.964693 0.761895
O O13 0.027565 0.250000 0.327817
#
# Coordination Sequence:
#
# PCOD8240743 Si02
#       5
#     8   8   8   8   8
#     4   9  18  31  47  69  94 122 152 190 233 270
#     4  10  19  31  48  68  92 125 160 191 224 270
#     4   8  16  31  49  69  93 119 149 188 232 274
#     4   9  17  30  48  71  93 119 153 190 229 270
#     4   9  19  33  47  66  95 126 155 189 229 273
#
# _framework density 15.528841
#
# number of rings (size 3 to 8) (size 9 to 14) (size 15 to 20)
#    1.200    1.800    0.000    1.200    0.000    3.600 
#    0.000    0.000    0.000    1.200    0.000    5.600 
#    0.000    0.000    0.000    0.000    0.000    0.000 
#
# Total GULP energy -495597.548872 kJ/mol
# GULP energy per Si atom -12389.938722 kJ/mol
# Density = 1.549350 g / cm^3
# Si number density = 15.528841 Si / 1000 Ang^3
#
#
#
# Elastic Constant Matrix: (Units=GPa)
#
#
# Indices 1 2 3 4 5 6 
#
# 1 77.3152 34.5561 38.0850 0.0000 0.0000 0.0000
# 2 34.5561 75.3381 32.8180 0.0000 0.0000 0.0000
# 3 38.0850 32.8180 67.2275 0.0000 0.0000 0.0000
# 4 0.0000 0.0000 0.0000 23.6591 0.0000 0.0000
# 5 0.0000 0.0000 0.0000 0.0000 12.1336 0.0000
# 6 0.0000 0.0000 0.0000 0.0000 0.0000 23.6830
#
#
#
# Elastic Compliance Matrix: (Units=1/GPa)
#
#
# Indices 1 2 3 4 5 6 
#
# 1 0.019439 -0.005232 -0.008458 0.000000 0.000000 0.000000
# 2 -0.005232 0.018266 -0.005953 0.000000 0.000000 0.000000
# 3 -0.008458 -0.005953 0.022573 0.000000 0.000000 0.000000
# 4 0.000000 0.000000 0.000000 0.042267 0.000000 0.000000
# 5 0.000000 0.000000 0.000000 0.000000 0.082416 0.000000
# 6 0.000000 0.000000 0.000000 0.000000 0.000000 0.042224
#
#
# Mechanical properties :
#
#
# Convention : Reuss Voigt Hill
#
# Bulk Modulus (GPa) = 47.63829 47.86657 47.75243
# Shear Modulus (GPa) = 18.28359 19.52325 18.90342
#
# Velocity S-wave (km/s) = 3.43504 3.54958 3.49278
# Velocity P-wave (km/s) = 6.81737 6.90584 6.86175
#
# Compressibility (1/GPa) = 0.02099152
#
# Stress axis : x y z
#
# Youngs Moduli (GPa) = 51.44315 54.74523 44.30118
#
# Poissons Ratio (x) = 0.28641 0.37472
# Poissons Ratio (y) = 0.26913 0.26373
# Poissons Ratio (z) = 0.43513 0.32591
#
# Static dielectric constant tensor:
#      x y z
#    x 2.841410 0.000000 0.000000 
#    y 0.000000 3.027800 0.000000 
#    z 0.000000 0.000000 2.816510 
# 
# 
# High freq. dielectric constant tensor:
#      x y z
#    x 1.575000 0.000000 0.000000 
#    y 0.000000 1.609560 0.000000 
#    z 0.000000 0.000000 1.575860 
# 
# From -- ./inp_files/18812.got.cif
#   From: 2010.03.12/outbox.cif.g09.slc.cpg/sg59_10_cif.got.tgz:18812.got - 2010.04.16 16:29:54.
