data_PCOD8240452
_publ_section_title
;
Structure prediction by ZEFSAII (Michael W. Deem and Ramdas Pophale) SiO2 
 PCOD8240452
Probable space group: P M M N
;
_chemical_formula_sum "Si O2"
_cell_formula_units_Z 64
_cell_length_a 8.927185
_cell_length_b 17.833431
_cell_length_c 23.346359
_cell_angle_alpha 90.000000
_cell_angle_beta 90.000000
_cell_angle_gamma 90.000000
_cell_volume 3716.794930
_symmetry_space_group_name_H-M "P M M N"
_symmetry_group_IT_number 59
_space_group.IT_coordinate_system_code '2'
_symmetry_cell_setting 'orthorhombic'
loop_
_space_group_symop_operation_xyz
x,y,z
1/2-x,1/2-y,z
1/2+x,-y,-z
-x,1/2+y,-z
-x,-y,-z
1/2+x,1/2+y,-z
1/2-x,y,z
x,1/2-y,z
loop_
_atom_site_type_symbol
_atom_site_label
_atom_site_fract_x
_atom_site_fract_y
_atom_site_fract_z
Si Si1 0.924939 0.030863 0.367091
Si Si2 0.925602 0.540446 0.129502
Si Si3 0.426803 0.835170 0.552657
Si Si4 0.075007 0.067975 0.532338
Si Si5 0.419481 0.334218 0.177369
Si Si6 0.071448 0.536697 0.759613
Si Si7 0.073132 0.164022 0.954159
Si Si8 0.573436 0.111234 0.069506
O O1 0.750000 0.045722 0.360843
O O2 0.989015 0.105237 0.399974
O O3 0.995273 0.020703 0.303718
O O4 0.954568 0.952276 0.400720
O O5 0.750000 0.543320 0.136655
O O6 0.991026 0.523832 0.193465
O O7 0.981270 0.618990 0.102690
O O8 0.969520 0.473991 0.085829
O O9 0.250000 0.842739 0.545640
O O10 0.472539 0.750000 0.569466
O O11 0.499121 0.855371 0.490365
O O12 0.250000 0.071311 0.518777
O O13 0.000000 0.000000 0.500000
O O14 0.250000 0.365403 0.173913
O O15 0.420799 0.250000 0.200800
O O16 0.517106 0.381512 0.221803
O O17 0.492119 0.334370 0.114323
O O18 0.250000 0.536618 0.759150
O O19 0.250000 0.154289 0.964790
O O20 0.028156 0.250000 0.944810
O O21 0.985635 0.128987 0.006883
O O22 0.750000 0.125605 0.072256
#
# Coordination Sequence:
#
# PCOD8240452 Si02
#       8
#     8   8   8   8   8   8   8   8
#     4   8  15  28  47  69  90 117 154 193 228 262
#     4   8  16  30  46  65  87 112 144 180 218 261
#     4   9  17  29  45  68  98 126 151 184 229 277
#     4   9  16  28  46  67  92 122 155 188 224 266
#     4  10  20  32  44  62  92 123 147 178 222 268
#     4   9  17  31  50  67  85 115 155 191 219 255
#     4  10  19  30  45  65  89 114 138 172 223 276
#     4  10  19  31  48  67  86 111 146 185 220 262
#
# _framework density 17.219135999999999
#
# number of rings (size 3 to 8) (size 9 to 14) (size 15 to 20)
#    0.000    2.875    0.000    3.375    0.000    3.500 
#    0.000    6.875    0.000    0.750    0.000    3.500 
#    0.000    0.000    0.000    0.000    0.000    0.000 
#
# Total GULP energy -792978.220078 kJ/mol
# GULP energy per Si atom -12390.284689 kJ/mol
# Density = 1.717994 g / cm^3
# Si number density = 17.219136 Si / 1000 Ang^3
#
#
#
# Elastic Constant Matrix: (Units=GPa)
#
#
# Indices 1 2 3 4 5 6 
#
# 1 31.7844 18.4532 24.0637 0.0000 0.0000 0.0000
# 2 18.4532 81.0663 64.4073 0.0000 0.0000 0.0000
# 3 24.0637 64.4073 141.8843 0.0000 0.0000 0.0000
# 4 0.0000 0.0000 0.0000 15.9510 0.0000 0.0000
# 5 0.0000 0.0000 0.0000 0.0000 18.5824 0.0000
# 6 0.0000 0.0000 0.0000 0.0000 0.0000 19.9076
#
#
#
# Elastic Compliance Matrix: (Units=1/GPa)
#
#
# Indices 1 2 3 4 5 6 
#
# 1 0.037581 -0.005460 -0.003895 0.000000 0.000000 0.000000
# 2 -0.005460 0.020087 -0.008193 0.000000 0.000000 0.000000
# 3 -0.003895 -0.008193 0.011428 0.000000 0.000000 0.000000
# 4 0.000000 0.000000 0.000000 0.062692 0.000000 0.000000
# 5 0.000000 0.000000 0.000000 0.000000 0.053814 0.000000
# 6 0.000000 0.000000 0.000000 0.000000 0.000000 0.050232
#
#
# Mechanical properties :
#
#
# Convention : Reuss Voigt Hill
#
# Bulk Modulus (GPa) = 29.41124 52.06485 40.73804
# Shear Modulus (GPa) = 17.71397 20.74225 19.22811
#
# Velocity S-wave (km/s) = 3.21087 3.47451 3.34529
# Velocity P-wave (km/s) = 5.55553 6.81165 6.21540
#
# Compressibility (1/GPa) = 0.03400061
#
# Stress axis : x y z
#
# Youngs Moduli (GPa) = 26.60928 49.78252 87.50753
#
# Poissons Ratio (x) = 0.27180 0.34087
# Poissons Ratio (y) = 0.14528 0.71691
# Poissons Ratio (z) = 0.10365 0.40784
#
# Static dielectric constant tensor:
#      x y z
#    x 3.108730 0.000000 0.000000 
#    y 0.000000 3.380160 0.000000 
#    z 0.000000 0.000000 3.741320 
# 
# 
# High freq. dielectric constant tensor:
#      x y z
#    x 1.646700 0.000000 0.000000 
#    y 0.000000 1.648830 0.000000 
#    z 0.000000 0.000000 1.658070 
# 
# From -- ./inp_files/31744.got.cif
#   From: 2010.03.12/outbox.cif.g09.slc.cpg/sg59_16_cif.got.tgz:31744.got - 2010.04.16 16:29:54.
