data_PCOD8240442
_publ_section_title
;
Structure prediction by ZEFSAII (Michael W. Deem and Ramdas Pophale) SiO2 
 PCOD8240442
Probable space group: P M M N
;
_chemical_formula_sum "Si O2"
_cell_formula_units_Z 64
_cell_length_a 28.790504
_cell_length_b 8.862188
_cell_length_c 15.713749
_cell_angle_alpha 90.000000
_cell_angle_beta 90.000000
_cell_angle_gamma 90.000000
_cell_volume 4009.313701
_symmetry_space_group_name_H-M "P M M N"
_symmetry_group_IT_number 59
_space_group.IT_coordinate_system_code '2'
_symmetry_cell_setting 'orthorhombic'
loop_
_space_group_symop_operation_xyz
x,y,z
1/2-x,1/2-y,z
1/2+x,-y,-z
-x,1/2+y,-z
-x,-y,-z
1/2+x,1/2+y,-z
1/2-x,y,z
x,1/2-y,z
loop_
_atom_site_type_symbol
_atom_site_label
_atom_site_fract_x
_atom_site_fract_y
_atom_site_fract_z
Si Si1 0.698446 0.922633 0.079792
Si Si2 0.451271 0.576289 0.497433
Si Si3 0.104466 0.426168 0.836209
Si Si4 0.300553 0.928553 0.097698
Si Si5 0.557628 0.072008 0.319243
Si Si6 0.896130 0.429034 0.841942
Si Si7 0.949857 0.070778 0.009315
Si Si8 0.043567 0.928267 0.313292
O O1 0.750000 0.955394 0.117986
O O2 0.694647 0.750000 0.049247
O O3 0.659298 0.958290 0.150018
O O4 0.688772 0.025954 0.998729
O O5 0.500000 0.500000 0.500000
O O6 0.462488 0.750000 0.503809
O O7 0.423795 0.531691 0.584185
O O8 0.429753 0.539069 0.404058
O O9 0.092576 0.250000 0.841926
O O10 0.092654 0.487582 0.743127
O O11 0.073767 0.512224 0.905205
O O12 0.250000 0.992906 0.127486
O O13 0.299611 0.750000 0.099979
O O14 0.342503 0.987873 0.157702
O O15 0.558850 0.250000 0.300922
O O16 0.505193 0.013916 0.305981
O O17 0.897147 0.250000 0.838081
O O18 0.922690 0.494030 0.759713
O O19 0.920421 0.485086 0.928214
O O20 0.953788 0.250000 0.013507
O O21 0.000000 0.000000 0.000000
O O22 0.034094 0.750000 0.301472
#
# Coordination Sequence:
#
# PCOD8240442 Si02
#       8
#     8   8   8   8   8   8   8   8
#     4   9  18  32  48  65  85 110 145 190 232 268
#     4   8  15  27  44  64  85 113 146 183 225 262
#     4  11  21  32  46  65  88 119 154 186 226 272
#     4   9  16  28  46  65  85 110 142 180 221 262
#     4  10  19  30  44  65  91 117 150 189 224 264
#     4   9  17  28  43  64  87 113 144 176 211 256
#     4  11  21  32  44  62  92 125 155 182 213 257
#     4   9  16  29  47  65  89 119 149 181 220 268
#
# _framework density 15.962832000000001
#
# number of rings (size 3 to 8) (size 9 to 14) (size 15 to 20)
#    0.000    2.500    1.250    1.875    0.000    2.000 
#    0.000    1.250    0.000    0.000    0.000    0.875 
#    0.000    3.000    0.000    0.000    0.000    0.000 
#
# Total GULP energy -792892.494644 kJ/mol
# GULP energy per Si atom -12388.945229 kJ/mol
# Density = 1.592650 g / cm^3
# Si number density = 15.962832 Si / 1000 Ang^3
#
#
#
# Elastic Constant Matrix: (Units=GPa)
#
#
# Indices 1 2 3 4 5 6 
#
# 1 102.3192 22.4797 44.7045 0.0000 0.0000 0.0000
# 2 22.4797 34.6177 20.4956 0.0000 0.0000 0.0000
# 3 44.7045 20.4956 101.1817 0.0000 0.0000 0.0000
# 4 0.0000 0.0000 0.0000 17.4537 0.0000 0.0000
# 5 0.0000 0.0000 0.0000 0.0000 13.3194 0.0000
# 6 0.0000 0.0000 0.0000 0.0000 0.0000 16.6504
#
#
#
# Elastic Compliance Matrix: (Units=1/GPa)
#
#
# Indices 1 2 3 4 5 6 
#
# 1 0.013046 -0.005748 -0.004600 0.000000 0.000000 0.000000
# 2 -0.005748 0.035356 -0.004622 0.000000 0.000000 0.000000
# 3 -0.004600 -0.004622 0.012852 0.000000 0.000000 0.000000
# 4 0.000000 0.000000 0.000000 0.057294 0.000000 0.000000
# 5 0.000000 0.000000 0.000000 0.000000 0.075078 0.000000
# 6 0.000000 0.000000 0.000000 0.000000 0.000000 0.060059
#
#
# Mechanical properties :
#
#
# Convention : Reuss Voigt Hill
#
# Bulk Modulus (GPa) = 31.93486 45.94201 38.93844
# Shear Modulus (GPa) = 17.00315 19.51397 18.25856
#
# Velocity S-wave (km/s) = 3.26724 3.50017 3.38571
# Velocity P-wave (km/s) = 5.85511 6.72146 6.30319
#
# Compressibility (1/GPa) = 0.03131374
#
# Stress axis : x y z
#
# Youngs Moduli (GPa) = 76.65256 28.28353 77.81091
#
# Poissons Ratio (x) = 0.16259 0.35790
# Poissons Ratio (y) = 0.44063 0.35965
# Poissons Ratio (z) = 0.35257 0.13073
#
# Static dielectric constant tensor:
#      x y z
#    x 3.008030 0.000000 0.000000 
#    y 0.000000 2.023060 0.000000 
#    z 0.000000 0.000000 3.532210 
# 
# 
# High freq. dielectric constant tensor:
#      x y z
#    x 1.595390 0.000000 0.000000 
#    y 0.000000 1.610560 0.000000 
#    z 0.000000 0.000000 1.607250 
# 
# From -- ./inp_files/21887.got.cif
#   From: 2010.03.12/outbox.cif.g09.slc.cpg/sg59_11_cif.got.tgz:21887.got - 2010.04.16 16:29:54.
