data_PCOD8240061
_publ_section_title
;
Structure prediction by ZEFSAII (Michael W. Deem and Ramdas Pophale) SiO2 
 PCOD8240061
Probable space group: P M M N
;
_chemical_formula_sum "Si O2"
_cell_formula_units_Z 64
_cell_length_a 23.953249
_cell_length_b 8.842426
_cell_length_c 15.468311
_cell_angle_alpha 90.000000
_cell_angle_beta 90.000000
_cell_angle_gamma 90.000000
_cell_volume 3276.263009
_symmetry_space_group_name_H-M "P M M N"
_symmetry_group_IT_number 59
_space_group.IT_coordinate_system_code '2'
_symmetry_cell_setting 'orthorhombic'
loop_
_space_group_symop_operation_xyz
x,y,z
1/2-x,1/2-y,z
1/2+x,-y,-z
-x,1/2+y,-z
-x,-y,-z
1/2+x,1/2+y,-z
1/2-x,y,z
x,1/2-y,z
loop_
_atom_site_type_symbol
_atom_site_label
_atom_site_fract_x
_atom_site_fract_y
_atom_site_fract_z
Si Si1 0.498996 0.427867 0.907163
Si Si2 0.607447 0.925302 0.347356
Si Si3 0.383757 0.928058 0.346714
Si Si4 0.502943 0.928803 0.593822
Si Si5 0.116093 0.572052 0.154794
Si Si6 0.685661 0.926607 0.505297
Si Si7 0.879366 0.575416 0.154570
Si Si8 0.687401 0.429420 0.003782
O O1 0.501844 0.250000 0.919097
O O2 0.552609 0.487960 0.854202
O O3 0.443436 0.476865 0.856741
O O4 0.500000 0.500000 0.000000
O O5 0.590394 0.750000 0.357623
O O6 0.651475 0.975198 0.420289
O O7 0.636538 0.953547 0.254611
O O8 0.551629 0.024134 0.352821
O O9 0.394261 0.750000 0.357150
O O10 0.361688 0.969542 0.250391
O O11 0.441890 0.012811 0.359456
O O12 0.336707 0.980756 0.413192
O O13 0.506036 0.750000 0.585149
O O14 0.500000 0.000000 0.500000
O O15 0.116844 0.750000 0.141736
O O16 0.154541 0.500878 0.079007
O O17 0.750000 0.969002 0.489801
O O18 0.677915 0.750000 0.524681
O O19 0.871702 0.750000 0.129071
O O20 0.839754 0.478022 0.093905
O O21 0.750000 0.493691 0.999843
O O22 0.687224 0.250000 0.000427
#
# Coordination Sequence:
#
# PCOD8240061 Si02
#       8
#     8   8   8   8   8   8   8   8
#     4  10  18  32  55  82 111 145 181 226 280 337
#     4  10  21  39  62  86 117 155 195 239 289 352
#     4  11  22  38  62  89 117 153 197 244 291 349
#     4  12  23  37  60  90 123 156 189 235 293 353
#     4   9  19  36  58  83 114 149 189 237 289 343
#     4  10  22  40  60  83 114 153 197 245 296 348
#     4  10  21  36  58  87 116 148 191 239 289 344
#     4  10  21  38  59  82 112 153 198 242 287 339
#
# _framework density 19.534451000000001
#
# number of rings (size 3 to 8) (size 9 to 14) (size 15 to 20)
#    0.000    1.750    2.500    2.250    0.000    4.000 
#    0.000    6.250    0.000    0.000    0.000    0.000 
#    0.000    0.000    0.000    0.000    0.000    0.000 
#
# Total GULP energy -793656.677230 kJ/mol
# GULP energy per Si atom -12400.885582 kJ/mol
# Density = 1.948999 g / cm^3
# Si number density = 19.534451 Si / 1000 Ang^3
#
#
#
# Elastic Constant Matrix: (Units=GPa)
#
#
# Indices 1 2 3 4 5 6 
#
# 1 133.2728 34.0375 55.5051 0.0000 0.0000 0.0000
# 2 34.0375 57.3838 30.0270 0.0000 0.0000 0.0000
# 3 55.5051 30.0270 142.4666 0.0000 0.0000 0.0000
# 4 0.0000 0.0000 0.0000 30.5946 0.0000 0.0000
# 5 0.0000 0.0000 0.0000 0.0000 14.5643 0.0000
# 6 0.0000 0.0000 0.0000 0.0000 0.0000 27.0043
#
#
#
# Elastic Compliance Matrix: (Units=1/GPa)
#
#
# Indices 1 2 3 4 5 6 
#
# 1 0.009816 -0.004295 -0.002919 0.000000 0.000000 0.000000
# 2 -0.004295 0.021466 -0.002851 0.000000 0.000000 0.000000
# 3 -0.002919 -0.002851 0.008757 0.000000 0.000000 0.000000
# 4 0.000000 0.000000 0.000000 0.032686 0.000000 0.000000
# 5 0.000000 0.000000 0.000000 0.000000 0.068661 0.000000
# 6 0.000000 0.000000 0.000000 0.000000 0.000000 0.037031
#
#
# Mechanical properties :
#
#
# Convention : Reuss Voigt Hill
#
# Bulk Modulus (GPa) = 50.22785 63.58472 56.90629
# Shear Modulus (GPa) = 24.36839 28.66953 26.51896
#
# Velocity S-wave (km/s) = 3.53577 3.83513 3.68849
# Velocity P-wave (km/s) = 6.51438 7.22715 6.88000
#
# Compressibility (1/GPa) = 0.01990927
#
# Stress axis : x y z
#
# Youngs Moduli (GPa) = 101.87363 46.58546 114.18966
#
# Poissons Ratio (x) = 0.20008 0.33333
# Poissons Ratio (y) = 0.43755 0.32555
# Poissons Ratio (z) = 0.29738 0.13281
#
# Static dielectric constant tensor:
#      x y z
#    x 3.826150 0.000000 0.000000 
#    y 0.000000 3.391180 0.000000 
#    z 0.000000 0.000000 3.732750 
# 
# 
# High freq. dielectric constant tensor:
#      x y z
#    x 1.760450 0.000000 0.000000 
#    y 0.000000 1.739770 0.000000 
#    z 0.000000 0.000000 1.775690 
# 
# From -- ./inp_files/21516.got.cif
#   From: 2010.03.12/outbox.cif.g09.slc.cpg/sg59_11_cif.got.tgz:21516.got - 2010.04.16 16:29:54.
