data_PCOD8240246
_publ_section_title
;
Structure prediction by ZEFSAII (Michael W. Deem and Ramdas Pophale) SiO2 
 PCOD8240246
Probable space group: P M M N
;
_chemical_formula_sum "Si O2"
_cell_formula_units_Z 64
_cell_length_a 22.702513
_cell_length_b 9.025540
_cell_length_c 17.464693
_cell_angle_alpha 90.000000
_cell_angle_beta 90.000000
_cell_angle_gamma 90.000000
_cell_volume 3578.558195
_symmetry_space_group_name_H-M "P M M N"
_symmetry_group_IT_number 59
_space_group.IT_coordinate_system_code '2'
_symmetry_cell_setting 'orthorhombic'
loop_
_space_group_symop_operation_xyz
x,y,z
1/2-x,1/2-y,z
1/2+x,-y,-z
-x,1/2+y,-z
-x,-y,-z
1/2+x,1/2+y,-z
1/2-x,y,z
x,1/2-y,z
loop_
_atom_site_type_symbol
_atom_site_label
_atom_site_fract_x
_atom_site_fract_y
_atom_site_fract_z
Si Si1 0.073740 0.573796 0.214112
Si Si2 0.317512 0.423153 0.276796
Si Si3 0.511045 0.085796 0.320358
Si Si4 0.182812 0.578996 0.435041
Si Si5 0.116094 0.924540 0.584393
Si Si6 0.395984 0.910999 0.815306
Si Si7 0.000961 0.574485 0.918178
Si Si8 0.181265 0.414594 0.715469
O O1 0.072029 0.750000 0.206808
O O2 0.140727 0.515519 0.219642
O O3 0.040130 0.525595 0.292885
O O4 0.045807 0.501528 0.138567
O O5 0.250000 0.455909 0.253281
O O6 0.332316 0.250000 0.270667
O O7 0.329375 0.475070 0.363194
O O8 0.483823 0.250000 0.335343
O O9 0.548205 0.027381 0.395126
O O10 0.558625 0.097677 0.254079
O O11 0.250000 0.558648 0.464838
O O12 0.171867 0.750000 0.411771
O O13 0.136184 0.526232 0.499685
O O14 0.121253 0.750000 0.592953
O O15 0.162987 0.988957 0.643404
O O16 0.366584 0.750000 0.827612
O O17 0.432586 0.957745 0.889992
O O18 0.345542 0.028349 0.795863
O O19 0.987524 0.750000 0.921459
O O20 0.000000 0.500000 0.000000
O O21 0.250000 0.419967 0.725955
O O22 0.157534 0.250000 0.701087
#
# Coordination Sequence:
#
# PCOD8240246 Si02
#       8
#     8   8   8   8   8   8   8   8
#     4  11  21  34  55  80 105 134 167 203 247 300
#     4  10  21  37  56  76  99 130 168 211 259 305
#     4   8  15  29  47  69  98 130 166 207 249 295
#     4   9  17  30  48  70  96 127 168 218 266 310
#     4   9  17  29  46  67  94 131 171 212 258 304
#     4   8  16  30  47  67  94 128 162 196 233 278
#     4  10  20  35  56  83 109 130 157 194 239 290
#     4  10  19  27  39  64  96 130 169 209 245 284
#
# _framework density 17.884297
#
# number of rings (size 3 to 8) (size 9 to 14) (size 15 to 20)
#    0.000    2.625    0.000    4.125    0.000    7.750 
#    0.000    1.875    0.000    0.750    0.000    3.500 
#    0.000    0.000    0.000    0.000    0.000    0.000 
#
# Total GULP energy -793201.279346 kJ/mol
# GULP energy per Si atom -12393.769990 kJ/mol
# Density = 1.784359 g / cm^3
# Si number density = 17.884297 Si / 1000 Ang^3
#
#
#
# Elastic Constant Matrix: (Units=GPa)
#
#
# Indices 1 2 3 4 5 6 
#
# 1 75.6789 50.9841 38.8887 0.0000 0.0000 0.0000
# 2 50.9841 95.9122 40.8851 0.0000 0.0000 0.0000
# 3 38.8887 40.8851 71.3737 0.0000 0.0000 0.0000
# 4 0.0000 0.0000 0.0000 26.8878 0.0000 0.0000
# 5 0.0000 0.0000 0.0000 0.0000 25.2923 0.0000
# 6 0.0000 0.0000 0.0000 0.0000 0.0000 25.8299
#
#
#
# Elastic Compliance Matrix: (Units=1/GPa)
#
#
# Indices 1 2 3 4 5 6 
#
# 1 0.023190 -0.009184 -0.007375 0.000000 0.000000 0.000000
# 2 -0.009184 0.017431 -0.004982 0.000000 0.000000 0.000000
# 3 -0.007375 -0.004982 0.020883 0.000000 0.000000 0.000000
# 4 0.000000 0.000000 0.000000 0.037192 0.000000 0.000000
# 5 0.000000 0.000000 0.000000 0.000000 0.039538 0.000000
# 6 0.000000 0.000000 0.000000 0.000000 0.000000 0.038715
#
#
# Mechanical properties :
#
#
# Convention : Reuss Voigt Hill
#
# Bulk Modulus (GPa) = 54.27562 56.05340 55.16451
# Shear Modulus (GPa) = 22.10731 23.08247 22.59489
#
# Velocity S-wave (km/s) = 3.51968 3.59647 3.55828
# Velocity P-wave (km/s) = 6.85066 6.97541 6.91332
#
# Compressibility (1/GPa) = 0.01842448
#
# Stress axis : x y z
#
# Youngs Moduli (GPa) = 43.12160 57.36771 47.88689
#
# Poissons Ratio (x) = 0.52684 0.35316
# Poissons Ratio (y) = 0.39601 0.23855
# Poissons Ratio (z) = 0.31801 0.28578
#
# Static dielectric constant tensor:
#      x y z
#    x 3.537120 0.000000 0.000000 
#    y 0.000000 3.484970 0.000000 
#    z 0.000000 0.000000 3.278170 
# 
# 
# High freq. dielectric constant tensor:
#      x y z
#    x 1.685870 0.000000 0.000000 
#    y 0.000000 1.697980 0.000000 
#    z 0.000000 0.000000 1.663930 
# 
# From -- ./inp_files/28418.got.cif
#   From: 2010.03.12/outbox.cif.g09.slc.cpg/sg59_15_cif.got.tgz:28418.got - 2010.04.16 16:29:54.
