data_PCOD8240387
_publ_section_title
;
Structure prediction by ZEFSAII (Michael W. Deem and Ramdas Pophale) SiO2 
 PCOD8240387
Probable space group: P M M N
;
_chemical_formula_sum "Si O2"
_cell_formula_units_Z 48
_cell_length_a 9.287710
_cell_length_b 13.640222
_cell_length_c 23.285515
_cell_angle_alpha 90.000000
_cell_angle_beta 90.000000
_cell_angle_gamma 90.000000
_cell_volume 2949.958679
_symmetry_space_group_name_H-M "P M M N"
_symmetry_group_IT_number 59
_space_group.IT_coordinate_system_code '2'
_symmetry_cell_setting 'orthorhombic'
loop_
_space_group_symop_operation_xyz
x,y,z
1/2-x,1/2-y,z
1/2+x,-y,-z
-x,1/2+y,-z
-x,-y,-z
1/2+x,1/2+y,-z
1/2-x,y,z
x,1/2-y,z
loop_
_atom_site_type_symbol
_atom_site_label
_atom_site_fract_x
_atom_site_fract_y
_atom_site_fract_z
Si Si1 0.081821 0.047406 0.085238
Si Si2 0.581753 0.973819 0.587548
Si Si3 0.084082 0.637710 0.815029
Si Si4 0.914869 0.360011 0.984274
Si Si5 0.582907 0.862652 0.472283
Si Si6 0.584416 0.362736 0.317206
O O1 0.250000 0.069055 0.088999
O O2 0.012405 0.065125 0.147235
O O3 0.048303 0.935281 0.066983
O O4 0.014469 0.121587 0.039145
O O5 0.750000 0.990428 0.596052
O O6 0.546729 0.898110 0.536508
O O7 0.517591 0.931981 0.646006
O O8 0.509897 0.078316 0.574096
O O9 0.250000 0.622929 0.831809
O O10 0.038261 0.750000 0.826374
O O11 0.058514 0.609893 0.748955
O O12 0.750000 0.374243 0.004255
O O13 0.942429 0.250000 0.961337
O O14 0.750000 0.879365 0.458258
O O15 0.537858 0.750000 0.467520
O O16 0.750000 0.380793 0.334403
O O17 0.542622 0.250000 0.328324
#
# Coordination Sequence:
#
# PCOD8240387 Si02
#       6
#     8   8   8   8   8   8
#     4  10  19  29  45  70  93 114 148 191 227 261
#     4  10  19  30  47  72  98 121 150 191 235 274
#     4   9  18  32  48  66  91 123 153 181 221 273
#     4   9  18  32  47  63  89 124 152 176 218 274
#     4   9  18  32  48  67  94 127 158 187 224 273
#     4   9  18  32  49  68  91 122 157 188 223 274
#
# _framework density 16.271415000000001
#
# number of rings (size 3 to 8) (size 9 to 14) (size 15 to 20)
#    0.000    2.667    0.000    3.000    0.000    6.000 
#    0.000    1.667    0.000    1.000    0.000    4.667 
#    0.000    0.000    0.000    0.000    0.000    0.000 
#
# Total GULP energy -595286.013659 kJ/mol
# GULP energy per Si atom -12401.791951 kJ/mol
# Density = 1.623438 g / cm^3
# Si number density = 16.271415 Si / 1000 Ang^3
#
#
#
# Elastic Constant Matrix: (Units=GPa)
#
#
# Indices 1 2 3 4 5 6 
#
# 1 81.3786 55.0528 53.6618 0.0000 0.0000 0.0000
# 2 55.0528 113.9318 54.7069 0.0000 0.0000 0.0000
# 3 53.6618 54.7069 88.4030 0.0000 0.0000 0.0000
# 4 0.0000 0.0000 0.0000 26.0907 0.0000 0.0000
# 5 0.0000 0.0000 0.0000 0.0000 32.6410 0.0000
# 6 0.0000 0.0000 0.0000 0.0000 0.0000 25.7281
#
#
#
# Elastic Compliance Matrix: (Units=1/GPa)
#
#
# Indices 1 2 3 4 5 6 
#
# 1 0.023339 -0.006367 -0.010227 0.000000 0.000000 0.000000
# 2 -0.006367 0.014225 -0.004938 0.000000 0.000000 0.000000
# 3 -0.010227 -0.004938 0.020576 0.000000 0.000000 0.000000
# 4 0.000000 0.000000 0.000000 0.038328 0.000000 0.000000
# 5 0.000000 0.000000 0.000000 0.000000 0.030636 0.000000
# 6 0.000000 0.000000 0.000000 0.000000 0.000000 0.038868
#
#
# Mechanical properties :
#
#
# Convention : Reuss Voigt Hill
#
# Bulk Modulus (GPa) = 66.33248 67.83959 67.08604
# Shear Modulus (GPa) = 23.35773 24.91141 24.13457
#
# Velocity S-wave (km/s) = 3.79292 3.91703 3.85548
# Velocity P-wave (km/s) = 7.74832 7.88927 7.81911
#
# Compressibility (1/GPa) = 0.01507557
#
# Stress axis : x y z
#
# Youngs Moduli (GPa) = 42.84587 70.29953 48.60098
#
# Poissons Ratio (x) = 0.44760 0.49705
# Poissons Ratio (y) = 0.27280 0.23999
# Poissons Ratio (z) = 0.43820 0.34714
#
# Static dielectric constant tensor:
#      x y z
#    x 3.084750 0.000000 0.000000 
#    y 0.000000 3.046860 0.000000 
#    z 0.000000 0.000000 2.917310 
# 
# 
# High freq. dielectric constant tensor:
#      x y z
#    x 1.632160 0.000000 0.000000 
#    y 0.000000 1.617280 0.000000 
#    z 0.000000 0.000000 1.612410 
# 
# From -- ./inp_files/28834.got.cif
#   From: 2010.03.12/outbox.cif.g09.slc.cpg/sg59_15_cif.got.tgz:28834.got - 2010.04.16 16:29:54.
