data_PCOD8240281
_publ_section_title
;
Structure prediction by ZEFSAII (Michael W. Deem and Ramdas Pophale) SiO2 
 PCOD8240281
Probable space group: P M M N
;
_chemical_formula_sum "Si O2"
_cell_formula_units_Z 64
_cell_length_a 9.077188
_cell_length_b 13.974707
_cell_length_c 31.069883
_cell_angle_alpha 90.000000
_cell_angle_beta 90.000000
_cell_angle_gamma 90.000000
_cell_volume 3941.247055
_symmetry_space_group_name_H-M "P M M N"
_symmetry_group_IT_number 59
_space_group.IT_coordinate_system_code '2'
_symmetry_cell_setting 'orthorhombic'
loop_
_space_group_symop_operation_xyz
x,y,z
1/2-x,1/2-y,z
1/2+x,-y,-z
-x,1/2+y,-z
-x,-y,-z
1/2+x,1/2+y,-z
1/2-x,y,z
x,1/2-y,z
loop_
_atom_site_type_symbol
_atom_site_label
_atom_site_fract_x
_atom_site_fract_y
_atom_site_fract_z
Si Si1 0.925549 0.444317 0.400422
Si Si2 0.075954 0.640812 0.859429
Si Si3 0.422267 0.044815 0.063603
Si Si4 0.082440 0.363454 0.319040
Si Si5 0.419019 0.090708 0.481496
Si Si6 0.080792 0.350219 0.572752
Si Si7 0.920408 0.358425 0.986355
Si Si8 0.587155 0.363356 0.236426
O O1 0.750000 0.437785 0.403984
O O2 0.989896 0.552422 0.408375
O O3 0.977120 0.410347 0.354138
O O4 0.997061 0.376740 0.437686
O O5 0.250000 0.634039 0.866084
O O6 0.023319 0.750000 0.868046
O O7 0.032387 0.607115 0.811182
O O8 0.996311 0.567044 0.890933
O O9 0.250000 0.062909 0.067459
O O10 0.458207 0.934196 0.051416
O O11 0.484130 0.117649 0.028124
O O12 0.250000 0.397550 0.325431
O O13 0.069076 0.250000 0.322835
O O14 0.026947 0.400136 0.272428
O O15 0.250000 0.068979 0.469484
O O16 0.430936 0.164245 0.520917
O O17 0.500000 0.000000 0.500000
O O18 0.250000 0.356438 0.586424
O O19 0.012680 0.250000 0.591754
O O20 0.750000 0.368102 0.999772
O O21 0.956215 0.250000 0.970791
O O22 0.750000 0.406385 0.245679
O O23 0.598852 0.250000 0.237836
#
# Coordination Sequence:
#
# PCOD8240281 Si02
#       8
#     8   8   8   8   8   8   8   8
#     4  10  19  30  46  66  88 116 147 180 216 256
#     4   9  17  29  45  65  91 121 145 169 212 266
#     4  10  19  28  42  66  89 112 150 193 224 255
#     4  10  20  32  46  65  90 118 144 174 216 263
#     4   9  16  27  43  61  84 113 143 177 214 252
#     4   8  15  28  45  64  85 111 144 179 214 250
#     4   9  18  32  45  57  83 123 157 185 223 267
#     4   8  15  29  47  65  86 113 144 175 209 257
#
# _framework density 16.238515
#
# number of rings (size 3 to 8) (size 9 to 14) (size 15 to 20)
#    0.000    2.875    0.000    3.375    0.000    4.250 
#    0.000    2.500    0.000   13.125    0.000    0.875 
#    0.000    1.000    0.000    0.000    0.000    0.000 
#
# Total GULP energy -792925.963339 kJ/mol
# GULP energy per Si atom -12389.468177 kJ/mol
# Density = 1.620156 g / cm^3
# Si number density = 16.238515 Si / 1000 Ang^3
#
#
#
# Elastic Constant Matrix: (Units=GPa)
#
#
# Indices 1 2 3 4 5 6 
#
# 1 75.3763 26.7162 47.4523 0.0000 0.0000 0.0000
# 2 26.7162 64.6219 32.1722 0.0000 0.0000 0.0000
# 3 47.4523 32.1722 111.7754 0.0000 0.0000 0.0000
# 4 0.0000 0.0000 0.0000 8.9119 0.0000 0.0000
# 5 0.0000 0.0000 0.0000 0.0000 29.7796 0.0000
# 6 0.0000 0.0000 0.0000 0.0000 0.0000 16.5602
#
#
#
# Elastic Compliance Matrix: (Units=1/GPa)
#
#
# Indices 1 2 3 4 5 6 
#
# 1 0.019175 -0.004523 -0.006839 0.000000 0.000000 0.000000
# 2 -0.004523 0.019130 -0.003586 0.000000 0.000000 0.000000
# 3 -0.006839 -0.003586 0.012882 0.000000 0.000000 0.000000
# 4 0.000000 0.000000 0.000000 0.112210 0.000000 0.000000
# 5 0.000000 0.000000 0.000000 0.000000 0.033580 0.000000
# 6 0.000000 0.000000 0.000000 0.000000 0.000000 0.060386
#
#
# Mechanical properties :
#
#
# Convention : Reuss Voigt Hill
#
# Bulk Modulus (GPa) = 46.96642 51.60610 49.28626
# Shear Modulus (GPa) = 16.98633 20.74584 18.86609
#
# Velocity S-wave (km/s) = 3.23778 3.57819 3.41223
# Velocity P-wave (km/s) = 6.55464 6.99430 6.77804
#
# Compressibility (1/GPa) = 0.02129181
#
# Stress axis : x y z
#
# Youngs Moduli (GPa) = 52.15121 52.27452 77.62827
#
# Poissons Ratio (x) = 0.23643 0.53087
# Poissons Ratio (y) = 0.23587 0.27838
# Poissons Ratio (z) = 0.35664 0.18746
#
# Static dielectric constant tensor:
#      x y z
#    x 3.162760 0.000000 0.000000 
#    y 0.000000 3.066840 0.000000 
#    z 0.000000 0.000000 3.204650 
# 
# 
# High freq. dielectric constant tensor:
#      x y z
#    x 1.623630 0.000000 0.000000 
#    y 0.000000 1.597250 0.000000 
#    z 0.000000 0.000000 1.614390 
# 
# From -- ./inp_files/33191.got.cif
#   From: 2010.03.12/outbox.cif.g09.slc.cpg/sg59_17_cif.got.tgz:33191.got - 2010.04.16 16:29:54.
