data_PCOD8240001
_publ_section_title
;
Structure prediction by ZEFSAII (Michael W. Deem and Ramdas Pophale) SiO2 
 PCOD8240001
Probable space group: P M M N
;
_chemical_formula_sum "Si O2"
_cell_formula_units_Z 64
_cell_length_a 9.193447
_cell_length_b 18.118107
_cell_length_c 21.607790
_cell_angle_alpha 90.000000
_cell_angle_beta 90.000000
_cell_angle_gamma 90.000000
_cell_volume 3599.163263
_symmetry_space_group_name_H-M "P M M N"
_symmetry_group_IT_number 59
_space_group.IT_coordinate_system_code '2'
_symmetry_cell_setting 'orthorhombic'
loop_
_space_group_symop_operation_xyz
x,y,z
1/2-x,1/2-y,z
1/2+x,-y,-z
-x,1/2+y,-z
-x,-y,-z
1/2+x,1/2+y,-z
1/2-x,y,z
x,1/2-y,z
loop_
_atom_site_type_symbol
_atom_site_label
_atom_site_fract_x
_atom_site_fract_y
_atom_site_fract_z
Si Si1 0.084951 0.396561 0.742200
Si Si2 0.922807 0.332401 0.233983
Si Si3 0.584330 0.453134 0.328250
Si Si4 0.918372 0.836254 0.004722
Si Si5 0.576787 0.091934 0.109387
Si Si6 0.081009 0.832396 0.368448
Si Si7 0.077490 0.073876 0.876843
Si Si8 0.921930 0.022322 0.562487
O O1 0.250000 0.367715 0.741049
O O2 0.076303 0.481017 0.720749
O O3 0.018272 0.393909 0.811552
O O4 0.995913 0.343210 0.697313
O O5 0.750000 0.332020 0.230712
O O6 0.986006 0.250000 0.241544
O O7 0.971841 0.379953 0.293336
O O8 0.982920 0.367437 0.170644
O O9 0.750000 0.444208 0.352863
O O10 0.476265 0.466019 0.385173
O O11 0.750000 0.855525 0.992785
O O12 0.944491 0.750000 0.011674
O O13 0.013034 0.866525 0.949159
O O14 0.974368 0.873378 0.068062
O O15 0.750000 0.095181 0.105186
O O16 0.517835 0.008245 0.110287
O O17 0.250000 0.842506 0.355314
O O18 0.045291 0.750000 0.393855
O O19 0.031354 0.893862 0.418635
O O20 0.250000 0.069913 0.871030
O O21 0.750000 0.014626 0.554211
O O22 0.000000 0.000000 0.500000
#
# Coordination Sequence:
#
# PCOD8240001 Si02
#       8
#     8   8   8   8   8   8   8   8
#     4   9  16  29  51  76  98 125 164 205 247 296
#     4   9  16  27  48  76 100 126 163 207 254 300
#     4   9  16  30  51  74 101 129 160 202 245 293
#     4  10  21  34  45  63  96 134 168 207 259 312
#     4  10  18  32  53  73  93 124 170 216 253 296
#     4   9  19  35  53  76 107 137 165 202 248 292
#     4   9  17  31  51  72  96 128 166 208 253 304
#     4  10  20  35  56  79 103 136 172 204 239 284
#
# _framework density 17.781911999999998
#
# number of rings (size 3 to 8) (size 9 to 14) (size 15 to 20)
#    0.000    2.625    1.250    1.125    0.000    2.000 
#    0.000    3.750    0.000    4.875    0.000    0.000 
#    0.000    0.000    0.000    0.000    0.000    0.000 
#
# Total GULP energy -793516.395709 kJ/mol
# GULP energy per Si atom -12398.693683 kJ/mol
# Density = 1.774144 g / cm^3
# Si number density = 17.781912 Si / 1000 Ang^3
#
#
#
# Elastic Constant Matrix: (Units=GPa)
#
#
# Indices 1 2 3 4 5 6 
#
# 1 40.4417 36.0483 43.2755 0.0000 0.0000 0.0000
# 2 36.0483 113.2814 82.2811 0.0000 0.0000 0.0000
# 3 43.2755 82.2811 143.0247 0.0000 0.0000 0.0000
# 4 0.0000 0.0000 0.0000 23.7860 0.0000 0.0000
# 5 0.0000 0.0000 0.0000 0.0000 28.5215 0.0000
# 6 0.0000 0.0000 0.0000 0.0000 0.0000 19.9760
#
#
#
# Elastic Compliance Matrix: (Units=1/GPa)
#
#
# Indices 1 2 3 4 5 6 
#
# 1 0.039275 -0.006642 -0.008063 0.000000 0.000000 0.000000
# 2 -0.006642 0.016287 -0.007360 0.000000 0.000000 0.000000
# 3 -0.008063 -0.007360 0.013666 0.000000 0.000000 0.000000
# 4 0.000000 0.000000 0.000000 0.042041 0.000000 0.000000
# 5 0.000000 0.000000 0.000000 0.000000 0.035061 0.000000
# 6 0.000000 0.000000 0.000000 0.000000 0.000000 0.050060
#
#
# Mechanical properties :
#
#
# Convention : Reuss Voigt Hill
#
# Bulk Modulus (GPa) = 39.84327 68.88419 54.36373
# Shear Modulus (GPa) = 20.08953 23.46621 21.77787
#
# Velocity S-wave (km/s) = 3.36486 3.63666 3.50340
# Velocity P-wave (km/s) = 6.12794 7.51373 6.85594
#
# Compressibility (1/GPa) = 0.02509834
#
# Stress axis : x y z
#
# Youngs Moduli (GPa) = 25.46166 61.39779 73.17627
#
# Poissons Ratio (x) = 0.40779 0.58998
# Poissons Ratio (y) = 0.16911 0.53860
# Poissons Ratio (z) = 0.20528 0.45191
#
# Static dielectric constant tensor:
#      x y z
#    x 3.066640 0.000000 0.000000 
#    y 0.000000 3.519710 0.000000 
#    z 0.000000 0.000000 3.344750 
# 
# 
# High freq. dielectric constant tensor:
#      x y z
#    x 1.656260 0.000000 0.000000 
#    y 0.000000 1.691880 0.000000 
#    z 0.000000 0.000000 1.689160 
# 
# From -- ./inp_files/29565.got.cif
#   From: 2010.03.12/outbox.cif.g09.slc.cpg/sg59_15_cif.got.tgz:29565.got - 2010.04.16 16:29:54.
