data_PCOD8240365
_publ_section_title
;
Structure prediction by ZEFSAII (Michael W. Deem and Ramdas Pophale) SiO2 
 PCOD8240365
Probable space group: P M M N
;
_chemical_formula_sum "Si O2"
_cell_formula_units_Z 64
_cell_length_a 30.100278
_cell_length_b 8.984697
_cell_length_c 14.722360
_cell_angle_alpha 90.000000
_cell_angle_beta 90.000000
_cell_angle_gamma 90.000000
_cell_volume 3981.542679
_symmetry_space_group_name_H-M "P M M N"
_symmetry_group_IT_number 59
_space_group.IT_coordinate_system_code '2'
_symmetry_cell_setting 'orthorhombic'
loop_
_space_group_symop_operation_xyz
x,y,z
1/2-x,1/2-y,z
1/2+x,-y,-z
-x,1/2+y,-z
-x,-y,-z
1/2+x,1/2+y,-z
1/2-x,y,z
x,1/2-y,z
loop_
_atom_site_type_symbol
_atom_site_label
_atom_site_fract_x
_atom_site_fract_y
_atom_site_fract_z
Si Si1 0.119778 0.424202 0.416390
Si Si2 0.609637 0.579709 0.916868
Si Si3 0.299919 0.924953 0.349323
Si Si4 0.576538 0.083009 0.747212
Si Si5 0.038450 0.424186 0.941487
Si Si6 0.700575 0.578318 0.839069
Si Si7 0.542259 0.572289 0.452154
Si Si8 0.472730 0.083514 0.743722
O O1 0.127660 0.250000 0.419585
O O2 0.167537 0.504755 0.425118
O O3 0.099631 0.467993 0.319728
O O4 0.087111 0.476901 0.496523
O O5 0.600604 0.750000 0.887036
O O6 0.584789 0.469158 0.849317
O O7 0.663052 0.548157 0.916506
O O8 0.587382 0.550362 0.015091
O O9 0.250000 0.973626 0.374476
O O10 0.305586 0.750000 0.349435
O O11 0.312513 0.982748 0.248885
O O12 0.595603 0.250000 0.733078
O O13 0.524889 0.081489 0.727807
O O14 0.026063 0.250000 0.935602
O O15 0.039947 0.495731 0.839479
O O16 0.000000 0.500000 0.000000
O O17 0.750000 0.534269 0.875626
O O18 0.700118 0.750000 0.809100
O O19 0.500000 0.500000 0.500000
O O20 0.535434 0.750000 0.454049
O O21 0.547580 0.511214 0.348310
O O22 0.453930 0.250000 0.750377
#
# Coordination Sequence:
#
# PCOD8240365 Si02
#       8
#     8   8   8   8   8   8   8   8
#     4  11  21  31  46  69  95 125 159 194 234 276
#     4  10  19  29  44  67  92 121 156 189 224 271
#     4  10  20  32  47  68  93 122 156 191 231 281
#     4  11  19  28  46  66  92 127 158 189 225 270
#     4  10  19  31  46  65  90 120 156 190 225 270
#     4   9  17  29  44  64  92 121 148 183 228 273
#     4  10  20  33  48  67  91 122 160 195 232 277
#     4   9  18  32  46  63  90 124 158 191 230 268
#
# _framework density 16.074171
#
# number of rings (size 3 to 8) (size 9 to 14) (size 15 to 20)
#    0.000    2.000    3.750    1.125    0.000    1.250 
#    0.000    0.625    0.000    0.000    0.000    0.875 
#    0.000    5.000    0.000    3.375    0.000    3.125 
#
# Total GULP energy -793188.566586 kJ/mol
# GULP energy per Si atom -12393.571353 kJ/mol
# Density = 1.603759 g / cm^3
# Si number density = 16.074171 Si / 1000 Ang^3
#
#
#
# Elastic Constant Matrix: (Units=GPa)
#
#
# Indices 1 2 3 4 5 6 
#
# 1 115.1162 31.1400 61.6655 0.0000 0.0000 0.0000
# 2 31.1400 37.6000 23.7210 0.0000 0.0000 0.0000
# 3 61.6655 23.7210 113.5265 0.0000 0.0000 0.0000
# 4 0.0000 0.0000 0.0000 13.7432 0.0000 0.0000
# 5 0.0000 0.0000 0.0000 0.0000 25.6347 0.0000
# 6 0.0000 0.0000 0.0000 0.0000 0.0000 21.0724
#
#
#
# Elastic Compliance Matrix: (Units=1/GPa)
#
#
# Indices 1 2 3 4 5 6 
#
# 1 0.014003 -0.007831 -0.005970 0.000000 0.000000 0.000000
# 2 -0.007831 0.035013 -0.003062 0.000000 0.000000 0.000000
# 3 -0.005970 -0.003062 0.012691 0.000000 0.000000 0.000000
# 4 0.000000 0.000000 0.000000 0.072763 0.000000 0.000000
# 5 0.000000 0.000000 0.000000 0.000000 0.039010 0.000000
# 6 0.000000 0.000000 0.000000 0.000000 0.000000 0.047455
#
#
# Mechanical properties :
#
#
# Convention : Reuss Voigt Hill
#
# Bulk Modulus (GPa) = 35.73843 55.47729 45.60786
# Shear Modulus (GPa) = 18.94014 22.07114 20.50564
#
# Velocity S-wave (km/s) = 3.43636 3.70953 3.57555
# Velocity P-wave (km/s) = 6.16656 7.27569 6.74397
#
# Compressibility (1/GPa) = 0.02798109
#
# Stress axis : x y z
#
# Youngs Moduli (GPa) = 71.41177 28.56060 78.79480
#
# Poissons Ratio (x) = 0.22366 0.47041
# Poissons Ratio (y) = 0.55923 0.24129
# Poissons Ratio (z) = 0.42633 0.08746
#
# Static dielectric constant tensor:
#      x y z
#    x 3.282000 0.000000 0.000000 
#    y 0.000000 3.030870 0.000000 
#    z 0.000000 0.000000 3.105790 
# 
# 
# High freq. dielectric constant tensor:
#      x y z
#    x 1.616060 0.000000 0.000000 
#    y 0.000000 1.612210 0.000000 
#    z 0.000000 0.000000 1.591170 
# 
# From -- ./inp_files/25025.got.cif
#   From: 2010.03.12/outbox.cif.g09.slc.cpg/sg59_13_cif.got.tgz:25025.got - 2010.04.16 16:29:54.
