data_PCOD8240516
_publ_section_title
;
Structure prediction by ZEFSAII (Michael W. Deem and Ramdas Pophale) SiO2 
 PCOD8240516
Probable space group: P M M N
;
_chemical_formula_sum "Si O2"
_cell_formula_units_Z 64
_cell_length_a 8.935103
_cell_length_b 21.366759
_cell_length_c 18.912585
_cell_angle_alpha 90.000000
_cell_angle_beta 90.000000
_cell_angle_gamma 90.000000
_cell_volume 3610.680892
_symmetry_space_group_name_H-M "P M M N"
_symmetry_group_IT_number 59
_space_group.IT_coordinate_system_code '2'
_symmetry_cell_setting 'orthorhombic'
loop_
_space_group_symop_operation_xyz
x,y,z
1/2-x,1/2-y,z
1/2+x,-y,-z
-x,1/2+y,-z
-x,-y,-z
1/2+x,1/2+y,-z
1/2-x,y,z
x,1/2-y,z
loop_
_atom_site_type_symbol
_atom_site_label
_atom_site_fract_x
_atom_site_fract_y
_atom_site_fract_z
Si Si1 0.583923 0.820251 0.803036
Si Si2 0.078275 0.369362 0.342434
Si Si3 0.577576 0.383000 0.083922
Si Si4 0.422079 0.004931 0.823706
Si Si5 0.925257 0.321799 0.474430
Si Si6 0.428137 0.057947 0.542746
Si Si7 0.076256 0.440557 0.965454
Si Si8 0.578490 0.488546 0.674961
O O1 0.750000 0.843802 0.824228
O O2 0.588196 0.750000 0.775449
O O3 0.521392 0.860911 0.737814
O O4 0.477045 0.823748 0.871155
O O5 0.250000 0.346225 0.350529
O O6 0.064884 0.442623 0.359140
O O7 0.971227 0.329134 0.392626
O O8 0.750000 0.378796 0.066211
O O9 0.536486 0.441947 0.133910
O O10 0.493443 0.381963 0.007895
O O11 0.250000 0.003373 0.798718
O O12 0.450756 0.061414 0.880472
O O13 0.524966 0.015054 0.755854
O O14 0.750000 0.335981 0.483291
O O15 0.961027 0.250000 0.498603
O O16 0.019413 0.373460 0.517210
O O17 0.250000 0.053549 0.535088
O O18 0.477110 0.055043 0.624967
O O19 0.500000 0.000000 0.500000
O O20 0.250000 0.445581 0.981692
O O21 0.000000 0.500000 0.000000
O O22 0.750000 0.465677 0.673160
#
# Coordination Sequence:
#
# PCOD8240516 Si02
#       8
#     8   8   8   8   8   8   8   8
#     4  10  20  33  48  68  98 138 182 223 262 309
#     4  10  20  34  53  76 105 144 184 222 265 319
#     4  10  19  30  46  68  97 133 172 213 258 305
#     4   9  18  31  47  71 101 133 167 208 257 312
#     4  11  24  40  59  83 110 142 182 228 276 327
#     4  12  24  39  59  81 110 145 183 228 275 328
#     4   9  17  29  46  69  97 127 163 203 248 299
#     4  11  21  33  54  81 108 142 179 220 270 322
#
# _framework density 17.725190000000001
#
# number of rings (size 3 to 8) (size 9 to 14) (size 15 to 20)
#    0.000    1.750    2.500    3.750    0.000    5.250 
#    0.000    0.000    0.000    0.000    0.000    0.875 
#    0.000    1.000    0.000    0.000    0.000    0.000 
#
# Total GULP energy -793268.593609 kJ/mol
# GULP energy per Si atom -12394.821775 kJ/mol
# Density = 1.768485 g / cm^3
# Si number density = 17.725190 Si / 1000 Ang^3
#
#
#
# Elastic Constant Matrix: (Units=GPa)
#
#
# Indices 1 2 3 4 5 6 
#
# 1 118.0668 39.0930 56.0739 0.0000 0.0000 0.0000
# 2 39.0930 65.9090 33.8056 0.0000 0.0000 0.0000
# 3 56.0739 33.8056 83.3130 0.0000 0.0000 0.0000
# 4 0.0000 0.0000 0.0000 23.7394 0.0000 0.0000
# 5 0.0000 0.0000 0.0000 0.0000 35.3784 0.0000
# 6 0.0000 0.0000 0.0000 0.0000 0.0000 22.6378
#
#
#
# Elastic Compliance Matrix: (Units=1/GPa)
#
#
# Indices 1 2 3 4 5 6 
#
# 1 0.013296 -0.004163 -0.007260 0.000000 0.000000 0.000000
# 2 -0.004163 0.020463 -0.005502 0.000000 0.000000 0.000000
# 3 -0.007260 -0.005502 0.019122 0.000000 0.000000 0.000000
# 4 0.000000 0.000000 0.000000 0.042124 0.000000 0.000000
# 5 0.000000 0.000000 0.000000 0.000000 0.028266 0.000000
# 6 0.000000 0.000000 0.000000 0.000000 0.000000 0.044174
#
#
# Mechanical properties :
#
#
# Convention : Reuss Voigt Hill
#
# Bulk Modulus (GPa) = 52.54139 58.35931 55.45035
# Shear Modulus (GPa) = 24.08046 25.57220 24.82633
#
# Velocity S-wave (km/s) = 3.68984 3.80241 3.74655
# Velocity P-wave (km/s) = 6.91808 7.23006 7.07579
#
# Compressibility (1/GPa) = 0.01903261
#
# Stress axis : x y z
#
# Youngs Moduli (GPa) = 75.21039 48.86787 52.29700
#
# Poissons Ratio (x) = 0.20342 0.37967
# Poissons Ratio (y) = 0.31308 0.28772
# Poissons Ratio (z) = 0.54602 0.26885
#
# Static dielectric constant tensor:
#      x y z
#    x 3.440910 0.000000 0.000000 
#    y 0.000000 3.123800 0.000000 
#    z 0.000000 0.000000 3.398990 
# 
# 
# High freq. dielectric constant tensor:
#      x y z
#    x 1.695750 0.000000 0.000000 
#    y 0.000000 1.646290 0.000000 
#    z 0.000000 0.000000 1.685820 
# 
# From -- ./inp_files/26225.got.cif
#   From: 2010.03.12/outbox.cif.g09.slc.cpg/sg59_14_cif.got.tgz:26225.got - 2010.04.16 16:29:54.
