data_PCOD8240765
_publ_section_title
;
Structure prediction by ZEFSAII (Michael W. Deem and Ramdas Pophale) SiO2 
 PCOD8240765
Probable space group: P M M N
;
_chemical_formula_sum "Si O2"
_cell_formula_units_Z 48
_cell_length_a 8.898220
_cell_length_b 23.734565
_cell_length_c 11.619702
_cell_angle_alpha 90.000000
_cell_angle_beta 90.000000
_cell_angle_gamma 90.000000
_cell_volume 2454.027391
_symmetry_space_group_name_H-M "P M M N"
_symmetry_group_IT_number 59
_space_group.IT_coordinate_system_code '2'
_symmetry_cell_setting 'orthorhombic'
loop_
_space_group_symop_operation_xyz
x,y,z
1/2-x,1/2-y,z
1/2+x,-y,-z
-x,1/2+y,-z
-x,-y,-z
1/2+x,1/2+y,-z
1/2-x,y,z
x,1/2-y,z
loop_
_atom_site_type_symbol
_atom_site_label
_atom_site_fract_x
_atom_site_fract_y
_atom_site_fract_z
Si Si1 0.571393 0.123398 0.093481
Si Si2 0.574457 0.410103 0.700144
Si Si3 0.075597 0.810581 0.688495
Si Si4 0.425265 0.916260 0.553819
Si Si5 0.070675 0.685619 0.135628
Si Si6 0.575149 0.530231 0.772568
O O1 0.750000 0.117107 0.092459
O O2 0.507512 0.161786 0.196722
O O3 0.505034 0.061074 0.119598
O O4 0.511946 0.152884 0.977673
O O5 0.750000 0.400929 0.679363
O O6 0.505373 0.423787 0.574083
O O7 0.511161 0.352309 0.757214
O O8 0.545596 0.463038 0.785105
O O9 0.250000 0.802159 0.713111
O O10 0.998742 0.750000 0.665079
O O11 0.049571 0.850110 0.579145
O O12 0.250000 0.933101 0.563226
O O13 0.514317 0.952859 0.646583
O O14 0.250000 0.687638 0.132783
O O15 0.007787 0.750000 0.142556
O O16 0.750000 0.544599 0.776707
#
# Coordination Sequence:
#
# PCOD8240765 Si02
#       6
#     8   8   8   8   8   8
#     4   9  17  30  49  72  96 122 157 199 239 282
#     4   9  18  30  45  70 101 128 156 195 241 287
#     4   8  13  22  40  66  90 113 147 192 236 273
#     4   9  17  30  48  70  97 127 160 199 240 284
#     4   9  17  30  50  75 100 125 155 195 242 287
#     4  10  19  31  48  70  98 129 160 197 240 283
#
# _framework density 19.559684000000001
#
# number of rings (size 3 to 8) (size 9 to 14) (size 15 to 20)
#    0.000    3.000    0.000    2.500    0.000    3.333 
#    0.000    4.167    0.000   14.500    0.000    0.000 
#    0.000    0.000    0.000    0.000    0.000    0.000 
#
# Total GULP energy -594703.543528 kJ/mol
# GULP energy per Si atom -12389.657157 kJ/mol
# Density = 1.951517 g / cm^3
# Si number density = 19.559684 Si / 1000 Ang^3
#
#
#
# Elastic Constant Matrix: (Units=GPa)
#
#
# Indices 1 2 3 4 5 6 
#
# 1 30.0303 22.0464 12.3061 0.0000 0.0000 0.0000
# 2 22.0464 120.0319 38.2030 0.0000 0.0000 0.0000
# 3 12.3061 38.2030 74.6924 0.0000 0.0000 0.0000
# 4 0.0000 0.0000 0.0000 25.7088 0.0000 0.0000
# 5 0.0000 0.0000 0.0000 0.0000 14.1901 0.0000
# 6 0.0000 0.0000 0.0000 0.0000 0.0000 19.1147
#
#
#
# Elastic Compliance Matrix: (Units=1/GPa)
#
#
# Indices 1 2 3 4 5 6 
#
# 1 0.039164 -0.006139 -0.003313 0.000000 0.000000 0.000000
# 2 -0.006139 0.010913 -0.004570 0.000000 0.000000 0.000000
# 3 -0.003313 -0.004570 0.016272 0.000000 0.000000 0.000000
# 4 0.000000 0.000000 0.000000 0.038897 0.000000 0.000000
# 5 0.000000 0.000000 0.000000 0.000000 0.070472 0.000000
# 6 0.000000 0.000000 0.000000 0.000000 0.000000 0.052316
#
#
# Mechanical properties :
#
#
# Convention : Reuss Voigt Hill
#
# Bulk Modulus (GPa) = 26.10627 41.09618 33.60122
# Shear Modulus (GPa) = 18.59800 21.94932 20.27366
#
# Velocity S-wave (km/s) = 3.08690 3.35352 3.22297
# Velocity P-wave (km/s) = 5.10698 6.00425 5.57370
#
# Compressibility (1/GPa) = 0.03830497
#
# Stress axis : x y z
#
# Youngs Moduli (GPa) = 25.53358 91.63124 61.45658
#
# Poissons Ratio (x) = 0.56252 0.20359
# Poissons Ratio (y) = 0.15675 0.28088
# Poissons Ratio (z) = 0.08458 0.41879
#
# Static dielectric constant tensor:
#      x y z
#    x 2.994710 0.000000 0.000000 
#    y 0.000000 3.943750 0.000000 
#    z 0.000000 0.000000 3.636980 
# 
# 
# High freq. dielectric constant tensor:
#      x y z
#    x 1.695590 0.000000 0.000000 
#    y 0.000000 1.776530 0.000000 
#    z 0.000000 0.000000 1.758190 
# 
# From -- ./inp_files/14359.got.cif
#   From: 2010.03.12/outbox.cif.g09.slc.cpg/sg59_8_cif.got.tgz:14359.got - 2010.04.16 16:29:54.
