data_PCOD8240627
_publ_section_title
;
Structure prediction by ZEFSAII (Michael W. Deem and Ramdas Pophale) SiO2 
 PCOD8240627
Probable space group: P M M N
;
_chemical_formula_sum "Si O2"
_cell_formula_units_Z 48
_cell_length_a 23.107085
_cell_length_b 9.547031
_cell_length_c 12.709502
_cell_angle_alpha 90.000000
_cell_angle_beta 90.000000
_cell_angle_gamma 90.000000
_cell_volume 2803.767701
_symmetry_space_group_name_H-M "P M M N"
_symmetry_group_IT_number 59
_space_group.IT_coordinate_system_code '2'
_symmetry_cell_setting 'orthorhombic'
loop_
_space_group_symop_operation_xyz
x,y,z
1/2-x,1/2-y,z
1/2+x,-y,-z
-x,1/2+y,-z
-x,-y,-z
1/2+x,1/2+y,-z
1/2-x,y,z
x,1/2-y,z
loop_
_atom_site_type_symbol
_atom_site_label
_atom_site_fract_x
_atom_site_fract_y
_atom_site_fract_z
Si Si1 0.817137 0.586718 0.110829
Si Si2 0.883137 0.586254 0.313005
Si Si3 0.129143 0.912899 0.308613
Si Si4 0.183418 0.588847 0.090233
Si Si5 0.316717 0.410154 0.485824
Si Si6 0.005131 0.587490 0.394273
O O1 0.750000 0.558929 0.136770
O O2 0.829453 0.750000 0.091626
O O3 0.855045 0.523774 0.206994
O O4 0.836999 0.505473 0.006851
O O5 0.869278 0.750000 0.312442
O O6 0.853039 0.523642 0.417530
O O7 0.951419 0.552889 0.317150
O O8 0.141421 0.750000 0.329871
O O9 0.143353 0.952219 0.188678
O O10 0.062678 0.953223 0.330926
O O11 0.171515 0.000381 0.382342
O O12 0.250000 0.558183 0.120174
O O13 0.174835 0.750000 0.058179
O O14 0.250000 0.419930 0.516889
O O15 0.335330 0.250000 0.463229
O O16 0.004554 0.750000 0.426819
O O17 0.000000 0.500000 0.500000
#
# Coordination Sequence:
#
# PCOD8240627 Si02
#       6
#     8   8   8   8   8   8
#     4   9  17  31  52  74  95 124 164 205 245 293
#     4   9  17  31  50  72  99 128 160 202 249 292
#     4  10  20  33  50  72  99 132 167 201 243 295
#     4   9  18  33  50  68  96 131 162 198 246 294
#     4  10  19  30  48  74 101 128 160 201 248 296
#     4  10  19  33  52  72  97 133 169 201 243 294
#
# _framework density 17.119821000000002
#
# number of rings (size 3 to 8) (size 9 to 14) (size 15 to 20)
#    0.000    2.500    1.667    1.000    0.000    3.667 
#    0.000    4.167    0.000    2.000    0.000    0.000 
#    0.000    0.000    0.000    0.000    0.000    0.000 
#
# Total GULP energy -595255.355894 kJ/mol
# GULP energy per Si atom -12401.153248 kJ/mol
# Density = 1.708086 g / cm^3
# Si number density = 17.119821 Si / 1000 Ang^3
#
#
#
# Elastic Constant Matrix: (Units=GPa)
#
#
# Indices 1 2 3 4 5 6 
#
# 1 87.0182 29.0171 55.3364 0.0000 0.0000 0.0000
# 2 29.0171 44.0999 50.8224 0.0000 0.0000 0.0000
# 3 55.3364 50.8224 137.4493 0.0000 0.0000 0.0000
# 4 0.0000 0.0000 0.0000 28.0910 0.0000 0.0000
# 5 0.0000 0.0000 0.0000 0.0000 30.2391 0.0000
# 6 0.0000 0.0000 0.0000 0.0000 0.0000 19.1267
#
#
#
# Elastic Compliance Matrix: (Units=1/GPa)
#
#
# Indices 1 2 3 4 5 6 
#
# 1 0.016169 -0.005466 -0.004488 0.000000 0.000000 0.000000
# 2 -0.005466 0.041361 -0.013093 0.000000 0.000000 0.000000
# 3 -0.004488 -0.013093 0.013923 0.000000 0.000000 0.000000
# 4 0.000000 0.000000 0.000000 0.035599 0.000000 0.000000
# 5 0.000000 0.000000 0.000000 0.000000 0.033070 0.000000
# 6 0.000000 0.000000 0.000000 0.000000 0.000000 0.052283
#
#
# Mechanical properties :
#
#
# Convention : Reuss Voigt Hill
#
# Bulk Modulus (GPa) = 39.43424 59.87993 49.65708
# Shear Modulus (GPa) = 20.24681 24.38412 22.31546
#
# Velocity S-wave (km/s) = 3.44270 3.77811 3.61430
# Velocity P-wave (km/s) = 6.23596 7.35425 6.81807
#
# Compressibility (1/GPa) = 0.02535868
#
# Stress axis : x y z
#
# Youngs Moduli (GPa) = 61.84734 24.17723 71.82131
#
# Poissons Ratio (x) = 0.13216 0.32235
# Poissons Ratio (y) = 0.33809 0.94034
# Poissons Ratio (z) = 0.27759 0.31655
#
# Static dielectric constant tensor:
#      x y z
#    x 3.298120 0.000000 0.000000 
#    y 0.000000 3.063010 0.000000 
#    z 0.000000 0.000000 3.237580 
# 
# 
# High freq. dielectric constant tensor:
#      x y z
#    x 1.662530 0.000000 0.000000 
#    y 0.000000 1.640770 0.000000 
#    z 0.000000 0.000000 1.659170 
# 
# From -- ./inp_files/12030.got.cif
#   From: 2010.03.12/outbox.cif.g09.slc.cpg/sg59_7_cif.got.tgz:12030.got - 2010.04.16 16:29:54.
