data_PCOD8240494
_publ_section_title
;
Structure prediction by ZEFSAII (Michael W. Deem and Ramdas Pophale) SiO2 
 PCOD8240494
Probable space group: P M M N
;
_chemical_formula_sum "Si O2"
_cell_formula_units_Z 64
_cell_length_a 9.260374
_cell_length_b 23.134511
_cell_length_c 17.989258
_cell_angle_alpha 90.000000
_cell_angle_beta 90.000000
_cell_angle_gamma 90.000000
_cell_volume 3853.914731
_symmetry_space_group_name_H-M "P M M N"
_symmetry_group_IT_number 59
_space_group.IT_coordinate_system_code '2'
_symmetry_cell_setting 'orthorhombic'
loop_
_space_group_symop_operation_xyz
x,y,z
1/2-x,1/2-y,z
1/2+x,-y,-z
-x,1/2+y,-z
-x,-y,-z
1/2+x,1/2+y,-z
1/2-x,y,z
x,1/2-y,z
loop_
_atom_site_type_symbol
_atom_site_label
_atom_site_fract_x
_atom_site_fract_y
_atom_site_fract_z
Si Si1 0.919438 0.883316 0.633564
Si Si2 0.586986 0.181272 0.077059
Si Si3 0.084994 0.183507 0.507817
Si Si4 0.919124 0.128366 0.637562
Si Si5 0.086899 0.318807 0.935843
Si Si6 0.418796 0.182700 0.222945
Si Si7 0.581348 0.005339 0.577299
Si Si8 0.417487 0.683102 0.208691
O O1 0.750000 0.870897 0.633557
O O2 0.984353 0.853062 0.559894
O O3 0.982094 0.854500 0.708270
O O4 0.956951 0.951287 0.630677
O O5 0.750000 0.156741 0.076979
O O6 0.588891 0.250000 0.073146
O O7 0.505312 0.160844 0.151121
O O8 0.501482 0.156100 0.005984
O O9 0.250000 0.164909 0.522375
O O10 0.073192 0.250000 0.485405
O O11 0.997193 0.172101 0.582365
O O12 0.750000 0.137381 0.626203
O O13 0.967126 0.062650 0.621080
O O14 0.964344 0.144540 0.721110
O O15 0.250000 0.342946 0.938276
O O16 0.086876 0.250000 0.939068
O O17 0.010513 0.339876 0.860448
O O18 0.250000 0.171148 0.208417
O O19 0.447194 0.250000 0.239904
O O20 0.750000 0.006142 0.558366
O O21 0.500000 0.000000 0.500000
O O22 0.250000 0.674720 0.188501
O O23 0.450700 0.750000 0.226758
#
# Coordination Sequence:
#
# PCOD8240494 Si02
#       8
#     8   8   8   8   8   8   8   8
#     4   9  17  30  47  66  89 118 154 195 235 273
#     4   9  16  26  41  63  93 125 151 177 217 269
#     4  10  19  30  46  67  91 121 155 189 230 280
#     4  10  20  32  47  67  91 121 156 193 236 281
#     4   9  16  26  42  65  91 119 152 184 215 261
#     4   9  16  27  44  65  90 120 153 188 226 271
#     4  10  19  33  51  68  87 117 158 201 240 278
#     4   9  17  29  43  61  90 123 150 181 225 275
#
# _framework density 16.606490000000001
#
# number of rings (size 3 to 8) (size 9 to 14) (size 15 to 20)
#    0.000    2.625    1.250    1.500    0.000    5.750 
#    0.000    2.500    0.000    1.500    0.000    0.875 
#    0.000    0.000    0.000    0.000    0.000    0.000 
#
# Total GULP energy -793584.193223 kJ/mol
# GULP energy per Si atom -12399.753019 kJ/mol
# Density = 1.656869 g / cm^3
# Si number density = 16.606490 Si / 1000 Ang^3
#
#
#
# Elastic Constant Matrix: (Units=GPa)
#
#
# Indices 1 2 3 4 5 6 
#
# 1 68.1020 22.6413 61.4846 0.0000 0.0000 0.0000
# 2 22.6413 59.5380 42.3665 0.0000 0.0000 0.0000
# 3 61.4846 42.3665 151.5224 0.0000 0.0000 0.0000
# 4 0.0000 0.0000 0.0000 11.8818 0.0000 0.0000
# 5 0.0000 0.0000 0.0000 0.0000 29.5217 0.0000
# 6 0.0000 0.0000 0.0000 0.0000 0.0000 13.6045
#
#
#
# Elastic Compliance Matrix: (Units=1/GPa)
#
#
# Indices 1 2 3 4 5 6 
#
# 1 0.023513 -0.002687 -0.008790 0.000000 0.000000 0.000000
# 2 -0.002687 0.021275 -0.004858 0.000000 0.000000 0.000000
# 3 -0.008790 -0.004858 0.011525 0.000000 0.000000 0.000000
# 4 0.000000 0.000000 0.000000 0.084162 0.000000 0.000000
# 5 0.000000 0.000000 0.000000 0.000000 0.033873 0.000000
# 6 0.000000 0.000000 0.000000 0.000000 0.000000 0.073505
#
#
# Mechanical properties :
#
#
# Convention : Reuss Voigt Hill
#
# Bulk Modulus (GPa) = 42.29642 59.12746 50.71194
# Shear Modulus (GPa) = 17.33680 21.17960 19.25820
#
# Velocity S-wave (km/s) = 3.23457 3.57512 3.40910
# Velocity P-wave (km/s) = 6.28291 7.26115 6.78967
#
# Compressibility (1/GPa) = 0.02364267
#
# Stress axis : x y z
#
# Youngs Moduli (GPa) = 42.53011 47.00377 86.76957
#
# Poissons Ratio (x) = 0.12629 0.76268
# Poissons Ratio (y) = 0.11427 0.42155
# Poissons Ratio (z) = 0.37383 0.22836
#
# Static dielectric constant tensor:
#      x y z
#    x 3.091630 0.000000 0.000000 
#    y 0.000000 2.931640 0.000000 
#    z 0.000000 0.000000 3.256080 
# 
# 
# High freq. dielectric constant tensor:
#      x y z
#    x 1.630170 0.000000 0.000000 
#    y 0.000000 1.601540 0.000000 
#    z 0.000000 0.000000 1.646930 
# 
# From -- ./inp_files/26457.got.cif
#   From: 2010.03.12/outbox.cif.g09.slc.cpg/sg59_14_cif.got.tgz:26457.got - 2010.04.16 16:29:54.
