data_PCOD8240482
_publ_section_title
;
Structure prediction by ZEFSAII (Michael W. Deem and Ramdas Pophale) SiO2 
 PCOD8240482
Probable space group: P M M N
;
_chemical_formula_sum "Si O2"
_cell_formula_units_Z 64
_cell_length_a 29.401794
_cell_length_b 9.455521
_cell_length_c 15.003457
_cell_angle_alpha 90.000000
_cell_angle_beta 90.000000
_cell_angle_gamma 90.000000
_cell_volume 4171.100287
_symmetry_space_group_name_H-M "P M M N"
_symmetry_group_IT_number 59
_space_group.IT_coordinate_system_code '2'
_symmetry_cell_setting 'orthorhombic'
loop_
_space_group_symop_operation_xyz
x,y,z
1/2-x,1/2-y,z
1/2+x,-y,-z
-x,1/2+y,-z
-x,-y,-z
1/2+x,1/2+y,-z
1/2-x,y,z
x,1/2-y,z
loop_
_atom_site_type_symbol
_atom_site_label
_atom_site_fract_x
_atom_site_fract_y
_atom_site_fract_z
Si Si1 0.940991 0.585476 0.143386
Si Si2 0.198507 0.088539 0.779477
Si Si3 0.895600 0.584021 0.955675
Si Si4 0.799456 0.582240 0.018082
Si Si5 0.528625 0.413681 0.624577
Si Si6 0.445022 0.590192 0.565326
Si Si7 0.045001 0.914370 0.179148
Si Si8 0.380742 0.913221 0.718882
O O1 0.932384 0.750000 0.166108
O O2 0.915241 0.490358 0.214761
O O3 0.994270 0.548240 0.146297
O O4 0.922116 0.547045 0.046149
O O5 0.250000 0.076900 0.745218
O O6 0.181088 0.250000 0.772556
O O7 0.194005 0.032126 0.880379
O O8 0.168160 0.987439 0.718478
O O9 0.897747 0.750000 0.935986
O O10 0.918357 0.503462 0.874493
O O11 0.842898 0.530211 0.961275
O O12 0.750000 0.526176 0.981675
O O13 0.798317 0.750000 0.018896
O O14 0.515799 0.250000 0.631411
O O15 0.481165 0.491712 0.613270
O O16 0.561239 0.447770 0.539801
O O17 0.551836 0.459278 0.717336
O O18 0.463474 0.750000 0.573564
O O19 0.397617 0.572722 0.616789
O O20 0.055441 0.750000 0.163677
O O21 0.376728 0.750000 0.747875
#
# Coordination Sequence:
#
# PCOD8240482 Si02
#       8
#     8   8   8   8   8   8   8   8
#     4  10  19  32  45  62  90 126 164 187 213 267
#     4   9  17  31  50  67  88 121 157 188 221 273
#     4  10  19  30  46  65  89 121 154 190 223 269
#     4   8  14  27  47  67  85 110 147 187 224 264
#     4   9  17  31  48  64  86 118 153 189 224 263
#     4   9  18  30  45  67  91 116 148 184 228 271
#     4  10  20  31  45  64  90 123 157 194 228 264
#     4  11  20  28  44  70  98 122 147 189 233 271
#
# _framework density 15.343674
#
# number of rings (size 3 to 8) (size 9 to 14) (size 15 to 20)
#    0.000    2.500    2.500    1.500    0.000    2.250 
#    0.000    0.000    0.000    0.375    0.000    0.875 
#    0.000    5.000    0.000    0.000    0.000    0.000 
#
# Total GULP energy -793284.628735 kJ/mol
# GULP energy per Si atom -12395.072324 kJ/mol
# Density = 1.530875 g / cm^3
# Si number density = 15.343674 Si / 1000 Ang^3
#
#
#
# Elastic Constant Matrix: (Units=GPa)
#
#
# Indices 1 2 3 4 5 6 
#
# 1 111.5960 43.5267 62.3876 0.0000 0.0000 0.0000
# 2 43.5267 51.6520 42.7296 0.0000 0.0000 0.0000
# 3 62.3876 42.7296 100.2075 0.0000 0.0000 0.0000
# 4 0.0000 0.0000 0.0000 20.1885 0.0000 0.0000
# 5 0.0000 0.0000 0.0000 0.0000 18.3808 0.0000
# 6 0.0000 0.0000 0.0000 0.0000 0.0000 23.2224
#
#
#
# Elastic Compliance Matrix: (Units=1/GPa)
#
#
# Indices 1 2 3 4 5 6 
#
# 1 0.015579 -0.007887 -0.006337 0.000000 0.000000 0.000000
# 2 -0.007887 0.033904 -0.009547 0.000000 0.000000 0.000000
# 3 -0.006337 -0.009547 0.017995 0.000000 0.000000 0.000000
# 4 0.000000 0.000000 0.000000 0.049533 0.000000 0.000000
# 5 0.000000 0.000000 0.000000 0.000000 0.054405 0.000000
# 6 0.000000 0.000000 0.000000 0.000000 0.000000 0.043062
#
#
# Mechanical properties :
#
#
# Convention : Reuss Voigt Hill
#
# Bulk Modulus (GPa) = 50.15436 62.30481 56.22959
# Shear Modulus (GPa) = 18.61052 20.01244 19.31148
#
# Velocity S-wave (km/s) = 3.48647 3.61540 3.55152
# Velocity P-wave (km/s) = 6.99754 7.62381 7.31738
#
# Compressibility (1/GPa) = 0.01993845
#
# Stress axis : x y z
#
# Youngs Moduli (GPa) = 64.18712 29.49490 55.57016
#
# Poissons Ratio (x) = 0.23262 0.35212
# Poissons Ratio (y) = 0.50622 0.53053
# Poissons Ratio (z) = 0.40673 0.28159
#
# Static dielectric constant tensor:
#      x y z
#    x 3.078480 0.000000 0.000000 
#    y 0.000000 2.871290 0.000000 
#    z 0.000000 0.000000 2.977010 
# 
# 
# High freq. dielectric constant tensor:
#      x y z
#    x 1.576950 0.000000 0.000000 
#    y 0.000000 1.581260 0.000000 
#    z 0.000000 0.000000 1.572630 
# 
# From -- ./inp_files/25096.got.cif
#   From: 2010.03.12/outbox.cif.g09.slc.cpg/sg59_13_cif.got.tgz:25096.got - 2010.04.16 16:29:54.
