data_PCOD8240399
_publ_section_title
;
Structure prediction by ZEFSAII (Michael W. Deem and Ramdas Pophale) SiO2 
 PCOD8240399
Probable space group: P M M N
;
_chemical_formula_sum "Si O2"
_cell_formula_units_Z 64
_cell_length_a 8.925085
_cell_length_b 29.706241
_cell_length_c 15.080374
_cell_angle_alpha 90.000000
_cell_angle_beta 90.000000
_cell_angle_gamma 90.000000
_cell_volume 3998.270506
_symmetry_space_group_name_H-M "P M M N"
_symmetry_group_IT_number 59
_space_group.IT_coordinate_system_code '2'
_symmetry_cell_setting 'orthorhombic'
loop_
_space_group_symop_operation_xyz
x,y,z
1/2-x,1/2-y,z
1/2+x,-y,-z
-x,1/2+y,-z
-x,-y,-z
1/2+x,1/2+y,-z
1/2-x,y,z
x,1/2-y,z
loop_
_atom_site_type_symbol
_atom_site_label
_atom_site_fract_x
_atom_site_fract_y
_atom_site_fract_z
Si Si1 0.578538 0.300413 0.290330
Si Si2 0.423484 0.058552 0.055927
Si Si3 0.925181 0.528532 0.128546
Si Si4 0.077130 0.119296 0.210186
Si Si5 0.427208 0.701105 0.512217
Si Si6 0.071182 0.603870 0.461863
Si Si7 0.428915 0.444498 0.369597
Si Si8 0.429232 0.038892 0.673831
O O1 0.750000 0.314741 0.294798
O O2 0.557545 0.250000 0.254049
O O3 0.501067 0.333168 0.221130
O O4 0.507016 0.305166 0.388472
O O5 0.250000 0.045590 0.064032
O O6 0.458659 0.104153 0.109282
O O7 0.511209 0.019779 0.105671
O O8 0.469229 0.062993 0.951760
O O9 0.750000 0.522486 0.135708
O O10 0.983373 0.545006 0.224067
O O11 0.250000 0.127399 0.226400
O O12 0.022328 0.081756 0.280553
O O13 0.250000 0.704040 0.520545
O O14 0.484755 0.750000 0.473514
O O15 0.472407 0.657232 0.455109
O O16 0.250000 0.596967 0.465881
O O17 0.995735 0.582518 0.548086
O O18 0.001004 0.581426 0.375237
O O19 0.250000 0.449515 0.379504
O O20 0.503712 0.493532 0.367873
O O21 0.250000 0.038683 0.662756
#
# Coordination Sequence:
#
# PCOD8240399 Si02
#       8
#     8   8   8   8   8   8   8   8
#     4   9  17  30  48  68  92 122 155 190 227 275
#     4   9  17  31  48  68  92 118 151 190 231 273
#     4   9  18  31  48  67  89 120 155 191 231 271
#     4  10  19  29  46  70  97 124 151 190 234 275
#     4   8  15  29  48  68  88 113 149 190 229 272
#     4  11  21  33  50  69  91 125 160 195 232 276
#     4  11  21  33  46  66  96 129 161 192 226 270
#     4  11  22  34  47  66  94 127 162 198 232 274
#
# _framework density 16.006920999999998
#
# number of rings (size 3 to 8) (size 9 to 14) (size 15 to 20)
#    0.000    2.250    2.500    2.250    0.000    1.750 
#    0.000    0.000    0.000    1.500    0.000    0.875 
#    0.000    5.000    0.000    0.000    0.000    0.000 
#
# Total GULP energy -793136.024953 kJ/mol
# GULP energy per Si atom -12392.750390 kJ/mol
# Density = 1.597049 g / cm^3
# Si number density = 16.006921 Si / 1000 Ang^3
#
#
#
# Elastic Constant Matrix: (Units=GPa)
#
#
# Indices 1 2 3 4 5 6 
#
# 1 30.5795 28.5136 27.7294 0.0000 0.0000 0.0000
# 2 28.5136 114.7891 55.2972 0.0000 0.0000 0.0000
# 3 27.7294 55.2972 94.0658 0.0000 0.0000 0.0000
# 4 0.0000 0.0000 0.0000 15.2888 0.0000 0.0000
# 5 0.0000 0.0000 0.0000 0.0000 17.6402 0.0000
# 6 0.0000 0.0000 0.0000 0.0000 0.0000 23.1772
#
#
#
# Elastic Compliance Matrix: (Units=1/GPa)
#
#
# Indices 1 2 3 4 5 6 
#
# 1 0.048561 -0.007208 -0.010078 0.000000 0.000000 0.000000
# 2 -0.007208 0.013223 -0.005649 0.000000 0.000000 0.000000
# 3 -0.010078 -0.005649 0.016922 0.000000 0.000000 0.000000
# 4 0.000000 0.000000 0.000000 0.065407 0.000000 0.000000
# 5 0.000000 0.000000 0.000000 0.000000 0.056689 0.000000
# 6 0.000000 0.000000 0.000000 0.000000 0.000000 0.043146
#
#
# Mechanical properties :
#
#
# Convention : Reuss Voigt Hill
#
# Bulk Modulus (GPa) = 30.45265 51.39054 40.92159
# Shear Modulus (GPa) = 16.62439 19.74754 18.18596
#
# Velocity S-wave (km/s) = 3.22619 3.51620 3.37431
# Velocity P-wave (km/s) = 5.73966 6.97566 6.38762
#
# Compressibility (1/GPa) = 0.03283787
#
# Stress axis : x y z
#
# Youngs Moduli (GPa) = 20.59254 75.62539 59.09368
#
# Poissons Ratio (x) = 0.54508 0.59556
# Poissons Ratio (y) = 0.14842 0.33379
# Poissons Ratio (z) = 0.20754 0.42717
#
# Static dielectric constant tensor:
#      x y z
#    x 2.999320 0.000000 0.000000 
#    y 0.000000 3.119800 0.000000 
#    z 0.000000 0.000000 3.207690 
# 
# 
# High freq. dielectric constant tensor:
#      x y z
#    x 1.611750 0.000000 0.000000 
#    y 0.000000 1.603620 0.000000 
#    z 0.000000 0.000000 1.600910 
# 
# From -- ./inp_files/21856.got.cif
#   From: 2010.03.12/outbox.cif.g09.slc.cpg/sg59_11_cif.got.tgz:21856.got - 2010.04.16 16:29:54.
