data_PCOD8240997
_publ_section_title
;
Structure prediction by ZEFSAII (Michael W. Deem and Ramdas Pophale) SiO2 
 PCOD8240997
Probable space group: P M M N
;
_chemical_formula_sum "Si O2"
_cell_formula_units_Z 40
_cell_length_a 22.428849
_cell_length_b 12.926518
_cell_length_c 7.222847
_cell_angle_alpha 90.000000
_cell_angle_beta 90.000000
_cell_angle_gamma 90.000000
_cell_volume 2094.097787
_symmetry_space_group_name_H-M "P M M N"
_symmetry_group_IT_number 59
_space_group.IT_coordinate_system_code '2'
_symmetry_cell_setting 'orthorhombic'
loop_
_space_group_symop_operation_xyz
x,y,z
1/2-x,1/2-y,z
1/2+x,-y,-z
-x,1/2+y,-z
-x,-y,-z
1/2+x,1/2+y,-z
1/2-x,y,z
x,1/2-y,z
loop_
_atom_site_type_symbol
_atom_site_label
_atom_site_fract_x
_atom_site_fract_y
_atom_site_fract_z
Si Si1 0.682021 0.634340 0.794525
Si Si2 0.434785 0.629068 0.506954
Si Si3 0.682649 0.483711 0.464833
Si Si4 0.511074 0.976486 0.214707
Si Si5 0.131902 0.131706 0.816482
O O1 0.750000 0.620558 0.861112
O O2 0.671798 0.750000 0.716343
O O3 0.664710 0.553906 0.638213
O O4 0.638577 0.612790 0.965379
O O5 0.447257 0.750000 0.500311
O O6 0.364149 0.610402 0.540350
O O7 0.472650 0.582409 0.677935
O O8 0.454106 0.576522 0.312354
O O9 0.750000 0.439664 0.478431
O O10 0.678295 0.556370 0.285194
O O11 0.564821 0.895588 0.240736
O O12 0.500000 0.000000 0.000000
O O13 0.146321 0.250000 0.763316
#
# Coordination Sequence:
#
# PCOD8240997 Si02
#       5
#     8   8   8   8   8
#     4   9  17  29  47  73 104 137 174 217 265 317
#     4  10  22  38  56  81 109 138 179 224 264 317
#     4  10  20  34  52  74 105 143 179 218 264 312
#     4  10  21  38  58  80 108 142 177 220 273 323
#     4  10  19  31  51  78 105 136 175 219 269 323
#
# _framework density 19.101305
#
# number of rings (size 3 to 8) (size 9 to 14) (size 15 to 20)
#    0.000    2.200    0.000    3.000    0.000    4.000 
#    0.000    5.000    0.000    0.000    0.000    5.600 
#    0.000    0.000    0.000    0.000    0.000    0.000 
#
# Total GULP energy -496030.079913 kJ/mol
# GULP energy per Si atom -12400.751998 kJ/mol
# Density = 1.905783 g / cm^3
# Si number density = 19.101305 Si / 1000 Ang^3
#
#
#
# Elastic Constant Matrix: (Units=GPa)
#
#
# Indices 1 2 3 4 5 6 
#
# 1 81.5021 37.7607 24.0594 0.0000 0.0000 0.0000
# 2 37.7607 104.7995 43.7612 0.0000 0.0000 0.0000
# 3 24.0594 43.7612 103.7546 0.0000 0.0000 0.0000
# 4 0.0000 0.0000 0.0000 17.6888 0.0000 0.0000
# 5 0.0000 0.0000 0.0000 0.0000 25.8574 0.0000
# 6 0.0000 0.0000 0.0000 0.0000 0.0000 9.8907
#
#
#
# Elastic Compliance Matrix: (Units=1/GPa)
#
#
# Indices 1 2 3 4 5 6 
#
# 1 0.014905 -0.004767 -0.001446 0.000000 0.000000 0.000000
# 2 -0.004767 0.013106 -0.004423 0.000000 0.000000 0.000000
# 3 -0.001446 -0.004423 0.011839 0.000000 0.000000 0.000000
# 4 0.000000 0.000000 0.000000 0.056533 0.000000 0.000000
# 5 0.000000 0.000000 0.000000 0.000000 0.038674 0.000000
# 6 0.000000 0.000000 0.000000 0.000000 0.000000 0.101105
#
#
# Mechanical properties :
#
#
# Convention : Reuss Voigt Hill
#
# Bulk Modulus (GPa) = 53.82201 55.69098 54.75650
# Shear Modulus (GPa) = 18.96637 22.98572 20.97604
#
# Velocity S-wave (km/s) = 3.15451 3.47271 3.31743
# Velocity P-wave (km/s) = 6.44253 6.73042 6.58805
#
# Compressibility (1/GPa) = 0.01857976
#
# Stress axis : x y z
#
# Youngs Moduli (GPa) = 67.09206 76.29927 84.46861
#
# Poissons Ratio (x) = 0.36370 0.12212
# Poissons Ratio (y) = 0.31981 0.37357
# Poissons Ratio (z) = 0.09700 0.33744
#
# Static dielectric constant tensor:
#      x y z
#    x 3.506880 0.000000 0.000000 
#    y 0.000000 3.236310 0.000000 
#    z 0.000000 0.000000 3.527210 
# 
# 
# High freq. dielectric constant tensor:
#      x y z
#    x 1.747650 0.000000 0.000000 
#    y 0.000000 1.721760 0.000000 
#    z 0.000000 0.000000 1.747010 
# 
# From -- ./inp_files/1409.got.cif
#   From: 2010.03.12/outbox.cif.g09.slc.cpg/sg59_1_cif.got.tgz:1409.got - 2010.04.16 16:29:54.
