data_PCOD8240928
_publ_section_title
;
Structure prediction by ZEFSAII (Michael W. Deem and Ramdas Pophale) SiO2 
 PCOD8240928
Probable space group: P M M N
;
_chemical_formula_sum "Si O2"
_cell_formula_units_Z 48
_cell_length_a 16.359583
_cell_length_b 16.604688
_cell_length_c 6.215481
_cell_angle_alpha 90.000000
_cell_angle_beta 90.000000
_cell_angle_gamma 90.000000
_cell_volume 1688.409132
_symmetry_space_group_name_H-M "P M M N"
_symmetry_group_IT_number 59
_space_group.IT_coordinate_system_code '2'
_symmetry_cell_setting 'orthorhombic'
loop_
_space_group_symop_operation_xyz
x,y,z
1/2-x,1/2-y,z
1/2+x,-y,-z
-x,1/2+y,-z
-x,-y,-z
1/2+x,1/2+y,-z
1/2-x,y,z
x,1/2-y,z
loop_
_atom_site_type_symbol
_atom_site_label
_atom_site_fract_x
_atom_site_fract_y
_atom_site_fract_z
Si Si1 0.889804 0.658982 0.365982
Si Si2 0.020405 0.663665 0.855118
Si Si3 0.657891 0.446171 0.026729
Si Si4 0.070199 0.660109 0.366869
Si Si5 0.838424 0.622623 0.917818
Si Si6 0.343261 0.505432 0.487839
O O1 0.875757 0.750000 0.461542
O O2 0.827775 0.639835 0.173330
O O3 0.877720 0.587920 0.550055
O O4 0.980368 0.654296 0.255157
O O5 0.047267 0.750000 0.938096
O O6 0.079558 0.613268 0.023196
O O7 0.049074 0.648147 0.616240
O O8 0.922129 0.662242 0.842050
O O9 0.750000 0.407156 0.024922
O O10 0.654954 0.525633 0.875203
O O11 0.635298 0.475236 0.266643
O O12 0.110727 0.750000 0.335093
O O13 0.126939 0.579841 0.327120
O O14 0.750000 0.653084 0.819194
O O15 0.250000 0.502966 0.440264
#
# Coordination Sequence:
#
# PCOD8240928 Si02
#       6
#     8   8   8   8   8   8
#     4  10  19  32  51  72  97 130 166 202 240 289
#     4  10  19  31  50  75 101 128 159 201 250 293
#     4   8  16  31  50  73  99 128 164 203 242 288
#     4   9  19  34  51  73  99 128 163 202 246 292
#     4  10  20  34  52  72  96 130 170 205 240 290
#     4   9  17  30  50  75 100 126 160 203 246 290
#
# _framework density 28.429127000000001
#
# number of rings (size 3 to 8) (size 9 to 14) (size 15 to 20)
#    0.000    2.667    0.000    3.000    0.000    3.000 
#    0.000    5.000    0.000    9.000    0.000    2.333 
#    0.000    0.000    0.000    0.000    0.000    0.000 
#
# Total GULP energy -594629.904501 kJ/mol
# GULP energy per Si atom -12388.123010 kJ/mol
# Density = 2.836442 g / cm^3
# Si number density = 28.429127 Si / 1000 Ang^3
#
#
#
# Elastic Constant Matrix: (Units=GPa)
#
#
# Indices 1 2 3 4 5 6 
#
# 1 170.5388 95.1651 19.1721 0.0000 0.0000 0.0000
# 2 95.1651 198.6436 45.1892 0.0000 0.0000 0.0000
# 3 19.1721 45.1892 61.9753 0.0000 0.0000 0.0000
# 4 0.0000 0.0000 0.0000 33.0915 0.0000 0.0000
# 5 0.0000 0.0000 0.0000 0.0000 35.9918 0.0000
# 6 0.0000 0.0000 0.0000 0.0000 0.0000 4.4141
#
#
#
# Elastic Compliance Matrix: (Units=1/GPa)
#
#
# Indices 1 2 3 4 5 6 
#
# 1 0.008011 -0.003925 0.000384 0.000000 0.000000 0.000000
# 2 -0.003925 0.007958 -0.004589 0.000000 0.000000 0.000000
# 3 0.000384 -0.004589 0.019363 0.000000 0.000000 0.000000
# 4 0.000000 0.000000 0.000000 0.030219 0.000000 0.000000
# 5 0.000000 0.000000 0.000000 0.000000 0.027784 0.000000
# 6 0.000000 0.000000 0.000000 0.000000 0.000000 0.226546
#
#
# Mechanical properties :
#
#
# Convention : Reuss Voigt Hill
#
# Bulk Modulus (GPa) = 52.43293 83.35672 67.89482
# Shear Modulus (GPa) = 14.59862 32.80826 23.70344
#
# Velocity S-wave (km/s) = 2.26853 3.40080 2.89065
# Velocity P-wave (km/s) = 5.03439 6.69366 5.92242
#
# Compressibility (1/GPa) = 0.01907198
#
# Stress axis : x y z
#
# Youngs Moduli (GPa) = 124.82899 125.65264 51.64619
#
# Poissons Ratio (x) = 0.49321 -0.01982
# Poissons Ratio (y) = 0.48997 0.23699
# Poissons Ratio (z) = -0.04791 0.57657
#
# Static dielectric constant tensor:
#      x y z
#    x 5.054950 0.000000 0.000000 
#    y 0.000000 5.932940 0.000000 
#    z 0.000000 0.000000 6.344290 
# 
# 
# High freq. dielectric constant tensor:
#      x y z
#    x 2.140110 0.000000 0.000000 
#    y 0.000000 2.156810 0.000000 
#    z 0.000000 0.000000 2.248710 
# 
# From -- ./inp_files/9013.got.cif
#   From: 2010.03.12/outbox.cif.g09.slc.cpg/sg59_5_cif.got.tgz:9013.got - 2010.04.16 16:29:54.
