data_PCOD8240231
_publ_section_title
;
Structure prediction by ZEFSAII (Michael W. Deem and Ramdas Pophale) SiO2 
 PCOD8240231
Probable space group: P M M N
;
_chemical_formula_sum "Si O2"
_cell_formula_units_Z 48
_cell_length_a 27.992242
_cell_length_b 8.819084
_cell_length_c 10.190469
_cell_angle_alpha 90.000000
_cell_angle_beta 90.000000
_cell_angle_gamma 90.000000
_cell_volume 2515.679643
_symmetry_space_group_name_H-M "P M M N"
_symmetry_group_IT_number 59
_space_group.IT_coordinate_system_code '2'
_symmetry_cell_setting 'orthorhombic'
loop_
_space_group_symop_operation_xyz
x,y,z
1/2-x,1/2-y,z
1/2+x,-y,-z
-x,1/2+y,-z
-x,-y,-z
1/2+x,1/2+y,-z
1/2-x,y,z
x,1/2-y,z
loop_
_atom_site_type_symbol
_atom_site_label
_atom_site_fract_x
_atom_site_fract_y
_atom_site_fract_z
Si Si1 0.008524 0.424137 0.360227
Si Si2 0.103183 0.929452 0.259158
Si Si3 0.650842 0.574018 0.500118
Si Si4 0.250000 0.424729 0.628294
Si Si5 0.352197 0.930015 0.990004
Si Si6 0.750000 0.429267 0.092897
Si Si7 0.904932 0.075728 0.270548
O O1 0.021695 0.250000 0.386155
O O2 0.962065 0.439920 0.268281
O O3 0.000000 0.500000 0.500000
O O4 0.051171 0.502027 0.282104
O O5 0.098224 0.750000 0.257329
O O6 0.123896 0.993738 0.122114
O O7 0.140052 0.977075 0.371319
O O8 0.643591 0.750000 0.532042
O O9 0.704531 0.535326 0.459467
O O10 0.614710 0.528992 0.385578
O O11 0.250000 0.250000 0.673440
O O12 0.250000 0.528711 0.755137
O O13 0.350995 0.750000 0.994681
O O14 0.297948 0.994135 0.976274
O O15 0.383878 0.984724 0.866722
O O16 0.750000 0.250000 0.083901
O O17 0.889555 0.250000 0.296414
#
# Coordination Sequence:
#
# PCOD8240231 Si02
#       7
#     8   8   8   4   8   4   8
#     4  11  22  36  59  88 119 153 197 245 296 353
#     4  11  23  39  58  84 121 158 197 243 292 346
#     4  11  22  37  58  85 118 151 193 241 290 348
#     4  10  22  37  56  88 120 148 188 243 296 348
#     4   9  20  37  59  88 118 150 194 245 291 345
#     4  10  18  35  64  88 112 152 196 239 292 348
#     4  10  20  37  61  87 113 148 195 242 289 346
#
# _framework density 19.08033
#
# number of rings (size 3 to 8) (size 9 to 14) (size 15 to 20)
#    0.000    1.667    3.333    1.500    0.000    2.667 
#    0.000    4.167    0.000    0.000    0.000    0.000 
#    0.000    0.000    0.000    0.000    0.000    0.000 
#
# Total GULP energy -595326.978671 kJ/mol
# GULP energy per Si atom -12402.645389 kJ/mol
# Density = 1.903690 g / cm^3
# Si number density = 19.080330 Si / 1000 Ang^3
#
#
#
# Elastic Constant Matrix: (Units=GPa)
#
#
# Indices 1 2 3 4 5 6 
#
# 1 146.0279 37.9642 67.4201 0.0000 0.0000 0.0000
# 2 37.9642 61.0336 30.6847 0.0000 0.0000 0.0000
# 3 67.4201 30.6847 144.3323 0.0000 0.0000 0.0000
# 4 0.0000 0.0000 0.0000 9.0657 0.0000 0.0000
# 5 0.0000 0.0000 0.0000 0.0000 133.0827 0.0000
# 6 0.0000 0.0000 0.0000 0.0000 0.0000 27.0051
#
#
#
# Elastic Compliance Matrix: (Units=1/GPa)
#
#
# Indices 1 2 3 4 5 6 
#
# 1 0.009589 -0.004157 -0.003595 0.000000 0.000000 0.000000
# 2 -0.004157 0.020147 -0.002342 0.000000 0.000000 0.000000
# 3 -0.003595 -0.002342 0.009106 0.000000 0.000000 0.000000
# 4 0.000000 0.000000 0.000000 0.110306 0.000000 0.000000
# 5 0.000000 0.000000 0.000000 0.000000 0.007514 0.000000
# 6 0.000000 0.000000 0.000000 0.000000 0.000000 0.037030
#
#
# Mechanical properties :
#
#
# Convention : Reuss Voigt Hill
#
# Bulk Modulus (GPa) = 53.60695 69.28129 61.44412
# Shear Modulus (GPa) = 22.71727 48.18568 35.45148
#
# Velocity S-wave (km/s) = 3.45427 5.03080 4.31514
# Velocity P-wave (km/s) = 6.63820 8.37463 7.55646
#
# Compressibility (1/GPa) = 0.01865430
#
# Stress axis : x y z
#
# Youngs Moduli (GPa) = 104.29053 49.63463 109.82162
#
# Poissons Ratio (x) = 0.20632 0.39484
# Poissons Ratio (y) = 0.43351 0.25715
# Poissons Ratio (z) = 0.37495 0.11622
#
# Static dielectric constant tensor:
#      x y z
#    x 4.092140 0.000000 0.000000 
#    y 0.000000 3.382110 0.000000 
#    z 0.000000 0.000000 3.639630 
# 
# 
# High freq. dielectric constant tensor:
#      x y z
#    x 1.760680 0.000000 0.000000 
#    y 0.000000 1.729860 0.000000 
#    z 0.000000 0.000000 1.737920 
# 
# From -- ./inp_files/6393.got.cif
#   From: 2010.03.12/outbox.cif.g09.slc.cpg/sg59_4_cif.got.tgz:6393.got - 2010.04.16 16:29:54.
