data_PCOD8240864
_publ_section_title
;
Structure prediction by ZEFSAII (Michael W. Deem and Ramdas Pophale) SiO2 
 PCOD8240864
Probable space group: P M M N
;
_chemical_formula_sum "Si O2"
_cell_formula_units_Z 48
_cell_length_a 15.947599
_cell_length_b 9.020088
_cell_length_c 18.711871
_cell_angle_alpha 90.000000
_cell_angle_beta 90.000000
_cell_angle_gamma 90.000000
_cell_volume 2691.679186
_symmetry_space_group_name_H-M "P M M N"
_symmetry_group_IT_number 59
_space_group.IT_coordinate_system_code '2'
_symmetry_cell_setting 'orthorhombic'
loop_
_space_group_symop_operation_xyz
x,y,z
1/2-x,1/2-y,z
1/2+x,-y,-z
-x,1/2+y,-z
-x,-y,-z
1/2+x,1/2+y,-z
1/2-x,y,z
x,1/2-y,z
loop_
_atom_site_type_symbol
_atom_site_label
_atom_site_fract_x
_atom_site_fract_y
_atom_site_fract_z
Si Si1 0.156549 0.421540 0.901354
Si Si2 0.079137 0.924114 0.463179
Si Si3 0.250000 0.418291 0.466265
Si Si4 0.250000 0.083715 0.296683
Si Si5 0.493578 0.923732 0.822866
Si Si6 0.073235 0.080645 0.038891
Si Si7 0.083935 0.922073 0.296110
O O1 0.250000 0.460393 0.875829
O O2 0.134229 0.250000 0.885393
O O3 0.094126 0.525687 0.857413
O O4 0.154189 0.448636 0.988554
O O5 0.081425 0.750000 0.481165
O O6 0.068113 0.953035 0.379188
O O7 0.165904 0.996549 0.492243
O O8 0.000000 0.000000 0.500000
O O9 0.250000 0.250000 0.496796
O O10 0.250000 0.415823 0.381589
O O11 0.250000 0.250000 0.265619
O O12 0.168299 0.000189 0.268349
O O13 0.488980 0.750000 0.805864
O O14 0.571654 0.966155 0.877134
O O15 0.507072 0.009759 0.748625
O O16 0.047163 0.250000 0.038864
O O17 0.000000 0.000000 0.000000
O O18 0.092364 0.750000 0.279964
#
# Coordination Sequence:
#
# PCOD8240864 Si02
#       7
#     8   8   4   4   8   8   8
#     4   9  17  31  51  71  94 130 172 211 256 308
#     4  10  20  34  55  81 108 141 178 219 264 315
#     4   9  17  31  53  79 107 137 170 209 254 311
#     4   9  17  31  51  75 101 131 166 205 250 299
#     4  10  19  31  49  73 101 133 169 211 257 302
#     4   8  15  28  45  67  91 120 159 200 246 295
#     4  10  20  34  52  75 106 139 172 208 255 310
#
# _framework density 17.832733000000001
#
# number of rings (size 3 to 8) (size 9 to 14) (size 15 to 20)
#    0.000    2.667    0.000    2.000    0.000    5.000 
#    1.500    0.000    1.833    0.000    0.000    0.000 
#    0.000    0.000    0.000    0.000    0.000    0.000 
#
# Total GULP energy -594660.636675 kJ/mol
# GULP energy per Si atom -12388.763264 kJ/mol
# Density = 1.779214 g / cm^3
# Si number density = 17.832733 Si / 1000 Ang^3
#
#
#
# Elastic Constant Matrix: (Units=GPa)
#
#
# Indices 1 2 3 4 5 6 
#
# 1 110.5412 57.4344 44.5390 0.0000 0.0000 0.0000
# 2 57.4344 110.5934 49.0242 0.0000 0.0000 0.0000
# 3 44.5390 49.0242 58.8168 0.0000 0.0000 0.0000
# 4 0.0000 0.0000 0.0000 24.7037 0.0000 0.0000
# 5 0.0000 0.0000 0.0000 0.0000 23.4866 0.0000
# 6 0.0000 0.0000 0.0000 0.0000 0.0000 32.3944
#
#
#
# Elastic Compliance Matrix: (Units=1/GPa)
#
#
# Indices 1 2 3 4 5 6 
#
# 1 0.014105 -0.004108 -0.007256 0.000000 0.000000 0.000000
# 2 -0.004108 0.015537 -0.009839 0.000000 0.000000 0.000000
# 3 -0.007256 -0.009839 0.030698 0.000000 0.000000 0.000000
# 4 0.000000 0.000000 0.000000 0.040480 0.000000 0.000000
# 5 0.000000 0.000000 0.000000 0.000000 0.042577 0.000000
# 6 0.000000 0.000000 0.000000 0.000000 0.000000 0.030870
#
#
# Mechanical properties :
#
#
# Convention : Reuss Voigt Hill
#
# Bulk Modulus (GPa) = 55.76714 64.66075 60.21394
# Shear Modulus (GPa) = 22.45649 24.71388 23.58518
#
# Velocity S-wave (km/s) = 3.55249 3.72677 3.64067
# Velocity P-wave (km/s) = 6.94026 7.40653 7.17718
#
# Compressibility (1/GPa) = 0.01793171
#
# Stress axis : x y z
#
# Youngs Moduli (GPa) = 70.89812 64.36094 32.57523
#
# Poissons Ratio (x) = 0.26442 0.23638
# Poissons Ratio (y) = 0.29127 0.32052
# Poissons Ratio (z) = 0.51447 0.63328
#
# Static dielectric constant tensor:
#      x y z
#    x 3.552960 0.000000 0.000000 
#    y 0.000000 3.495790 0.000000 
#    z 0.000000 0.000000 3.329730 
# 
# 
# High freq. dielectric constant tensor:
#      x y z
#    x 1.677000 0.000000 0.000000 
#    y 0.000000 1.702950 0.000000 
#    z 0.000000 0.000000 1.668450 
# 
# From -- ./inp_files/27402.got.cif
#   From: 2010.03.12/outbox.cif.g09.slc.cpg/sg59_14_cif.got.tgz:27402.got - 2010.04.16 16:29:54.
