data_PCOD8240208
_publ_section_title
;
Structure prediction by ZEFSAII (Michael W. Deem and Ramdas Pophale) SiO2 
 PCOD8240208
Probable space group: P M M N
;
_chemical_formula_sum "Si O2"
_cell_formula_units_Z 64
_cell_length_a 8.821056
_cell_length_b 16.251919
_cell_length_c 22.001968
_cell_angle_alpha 90.000000
_cell_angle_beta 90.000000
_cell_angle_gamma 90.000000
_cell_volume 3154.182058
_symmetry_space_group_name_H-M "P M M N"
_symmetry_group_IT_number 59
_space_group.IT_coordinate_system_code '2'
_symmetry_cell_setting 'orthorhombic'
loop_
_space_group_symop_operation_xyz
x,y,z
1/2-x,1/2-y,z
1/2+x,-y,-z
-x,1/2+y,-z
-x,-y,-z
1/2+x,1/2+y,-z
1/2-x,y,z
x,1/2-y,z
loop_
_atom_site_type_symbol
_atom_site_label
_atom_site_fract_x
_atom_site_fract_y
_atom_site_fract_z
Si Si1 0.569879 0.159908 0.124199
Si Si2 0.574036 0.340491 0.363539
Si Si3 0.922110 0.845270 0.121493
Si Si4 0.072476 0.905711 0.241869
Si Si5 0.930657 0.999154 0.433889
Si Si6 0.570327 0.088674 0.997520
Si Si7 0.925950 0.841801 0.356526
Si Si8 0.073777 0.572065 0.756726
O O1 0.750000 0.161783 0.125615
O O2 0.503119 0.250000 0.136990
O O3 0.512400 0.100102 0.177455
O O4 0.511258 0.132355 0.058513
O O5 0.750000 0.336579 0.379366
O O6 0.502059 0.250000 0.379935
O O7 0.505402 0.418344 0.400518
O O8 0.549703 0.354987 0.291690
O O9 0.750000 0.876045 0.112443
O O10 0.929321 0.750000 0.137928
O O11 0.994311 0.894380 0.176855
O O12 0.013742 0.860625 0.060078
O O13 0.250000 0.894910 0.233422
O O14 0.014364 0.842284 0.292542
O O15 0.027265 0.995995 0.265349
O O16 0.750000 0.000123 0.436991
O O17 0.985517 0.914687 0.400741
O O18 0.000000 0.000000 0.500000
O O19 0.750000 0.083279 0.995148
O O20 0.500000 0.000000 0.000000
O O21 0.750000 0.856513 0.342140
O O22 0.951888 0.750000 0.385216
O O23 0.250000 0.545292 0.758417
#
# Coordination Sequence:
#
# PCOD8240208 Si02
#       8
#     8   8   8   8   8   8   8   8
#     4   9  18  32  54  84 111 141 186 239 291 345
#     4   9  17  32  58  89 118 152 198 248 292 342
#     4  11  24  41  60  82 111 152 201 250 303 362
#     4  12  24  37  58  88 121 153 192 245 305 362
#     4  10  21  38  59  88 123 160 200 243 290 346
#     4  11  22  37  57  82 116 154 194 243 299 363
#     4  10  21  40  64  88 118 159 204 246 294 355
#     4  10  18  34  60  86 115 151 193 238 290 355
#
# _framework density 20.290521999999999
#
# number of rings (size 3 to 8) (size 9 to 14) (size 15 to 20)
#    0.000    1.750    1.250    3.750    0.000    6.750 
#    0.000    0.625    0.000    3.750    0.000    0.000 
#    0.000    0.000    0.000    0.000    0.000    0.000 
#
# Total GULP energy -793493.704425 kJ/mol
# GULP energy per Si atom -12398.339132 kJ/mol
# Density = 2.024434 g / cm^3
# Si number density = 20.290522 Si / 1000 Ang^3
#
#
#
# Elastic Constant Matrix: (Units=GPa)
#
#
# Indices 1 2 3 4 5 6 
#
# 1 58.5178 26.0850 26.8995 0.0000 0.0000 0.0000
# 2 26.0850 144.9270 52.0197 0.0000 0.0000 0.0000
# 3 26.8995 52.0197 133.8626 0.0000 0.0000 0.0000
# 4 0.0000 0.0000 0.0000 27.7195 0.0000 0.0000
# 5 0.0000 0.0000 0.0000 0.0000 31.8884 0.0000
# 6 0.0000 0.0000 0.0000 0.0000 0.0000 15.9884
#
#
#
# Elastic Compliance Matrix: (Units=1/GPa)
#
#
# Indices 1 2 3 4 5 6 
#
# 1 0.019549 -0.002450 -0.002976 0.000000 0.000000 0.000000
# 2 -0.002450 0.008326 -0.002743 0.000000 0.000000 0.000000
# 3 -0.002976 -0.002743 0.009134 0.000000 0.000000 0.000000
# 4 0.000000 0.000000 0.000000 0.036076 0.000000 0.000000
# 5 0.000000 0.000000 0.000000 0.000000 0.031359 0.000000
# 6 0.000000 0.000000 0.000000 0.000000 0.000000 0.062545
#
#
# Mechanical properties :
#
#
# Convention : Reuss Voigt Hill
#
# Bulk Modulus (GPa) = 48.37897 60.81288 54.59592
# Shear Modulus (GPa) = 26.28557 30.60615 28.44586
#
# Velocity S-wave (km/s) = 3.60316 3.88802 3.74830
# Velocity P-wave (km/s) = 6.41913 7.08461 6.76006
#
# Compressibility (1/GPa) = 0.02067014
#
# Stress axis : x y z
#
# Youngs Moduli (GPa) = 51.15305 120.11118 109.47694
#
# Poissons Ratio (x) = 0.29431 0.32582
# Poissons Ratio (y) = 0.12534 0.30029
# Poissons Ratio (z) = 0.15224 0.32946
#
# Static dielectric constant tensor:
#      x y z
#    x 3.303350 0.000000 0.000000 
#    y 0.000000 3.965930 0.000000 
#    z 0.000000 0.000000 4.435050 
# 
# 
# High freq. dielectric constant tensor:
#      x y z
#    x 1.755310 0.000000 0.000000 
#    y 0.000000 1.810360 0.000000 
#    z 0.000000 0.000000 1.796250 
# 
# From -- ./inp_files/31532.got.cif
#   From: 2010.03.12/outbox.cif.g09.slc.cpg/sg59_16_cif.got.tgz:31532.got - 2010.04.16 16:29:54.
