data_PCOD8240477
_publ_section_title
;
Structure prediction by ZEFSAII (Michael W. Deem and Ramdas Pophale) SiO2 
 PCOD8240477
Probable space group: P M M N
;
_chemical_formula_sum "Si O2"
_cell_formula_units_Z 48
_cell_length_a 9.024445
_cell_length_b 31.064083
_cell_length_c 9.784811
_cell_angle_alpha 90.000000
_cell_angle_beta 90.000000
_cell_angle_gamma 90.000000
_cell_volume 2743.035838
_symmetry_space_group_name_H-M "P M M N"
_symmetry_group_IT_number 59
_space_group.IT_coordinate_system_code '2'
_symmetry_cell_setting 'orthorhombic'
loop_
_space_group_symop_operation_xyz
x,y,z
1/2-x,1/2-y,z
1/2+x,-y,-z
-x,1/2+y,-z
-x,-y,-z
1/2+x,1/2+y,-z
1/2-x,y,z
x,1/2-y,z
loop_
_atom_site_type_symbol
_atom_site_label
_atom_site_fract_x
_atom_site_fract_y
_atom_site_fract_z
Si Si1 0.426400 0.128471 0.989498
Si Si2 0.424390 0.393236 0.284811
Si Si3 0.075399 0.297486 0.792619
Si Si4 0.076289 0.135531 0.574200
Si Si5 0.921543 0.986310 0.637545
Si Si6 0.921611 0.426807 0.774320
O O1 0.250000 0.125127 0.980278
O O2 0.487220 0.127678 0.145072
O O3 0.482440 0.172522 0.916959
O O4 0.492954 0.087477 0.910625
O O5 0.250000 0.396832 0.267416
O O6 0.465601 0.362611 0.413484
O O7 0.488952 0.441271 0.307385
O O8 0.250000 0.292548 0.804597
O O9 0.001265 0.250000 0.800576
O O10 0.033249 0.319516 0.647454
O O11 0.250000 0.125709 0.594824
O O12 0.987046 0.096555 0.641097
O O13 0.750000 0.980395 0.600800
O O14 0.944412 0.022143 0.754879
O O15 0.000000 0.000000 0.500000
O O16 0.750000 0.414463 0.788174
#
# Coordination Sequence:
#
# PCOD8240477 Si02
#       6
#     8   8   8   8   8   8
#     4   9  18  32  49  66  91 128 156 184 231 281
#     4   9  17  30  47  68  92 121 159 191 225 276
#     4   8  14  26  46  71  93 115 150 190 226 272
#     4   9  16  29  50  68  89 122 153 187 230 276
#     4  10  19  30  46  67  93 122 158 199 230 265
#     4  10  19  30  45  68  94 121 155 196 230 263
#
# _framework density 17.498861000000002
#
# number of rings (size 3 to 8) (size 9 to 14) (size 15 to 20)
#    0.000    2.833    1.667    1.500    0.000    1.333 
#    0.000    2.500    0.000   13.000    0.000    0.000 
#    0.000   10.667    0.000    0.000    0.000    0.000 
#
# Total GULP energy -594910.843458 kJ/mol
# GULP energy per Si atom -12393.975905 kJ/mol
# Density = 1.745903 g / cm^3
# Si number density = 17.498861 Si / 1000 Ang^3
#
#
#
# Elastic Constant Matrix: (Units=GPa)
#
#
# Indices 1 2 3 4 5 6 
#
# 1 28.2702 17.2303 20.1655 0.0000 0.0000 0.0000
# 2 17.2303 132.4229 76.8760 0.0000 0.0000 0.0000
# 3 20.1655 76.8760 170.4701 0.0000 0.0000 0.0000
# 4 0.0000 0.0000 0.0000 19.8425 0.0000 0.0000
# 5 0.0000 0.0000 0.0000 0.0000 17.3577 0.0000
# 6 0.0000 0.0000 0.0000 0.0000 0.0000 15.3499
#
#
#
# Elastic Compliance Matrix: (Units=1/GPa)
#
#
# Indices 1 2 3 4 5 6 
#
# 1 0.039671 -0.003302 -0.003204 0.000000 0.000000 0.000000
# 2 -0.003302 0.010505 -0.004347 0.000000 0.000000 0.000000
# 3 -0.003204 -0.004347 0.008205 0.000000 0.000000 0.000000
# 4 0.000000 0.000000 0.000000 0.050397 0.000000 0.000000
# 5 0.000000 0.000000 0.000000 0.000000 0.057611 0.000000
# 6 0.000000 0.000000 0.000000 0.000000 0.000000 0.065147
#
#
# Mechanical properties :
#
#
# Convention : Reuss Voigt Hill
#
# Bulk Modulus (GPa) = 27.26579 62.18964 44.72772
# Shear Modulus (GPa) = 18.83487 24.96947 21.90217
#
# Velocity S-wave (km/s) = 3.28433 3.78156 3.54168
# Velocity P-wave (km/s) = 5.47702 7.39482 6.50696
#
# Compressibility (1/GPa) = 0.03667599
#
# Stress axis : x y z
#
# Youngs Moduli (GPa) = 25.20759 95.19705 121.87292
#
# Poissons Ratio (x) = 0.31433 0.39045
# Poissons Ratio (y) = 0.08323 0.52973
# Poissons Ratio (z) = 0.08076 0.41378
#
# Static dielectric constant tensor:
#      x y z
#    x 2.942910 0.000000 0.000000 
#    y 0.000000 3.504490 0.000000 
#    z 0.000000 0.000000 3.484770 
# 
# 
# High freq. dielectric constant tensor:
#      x y z
#    x 1.638790 0.000000 0.000000 
#    y 0.000000 1.667050 0.000000 
#    z 0.000000 0.000000 1.677600 
# 
# From -- ./inp_files/7706.got.cif
#   From: 2010.03.12/outbox.cif.g09.slc.cpg/sg59_4_cif.got.tgz:7706.got - 2010.04.16 16:29:54.
