data_PCOD8240803
_publ_section_title
;
Structure prediction by ZEFSAII (Michael W. Deem and Ramdas Pophale) SiO2 
 PCOD8240803
Probable space group: P M M N
;
_chemical_formula_sum "Si O2"
_cell_formula_units_Z 64
_cell_length_a 9.296026
_cell_length_b 23.062043
_cell_length_c 17.939421
_cell_angle_alpha 90.000000
_cell_angle_beta 90.000000
_cell_angle_gamma 90.000000
_cell_volume 3845.949074
_symmetry_space_group_name_H-M "P M M N"
_symmetry_group_IT_number 59
_space_group.IT_coordinate_system_code '2'
_symmetry_cell_setting 'orthorhombic'
loop_
_space_group_symop_operation_xyz
x,y,z
1/2-x,1/2-y,z
1/2+x,-y,-z
-x,1/2+y,-z
-x,-y,-z
1/2+x,1/2+y,-z
1/2-x,y,z
x,1/2-y,z
loop_
_atom_site_type_symbol
_atom_site_label
_atom_site_fract_x
_atom_site_fract_y
_atom_site_fract_z
Si Si1 0.920061 0.871112 0.641644
Si Si2 0.590848 0.181203 0.058413
Si Si3 0.585477 0.183251 0.489646
Si Si4 0.918455 0.116795 0.632686
Si Si5 0.088974 0.319025 0.921089
Si Si6 0.581350 0.182910 0.225707
Si Si7 0.582775 0.994326 0.576824
Si Si8 0.418291 0.682587 0.223576
O O1 0.750000 0.861674 0.644064
O O2 0.988357 0.827214 0.582407
O O3 0.986504 0.857924 0.722004
O O4 0.962779 0.936672 0.620416
O O5 0.750000 0.155792 0.043093
O O6 0.598248 0.250000 0.052246
O O7 0.539775 0.164427 0.141494
O O8 0.482806 0.155618 0.996474
O O9 0.750000 0.164688 0.471733
O O10 0.577989 0.250000 0.512533
O O11 0.518766 0.146709 0.558176
O O12 0.750000 0.129848 0.633128
O O13 0.954733 0.048535 0.630575
O O14 0.982578 0.145737 0.707270
O O15 0.250000 0.343906 0.915673
O O16 0.089831 0.250000 0.924178
O O17 0.999585 0.340094 0.849648
O O18 0.750000 0.172797 0.240687
O O19 0.542235 0.250000 0.240423
O O20 0.750000 0.993977 0.556234
O O21 0.500000 0.000000 0.500000
O O22 0.250000 0.671381 0.210685
O O23 0.449478 0.750000 0.239572
#
# Coordination Sequence:
#
# PCOD8240803 Si02
#       8
#     8   8   8   8   8   8   8   8
#     4  11  22  32  45  68  95 122 153 190 237 285
#     4   8  14  26  44  65  89 119 156 191 219 258
#     4  10  19  31  49  69  89 119 157 191 228 277
#     4   9  17  31  50  68  87 115 155 200 235 266
#     4   9  16  25  39  63  96 129 153 175 216 274
#     4   9  18  32  49  69  94 125 159 192 228 273
#     4  10  20  35  52  68  87 117 158 200 239 279
#     4   9  16  27  45  68  92 118 151 190 229 270
#
# _framework density 16.640885999999998
#
# number of rings (size 3 to 8) (size 9 to 14) (size 15 to 20)
#    0.000    2.625    1.250    2.250    0.000    6.000 
#    0.000    2.500    0.000    1.500    0.000    0.875 
#    0.000    0.000    0.000    0.000    0.000    0.000 
#
# Total GULP energy -793517.302053 kJ/mol
# GULP energy per Si atom -12398.707845 kJ/mol
# Density = 1.660301 g / cm^3
# Si number density = 16.640886 Si / 1000 Ang^3
#
#
#
# Elastic Constant Matrix: (Units=GPa)
#
#
# Indices 1 2 3 4 5 6 
#
# 1 71.1323 28.6487 59.9622 0.0000 0.0000 0.0000
# 2 28.6487 63.3667 39.1647 0.0000 0.0000 0.0000
# 3 59.9622 39.1647 142.0336 0.0000 0.0000 0.0000
# 4 0.0000 0.0000 0.0000 11.4353 0.0000 0.0000
# 5 0.0000 0.0000 0.0000 0.0000 20.5061 0.0000
# 6 0.0000 0.0000 0.0000 0.0000 0.0000 15.9083
#
#
#
# Elastic Compliance Matrix: (Units=1/GPa)
#
#
# Indices 1 2 3 4 5 6 
#
# 1 0.023242 -0.005356 -0.008335 0.000000 0.000000 0.000000
# 2 -0.005356 0.020258 -0.003325 0.000000 0.000000 0.000000
# 3 -0.008335 -0.003325 0.011476 0.000000 0.000000 0.000000
# 4 0.000000 0.000000 0.000000 0.087449 0.000000 0.000000
# 5 0.000000 0.000000 0.000000 0.000000 0.048766 0.000000
# 6 0.000000 0.000000 0.000000 0.000000 0.000000 0.062860
#
#
# Mechanical properties :
#
#
# Convention : Reuss Voigt Hill
#
# Bulk Modulus (GPa) = 47.74715 59.12042 53.43378
# Shear Modulus (GPa) = 16.94552 19.48708 18.21630
#
# Velocity S-wave (km/s) = 3.19455 3.42575 3.31217
# Velocity P-wave (km/s) = 6.50860 7.15905 6.84156
#
# Compressibility (1/GPa) = 0.02094366
#
# Stress axis : x y z
#
# Youngs Moduli (GPa) = 43.02627 49.36421 87.13770
#
# Poissons Ratio (x) = 0.26441 0.72629
# Poissons Ratio (y) = 0.23046 0.28970
# Poissons Ratio (z) = 0.35862 0.16412
#
# Static dielectric constant tensor:
#      x y z
#    x 3.098830 0.000000 0.000000 
#    y 0.000000 2.915710 0.000000 
#    z 0.000000 0.000000 3.299530 
# 
# 
# High freq. dielectric constant tensor:
#      x y z
#    x 1.630120 0.000000 0.000000 
#    y 0.000000 1.602960 0.000000 
#    z 0.000000 0.000000 1.648980 
# 
# From -- ./inp_files/26455.got.cif
#   From: 2010.03.12/outbox.cif.g09.slc.cpg/sg59_14_cif.got.tgz:26455.got - 2010.04.16 16:29:54.
