data_PCOD8240351
_publ_section_title
;
Structure prediction by ZEFSAII (Michael W. Deem and Ramdas Pophale) SiO2 
 PCOD8240351
Probable space group: P M M N
;
_chemical_formula_sum "Si O2"
_cell_formula_units_Z 56
_cell_length_a 13.623178
_cell_length_b 9.111103
_cell_length_c 28.909688
_cell_angle_alpha 90.000000
_cell_angle_beta 90.000000
_cell_angle_gamma 90.000000
_cell_volume 3588.333438
_symmetry_space_group_name_H-M "P M M N"
_symmetry_group_IT_number 59
_space_group.IT_coordinate_system_code '2'
_symmetry_cell_setting 'orthorhombic'
loop_
_space_group_symop_operation_xyz
x,y,z
1/2-x,1/2-y,z
1/2+x,-y,-z
-x,1/2+y,-z
-x,-y,-z
1/2+x,1/2+y,-z
1/2-x,y,z
x,1/2-y,z
loop_
_atom_site_type_symbol
_atom_site_label
_atom_site_fract_x
_atom_site_fract_y
_atom_site_fract_z
Si Si1 0.030018 0.077455 0.430866
Si Si2 0.360389 0.082665 0.985817
Si Si3 0.363867 0.078616 0.338237
Si Si4 0.135952 0.077438 0.155861
Si Si5 0.139046 0.422649 0.523281
Si Si6 0.049432 0.920345 0.069477
Si Si7 0.866593 0.084616 0.752320
O O1 0.013042 0.250000 0.430489
O O2 0.077319 0.023521 0.383037
O O3 0.102295 0.030608 0.472394
O O4 0.925214 0.999890 0.437136
O O5 0.250000 0.055098 0.967473
O O6 0.373334 0.250000 0.003606
O O7 0.435687 0.051971 0.943992
O O8 0.380526 0.974765 0.028347
O O9 0.250000 0.043117 0.346883
O O10 0.379549 0.250000 0.328903
O O11 0.406614 0.991835 0.294151
O O12 0.250000 0.039386 0.146761
O O13 0.119023 0.250000 0.159033
O O14 0.070425 0.011994 0.115188
O O15 0.097140 0.005887 0.203269
O O16 0.250000 0.477958 0.528840
O O17 0.130597 0.250000 0.530179
O O18 0.071871 0.750000 0.078676
O O19 0.750000 0.082916 0.751005
O O20 0.907657 0.250000 0.755219
#
# Coordination Sequence:
#
# PCOD8240351 Si02
#       7
#     8   8   8   8   8   8   8
#     4   9  17  28  43  63  85 112 146 178 210 251
#     4   9  18  32  46  61  86 118 147 175 210 253
#     4   9  16  27  43  62  86 115 143 171 208 255
#     4  10  19  30  44  62  87 118 146 172 208 255
#     4   9  17  29  43  60  85 115 145 178 214 251
#     4  10  19  29  44  66  88 112 145 181 214 248
#     4   9  17  28  42  62  87 112 140 175 211 248
#
# _framework density 15.606132000000001
#
# number of rings (size 3 to 8) (size 9 to 14) (size 15 to 20)
#    0.000    2.714    0.000    2.143    0.000    7.714 
#    0.000    0.000    0.000    2.571    0.000    1.000 
#    0.000    5.714    0.000    0.000    0.000    0.000 
#
# Total GULP energy -694431.477840 kJ/mol
# GULP energy per Si atom -12400.562104 kJ/mol
# Density = 1.557061 g / cm^3
# Si number density = 15.606132 Si / 1000 Ang^3
#
#
#
# Elastic Constant Matrix: (Units=GPa)
#
#
# Indices 1 2 3 4 5 6 
#
# 1 92.3590 38.0138 53.2786 0.0000 0.0000 0.0000
# 2 38.0138 71.7470 57.6307 0.0000 0.0000 0.0000
# 3 53.2786 57.6307 129.8136 0.0000 0.0000 0.0000
# 4 0.0000 0.0000 0.0000 30.9322 0.0000 0.0000
# 5 0.0000 0.0000 0.0000 0.0000 22.5391 0.0000
# 6 0.0000 0.0000 0.0000 0.0000 0.0000 21.6660
#
#
#
# Elastic Compliance Matrix: (Units=1/GPa)
#
#
# Indices 1 2 3 4 5 6 
#
# 1 0.015146 -0.004712 -0.004124 0.000000 0.000000 0.000000
# 2 -0.004712 0.023129 -0.008334 0.000000 0.000000 0.000000
# 3 -0.004124 -0.008334 0.013096 0.000000 0.000000 0.000000
# 4 0.000000 0.000000 0.000000 0.032329 0.000000 0.000000
# 5 0.000000 0.000000 0.000000 0.000000 0.044367 0.000000
# 6 0.000000 0.000000 0.000000 0.000000 0.000000 0.046155
#
#
# Mechanical properties :
#
#
# Convention : Reuss Voigt Hill
#
# Bulk Modulus (GPa) = 58.72030 65.75175 62.23602
# Shear Modulus (GPa) = 23.33838 24.69390 24.01614
#
# Velocity S-wave (km/s) = 3.87132 3.98215 3.92713
# Velocity P-wave (km/s) = 7.59545 7.96033 7.78003
#
# Compressibility (1/GPa) = 0.01702989
#
# Stress axis : x y z
#
# Youngs Moduli (GPa) = 66.02462 43.23633 76.35891
#
# Poissons Ratio (x) = 0.20372 0.31494
# Poissons Ratio (y) = 0.31110 0.63639
# Poissons Ratio (z) = 0.27231 0.36034
#
# Static dielectric constant tensor:
#      x y z
#    x 2.847340 0.000000 0.000000 
#    y 0.000000 3.053280 0.000000 
#    z 0.000000 0.000000 3.006060 
# 
# 
# High freq. dielectric constant tensor:
#      x y z
#    x 1.568290 0.000000 0.000000 
#    y 0.000000 1.607040 0.000000 
#    z 0.000000 0.000000 1.593410 
# 
# From -- ./inp_files/33306.got.cif
#   From: 2010.03.12/outbox.cif.g09.slc.cpg/sg59_17_cif.got.tgz:33306.got - 2010.04.16 16:29:54.
