data_PCOD8240816
_publ_section_title
;
Structure prediction by ZEFSAII (Michael W. Deem and Ramdas Pophale) SiO2 
 PCOD8240816
Probable space group: P M M N
;
_chemical_formula_sum "Si O2"
_cell_formula_units_Z 48
_cell_length_a 23.157051
_cell_length_b 9.196388
_cell_length_c 13.783462
_cell_angle_alpha 90.000000
_cell_angle_beta 90.000000
_cell_angle_gamma 90.000000
_cell_volume 2935.342965
_symmetry_space_group_name_H-M "P M M N"
_symmetry_group_IT_number 59
_space_group.IT_coordinate_system_code '2'
_symmetry_cell_setting 'orthorhombic'
loop_
_space_group_symop_operation_xyz
x,y,z
1/2-x,1/2-y,z
1/2+x,-y,-z
-x,1/2+y,-z
-x,-y,-z
1/2+x,1/2+y,-z
1/2-x,y,z
x,1/2-y,z
loop_
_atom_site_type_symbol
_atom_site_label
_atom_site_fract_x
_atom_site_fract_y
_atom_site_fract_z
Si Si1 0.084582 0.419167 0.023025
Si Si2 0.910770 0.580570 0.524841
Si Si3 0.974064 0.419056 0.361258
Si Si4 0.472091 0.920217 0.860039
Si Si5 0.682889 0.418948 0.641125
Si Si6 0.184027 0.082572 0.163580
O O1 0.081505 0.250000 0.999071
O O2 0.145201 0.462749 0.071938
O O3 0.034091 0.465953 0.097123
O O4 0.078600 0.503290 0.921403
O O5 0.897587 0.750000 0.511459
O O6 0.929110 0.514626 0.421734
O O7 0.852882 0.500474 0.558433
O O8 0.960722 0.552331 0.603672
O O9 0.958012 0.250000 0.373651
O O10 0.969323 0.472305 0.250764
O O11 0.462075 0.750000 0.867458
O O12 0.750000 0.444339 0.617643
O O13 0.666480 0.250000 0.641739
O O14 0.666774 0.484379 0.745482
O O15 0.250000 0.057510 0.132270
O O16 0.172153 0.250000 0.193086
#
# Coordination Sequence:
#
# PCOD8240816 Si02
#       6
#     8   8   8   8   8   8
#     4   9  17  29  45  67  93 118 149 188 226 266
#     4  10  19  31  49  71  94 121 153 190 232 277
#     4   9  18  32  48  68  95 123 153 191 233 276
#     4   9  17  29  45  65  91 122 151 182 223 269
#     4  10  20  32  47  69  96 124 153 187 227 272
#     4   9  17  30  48  68  91 120 151 185 227 271
#
# _framework density 16.352432
#
# number of rings (size 3 to 8) (size 9 to 14) (size 15 to 20)
#    0.000    2.667    0.000    2.000    0.000    5.667 
#    0.000    3.333    0.000    1.000    0.000    4.667 
#    0.000    0.000    0.000    0.000    0.000    0.000 
#
# Total GULP energy -595312.326892 kJ/mol
# GULP energy per Si atom -12402.340144 kJ/mol
# Density = 1.631521 g / cm^3
# Si number density = 16.352432 Si / 1000 Ang^3
#
#
#
# Elastic Constant Matrix: (Units=GPa)
#
#
# Indices 1 2 3 4 5 6 
#
# 1 76.4768 44.3845 57.1942 0.0000 0.0000 0.0000
# 2 44.3845 74.6309 59.7504 0.0000 0.0000 0.0000
# 3 57.1942 59.7504 138.5568 0.0000 0.0000 0.0000
# 4 0.0000 0.0000 0.0000 31.8749 0.0000 0.0000
# 5 0.0000 0.0000 0.0000 0.0000 27.8705 0.0000
# 6 0.0000 0.0000 0.0000 0.0000 0.0000 25.4910
#
#
#
# Elastic Compliance Matrix: (Units=1/GPa)
#
#
# Indices 1 2 3 4 5 6 
#
# 1 0.022267 -0.008986 -0.005316 0.000000 0.000000 0.000000
# 2 -0.008986 0.024091 -0.006680 0.000000 0.000000 0.000000
# 3 -0.005316 -0.006680 0.012292 0.000000 0.000000 0.000000
# 4 0.000000 0.000000 0.000000 0.031373 0.000000 0.000000
# 5 0.000000 0.000000 0.000000 0.000000 0.035880 0.000000
# 6 0.000000 0.000000 0.000000 0.000000 0.000000 0.039230
#
#
# Mechanical properties :
#
#
# Convention : Reuss Voigt Hill
#
# Bulk Modulus (GPa) = 59.92986 68.03588 63.98287
# Shear Modulus (GPa) = 23.51173 25.60299 24.55736
#
# Velocity S-wave (km/s) = 3.79596 3.96118 3.87945
# Velocity P-wave (km/s) = 7.47937 7.91313 7.69930
#
# Compressibility (1/GPa) = 0.01668617
#
# Stress axis : x y z
#
# Youngs Moduli (GPa) = 44.90924 41.50852 81.35229
#
# Poissons Ratio (x) = 0.37301 0.43249
# Poissons Ratio (y) = 0.40357 0.54340
# Poissons Ratio (z) = 0.23875 0.27726
#
# Static dielectric constant tensor:
#      x y z
#    x 3.033510 0.000000 0.000000 
#    y 0.000000 3.120930 0.000000 
#    z 0.000000 0.000000 3.051330 
# 
# 
# High freq. dielectric constant tensor:
#      x y z
#    x 1.616270 0.000000 0.000000 
#    y 0.000000 1.633610 0.000000 
#    z 0.000000 0.000000 1.620470 
# 
# From -- ./inp_files/14373.got.cif
#   From: 2010.03.12/outbox.cif.g09.slc.cpg/sg59_8_cif.got.tgz:14373.got - 2010.04.16 16:29:54.
