data_PCOD8240689
_publ_section_title
;
Structure prediction by ZEFSAII (Michael W. Deem and Ramdas Pophale) SiO2 
 PCOD8240689
Probable space group: P M M N
;
_chemical_formula_sum "Si O2"
_cell_formula_units_Z 64
_cell_length_a 8.708364
_cell_length_b 28.780855
_cell_length_c 15.729941
_cell_angle_alpha 90.000000
_cell_angle_beta 90.000000
_cell_angle_gamma 90.000000
_cell_volume 3942.460574
_symmetry_space_group_name_H-M "P M M N"
_symmetry_group_IT_number 59
_space_group.IT_coordinate_system_code '2'
_symmetry_cell_setting 'orthorhombic'
loop_
_space_group_symop_operation_xyz
x,y,z
1/2-x,1/2-y,z
1/2+x,-y,-z
-x,1/2+y,-z
-x,-y,-z
1/2+x,1/2+y,-z
1/2-x,y,z
x,1/2-y,z
loop_
_atom_site_type_symbol
_atom_site_label
_atom_site_fract_x
_atom_site_fract_y
_atom_site_fract_z
Si Si1 0.068389 0.545142 0.816016
Si Si2 0.932575 0.300209 0.403838
Si Si3 0.072496 0.549534 0.999970
Si Si4 0.931776 0.050737 0.506079
Si Si5 0.929766 0.607210 0.339458
Si Si6 0.429241 0.697351 0.402566
Si Si7 0.932522 0.395402 0.340326
Si Si8 0.931112 0.442985 0.816885
O O1 0.250000 0.535636 0.805022
O O2 0.033683 0.571301 0.906991
O O3 0.003551 0.579707 0.743895
O O4 0.980563 0.496580 0.806447
O O5 0.750000 0.299140 0.403524
O O6 0.995473 0.250000 0.371275
O O7 0.985822 0.308704 0.500535
O O8 0.994079 0.342069 0.344443
O O9 0.250000 0.540404 0.007964
O O10 0.023468 0.575805 0.087259
O O11 0.000000 0.500000 0.000000
O O12 0.750000 0.047462 0.506977
O O13 0.992427 0.078402 0.423936
O O14 0.984418 0.076492 0.590744
O O15 0.000000 0.000000 0.500000
O O16 0.750000 0.601147 0.352654
O O17 0.975965 0.661336 0.345319
O O18 0.976304 0.589547 0.246636
O O19 0.250000 0.685332 0.394614
O O20 0.461716 0.750000 0.371171
O O21 0.750000 0.395574 0.338670
O O22 0.750000 0.438835 0.798672
#
# Coordination Sequence:
#
# PCOD8240689 Si02
#       8
#     8   8   8   8   8   8   8   8
#     4   9  16  28  46  69  95 119 147 188 237 285
#     4   8  13  24  44  67  87 110 144 182 219 263
#     4   8  15  27  44  65  88 116 149 189 237 279
#     4  11  21  33  46  64  94 129 163 191 223 273
#     4  12  23  33  46  67  94 126 161 199 238 275
#     4   9  17  32  53  71  89 117 153 194 239 284
#     4   9  16  26  43  65  89 117 147 180 219 268
#     4  10  19  31  46  64  89 123 161 197 231 277
#
# _framework density 16.233516999999999
#
# number of rings (size 3 to 8) (size 9 to 14) (size 15 to 20)
#    0.000    2.500    1.250    3.375    0.000    1.750 
#    0.000    0.625    0.000    0.000    0.000    0.875 
#    0.000    5.000    0.000    0.000    0.000    0.000 
#
# Total GULP energy -792926.913865 kJ/mol
# GULP energy per Si atom -12389.483029 kJ/mol
# Density = 1.619657 g / cm^3
# Si number density = 16.233517 Si / 1000 Ang^3
#
#
#
# Elastic Constant Matrix: (Units=GPa)
#
#
# Indices 1 2 3 4 5 6 
#
# 1 37.1815 20.9921 21.8085 0.0000 0.0000 0.0000
# 2 20.9921 106.3585 50.3233 0.0000 0.0000 0.0000
# 3 21.8085 50.3233 113.1304 0.0000 0.0000 0.0000
# 4 0.0000 0.0000 0.0000 11.6087 0.0000 0.0000
# 5 0.0000 0.0000 0.0000 0.0000 15.1140 0.0000
# 6 0.0000 0.0000 0.0000 0.0000 0.0000 20.3893
#
#
#
# Elastic Compliance Matrix: (Units=1/GPa)
#
#
# Indices 1 2 3 4 5 6 
#
# 1 0.031787 -0.004274 -0.004226 0.000000 0.000000 0.000000
# 2 -0.004274 0.012483 -0.004729 0.000000 0.000000 0.000000
# 3 -0.004226 -0.004729 0.011758 0.000000 0.000000 0.000000
# 4 0.000000 0.000000 0.000000 0.086142 0.000000 0.000000
# 5 0.000000 0.000000 0.000000 0.000000 0.066164 0.000000
# 6 0.000000 0.000000 0.000000 0.000000 0.000000 0.049045
#
#
# Mechanical properties :
#
#
# Convention : Reuss Voigt Hill
#
# Bulk Modulus (GPa) = 33.81917 49.21312 41.51615
# Shear Modulus (GPa) = 17.02448 20.32552 18.67500
#
# Velocity S-wave (km/s) = 3.24191 3.54230 3.39543
# Velocity P-wave (km/s) = 5.90690 6.86382 6.40326
#
# Compressibility (1/GPa) = 0.02956903
#
# Stress axis : x y z
#
# Youngs Moduli (GPa) = 31.45924 80.10745 85.05105
#
# Poissons Ratio (x) = 0.34239 0.35947
# Poissons Ratio (y) = 0.13446 0.40220
# Poissons Ratio (z) = 0.13296 0.37882
#
# Static dielectric constant tensor:
#      x y z
#    x 3.569430 0.000000 0.000000 
#    y 0.000000 3.200670 0.000000 
#    z 0.000000 0.000000 3.579150 
# 
# 
# High freq. dielectric constant tensor:
#      x y z
#    x 1.608600 0.000000 0.000000 
#    y 0.000000 1.605850 0.000000 
#    z 0.000000 0.000000 1.621110 
# 
# From -- ./inp_files/21836.got.cif
#   From: 2010.03.12/outbox.cif.g09.slc.cpg/sg59_11_cif.got.tgz:21836.got - 2010.04.16 16:29:54.
