data_PCOD8240790
_publ_section_title
;
Structure prediction by ZEFSAII (Michael W. Deem and Ramdas Pophale) SiO2 
 PCOD8240790
Probable space group: P M M N
;
_chemical_formula_sum "Si O2"
_cell_formula_units_Z 64
_cell_length_a 19.005369
_cell_length_b 8.783870
_cell_length_c 20.690026
_cell_angle_alpha 90.000000
_cell_angle_beta 90.000000
_cell_angle_gamma 90.000000
_cell_volume 3454.007229
_symmetry_space_group_name_H-M "P M M N"
_symmetry_group_IT_number 59
_space_group.IT_coordinate_system_code '2'
_symmetry_cell_setting 'orthorhombic'
loop_
_space_group_symop_operation_xyz
x,y,z
1/2-x,1/2-y,z
1/2+x,-y,-z
-x,1/2+y,-z
-x,-y,-z
1/2+x,1/2+y,-z
1/2-x,y,z
x,1/2-y,z
loop_
_atom_site_type_symbol
_atom_site_label
_atom_site_fract_x
_atom_site_fract_y
_atom_site_fract_z
Si Si1 0.330999 0.574661 0.252660
Si Si2 0.672640 0.929929 0.247950
Si Si3 0.583822 0.571490 0.860751
Si Si4 0.425598 0.424976 0.000620
Si Si5 0.931427 0.570444 0.139249
Si Si6 0.831122 0.928605 0.613941
Si Si7 0.168008 0.073337 0.606289
Si Si8 0.423117 0.571115 0.497517
O O1 0.250000 0.544935 0.236542
O O2 0.346292 0.750000 0.268718
O O3 0.373870 0.525937 0.190344
O O4 0.354627 0.475757 0.314203
O O5 0.750000 0.000242 0.234990
O O6 0.677591 0.750000 0.240804
O O7 0.618429 0.995309 0.195521
O O8 0.647863 0.970918 0.320314
O O9 0.592719 0.750000 0.845588
O O10 0.614711 0.527124 0.932950
O O11 0.502332 0.525865 0.856725
O O12 0.441961 0.250000 0.008726
O O13 0.500000 0.500000 0.000000
O O14 0.390782 0.457606 0.930141
O O15 0.947949 0.750000 0.148321
O O16 0.750000 0.976473 0.601439
O O17 0.841387 0.750000 0.604891
O O18 0.881050 0.013901 0.564477
O O19 0.250000 0.039646 0.592760
O O20 0.151838 0.250000 0.592166
O O21 0.119945 0.969962 0.561536
O O22 0.500000 0.500000 0.500000
O O23 0.431750 0.750000 0.492749
#
# Coordination Sequence:
#
# PCOD8240790 Si02
#       8
#     8   8   8   8   8   8   8   8
#     4  10  21  37  56  78 104 136 175 215 256 308
#     4   8  15  29  51  77 102 130 166 209 255 302
#     4  10  19  31  48  72 103 137 174 216 265 316
#     4   8  15  27  44  68  97 132 172 214 260 309
#     4   9  16  29  50  74 100 132 175 222 264 310
#     4  10  21  39  62  84 107 137 172 212 262 319
#     4   9  18  35  57  78 103 137 174 211 258 317
#     4  12  25  39  56  80 111 142 175 216 259 303
#
# _framework density 18.529202000000002
#
# number of rings (size 3 to 8) (size 9 to 14) (size 15 to 20)
#    0.000    2.500    0.000    3.375    0.000    4.750 
#    0.000    5.000    0.000    3.375    0.000    0.000 
#    0.000    0.000    0.000    0.000    0.000    0.000 
#
# Total GULP energy -793125.531942 kJ/mol
# GULP energy per Si atom -12392.586437 kJ/mol
# Density = 1.848703 g / cm^3
# Si number density = 18.529202 Si / 1000 Ang^3
#
#
#
# Elastic Constant Matrix: (Units=GPa)
#
#
# Indices 1 2 3 4 5 6 
#
# 1 79.9423 35.6592 71.9345 0.0000 0.0000 0.0000
# 2 35.6592 62.7909 40.9960 0.0000 0.0000 0.0000
# 3 71.9345 40.9960 155.5884 0.0000 0.0000 0.0000
# 4 0.0000 0.0000 0.0000 26.2679 0.0000 0.0000
# 5 0.0000 0.0000 0.0000 0.0000 39.6208 0.0000
# 6 0.0000 0.0000 0.0000 0.0000 0.0000 20.9758
#
#
#
# Elastic Compliance Matrix: (Units=1/GPa)
#
#
# Indices 1 2 3 4 5 6 
#
# 1 0.024203 -0.007777 -0.009141 0.000000 0.000000 0.000000
# 2 -0.007777 0.021734 -0.002131 0.000000 0.000000 0.000000
# 3 -0.009141 -0.002131 0.011215 0.000000 0.000000 0.000000
# 4 0.000000 0.000000 0.000000 0.038069 0.000000 0.000000
# 5 0.000000 0.000000 0.000000 0.000000 0.025239 0.000000
# 6 0.000000 0.000000 0.000000 0.000000 0.000000 0.047674
#
#
# Mechanical properties :
#
#
# Convention : Reuss Voigt Hill
#
# Bulk Modulus (GPa) = 52.48228 66.16677 59.32453
# Shear Modulus (GPa) = 23.52008 27.35503 25.43755
#
# Velocity S-wave (km/s) = 3.56666 3.84646 3.70920
# Velocity P-wave (km/s) = 6.73402 7.45077 7.10144
#
# Compressibility (1/GPa) = 0.01905405
#
# Stress axis : x y z
#
# Youngs Moduli (GPa) = 41.31640 46.01117 89.16670
#
# Poissons Ratio (x) = 0.35783 0.81507
# Poissons Ratio (y) = 0.32132 0.19001
# Poissons Ratio (z) = 0.37767 0.09805
#
# Static dielectric constant tensor:
#      x y z
#    x 3.319530 0.000000 0.000000 
#    y 0.000000 3.663640 0.000000 
#    z 0.000000 0.000000 3.977280 
# 
# 
# High freq. dielectric constant tensor:
#      x y z
#    x 1.694140 0.000000 0.000000 
#    y 0.000000 1.709940 0.000000 
#    z 0.000000 0.000000 1.743020 
# 
# From -- ./inp_files/30734.got.cif
#   From: 2010.03.12/outbox.cif.g09.slc.cpg/sg59_16_cif.got.tgz:30734.got - 2010.04.16 16:29:54.
