data_PCOD8240942
_publ_section_title
;
Structure prediction by ZEFSAII (Michael W. Deem and Ramdas Pophale) SiO2 
 PCOD8240942
Probable space group: P M M N
;
_chemical_formula_sum "Si O2"
_cell_formula_units_Z 48
_cell_length_a 18.470034
_cell_length_b 9.179711
_cell_length_c 15.636104
_cell_angle_alpha 90.000000
_cell_angle_beta 90.000000
_cell_angle_gamma 90.000000
_cell_volume 2651.094777
_symmetry_space_group_name_H-M "P M M N"
_symmetry_group_IT_number 59
_space_group.IT_coordinate_system_code '2'
_symmetry_cell_setting 'orthorhombic'
loop_
_space_group_symop_operation_xyz
x,y,z
1/2-x,1/2-y,z
1/2+x,-y,-z
-x,1/2+y,-z
-x,-y,-z
1/2+x,1/2+y,-z
1/2-x,y,z
x,1/2-y,z
loop_
_atom_site_type_symbol
_atom_site_label
_atom_site_fract_x
_atom_site_fract_y
_atom_site_fract_z
Si Si1 0.334297 0.915378 0.980257
Si Si2 0.961093 0.081105 0.423384
Si Si3 0.332684 0.581671 0.176583
Si Si4 0.461557 0.082276 0.245860
Si Si5 0.589522 0.580220 0.166464
Si Si6 0.833280 0.580117 0.340707
O O1 0.250000 0.941320 0.964543
O O2 0.355194 0.750000 0.955824
O O3 0.377926 0.027301 0.922465
O O4 0.354045 0.947472 0.078319
O O5 0.950214 0.250000 0.446248
O O6 0.012345 0.058956 0.342153
O O7 0.882216 0.011710 0.406217
O O8 0.000000 0.000000 0.500000
O O9 0.250000 0.536315 0.193170
O O10 0.344634 0.750000 0.199719
O O11 0.381385 0.483318 0.238327
O O12 0.460714 0.250000 0.219642
O O13 0.513566 0.999005 0.180441
O O14 0.573531 0.750000 0.159962
O O15 0.644960 0.543464 0.243212
O O16 0.750000 0.534423 0.354069
O O17 0.845408 0.750000 0.360233
#
# Coordination Sequence:
#
# PCOD8240942 Si02
#       6
#     8   8   8   8   8   8
#     4   9  18  32  49  71 102 138 174 214 257 297
#     4  10  21  37  57  80 105 134 168 207 254 307
#     4   9  19  36  55  74  99 134 175 216 257 300
#     4  10  21  36  54  77 102 130 167 209 256 307
#     4  10  19  31  50  76 105 138 174 210 251 301
#     4   9  18  33  53  78 108 138 168 207 254 302
#
# _framework density 18.105727000000002
#
# number of rings (size 3 to 8) (size 9 to 14) (size 15 to 20)
#    0.000    2.500    0.000    3.000    0.000    5.667 
#    0.000    2.500    0.000    1.000    0.000    0.000 
#    0.000    0.000    0.000    0.000    0.000    0.000 
#
# Total GULP energy -595340.876298 kJ/mol
# GULP energy per Si atom -12402.934923 kJ/mol
# Density = 1.806452 g / cm^3
# Si number density = 18.105727 Si / 1000 Ang^3
#
#
#
# Elastic Constant Matrix: (Units=GPa)
#
#
# Indices 1 2 3 4 5 6 
#
# 1 127.8893 74.0377 51.9829 0.0000 0.0000 0.0000
# 2 74.0377 109.5317 47.4942 0.0000 0.0000 0.0000
# 3 51.9829 47.4942 53.1827 0.0000 0.0000 0.0000
# 4 0.0000 0.0000 0.0000 33.3403 0.0000 0.0000
# 5 0.0000 0.0000 0.0000 0.0000 29.2654 0.0000
# 6 0.0000 0.0000 0.0000 0.0000 0.0000 36.5807
#
#
#
# Elastic Compliance Matrix: (Units=1/GPa)
#
#
# Indices 1 2 3 4 5 6 
#
# 1 0.015217 -0.006261 -0.009282 0.000000 0.000000 0.000000
# 2 -0.006261 0.017475 -0.009486 0.000000 0.000000 0.000000
# 3 -0.009282 -0.009486 0.036348 0.000000 0.000000 0.000000
# 4 0.000000 0.000000 0.000000 0.029994 0.000000 0.000000
# 5 0.000000 0.000000 0.000000 0.000000 0.034170 0.000000
# 6 0.000000 0.000000 0.000000 0.000000 0.000000 0.027337
#
#
# Mechanical properties :
#
#
# Convention : Reuss Voigt Hill
#
# Bulk Modulus (GPa) = 52.68550 70.84816 61.76683
# Shear Modulus (GPa) = 23.04933 27.64322 25.34627
#
# Velocity S-wave (km/s) = 3.57184 3.91162 3.74559
# Velocity P-wave (km/s) = 6.79505 7.72116 7.27286
#
# Compressibility (1/GPa) = 0.01898055
#
# Stress axis : x y z
#
# Youngs Moduli (GPa) = 65.71720 57.22403 27.51205
#
# Poissons Ratio (x) = 0.35827 0.25537
# Poissons Ratio (y) = 0.41144 0.26099
# Poissons Ratio (z) = 0.61001 0.54285
#
# Static dielectric constant tensor:
#      x y z
#    x 3.361970 0.000000 0.000000 
#    y 0.000000 3.361870 0.000000 
#    z 0.000000 0.000000 3.153850 
# 
# 
# High freq. dielectric constant tensor:
#      x y z
#    x 1.704500 0.000000 0.000000 
#    y 0.000000 1.707620 0.000000 
#    z 0.000000 0.000000 1.685060 
# 
# From -- ./inp_files/20309.got.cif
#   From: 2010.03.12/outbox.cif.g09.slc.cpg/sg59_11_cif.got.tgz:20309.got - 2010.04.16 16:29:54.
