data_PCOD8240214
_publ_section_title
;
Structure prediction by ZEFSAII (Michael W. Deem and Ramdas Pophale) SiO2 
 PCOD8240214
Probable space group: P M M N
;
_chemical_formula_sum "Si O2"
_cell_formula_units_Z 64
_cell_length_a 16.938618
_cell_length_b 14.363229
_cell_length_c 12.962508
_cell_angle_alpha 90.000000
_cell_angle_beta 90.000000
_cell_angle_gamma 90.000000
_cell_volume 3153.690690
_symmetry_space_group_name_H-M "P M M N"
_symmetry_group_IT_number 59
_space_group.IT_coordinate_system_code '2'
_symmetry_cell_setting 'orthorhombic'
loop_
_space_group_symop_operation_xyz
x,y,z
1/2-x,1/2-y,z
1/2+x,-y,-z
-x,1/2+y,-z
-x,-y,-z
1/2+x,1/2+y,-z
1/2-x,y,z
x,1/2-y,z
loop_
_atom_site_type_symbol
_atom_site_label
_atom_site_fract_x
_atom_site_fract_y
_atom_site_fract_z
Si Si1 0.486648 0.354168 0.777126
Si Si2 0.099820 0.649434 0.813069
Si Si3 0.163279 0.468461 0.723476
Si Si4 0.340434 0.356218 0.152699
Si Si5 0.014759 0.392395 0.009915
Si Si6 0.163702 0.925392 0.519387
Si Si7 0.487102 0.850028 0.606217
Si Si8 0.099052 0.005782 0.326535
O O1 0.498147 0.250000 0.730566
O O2 0.399414 0.390465 0.752147
O O3 0.550884 0.424901 0.731381
O O4 0.493975 0.344931 0.899578
O O5 0.144714 0.750000 0.804082
O O6 0.156814 0.561669 0.795023
O O7 0.031587 0.643828 0.727566
O O8 0.055358 0.648524 0.921421
O O9 0.250000 0.426696 0.744040
O O10 0.152261 0.492512 0.603076
O O11 0.250000 0.374146 0.116656
O O12 0.350371 0.250000 0.192211
O O13 0.398324 0.373457 0.056221
O O14 0.359913 0.426165 0.245609
O O15 0.000000 0.500000 0.000000
O O16 0.250000 0.878360 0.537508
O O17 0.092024 0.853920 0.536736
O O18 0.163957 0.961019 0.401527
O O19 0.526820 0.750000 0.580534
O O20 0.545577 0.936457 0.590524
#
# Coordination Sequence:
#
# PCOD8240214 Si02
#       8
#     8   8   8   8   8   8   8   8
#     4  12  25  39  60  88 119 164 212 246 292 364
#     4  10  18  34  62  90 116 149 192 247 299 351
#     4  10  21  40  59  85 123 157 196 247 306 361
#     4  11  23  39  65  98 127 157 199 253 309 363
#     4  12  20  40  63  88 120 162 203 248 300 357
#     4  10  22  39  60  87 121 158 195 247 310 363
#     4  10  19  34  62  91 115 152 200 250 299 358
#     4  12  21  41  61  90 124 161 201 253 305 361
#
# _framework density 20.293683000000001
#
# number of rings (size 3 to 8) (size 9 to 14) (size 15 to 20)
#    0.000    1.125    6.250    2.250    0.000    1.750 
#    0.000    3.125    0.000    2.625    0.000    0.000 
#    0.000    0.000    0.000    0.000    0.000    0.000 
#
# Total GULP energy -793204.494275 kJ/mol
# GULP energy per Si atom -12393.820223 kJ/mol
# Density = 2.024749 g / cm^3
# Si number density = 20.293683 Si / 1000 Ang^3
#
#
#
# Elastic Constant Matrix: (Units=GPa)
#
#
# Indices 1 2 3 4 5 6 
#
# 1 91.0568 37.1978 38.8707 0.0000 0.0000 0.0000
# 2 37.1978 133.1592 24.6401 0.0000 0.0000 0.0000
# 3 38.8707 24.6401 100.6285 0.0000 0.0000 0.0000
# 4 0.0000 0.0000 0.0000 7.8754 0.0000 0.0000
# 5 0.0000 0.0000 0.0000 0.0000 22.4118 0.0000
# 6 0.0000 0.0000 0.0000 0.0000 0.0000 14.1888
#
#
#
# Elastic Compliance Matrix: (Units=1/GPa)
#
#
# Indices 1 2 3 4 5 6 
#
# 1 0.014283 -0.003110 -0.004756 0.000000 0.000000 0.000000
# 2 -0.003110 0.008543 -0.000891 0.000000 0.000000 0.000000
# 3 -0.004756 -0.000891 0.011993 0.000000 0.000000 0.000000
# 4 0.000000 0.000000 0.000000 0.126978 0.000000 0.000000
# 5 0.000000 0.000000 0.000000 0.000000 0.044619 0.000000
# 6 0.000000 0.000000 0.000000 0.000000 0.000000 0.070478
#
#
# Mechanical properties :
#
#
# Convention : Reuss Voigt Hill
#
# Bulk Modulus (GPa) = 57.78218 58.47352 58.12785
# Shear Modulus (GPa) = 16.65694 23.83759 20.24726
#
# Velocity S-wave (km/s) = 2.86806 3.43101 3.16209
# Velocity P-wave (km/s) = 6.28510 6.67622 6.48361
#
# Compressibility (1/GPa) = 0.01730638
#
# Stress axis : x y z
#
# Youngs Moduli (GPa) = 70.01498 117.05009 83.38458
#
# Poissons Ratio (x) = 0.36401 0.39654
# Poissons Ratio (y) = 0.21774 0.07427
# Poissons Ratio (z) = 0.33296 0.10425
#
# Static dielectric constant tensor:
#      x y z
#    x 3.630240 0.000000 0.000000 
#    y 0.000000 3.736990 0.000000 
#    z 0.000000 0.000000 3.882610 
# 
# 
# High freq. dielectric constant tensor:
#      x y z
#    x 1.781140 0.000000 0.000000 
#    y 0.000000 1.793980 0.000000 
#    z 0.000000 0.000000 1.787610 
# 
# From -- ./inp_files/17841.got.cif
#   From: 2010.03.12/outbox.cif.g09.slc.cpg/sg59_9_cif.got.tgz:17841.got - 2010.04.16 16:29:54.
