data_PCOD8240241
_publ_section_title
;
Structure prediction by ZEFSAII (Michael W. Deem and Ramdas Pophale) SiO2 
 PCOD8240241
Probable space group: P M M N
;
_chemical_formula_sum "Si O2"
_cell_formula_units_Z 64
_cell_length_a 21.326636
_cell_length_b 26.606692
_cell_length_c 7.802220
_cell_angle_alpha 90.000000
_cell_angle_beta 90.000000
_cell_angle_gamma 90.000000
_cell_volume 4427.223334
_symmetry_space_group_name_H-M "P M M N"
_symmetry_group_IT_number 59
_space_group.IT_coordinate_system_code '2'
_symmetry_cell_setting 'orthorhombic'
loop_
_space_group_symop_operation_xyz
x,y,z
1/2-x,1/2-y,z
1/2+x,-y,-z
-x,1/2+y,-z
-x,-y,-z
1/2+x,1/2+y,-z
1/2-x,y,z
x,1/2-y,z
loop_
_atom_site_type_symbol
_atom_site_label
_atom_site_fract_x
_atom_site_fract_y
_atom_site_fract_z
Si Si1 0.819372 0.484430 0.055882
Si Si2 0.443417 0.461882 0.470082
Si Si3 0.126866 0.876913 0.918109
Si Si4 0.177105 0.632841 0.289249
Si Si5 0.997449 0.069702 0.145891
Si Si6 0.432787 0.038856 0.835184
Si Si7 0.824020 0.307381 0.379552
Si Si8 0.678693 0.481013 0.655632
O O1 0.750000 0.495879 0.117011
O O2 0.829280 0.491603 0.855133
O O3 0.834725 0.427849 0.113817
O O4 0.859837 0.526702 0.147267
O O5 0.500000 0.500000 0.500000
O O6 0.460788 0.423044 0.318287
O O7 0.439792 0.433096 0.652299
O O8 0.376270 0.489266 0.441589
O O9 0.054012 0.887278 0.877645
O O10 0.147594 0.834842 0.784945
O O11 0.136998 0.858799 0.115062
O O12 0.250000 0.641060 0.239816
O O13 0.153353 0.670699 0.436916
O O14 0.167294 0.578075 0.372576
O O15 0.969131 0.014063 0.152942
O O16 0.042923 0.075625 0.982604
O O17 0.750000 0.312987 0.367901
O O18 0.846274 0.250000 0.371312
O O19 0.750000 0.495808 0.595182
#
# Coordination Sequence:
#
# PCOD8240241 Si02
#       8
#     8   8   8   8   8   8   8   8
#     4   9  16  27  42  59  82 110 145 185 217 249
#     4  10  19  26  40  59  82 113 141 176 221 251
#     4  10  19  30  48  61  80 110 142 179 220 269
#     4   9  19  31  44  62  82 104 136 180 227 265
#     4   9  18  29  38  58  84 104 137 175 210 249
#     4   9  17  26  38  54  79 110 135 171 211 248
#     4  10  21  34  47  64  83 103 136 185 236 280
#     4   9  17  29  42  59  85 113 147 187 217 251
#
# _framework density 14.456014
#
# number of rings (size 3 to 8) (size 9 to 14) (size 15 to 20)
#    0.000    2.625    1.250    1.875   10.500    1.000 
#    0.000    1.250    0.000    0.000    0.000    0.000 
#    0.000    0.000    0.000    0.000    0.000    2.500 
#
# Total GULP energy -793020.341314 kJ/mol
# GULP energy per Si atom -12390.942833 kJ/mol
# Density = 1.442311 g / cm^3
# Si number density = 14.456014 Si / 1000 Ang^3
#
#
#
# Elastic Constant Matrix: (Units=GPa)
#
#
# Indices 1 2 3 4 5 6 
#
# 1 80.7929 22.4936 49.6696 0.0000 0.0000 0.0000
# 2 22.4936 26.4086 36.2137 0.0000 0.0000 0.0000
# 3 49.6696 36.2137 119.8283 0.0000 0.0000 0.0000
# 4 0.0000 0.0000 0.0000 16.8363 0.0000 0.0000
# 5 0.0000 0.0000 0.0000 0.0000 20.4185 0.0000
# 6 0.0000 0.0000 0.0000 0.0000 0.0000 14.3050
#
#
#
# Elastic Compliance Matrix: (Units=1/GPa)
#
#
# Indices 1 2 3 4 5 6 
#
# 1 0.017673 -0.008551 -0.004741 0.000000 0.000000 0.000000
# 2 -0.008551 0.068803 -0.017248 0.000000 0.000000 0.000000
# 3 -0.004741 -0.017248 0.015523 0.000000 0.000000 0.000000
# 4 0.000000 0.000000 0.000000 0.059396 0.000000 0.000000
# 5 0.000000 0.000000 0.000000 0.000000 0.048975 0.000000
# 6 0.000000 0.000000 0.000000 0.000000 0.000000 0.069905
#
#
# Mechanical properties :
#
#
# Convention : Reuss Voigt Hill
#
# Bulk Modulus (GPa) = 24.43992 49.30929 36.87461
# Shear Modulus (GPa) = 14.08466 18.22215 16.15340
#
# Velocity S-wave (km/s) = 3.12478 3.55424 3.34641
# Velocity P-wave (km/s) = 5.47377 7.14335 6.36355
#
# Compressibility (1/GPa) = 0.04091666
#
# Stress axis : x y z
#
# Youngs Moduli (GPa) = 56.58376 14.53433 64.41955
#
# Poissons Ratio (x) = 0.12429 0.30542
# Poissons Ratio (y) = 0.48387 1.11114
# Poissons Ratio (z) = 0.26827 0.25069
#
# Static dielectric constant tensor:
#      x y z
#    x 2.904530 0.000000 0.000000 
#    y 0.000000 2.354110 0.000000 
#    z 0.000000 0.000000 3.187030 
# 
# 
# High freq. dielectric constant tensor:
#      x y z
#    x 1.547140 0.000000 0.000000 
#    y 0.000000 1.477100 0.000000 
#    z 0.000000 0.000000 1.576850 
# 
# From -- ./inp_files/11778.got.cif
#   From: 2010.03.12/outbox.cif.g09.slc.cpg/sg59_6_cif.got.tgz:11778.got - 2010.04.16 16:29:54.
