data_PCOD8240664
_publ_section_title
;
Structure prediction by ZEFSAII (Michael W. Deem and Ramdas Pophale) SiO2 
 PCOD8240664
Probable space group: P M M N
;
_chemical_formula_sum "Si O2"
_cell_formula_units_Z 64
_cell_length_a 9.135635
_cell_length_b 24.089642
_cell_length_c 16.115389
_cell_angle_alpha 90.000000
_cell_angle_beta 90.000000
_cell_angle_gamma 90.000000
_cell_volume 3546.580965
_symmetry_space_group_name_H-M "P M M N"
_symmetry_group_IT_number 59
_space_group.IT_coordinate_system_code '2'
_symmetry_cell_setting 'orthorhombic'
loop_
_space_group_symop_operation_xyz
x,y,z
1/2-x,1/2-y,z
1/2+x,-y,-z
-x,1/2+y,-z
-x,-y,-z
1/2+x,1/2+y,-z
1/2-x,y,z
x,1/2-y,z
loop_
_atom_site_type_symbol
_atom_site_label
_atom_site_fract_x
_atom_site_fract_y
_atom_site_fract_z
Si Si1 0.579589 0.187467 0.294750
Si Si2 0.076407 0.443164 0.023394
Si Si3 0.417301 0.387825 0.614179
Si Si4 0.420063 0.606605 0.123725
Si Si5 0.578788 0.312858 0.486663
Si Si6 0.085511 0.186854 0.772159
Si Si7 0.420540 0.528613 0.276965
Si Si8 0.421807 0.087809 0.208172
O O1 0.750000 0.178979 0.278662
O O2 0.532588 0.250000 0.269383
O O3 0.542115 0.177323 0.390644
O O4 0.495099 0.144018 0.238300
O O5 0.250000 0.450669 0.017557
O O6 0.027133 0.424193 0.114533
O O7 0.000000 0.500000 0.000000
O O8 0.018293 0.398269 0.958146
O O9 0.250000 0.401476 0.591824
O O10 0.493920 0.361486 0.534188
O O11 0.433232 0.342450 0.684821
O O12 0.491865 0.444953 0.645746
O O13 0.250000 0.606412 0.099783
O O14 0.465987 0.665086 0.163089
O O15 0.458030 0.558113 0.189458
O O16 0.750000 0.319612 0.504752
O O17 0.529605 0.250000 0.511982
O O18 0.250000 0.177730 0.806927
O O19 0.048805 0.250000 0.755445
O O20 0.250000 0.535815 0.296740
O O21 0.466032 0.464232 0.266911
O O22 0.250000 0.096845 0.211126
#
# Coordination Sequence:
#
# PCOD8240664 Si02
#       8
#     8   8   8   8   8   8   8   8
#     4   9  20  39  60  82 107 136 176 223 268 317
#     4  11  21  35  55  81 109 136 173 218 263 313
#     4  10  19  30  49  80 110 137 177 223 263 311
#     4  10  19  33  51  75 105 137 176 219 261 309
#     4   9  18  34  55  77 104 140 179 220 268 318
#     4   9  18  32  48  70 105 144 177 215 264 313
#     4   9  18  34  51  73 109 144 173 212 261 316
#     4  10  21  37  57  82 109 137 175 219 266 319
#
# _framework density 18.045549000000001
#
# number of rings (size 3 to 8) (size 9 to 14) (size 15 to 20)
#    0.000    2.375    1.250    2.250    0.000    4.250 
#    0.000    2.500    0.000    0.750    0.000    0.000 
#    0.000    0.000    0.000    0.000    0.000    0.000 
#
# Total GULP energy -793538.768549 kJ/mol
# GULP energy per Si atom -12399.043259 kJ/mol
# Density = 1.800448 g / cm^3
# Si number density = 18.045549 Si / 1000 Ang^3
#
#
#
# Elastic Constant Matrix: (Units=GPa)
#
#
# Indices 1 2 3 4 5 6 
#
# 1 71.5877 45.9799 49.8576 0.0000 0.0000 0.0000
# 2 45.9799 116.1872 57.6330 0.0000 0.0000 0.0000
# 3 49.8576 57.6330 88.2279 0.0000 0.0000 0.0000
# 4 0.0000 0.0000 0.0000 27.1095 0.0000 0.0000
# 5 0.0000 0.0000 0.0000 0.0000 31.5832 0.0000
# 6 0.0000 0.0000 0.0000 0.0000 0.0000 33.1163
#
#
#
# Elastic Compliance Matrix: (Units=1/GPa)
#
#
# Indices 1 2 3 4 5 6 
#
# 1 0.024317 -0.004152 -0.011029 0.000000 0.000000 0.000000
# 2 -0.004152 0.013441 -0.006434 0.000000 0.000000 0.000000
# 3 -0.011029 -0.006434 0.021770 0.000000 0.000000 0.000000
# 4 0.000000 0.000000 0.000000 0.036887 0.000000 0.000000
# 5 0.000000 0.000000 0.000000 0.000000 0.031662 0.000000
# 6 0.000000 0.000000 0.000000 0.000000 0.000000 0.030197
#
#
# Mechanical properties :
#
#
# Convention : Reuss Voigt Hill
#
# Bulk Modulus (GPa) = 61.35917 64.77154 63.06535
# Shear Modulus (GPa) = 24.16180 26.53064 25.34622
#
# Velocity S-wave (km/s) = 3.66311 3.83848 3.75182
# Velocity P-wave (km/s) = 7.20884 7.45765 7.33430
#
# Compressibility (1/GPa) = 0.01629748
#
# Stress axis : x y z
#
# Youngs Moduli (GPa) = 41.12304 74.39647 45.93550
#
# Poissons Ratio (x) = 0.30893 0.50663
# Poissons Ratio (y) = 0.17076 0.29554
# Poissons Ratio (z) = 0.45355 0.47866
#
# Static dielectric constant tensor:
#      x y z
#    x 3.367770 0.000000 0.000000 
#    y 0.000000 3.348570 0.000000 
#    z 0.000000 0.000000 3.349200 
# 
# 
# High freq. dielectric constant tensor:
#      x y z
#    x 1.699760 0.000000 0.000000 
#    y 0.000000 1.694760 0.000000 
#    z 0.000000 0.000000 1.688460 
# 
# From -- ./inp_files/21504.got.cif
#   From: 2010.03.12/outbox.cif.g09.slc.cpg/sg59_11_cif.got.tgz:21504.got - 2010.04.16 16:29:54.
