data_PCOD8240024
_publ_section_title
;
Structure prediction by ZEFSAII (Michael W. Deem and Ramdas Pophale) SiO2 
 PCOD8240024
Probable space group: P M M N
;
_chemical_formula_sum "Si O2"
_cell_formula_units_Z 56
_cell_length_a 15.707942
_cell_length_b 9.268289
_cell_length_c 21.652134
_cell_angle_alpha 90.000000
_cell_angle_beta 90.000000
_cell_angle_gamma 90.000000
_cell_volume 3152.242082
_symmetry_space_group_name_H-M "P M M N"
_symmetry_group_IT_number 59
_space_group.IT_coordinate_system_code '2'
_symmetry_cell_setting 'orthorhombic'
loop_
_space_group_symop_operation_xyz
x,y,z
1/2-x,1/2-y,z
1/2+x,-y,-z
-x,1/2+y,-z
-x,-y,-z
1/2+x,1/2+y,-z
1/2-x,y,z
x,1/2-y,z
loop_
_atom_site_type_symbol
_atom_site_label
_atom_site_fract_x
_atom_site_fract_y
_atom_site_fract_z
Si Si1 0.587608 0.916900 0.499937
Si Si2 0.495088 0.921880 0.295015
Si Si3 0.065251 0.081959 0.185185
Si Si4 0.933141 0.581712 0.959219
Si Si5 0.847356 0.917004 0.633848
Si Si6 0.156943 0.420864 0.629124
Si Si7 0.750000 0.579198 0.954377
Si Si8 0.750000 0.918686 0.819955
O O1 0.564175 0.750000 0.492907
O O2 0.642575 0.946361 0.560969
O O3 0.642096 0.970422 0.441343
O O4 0.500000 0.000000 0.500000
O O5 0.489922 0.750000 0.293556
O O6 0.581181 0.979784 0.327520
O O7 0.498624 0.984376 0.225191
O O8 0.412893 0.982081 0.330248
O O9 0.044340 0.250000 0.195173
O O10 0.058015 0.040981 0.113066
O O11 0.160449 0.043040 0.212858
O O12 0.948680 0.750000 0.968228
O O13 0.839482 0.534520 0.986035
O O14 0.000000 0.500000 0.000000
O O15 0.750000 0.954292 0.652788
O O16 0.867234 0.750000 0.649762
O O17 0.250000 0.480654 0.650233
O O18 0.157256 0.250000 0.633470
O O19 0.750000 0.750000 0.946968
O O20 0.750000 0.505953 0.886910
O O21 0.750000 0.750000 0.832794
#
# Coordination Sequence:
#
# PCOD8240024 Si02
#       8
#     8   8   8   8   8   8   4   4
#     4  10  18  32  54  76  99 127 165 212 258 304
#     4  11  22  34  51  77 105 132 167 217 263 298
#     4   9  18  33  52  74 103 138 173 206 249 308
#     4   9  17  31  54  79 104 136 173 212 254 300
#     4  10  21  35  52  74 102 139 174 201 245 316
#     4   9  18  34  55  74  95 130 173 213 255 302
#     4   7  12  26  47  73 101 129 165 202 239 292
#     4   7  12  26  49  71  91 127 171 198 227 290
#
# _framework density 17.765132999999999
#
# number of rings (size 3 to 8) (size 9 to 14) (size 15 to 20)
#    0.000    2.714    1.429    2.571    1.000    2.571 
#    0.000    0.357    1.571    7.286    0.000    0.000 
#    0.000    0.000    0.000    0.000    0.000    0.000 
#
# Total GULP energy -693782.091541 kJ/mol
# GULP energy per Si atom -12388.965920 kJ/mol
# Density = 1.772470 g / cm^3
# Si number density = 17.765133 Si / 1000 Ang^3
#
#
#
# Elastic Constant Matrix: (Units=GPa)
#
#
# Indices 1 2 3 4 5 6 
#
# 1 147.4150 44.1771 63.4801 0.0000 0.0000 0.0000
# 2 44.1771 48.6732 39.6079 0.0000 0.0000 0.0000
# 3 63.4801 39.6079 88.0081 0.0000 0.0000 0.0000
# 4 0.0000 0.0000 0.0000 28.5195 0.0000 0.0000
# 5 0.0000 0.0000 0.0000 0.0000 24.7200 0.0000
# 6 0.0000 0.0000 0.0000 0.0000 0.0000 25.7848
#
#
#
# Elastic Compliance Matrix: (Units=1/GPa)
#
#
# Indices 1 2 3 4 5 6 
#
# 1 0.010669 -0.005398 -0.005266 0.000000 0.000000 0.000000
# 2 -0.005398 0.035149 -0.011925 0.000000 0.000000 0.000000
# 3 -0.005266 -0.011925 0.020528 0.000000 0.000000 0.000000
# 4 0.000000 0.000000 0.000000 0.035064 0.000000 0.000000
# 5 0.000000 0.000000 0.000000 0.000000 0.040453 0.000000
# 6 0.000000 0.000000 0.000000 0.000000 0.000000 0.038783
#
#
# Mechanical properties :
#
#
# Convention : Reuss Voigt Hill
#
# Bulk Modulus (GPa) = 47.24314 64.29184 55.76749
# Shear Modulus (GPa) = 21.47043 24.92695 23.19869
#
# Velocity S-wave (km/s) = 3.48022 3.74991 3.61758
# Velocity P-wave (km/s) = 6.54218 7.41738 6.99349
#
# Compressibility (1/GPa) = 0.02116710
#
# Stress axis : x y z
#
# Youngs Moduli (GPa) = 93.72975 28.45068 48.71456
#
# Poissons Ratio (x) = 0.15358 0.25653
# Poissons Ratio (y) = 0.50597 0.58091
# Poissons Ratio (z) = 0.49359 0.33927
#
# Static dielectric constant tensor:
#      x y z
#    x 3.654700 0.000000 0.000000 
#    y 0.000000 2.983140 0.000000 
#    z 0.000000 0.000000 3.270630 
# 
# 
# High freq. dielectric constant tensor:
#      x y z
#    x 1.692730 0.000000 0.000000 
#    y 0.000000 1.652560 0.000000 
#    z 0.000000 0.000000 1.678260 
# 
# From -- ./inp_files/30431.got.cif
#   From: 2010.03.12/outbox.cif.g09.slc.cpg/sg59_16_cif.got.tgz:30431.got - 2010.04.16 16:29:54.
