data_PCOD8240870
_publ_section_title
;
Structure prediction by ZEFSAII (Michael W. Deem and Ramdas Pophale) SiO2 
 PCOD8240870
Probable space group: P M M N
;
_chemical_formula_sum "Si O2"
_cell_formula_units_Z 48
_cell_length_a 30.785137
_cell_length_b 9.369285
_cell_length_c 9.513005
_cell_angle_alpha 90.000000
_cell_angle_beta 90.000000
_cell_angle_gamma 90.000000
_cell_volume 2743.880956
_symmetry_space_group_name_H-M "P M M N"
_symmetry_group_IT_number 59
_space_group.IT_coordinate_system_code '2'
_symmetry_cell_setting 'orthorhombic'
loop_
_space_group_symop_operation_xyz
x,y,z
1/2-x,1/2-y,z
1/2+x,-y,-z
-x,1/2+y,-z
-x,-y,-z
1/2+x,1/2+y,-z
1/2-x,y,z
x,1/2-y,z
loop_
_atom_site_type_symbol
_atom_site_label
_atom_site_fract_x
_atom_site_fract_y
_atom_site_fract_z
Si Si1 0.985155 0.585462 0.864422
Si Si2 0.390079 0.084670 0.225338
Si Si3 0.864088 0.418827 0.504398
Si Si4 0.427095 0.912747 0.736692
Si Si5 0.365925 0.087593 0.920715
Si Si6 0.200029 0.416153 0.686799
O O1 0.981305 0.750000 0.909830
O O2 0.939174 0.532060 0.804974
O O3 0.020939 0.564175 0.740371
O O4 0.000000 0.500000 0.000000
O O5 0.389490 0.250000 0.273326
O O6 0.369394 0.985667 0.342997
O O7 0.360414 0.060508 0.086877
O O8 0.857272 0.250000 0.518081
O O9 0.906918 0.459770 0.413016
O O10 0.821775 0.487665 0.432951
O O11 0.414405 0.750000 0.764833
O O12 0.406432 0.998430 0.865017
O O13 0.379215 0.250000 0.893023
O O14 0.321652 0.049421 0.838244
O O15 0.250000 0.460144 0.698612
O O16 0.194404 0.250000 0.646731
#
# Coordination Sequence:
#
# PCOD8240870 Si02
#       6
#     8   8   8   8   8   8
#     4  10  19  31  49  73 102 136 177 220 259 300
#     4  10  20  33  49  74 107 139 172 215 259 301
#     4  10  21  35  51  74 105 140 173 209 255 305
#     4   9  18  32  49  71 100 135 176 216 253 298
#     4   9  17  31  52  76 101 129 166 209 254 303
#     4   9  18  35  59  81  99 125 163 206 254 311
#
# _framework density 17.493469000000001
#
# number of rings (size 3 to 8) (size 9 to 14) (size 15 to 20)
#    0.000    2.500    1.667    0.500    0.000    3.000 
#    0.000    0.833    0.000    3.000    0.000    0.000 
#    0.000    0.000    0.000    0.000    0.000    0.000 
#
# Total GULP energy -595124.642725 kJ/mol
# GULP energy per Si atom -12398.430057 kJ/mol
# Density = 1.745365 g / cm^3
# Si number density = 17.493469 Si / 1000 Ang^3
#
#
#
# Elastic Constant Matrix: (Units=GPa)
#
#
# Indices 1 2 3 4 5 6 
#
# 1 122.5493 44.4066 62.0478 0.0000 0.0000 0.0000
# 2 44.4066 63.7397 51.8448 0.0000 0.0000 0.0000
# 3 62.0478 51.8448 114.4703 0.0000 0.0000 0.0000
# 4 0.0000 0.0000 0.0000 29.6974 0.0000 0.0000
# 5 0.0000 0.0000 0.0000 0.0000 20.0745 0.0000
# 6 0.0000 0.0000 0.0000 0.0000 0.0000 23.8059
#
#
#
# Elastic Compliance Matrix: (Units=1/GPa)
#
#
# Indices 1 2 3 4 5 6 
#
# 1 0.012149 -0.004920 -0.004357 0.000000 0.000000 0.000000
# 2 -0.004920 0.026832 -0.009486 0.000000 0.000000 0.000000
# 3 -0.004357 -0.009486 0.015394 0.000000 0.000000 0.000000
# 4 0.000000 0.000000 0.000000 0.033673 0.000000 0.000000
# 5 0.000000 0.000000 0.000000 0.000000 0.049814 0.000000
# 6 0.000000 0.000000 0.000000 0.000000 0.000000 0.042006
#
#
# Mechanical properties :
#
#
# Convention : Reuss Voigt Hill
#
# Bulk Modulus (GPa) = 59.34948 68.59532 63.97240
# Shear Modulus (GPa) = 22.42058 24.21289 23.31673
#
# Velocity S-wave (km/s) = 3.58390 3.72440 3.65483
# Velocity P-wave (km/s) = 7.15025 7.60210 7.37964
#
# Compressibility (1/GPa) = 0.01684935
#
# Stress axis : x y z
#
# Youngs Moduli (GPa) = 82.31356 37.26890 64.96236
#
# Poissons Ratio (x) = 0.18337 0.28302
# Poissons Ratio (y) = 0.40499 0.61621
# Poissons Ratio (z) = 0.35862 0.35352
#
# Static dielectric constant tensor:
#      x y z
#    x 3.326400 0.000000 0.000000 
#    y 0.000000 3.263240 0.000000 
#    z 0.000000 0.000000 3.195330 
# 
# 
# High freq. dielectric constant tensor:
#      x y z
#    x 1.666780 0.000000 0.000000 
#    y 0.000000 1.676460 0.000000 
#    z 0.000000 0.000000 1.668060 
# 
# From -- ./inp_files/6184.got.cif
#   From: 2010.03.12/outbox.cif.g09.slc.cpg/sg59_4_cif.got.tgz:6184.got - 2010.04.16 16:29:54.
