data_PCOD8240823
_publ_section_title
;
Structure prediction by ZEFSAII (Michael W. Deem and Ramdas Pophale) SiO2 
 PCOD8240823
Probable space group: P M M N
;
_chemical_formula_sum "Si O2"
_cell_formula_units_Z 64
_cell_length_a 29.349399
_cell_length_b 8.919806
_cell_length_c 14.807491
_cell_angle_alpha 90.000000
_cell_angle_beta 90.000000
_cell_angle_gamma 90.000000
_cell_volume 3876.467066
_symmetry_space_group_name_H-M "P M M N"
_symmetry_group_IT_number 59
_space_group.IT_coordinate_system_code '2'
_symmetry_cell_setting 'orthorhombic'
loop_
_space_group_symop_operation_xyz
x,y,z
1/2-x,1/2-y,z
1/2+x,-y,-z
-x,1/2+y,-z
-x,-y,-z
1/2+x,1/2+y,-z
1/2-x,y,z
x,1/2-y,z
loop_
_atom_site_type_symbol
_atom_site_label
_atom_site_fract_x
_atom_site_fract_y
_atom_site_fract_z
Si Si1 0.612186 0.574958 0.962720
Si Si2 0.440123 0.073707 0.854554
Si Si3 0.698267 0.920942 0.208741
Si Si4 0.698869 0.424939 0.017345
Si Si5 0.118706 0.926405 0.700202
Si Si6 0.434862 0.421702 0.558269
Si Si7 0.033994 0.075966 0.171013
Si Si8 0.022956 0.078699 0.375367
O O1 0.622998 0.750000 0.957931
O O2 0.579241 0.524278 0.881524
O O3 0.588411 0.530675 0.056840
O O4 0.660123 0.487192 0.950044
O O5 0.439820 0.250000 0.837090
O O6 0.418414 0.991177 0.769179
O O7 0.491748 0.018774 0.866724
O O8 0.750000 0.931385 0.242077
O O9 0.681200 0.750000 0.202494
O O10 0.691557 0.991740 0.111292
O O11 0.668734 0.009916 0.281319
O O12 0.750000 0.457273 0.979459
O O13 0.691629 0.250000 0.033856
O O14 0.119263 0.750000 0.708785
O O15 0.105249 0.975858 0.598864
O O16 0.424409 0.250000 0.582036
O O17 0.437625 0.447145 0.450205
O O18 0.482285 0.464968 0.605546
O O19 0.023557 0.250000 0.151335
O O20 0.043317 0.045764 0.276790
O O21 0.004517 0.250000 0.381894
#
# Coordination Sequence:
#
# PCOD8240823 Si02
#       8
#     8   8   8   8   8   8   8   8
#     4  10  21  34  49  70  99 134 169 203 243 292
#     4  11  21  32  46  69  99 135 172 202 237 285
#     4  10  20  34  52  73  98 127 160 201 247 296
#     4  10  20  33  50  72  97 127 164 204 245 289
#     4  12  22  32  49  72 100 134 166 201 242 291
#     4  10  19  31  49  71  96 127 163 203 245 293
#     4  10  20  34  50  70  98 133 170 208 248 290
#     4   9  18  32  49  70  97 127 161 205 251 289
#
# _framework density 16.509878
#
# number of rings (size 3 to 8) (size 9 to 14) (size 15 to 20)
#    0.000    1.750    2.500    3.000    0.000    3.000 
#    0.000    0.000    0.000    0.000    0.000    0.875 
#    0.000    3.000    0.000    0.000    0.000    0.000 
#
# Total GULP energy -793694.097991 kJ/mol
# GULP energy per Si atom -12401.470281 kJ/mol
# Density = 1.647230 g / cm^3
# Si number density = 16.509878 Si / 1000 Ang^3
#
#
#
# Elastic Constant Matrix: (Units=GPa)
#
#
# Indices 1 2 3 4 5 6 
#
# 1 112.8449 54.9110 45.8955 0.0000 0.0000 0.0000
# 2 54.9110 96.0421 36.1479 0.0000 0.0000 0.0000
# 3 45.8955 36.1479 64.6772 0.0000 0.0000 0.0000
# 4 0.0000 0.0000 0.0000 18.3689 0.0000 0.0000
# 5 0.0000 0.0000 0.0000 0.0000 22.9918 0.0000
# 6 0.0000 0.0000 0.0000 0.0000 0.0000 30.1745
#
#
#
# Elastic Compliance Matrix: (Units=1/GPa)
#
#
# Indices 1 2 3 4 5 6 
#
# 1 0.014495 -0.005593 -0.007160 0.000000 0.000000 0.000000
# 2 -0.005593 0.015344 -0.004607 0.000000 0.000000 0.000000
# 3 -0.007160 -0.004607 0.023117 0.000000 0.000000 0.000000
# 4 0.000000 0.000000 0.000000 0.054440 0.000000 0.000000
# 5 0.000000 0.000000 0.000000 0.000000 0.043494 0.000000
# 6 0.000000 0.000000 0.000000 0.000000 0.000000 0.033141
#
#
# Mechanical properties :
#
#
# Convention : Reuss Voigt Hill
#
# Bulk Modulus (GPa) = 54.83531 60.83035 57.83283
# Shear Modulus (GPa) = 22.23917 23.41436 22.82676
#
# Velocity S-wave (km/s) = 3.67416 3.76999 3.72238
# Velocity P-wave (km/s) = 7.16136 7.47497 7.31984
#
# Compressibility (1/GPa) = 0.01823643
#
# Stress axis : x y z
#
# Youngs Moduli (GPa) = 68.98789 65.17405 43.25778
#
# Poissons Ratio (x) = 0.36449 0.30974
# Poissons Ratio (y) = 0.38582 0.19929
# Poissons Ratio (z) = 0.49398 0.30025
#
# Static dielectric constant tensor:
#      x y z
#    x 3.180570 0.000000 0.000000 
#    y 0.000000 3.204090 0.000000 
#    z 0.000000 0.000000 3.120180 
# 
# 
# High freq. dielectric constant tensor:
#      x y z
#    x 1.623440 0.000000 0.000000 
#    y 0.000000 1.648360 0.000000 
#    z 0.000000 0.000000 1.614130 
# 
# From -- ./inp_files/25011.got.cif
#   From: 2010.03.12/outbox.cif.g09.slc.cpg/sg59_13_cif.got.tgz:25011.got - 2010.04.16 16:29:54.
