data_PCOD8240979
_publ_section_title
;
Structure prediction by ZEFSAII (Michael W. Deem and Ramdas Pophale) SiO2 
 PCOD8240979
Probable space group: P M M N
;
_chemical_formula_sum "Si O2"
_cell_formula_units_Z 48
_cell_length_a 8.748600
_cell_length_b 33.367468
_cell_length_c 9.207842
_cell_angle_alpha 90.000000
_cell_angle_beta 90.000000
_cell_angle_gamma 90.000000
_cell_volume 2687.940627
_symmetry_space_group_name_H-M "P M M N"
_symmetry_group_IT_number 59
_space_group.IT_coordinate_system_code '2'
_symmetry_cell_setting 'orthorhombic'
loop_
_space_group_symop_operation_xyz
x,y,z
1/2-x,1/2-y,z
1/2+x,-y,-z
-x,1/2+y,-z
-x,-y,-z
1/2+x,1/2+y,-z
1/2-x,y,z
x,1/2-y,z
loop_
_atom_site_type_symbol
_atom_site_label
_atom_site_fract_x
_atom_site_fract_y
_atom_site_fract_z
Si Si1 0.569647 0.706249 0.889144
Si Si2 0.924411 0.041188 0.458606
Si Si3 0.070721 0.880602 0.367179
Si Si4 0.572676 0.407626 0.199695
Si Si5 0.573399 0.839918 0.618501
Si Si6 0.569168 0.871769 0.055988
O O1 0.750000 0.706894 0.909457
O O2 0.500581 0.750000 0.931467
O O3 0.531191 0.698537 0.718183
O O4 0.506506 0.671089 0.994524
O O5 0.750000 0.035719 0.498049
O O6 0.985467 0.078448 0.554888
O O7 0.947513 0.050233 0.285813
O O8 0.000000 0.000000 0.500000
O O9 0.250000 0.880205 0.334040
O O10 0.029744 0.843288 0.473674
O O11 0.975164 0.875591 0.222151
O O12 0.750000 0.393985 0.211626
O O13 0.458533 0.377108 0.276703
O O14 0.515924 0.408023 0.032347
O O15 0.750000 0.839631 0.571208
O O16 0.750000 0.876308 0.037809
#
# Coordination Sequence:
#
# PCOD8240979 Si02
#       6
#     8   8   8   8   8   8
#     4   8  15  29  49  73  99 124 156 201 245 282
#     4   9  19  33  51  73  95 124 160 199 244 291
#     4  10  20  34  50  70  99 131 159 195 248 294
#     4   9  17  31  49  70  98 130 159 191 240 291
#     4   9  16  28  49  73  93 121 164 201 229 275
#     4  10  19  31  51  76  97 127 170 205 237 285
#
# _framework density 17.857538000000002
#
# number of rings (size 3 to 8) (size 9 to 14) (size 15 to 20)
#    0.000    2.833    0.000    4.000    0.000    4.000 
#    0.000    1.667    0.000   23.000    0.000    0.000 
#    0.000    0.000    0.000    0.000    0.000    0.000 
#
# Total GULP energy -594651.990327 kJ/mol
# GULP energy per Si atom -12388.583132 kJ/mol
# Density = 1.781689 g / cm^3
# Si number density = 17.857538 Si / 1000 Ang^3
#
#
#
# Elastic Constant Matrix: (Units=GPa)
#
#
# Indices 1 2 3 4 5 6 
#
# 1 48.3142 26.7374 23.4509 0.0000 0.0000 0.0000
# 2 26.7374 78.0545 38.2037 0.0000 0.0000 0.0000
# 3 23.4509 38.2037 111.2077 0.0000 0.0000 0.0000
# 4 0.0000 0.0000 0.0000 18.7128 0.0000 0.0000
# 5 0.0000 0.0000 0.0000 0.0000 33.0042 0.0000
# 6 0.0000 0.0000 0.0000 0.0000 0.0000 17.3288
#
#
#
# Elastic Compliance Matrix: (Units=1/GPa)
#
#
# Indices 1 2 3 4 5 6 
#
# 1 0.026320 -0.007573 -0.002949 0.000000 0.000000 0.000000
# 2 -0.007573 0.017580 -0.004442 0.000000 0.000000 0.000000
# 3 -0.002949 -0.004442 0.011140 0.000000 0.000000 0.000000
# 4 0.000000 0.000000 0.000000 0.053439 0.000000 0.000000
# 5 0.000000 0.000000 0.000000 0.000000 0.030299 0.000000
# 6 0.000000 0.000000 0.000000 0.000000 0.000000 0.057707
#
#
# Mechanical properties :
#
#
# Convention : Reuss Voigt Hill
#
# Bulk Modulus (GPa) = 39.82101 46.04005 42.93053
# Shear Modulus (GPa) = 21.29617 23.75478 22.52547
#
# Velocity S-wave (km/s) = 3.45709 3.65120 3.55547
# Velocity P-wave (km/s) = 6.18732 6.60400 6.39906
#
# Compressibility (1/GPa) = 0.02511237
#
# Stress axis : x y z
#
# Youngs Moduli (GPa) = 37.99416 56.88326 89.76542
#
# Poissons Ratio (x) = 0.43075 0.26470
# Poissons Ratio (y) = 0.28771 0.39878
# Poissons Ratio (z) = 0.11204 0.25270
#
# Static dielectric constant tensor:
#      x y z
#    x 3.224590 0.000000 0.000000 
#    y 0.000000 6.769370 0.000000 
#    z 0.000000 0.000000 3.490850 
# 
# 
# High freq. dielectric constant tensor:
#      x y z
#    x 1.686210 0.000000 0.000000 
#    y 0.000000 1.661030 0.000000 
#    z 0.000000 0.000000 1.691530 
# 
# From -- ./inp_files/6301.got.cif
#   From: 2010.03.12/outbox.cif.g09.slc.cpg/sg59_4_cif.got.tgz:6301.got - 2010.04.16 16:29:54.
