data_PCOD8240311
_publ_section_title
;
Structure prediction by ZEFSAII (Michael W. Deem and Ramdas Pophale) SiO2 
 PCOD8240311
Probable space group: P M M N
;
_chemical_formula_sum "Si O2"
_cell_formula_units_Z 56
_cell_length_a 9.183498
_cell_length_b 13.644260
_cell_length_c 29.171202
_cell_angle_alpha 90.000000
_cell_angle_beta 90.000000
_cell_angle_gamma 90.000000
_cell_volume 3655.210957
_symmetry_space_group_name_H-M "P M M N"
_symmetry_group_IT_number 59
_space_group.IT_coordinate_system_code '2'
_symmetry_cell_setting 'orthorhombic'
loop_
_space_group_symop_operation_xyz
x,y,z
1/2-x,1/2-y,z
1/2+x,-y,-z
-x,1/2+y,-z
-x,-y,-z
1/2+x,1/2+y,-z
1/2-x,y,z
x,1/2-y,z
loop_
_atom_site_type_symbol
_atom_site_label
_atom_site_fract_x
_atom_site_fract_y
_atom_site_fract_z
Si Si1 0.580569 0.635106 0.152406
Si Si2 0.923188 0.359373 0.659194
Si Si3 0.912347 0.133508 0.758954
Si Si4 0.078658 0.953339 0.432618
Si Si5 0.918482 0.640619 0.514069
Si Si6 0.579836 0.467285 0.930301
Si Si7 0.418812 0.862857 0.975714
O O1 0.750000 0.610546 0.149420
O O2 0.549417 0.750000 0.145711
O O3 0.521634 0.597754 0.201512
O O4 0.496799 0.576195 0.113822
O O5 0.750000 0.354072 0.659581
O O6 0.986421 0.250000 0.650793
O O7 0.972385 0.401615 0.709022
O O8 0.979708 0.430547 0.618622
O O9 0.750000 0.091633 0.768799
O O10 0.904543 0.250000 0.757437
O O11 0.250000 0.936056 0.435178
O O12 0.007834 0.877657 0.467946
O O13 0.035229 0.064672 0.445926
O O14 0.750000 0.626425 0.501583
O O15 0.951203 0.750000 0.532201
O O16 0.750000 0.477621 0.920449
O O17 0.515406 0.574634 0.940609
O O18 0.546984 0.394563 0.972355
O O19 0.250000 0.880858 0.964203
O O20 0.463042 0.750000 0.969957
#
# Coordination Sequence:
#
# PCOD8240311 Si02
#       7
#     8   8   8   8   8   8   8
#     4  10  19  29  42  62  88 115 142 173 209 251
#     4   8  13  22  38  59  78  97 128 169 205 239
#     4   8  14  25  40  57  78 103 131 166 208 250
#     4   9  16  26  41  58  76 104 140 169 196 239
#     4   9  17  27  37  54  82 109 132 164 204 240
#     4  10  19  30  46  67  89 115 147 178 209 248
#     4   9  18  32  47  64  89 118 146 177 212 249
#
# _framework density 15.320593000000001
#
# number of rings (size 3 to 8) (size 9 to 14) (size 15 to 20)
#    0.000    3.000    0.000    2.571    0.000    3.143 
#    0.000    0.714    0.000    2.571    0.000    1.000 
#    0.000    3.429    0.000    0.000    0.000    0.000 
#
# Total GULP energy -694171.952560 kJ/mol
# GULP energy per Si atom -12395.927724 kJ/mol
# Density = 1.528572 g / cm^3
# Si number density = 15.320593 Si / 1000 Ang^3
#
#
#
# Elastic Constant Matrix: (Units=GPa)
#
#
# Indices 1 2 3 4 5 6 
#
# 1 57.7692 39.1009 53.8407 0.0000 0.0000 0.0000
# 2 39.1009 85.9709 58.9783 0.0000 0.0000 0.0000
# 3 53.8407 58.9783 140.5610 0.0000 0.0000 0.0000
# 4 0.0000 0.0000 0.0000 22.5743 0.0000 0.0000
# 5 0.0000 0.0000 0.0000 0.0000 22.3255 0.0000
# 6 0.0000 0.0000 0.0000 0.0000 0.0000 18.9548
#
#
#
# Elastic Compliance Matrix: (Units=1/GPa)
#
#
# Indices 1 2 3 4 5 6 
#
# 1 0.030587 -0.008248 -0.008255 0.000000 0.000000 0.000000
# 2 -0.008248 0.018558 -0.004627 0.000000 0.000000 0.000000
# 3 -0.008255 -0.004627 0.012218 0.000000 0.000000 0.000000
# 4 0.000000 0.000000 0.000000 0.044298 0.000000 0.000000
# 5 0.000000 0.000000 0.000000 0.000000 0.044792 0.000000
# 6 0.000000 0.000000 0.000000 0.000000 0.000000 0.052757
#
#
# Mechanical properties :
#
#
# Convention : Reuss Voigt Hill
#
# Bulk Modulus (GPa) = 52.35236 65.34896 58.85066
# Shear Modulus (GPa) = 19.85406 21.59632 20.72519
#
# Velocity S-wave (km/s) = 3.60378 3.75857 3.68199
# Velocity P-wave (km/s) = 7.18065 7.84747 7.52145
#
# Compressibility (1/GPa) = 0.01910134
#
# Stress axis : x y z
#
# Youngs Moduli (GPa) = 32.69391 53.88617 81.84650
#
# Poissons Ratio (x) = 0.44446 0.67566
# Poissons Ratio (y) = 0.26966 0.37873
# Poissons Ratio (z) = 0.26989 0.24935
#
# Static dielectric constant tensor:
#      x y z
#    x 2.898980 0.000000 0.000000 
#    y 0.000000 2.839760 0.000000 
#    z 0.000000 0.000000 3.180170 
# 
# 
# High freq. dielectric constant tensor:
#      x y z
#    x 1.579910 0.000000 0.000000 
#    y 0.000000 1.558320 0.000000 
#    z 0.000000 0.000000 1.585780 
# 
# From -- ./inp_files/33171.got.cif
#   From: 2010.03.12/outbox.cif.g09.slc.cpg/sg59_17_cif.got.tgz:33171.got - 2010.04.16 16:29:54.
