data_PCOD8240881
_publ_section_title
;
Structure prediction by ZEFSAII (Michael W. Deem and Ramdas Pophale) SiO2 
 PCOD8240881
Probable space group: P M M N
;
_chemical_formula_sum "Si O2"
_cell_formula_units_Z 64
_cell_length_a 9.257535
_cell_length_b 19.827099
_cell_length_c 19.462201
_cell_angle_alpha 90.000000
_cell_angle_beta 90.000000
_cell_angle_gamma 90.000000
_cell_volume 3572.288219
_symmetry_space_group_name_H-M "P M M N"
_symmetry_group_IT_number 59
_space_group.IT_coordinate_system_code '2'
_symmetry_cell_setting 'orthorhombic'
loop_
_space_group_symop_operation_xyz
x,y,z
1/2-x,1/2-y,z
1/2+x,-y,-z
-x,1/2+y,-z
-x,-y,-z
1/2+x,1/2+y,-z
1/2-x,y,z
x,1/2-y,z
loop_
_atom_site_type_symbol
_atom_site_label
_atom_site_fract_x
_atom_site_fract_y
_atom_site_fract_z
Si Si1 0.090525 0.323825 0.950561
Si Si2 0.582282 0.046030 0.793574
Si Si3 0.579366 0.677067 0.483235
Si Si4 0.080298 0.464905 0.562065
Si Si5 0.085179 0.947762 0.044719
Si Si6 0.582035 0.827231 0.639382
Si Si7 0.588033 0.824357 0.212422
Si Si8 0.921174 0.048869 0.304166
O O1 0.250000 0.346620 0.975622
O O2 0.053533 0.250000 0.980232
O O3 0.089245 0.321524 0.868968
O O4 0.970379 0.374391 0.978397
O O5 0.750000 0.041968 0.773429
O O6 0.558638 0.040423 0.874895
O O7 0.520139 0.116741 0.763295
O O8 0.494760 0.983397 0.762641
O O9 0.750000 0.683074 0.484728
O O10 0.516732 0.750000 0.457115
O O11 0.531543 0.614309 0.435241
O O12 0.527495 0.663688 0.561159
O O13 0.250000 0.470887 0.547868
O O14 0.035993 0.500569 0.632450
O O15 0.000000 0.500000 0.500000
O O16 0.250000 0.953271 0.024101
O O17 0.000000 0.000000 0.000000
O O18 0.750000 0.847302 0.646907
O O19 0.557697 0.750000 0.663465
O O20 0.485427 0.876426 0.686036
O O21 0.750000 0.840828 0.239802
O O22 0.539568 0.750000 0.240290
O O23 0.750000 0.053812 0.293541
#
# Coordination Sequence:
#
# PCOD8240881 Si02
#       8
#     8   8   8   8   8   8   8   8
#     4   8  14  26  46  72 101 131 162 199 243 291
#     4  10  21  35  51  73 102 138 176 211 250 303
#     4   8  14  27  48  71  95 126 166 208 246 291
#     4  10  19  31  49  73  99 128 165 206 251 300
#     4  10  20  33  52  77 102 132 170 211 258 305
#     4   9  17  31  53  76  96 127 170 211 255 307
#     4   8  14  27  48  72  98 129 165 205 247 291
#     4  11  22  33  49  76 106 136 169 210 261 307
#
# _framework density 17.915687999999999
#
# number of rings (size 3 to 8) (size 9 to 14) (size 15 to 20)
#    0.000    2.750    1.250    2.625    0.000    2.750 
#    0.000    3.125    0.000    3.375    0.000    5.250 
#    0.000    0.000    0.000    0.000    0.000    0.000 
#
# Total GULP energy -793209.213235 kJ/mol
# GULP energy per Si atom -12393.893957 kJ/mol
# Density = 1.787491 g / cm^3
# Si number density = 17.915688 Si / 1000 Ang^3
#
#
#
# Elastic Constant Matrix: (Units=GPa)
#
#
# Indices 1 2 3 4 5 6 
#
# 1 101.3485 65.9927 38.2142 0.0000 0.0000 0.0000
# 2 65.9927 139.7409 35.9591 0.0000 0.0000 0.0000
# 3 38.2142 35.9591 31.9717 0.0000 0.0000 0.0000
# 4 0.0000 0.0000 0.0000 25.2353 0.0000 0.0000
# 5 0.0000 0.0000 0.0000 0.0000 20.6085 0.0000
# 6 0.0000 0.0000 0.0000 0.0000 0.0000 35.1092
#
#
#
# Elastic Compliance Matrix: (Units=1/GPa)
#
#
# Indices 1 2 3 4 5 6 
#
# 1 0.019865 -0.004604 -0.018566 0.000000 0.000000 0.000000
# 2 -0.004604 0.011138 -0.007024 0.000000 0.000000 0.000000
# 3 -0.018566 -0.007024 0.061369 0.000000 0.000000 0.000000
# 4 0.000000 0.000000 0.000000 0.039627 0.000000 0.000000
# 5 0.000000 0.000000 0.000000 0.000000 0.048524 0.000000
# 6 0.000000 0.000000 0.000000 0.000000 0.000000 0.028483
#
#
# Mechanical properties :
#
#
# Convention : Reuss Voigt Hill
#
# Bulk Modulus (GPa) = 31.26558 61.48813 46.37686
# Shear Modulus (GPa) = 17.85373 25.05026 21.45199
#
# Velocity S-wave (km/s) = 3.16023 3.74335 3.46408
# Velocity P-wave (km/s) = 5.55027 7.28553 6.47628
#
# Compressibility (1/GPa) = 0.03198405
#
# Stress axis : x y z
#
# Youngs Moduli (GPa) = 50.33966 89.78476 16.29497
#
# Poissons Ratio (x) = 0.41335 0.30253
# Poissons Ratio (y) = 0.23175 0.11446
# Poissons Ratio (z) = 0.93459 0.63066
#
# Static dielectric constant tensor:
#      x y z
#    x 3.292900 0.000000 0.000000 
#    y 0.000000 4.156540 0.000000 
#    z 0.000000 0.000000 2.977420 
# 
# 
# High freq. dielectric constant tensor:
#      x y z
#    x 1.682750 0.000000 0.000000 
#    y 0.000000 1.709980 0.000000 
#    z 0.000000 0.000000 1.648160 
# 
# From -- ./inp_files/26190.got.cif
#   From: 2010.03.12/outbox.cif.g09.slc.cpg/sg59_14_cif.got.tgz:26190.got - 2010.04.16 16:29:54.
