data_PCOD8240777
_publ_section_title
;
Structure prediction by ZEFSAII (Michael W. Deem and Ramdas Pophale) SiO2 
 PCOD8240777
Probable space group: P M M N
;
_chemical_formula_sum "Si O2"
_cell_formula_units_Z 48
_cell_length_a 8.919201
_cell_length_b 20.023417
_cell_length_c 15.190769
_cell_angle_alpha 90.000000
_cell_angle_beta 90.000000
_cell_angle_gamma 90.000000
_cell_volume 2712.963199
_symmetry_space_group_name_H-M "P M M N"
_symmetry_group_IT_number 59
_space_group.IT_coordinate_system_code '2'
_symmetry_cell_setting 'orthorhombic'
loop_
_space_group_symop_operation_xyz
x,y,z
1/2-x,1/2-y,z
1/2+x,-y,-z
-x,1/2+y,-z
-x,-y,-z
1/2+x,1/2+y,-z
1/2-x,y,z
x,1/2-y,z
loop_
_atom_site_type_symbol
_atom_site_label
_atom_site_fract_x
_atom_site_fract_y
_atom_site_fract_z
Si Si1 0.077968 0.826195 0.605566
Si Si2 0.926275 0.433984 0.538972
Si Si3 0.416532 0.913267 0.927442
Si Si4 0.573519 0.597075 0.752067
Si Si5 0.071651 0.043220 0.714856
Si Si6 0.083842 0.428659 0.905050
O O1 0.250000 0.838767 0.633707
O O2 0.050458 0.750000 0.577542
O O3 0.034862 0.871324 0.522173
O O4 0.971190 0.842570 0.687945
O O5 0.750000 0.445963 0.548647
O O6 0.000000 0.500000 0.500000
O O7 0.997735 0.417426 0.633984
O O8 0.250000 0.883394 0.916913
O O9 0.521806 0.883940 0.850827
O O10 0.413081 0.992583 0.921138
O O11 0.477950 0.892285 0.023904
O O12 0.750000 0.584701 0.751750
O O13 0.490298 0.531828 0.715856
O O14 0.250000 0.038669 0.704218
O O15 0.027420 0.082582 0.804738
O O16 0.250000 0.398945 0.917153
#
# Coordination Sequence:
#
# PCOD8240777 Si02
#       6
#     8   8   8   8   8   8
#     4  10  22  39  55  72 100 137 174 213 259 312
#     4  11  21  33  53  77 102 133 171 216 263 312
#     4   9  16  26  42  64  95 131 163 199 245 298
#     4  11  20  30  48  72  99 132 169 209 253 305
#     4  10  19  31  48  71 102 135 169 209 256 308
#     4   8  15  26  40  63  95 129 163 202 245 291
#
# _framework density 17.692831000000002
#
# number of rings (size 3 to 8) (size 9 to 14) (size 15 to 20)
#    0.000    2.167    1.667    4.000    0.000    5.667 
#    0.000    0.000    0.000    0.000    0.000    1.167 
#    0.000    4.000    0.000    0.000    0.000    0.000 
#
# Total GULP energy -595140.756169 kJ/mol
# GULP energy per Si atom -12398.765754 kJ/mol
# Density = 1.765256 g / cm^3
# Si number density = 17.692831 Si / 1000 Ang^3
#
#
#
# Elastic Constant Matrix: (Units=GPa)
#
#
# Indices 1 2 3 4 5 6 
#
# 1 109.9181 31.4700 69.6031 0.0000 0.0000 0.0000
# 2 31.4700 57.6229 41.7213 0.0000 0.0000 0.0000
# 3 69.6031 41.7213 165.7511 0.0000 0.0000 0.0000
# 4 0.0000 0.0000 0.0000 13.9315 0.0000 0.0000
# 5 0.0000 0.0000 0.0000 0.0000 38.3173 0.0000
# 6 0.0000 0.0000 0.0000 0.0000 0.0000 14.7398
#
#
#
# Elastic Compliance Matrix: (Units=1/GPa)
#
#
# Indices 1 2 3 4 5 6 
#
# 1 0.013062 -0.003867 -0.004512 0.000000 0.000000 0.000000
# 2 -0.003867 0.022367 -0.004006 0.000000 0.000000 0.000000
# 3 -0.004512 -0.004006 0.008936 0.000000 0.000000 0.000000
# 4 0.000000 0.000000 0.000000 0.071780 0.000000 0.000000
# 5 0.000000 0.000000 0.000000 0.000000 0.026098 0.000000
# 6 0.000000 0.000000 0.000000 0.000000 0.000000 0.067843
#
#
# Mechanical properties :
#
#
# Convention : Reuss Voigt Hill
#
# Bulk Modulus (GPa) = 51.03297 68.76456 59.89876
# Shear Modulus (GPa) = 20.71371 26.09758 23.40565
#
# Velocity S-wave (km/s) = 3.42532 3.84479 3.64110
# Velocity P-wave (km/s) = 6.67460 7.65898 7.18367
#
# Compressibility (1/GPa) = 0.01959518
#
# Stress axis : x y z
#
# Youngs Moduli (GPa) = 76.56009 44.70947 111.90615
#
# Poissons Ratio (x) = 0.17289 0.50487
# Poissons Ratio (y) = 0.29605 0.44831
# Poissons Ratio (z) = 0.34541 0.17911
#
# Static dielectric constant tensor:
#      x y z
#    x 3.421470 0.000000 0.000000 
#    y 0.000000 2.735520 0.000000 
#    z 0.000000 0.000000 3.740440 
# 
# 
# High freq. dielectric constant tensor:
#      x y z
#    x 1.695080 0.000000 0.000000 
#    y 0.000000 1.612350 0.000000 
#    z 0.000000 0.000000 1.704310 
# 
# From -- ./inp_files/20708.got.cif
#   From: 2010.03.12/outbox.cif.g09.slc.cpg/sg59_11_cif.got.tgz:20708.got - 2010.04.16 16:29:54.
