data_PCOD8240898
_publ_section_title
;
Structure prediction by ZEFSAII (Michael W. Deem and Ramdas Pophale) SiO2 
 PCOD8240898
Probable space group: P M M N
;
_chemical_formula_sum "Si O2"
_cell_formula_units_Z 48
_cell_length_a 19.658816
_cell_length_b 8.839661
_cell_length_c 15.164807
_cell_angle_alpha 90.000000
_cell_angle_beta 90.000000
_cell_angle_gamma 90.000000
_cell_volume 2635.298747
_symmetry_space_group_name_H-M "P M M N"
_symmetry_group_IT_number 59
_space_group.IT_coordinate_system_code '2'
_symmetry_cell_setting 'orthorhombic'
loop_
_space_group_symop_operation_xyz
x,y,z
1/2-x,1/2-y,z
1/2+x,-y,-z
-x,1/2+y,-z
-x,-y,-z
1/2+x,1/2+y,-z
1/2-x,y,z
x,1/2-y,z
loop_
_atom_site_type_symbol
_atom_site_label
_atom_site_fract_x
_atom_site_fract_y
_atom_site_fract_z
Si Si1 0.909851 0.579732 0.429250
Si Si2 0.109990 0.925517 0.747896
Si Si3 0.069899 0.579741 0.397835
Si Si4 0.951779 0.574527 0.778970
Si Si5 0.170987 0.077029 0.912011
Si Si6 0.567388 0.428577 0.960105
O O1 0.880997 0.750000 0.429368
O O2 0.875582 0.486324 0.350187
O O3 0.890658 0.500447 0.521627
O O4 0.990352 0.580997 0.417573
O O5 0.129051 0.750000 0.751094
O O6 0.032331 0.953493 0.776093
O O7 0.157966 0.016959 0.813744
O O8 0.097564 0.750000 0.387373
O O9 0.084540 0.487262 0.308788
O O10 0.934241 0.750000 0.788932
O O11 0.920604 0.484584 0.860909
O O12 0.250000 0.063811 0.934084
O O13 0.145653 0.250000 0.918249
O O14 0.131965 0.975128 0.982427
O O15 0.559212 0.250000 0.962097
O O16 0.500000 0.500000 0.000000
#
# Coordination Sequence:
#
# PCOD8240898 Si02
#       6
#     8   8   8   8   8   8
#     4   9  16  26  42  65  98 136 171 210 256 309
#     4  10  19  31  50  74 102 138 176 217 264 319
#     4   9  16  26  41  66 100 135 171 212 258 310
#     4  10  19  31  49  75 105 138 176 219 268 321
#     4  11  24  40  57  78 107 142 181 226 275 329
#     4  12  23  36  56  80 107 141 181 227 275 328
#
# _framework density 18.214252999999999
#
# number of rings (size 3 to 8) (size 9 to 14) (size 15 to 20)
#    0.000    1.833    1.667    4.000    0.000    6.667 
#    0.000    0.000    0.000    0.000    0.000    1.167 
#    0.000    9.333    0.000    0.000    0.000    0.000 
#
# Total GULP energy -595360.578584 kJ/mol
# GULP energy per Si atom -12403.345387 kJ/mol
# Density = 1.817280 g / cm^3
# Si number density = 18.214253 Si / 1000 Ang^3
#
#
#
# Elastic Constant Matrix: (Units=GPa)
#
#
# Indices 1 2 3 4 5 6 
#
# 1 36.3890 30.5438 31.4992 0.0000 0.0000 0.0000
# 2 30.5438 157.9103 72.2779 0.0000 0.0000 0.0000
# 3 31.4992 72.2779 156.7676 0.0000 0.0000 0.0000
# 4 0.0000 0.0000 0.0000 42.7498 0.0000 0.0000
# 5 0.0000 0.0000 0.0000 0.0000 14.4945 0.0000
# 6 0.0000 0.0000 0.0000 0.0000 0.0000 17.5600
#
#
#
# Elastic Compliance Matrix: (Units=1/GPa)
#
#
# Indices 1 2 3 4 5 6 
#
# 1 0.035715 -0.004593 -0.005059 0.000000 0.000000 0.000000
# 2 -0.004593 0.008617 -0.003050 0.000000 0.000000 0.000000
# 3 -0.005059 -0.003050 0.008802 0.000000 0.000000 0.000000
# 4 0.000000 0.000000 0.000000 0.023392 0.000000 0.000000
# 5 0.000000 0.000000 0.000000 0.000000 0.068992 0.000000
# 6 0.000000 0.000000 0.000000 0.000000 0.000000 0.056948
#
#
# Mechanical properties :
#
#
# Convention : Reuss Voigt Hill
#
# Bulk Modulus (GPa) = 36.06148 68.85652 52.45900
# Shear Modulus (GPa) = 21.08715 29.41059 25.24887
#
# Velocity S-wave (km/s) = 3.40623 4.02269 3.72723
# Velocity P-wave (km/s) = 5.94234 7.71115 6.88379
#
# Compressibility (1/GPa) = 0.02773042
#
# Stress axis : x y z
#
# Youngs Moduli (GPa) = 27.99968 116.04775 113.61606
#
# Poissons Ratio (x) = 0.53297 0.57475
# Poissons Ratio (y) = 0.12859 0.34654
# Poissons Ratio (z) = 0.14164 0.35396
#
# Static dielectric constant tensor:
#      x y z
#    x 2.871700 0.000000 0.000000 
#    y 0.000000 3.593440 0.000000 
#    z 0.000000 0.000000 3.616690 
# 
# 
# High freq. dielectric constant tensor:
#      x y z
#    x 1.636310 0.000000 0.000000 
#    y 0.000000 1.728570 0.000000 
#    z 0.000000 0.000000 1.724090 
# 
# From -- ./inp_files/20461.got.cif
#   From: 2010.03.12/outbox.cif.g09.slc.cpg/sg59_11_cif.got.tgz:20461.got - 2010.04.16 16:29:54.
