data_PCOD8240733
_publ_section_title
;
Structure prediction by ZEFSAII (Michael W. Deem and Ramdas Pophale) SiO2 
 PCOD8240733
Probable space group: P M M N
;
_chemical_formula_sum "Si O2"
_cell_formula_units_Z 64
_cell_length_a 18.938022
_cell_length_b 8.966755
_cell_length_c 20.011066
_cell_angle_alpha 90.000000
_cell_angle_beta 90.000000
_cell_angle_gamma 90.000000
_cell_volume 3398.131215
_symmetry_space_group_name_H-M "P M M N"
_symmetry_group_IT_number 59
_space_group.IT_coordinate_system_code '2'
_symmetry_cell_setting 'orthorhombic'
loop_
_space_group_symop_operation_xyz
x,y,z
1/2-x,1/2-y,z
1/2+x,-y,-z
-x,1/2+y,-z
-x,-y,-z
1/2+x,1/2+y,-z
1/2-x,y,z
x,1/2-y,z
loop_
_atom_site_type_symbol
_atom_site_label
_atom_site_fract_x
_atom_site_fract_y
_atom_site_fract_z
Si Si1 0.922310 0.579071 0.449663
Si Si2 0.060724 0.420268 0.407998
Si Si3 0.557851 0.924859 0.860314
Si Si4 0.078435 0.426068 0.911243
Si Si5 0.829090 0.925052 0.965828
Si Si6 0.459791 0.920064 0.279552
Si Si7 0.670690 0.081973 0.193108
Si Si8 0.875838 0.583398 0.312078
O O1 0.951910 0.750000 0.443538
O O2 0.890734 0.554688 0.524974
O O3 0.863441 0.556696 0.391593
O O4 0.983030 0.459984 0.434507
O O5 0.062603 0.250000 0.383848
O O6 0.083736 0.518678 0.344025
O O7 0.542904 0.750000 0.856296
O O8 0.632828 0.959880 0.895600
O O9 0.497563 0.996385 0.907171
O O10 0.561123 0.989967 0.786333
O O11 0.066443 0.250000 0.915128
O O12 0.121380 0.465160 0.844593
O O13 0.122895 0.490106 0.973952
O O14 0.750000 0.996049 0.965947
O O15 0.822479 0.750000 0.977681
O O16 0.438259 0.750000 0.267540
O O17 0.541923 0.940169 0.294720
O O18 0.750000 0.071557 0.165368
O O19 0.641572 0.250000 0.184945
O O20 0.669874 0.035777 0.271037
O O21 0.851759 0.750000 0.292148
#
# Coordination Sequence:
#
# PCOD8240733 Si02
#       8
#     8   8   8   8   8   8   8   8
#     4   8  15  26  40  62  94 129 166 208 254 305
#     4   9  15  24  41  66  96 130 166 207 255 304
#     4  11  21  34  56  82 107 137 173 218 264 308
#     4  11  21  36  58  80 105 139 173 211 260 318
#     4   9  20  38  58  81 107 136 173 214 259 314
#     4  10  19  31  47  71 104 136 169 211 256 310
#     4  11  23  35  48  71 103 137 178 226 267 310
#     4   9  17  30  47  66  94 134 173 213 258 310
#
# _framework density 18.833881999999999
#
# number of rings (size 3 to 8) (size 9 to 14) (size 15 to 20)
#    0.000    2.250    1.250    3.375    0.000    4.000 
#    0.000    1.875    0.000    4.500    0.000    0.875 
#    0.000    3.000    0.000    0.000    0.000    0.000 
#
# Total GULP energy -793164.841600 kJ/mol
# GULP energy per Si atom -12393.200650 kJ/mol
# Density = 1.879102 g / cm^3
# Si number density = 18.833882 Si / 1000 Ang^3
#
#
#
# Elastic Constant Matrix: (Units=GPa)
#
#
# Indices 1 2 3 4 5 6 
#
# 1 59.3506 25.8849 41.2578 0.0000 0.0000 0.0000
# 2 25.8849 82.5233 40.8529 0.0000 0.0000 0.0000
# 3 41.2578 40.8529 134.8575 0.0000 0.0000 0.0000
# 4 0.0000 0.0000 0.0000 25.1626 0.0000 0.0000
# 5 0.0000 0.0000 0.0000 0.0000 12.3248 0.0000
# 6 0.0000 0.0000 0.0000 0.0000 0.0000 14.4943
#
#
#
# Elastic Compliance Matrix: (Units=1/GPa)
#
#
# Indices 1 2 3 4 5 6 
#
# 1 0.022638 -0.004320 -0.005617 0.000000 0.000000 0.000000
# 2 -0.004320 0.015080 -0.003247 0.000000 0.000000 0.000000
# 3 -0.005617 -0.003247 0.010117 0.000000 0.000000 0.000000
# 4 0.000000 0.000000 0.000000 0.039742 0.000000 0.000000
# 5 0.000000 0.000000 0.000000 0.000000 0.081137 0.000000
# 6 0.000000 0.000000 0.000000 0.000000 0.000000 0.068993
#
#
# Mechanical properties :
#
#
# Convention : Reuss Voigt Hill
#
# Bulk Modulus (GPa) = 46.58158 54.74697 50.66427
# Shear Modulus (GPa) = 18.43454 21.64538 20.03996
#
# Velocity S-wave (km/s) = 3.13197 3.39378 3.26550
# Velocity P-wave (km/s) = 6.15350 6.66996 6.41693
#
# Compressibility (1/GPa) = 0.02146771
#
# Stress axis : x y z
#
# Youngs Moduli (GPa) = 44.17366 66.31264 98.84149
#
# Poissons Ratio (x) = 0.28648 0.55520
# Poissons Ratio (y) = 0.19083 0.32090
# Poissons Ratio (z) = 0.24813 0.21529
#
# Static dielectric constant tensor:
#      x y z
#    x 3.089140 0.000000 0.000000 
#    y 0.000000 3.403890 0.000000 
#    z 0.000000 0.000000 3.892960 
# 
# 
# High freq. dielectric constant tensor:
#      x y z
#    x 1.672210 0.000000 0.000000 
#    y 0.000000 1.729010 0.000000 
#    z 0.000000 0.000000 1.752350 
# 
# From -- ./inp_files/30797.got.cif
#   From: 2010.03.12/outbox.cif.g09.slc.cpg/sg59_16_cif.got.tgz:30797.got - 2010.04.16 16:29:54.
