data_PCOD8240902
_publ_section_title
;
Structure prediction by ZEFSAII (Michael W. Deem and Ramdas Pophale) SiO2 
 PCOD8240902
Probable space group: P M M N
;
_chemical_formula_sum "Si O2"
_cell_formula_units_Z 40
_cell_length_a 18.079425
_cell_length_b 8.734860
_cell_length_c 13.796938
_cell_angle_alpha 90.000000
_cell_angle_beta 90.000000
_cell_angle_gamma 90.000000
_cell_volume 2178.829643
_symmetry_space_group_name_H-M "P M M N"
_symmetry_group_IT_number 59
_space_group.IT_coordinate_system_code '2'
_symmetry_cell_setting 'orthorhombic'
loop_
_space_group_symop_operation_xyz
x,y,z
1/2-x,1/2-y,z
1/2+x,-y,-z
-x,1/2+y,-z
-x,-y,-z
1/2+x,1/2+y,-z
1/2-x,y,z
x,1/2-y,z
loop_
_atom_site_type_symbol
_atom_site_label
_atom_site_fract_x
_atom_site_fract_y
_atom_site_fract_z
Si Si1 0.026855 0.930635 0.599649
Si Si2 0.664593 0.568940 0.913051
Si Si3 0.955362 0.430165 0.785931
Si Si4 0.666273 0.570297 0.313733
Si Si5 0.103174 0.070592 0.886365
O O1 0.021216 0.750000 0.595515
O O2 0.111942 0.979947 0.615092
O O3 0.000000 0.000000 0.500000
O O4 0.974012 0.991518 0.684419
O O5 0.750000 0.523412 0.905498
O O6 0.653013 0.750000 0.907112
O O7 0.622976 0.491217 0.823201
O O8 0.631718 0.497791 0.013127
O O9 0.952389 0.250000 0.768372
O O10 0.017974 0.473805 0.865569
O O11 0.750000 0.534311 0.344968
O O12 0.647686 0.750000 0.321252
O O13 0.653356 0.513203 0.203390
O O14 0.113735 0.250000 0.896653
#
# Coordination Sequence:
#
# PCOD8240902 Si02
#       5
#     8   8   8   8   8
#     4  11  22  38  59  80 104 134 173 218 265 317
#     4  10  19  31  49  75 108 145 181 214 253 304
#     4  10  20  35  54  76 103 136 177 220 263 311
#     4   9  17  32  55  83 113 141 171 211 260 311
#     4   8  15  29  51  77 105 140 177 211 252 305
#
# _framework density 18.358481000000001
#
# number of rings (size 3 to 8) (size 9 to 14) (size 15 to 20)
#    0.000    2.400    0.000    4.800    0.000    3.200 
#    0.000    5.000    0.000   10.800    0.000    0.000 
#    0.000    0.000    0.000    0.000    0.000    0.000 
#
# Total GULP energy -495986.520043 kJ/mol
# GULP energy per Si atom -12399.663001 kJ/mol
# Density = 1.831670 g / cm^3
# Si number density = 18.358481 Si / 1000 Ang^3
#
#
#
# Elastic Constant Matrix: (Units=GPa)
#
#
# Indices 1 2 3 4 5 6 
#
# 1 130.9675 60.9484 83.8388 0.0000 0.0000 0.0000
# 2 60.9484 86.1628 57.9788 0.0000 0.0000 0.0000
# 3 83.8388 57.9788 130.5357 0.0000 0.0000 0.0000
# 4 0.0000 0.0000 0.0000 25.0676 0.0000 0.0000
# 5 0.0000 0.0000 0.0000 0.0000 18.2452 0.0000
# 6 0.0000 0.0000 0.0000 0.0000 0.0000 29.8746
#
#
#
# Elastic Compliance Matrix: (Units=1/GPa)
#
#
# Indices 1 2 3 4 5 6 
#
# 1 0.014746 -0.005788 -0.006900 0.000000 0.000000 0.000000
# 2 -0.005788 0.018825 -0.004644 0.000000 0.000000 0.000000
# 3 -0.006900 -0.004644 0.014155 0.000000 0.000000 0.000000
# 4 0.000000 0.000000 0.000000 0.039892 0.000000 0.000000
# 5 0.000000 0.000000 0.000000 0.000000 0.054809 0.000000
# 6 0.000000 0.000000 0.000000 0.000000 0.000000 0.033473
#
#
# Mechanical properties :
#
#
# Convention : Reuss Voigt Hill
#
# Bulk Modulus (GPa) = 76.55635 83.68865 80.12250
# Shear Modulus (GPa) = 23.26463 24.29749 23.78106
#
# Velocity S-wave (km/s) = 3.56370 3.64194 3.60303
# Velocity P-wave (km/s) = 7.66320 7.96051 7.81327
#
# Compressibility (1/GPa) = 0.01306227
#
# Stress axis : x y z
#
# Youngs Moduli (GPa) = 67.81455 53.12115 70.64506
#
# Poissons Ratio (x) = 0.30745 0.48747
# Poissons Ratio (y) = 0.39249 0.32808
# Poissons Ratio (z) = 0.46794 0.24670
#
# Static dielectric constant tensor:
#      x y z
#    x 3.554500 0.000000 0.000000 
#    y 0.000000 3.173570 0.000000 
#    z 0.000000 0.000000 3.361840 
# 
# 
# High freq. dielectric constant tensor:
#      x y z
#    x 1.714100 0.000000 0.000000 
#    y 0.000000 1.694430 0.000000 
#    z 0.000000 0.000000 1.704410 
# 
# From -- ./inp_files/17445.got.cif
#   From: 2010.03.12/outbox.cif.g09.slc.cpg/sg59_9_cif.got.tgz:17445.got - 2010.04.16 16:29:54.
