data_PCOD8240296
_publ_section_title
;
Structure prediction by ZEFSAII (Michael W. Deem and Ramdas Pophale) SiO2 
 PCOD8240296
Probable space group: P M M N
;
_chemical_formula_sum "Si O2"
_cell_formula_units_Z 64
_cell_length_a 9.177267
_cell_length_b 26.571053
_cell_length_c 18.116616
_cell_angle_alpha 90.000000
_cell_angle_beta 90.000000
_cell_angle_gamma 90.000000
_cell_volume 4417.730432
_symmetry_space_group_name_H-M "P M M N"
_symmetry_group_IT_number 59
_space_group.IT_coordinate_system_code '2'
_symmetry_cell_setting 'orthorhombic'
loop_
_space_group_symop_operation_xyz
x,y,z
1/2-x,1/2-y,z
1/2+x,-y,-z
-x,1/2+y,-z
-x,-y,-z
1/2+x,1/2+y,-z
1/2-x,y,z
x,1/2-y,z
loop_
_atom_site_type_symbol
_atom_site_label
_atom_site_fract_x
_atom_site_fract_y
_atom_site_fract_z
Si Si1 0.922388 0.897551 0.920818
Si Si2 0.077114 0.894166 0.577651
Si Si3 0.080817 0.953043 0.034731
Si Si4 0.423017 0.194830 0.173738
Si Si5 0.418422 0.308462 0.340144
Si Si6 0.915978 0.010391 0.325777
Si Si7 0.083613 0.492628 0.176338
Si Si8 0.080956 0.453035 0.534157
O O1 0.750000 0.897411 0.935003
O O2 0.980672 0.846021 0.884463
O O3 0.969398 0.942558 0.866181
O O4 0.004144 0.903521 0.999955
O O5 0.250000 0.892903 0.566601
O O6 0.020606 0.840851 0.606696
O O7 0.000468 0.903609 0.497664
O O8 0.027771 0.938856 0.633429
O O9 0.250000 0.954180 0.012539
O O10 0.062914 0.958206 0.123489
O O11 0.000000 0.000000 0.000000
O O12 0.250000 0.195696 0.173638
O O13 0.483270 0.250000 0.150969
O O14 0.472962 0.181314 0.256610
O O15 0.250000 0.324577 0.349805
O O16 0.438415 0.250000 0.360579
O O17 0.750000 0.019393 0.304163
O O18 0.933329 0.960671 0.377448
O O19 0.998833 0.998802 0.251110
O O20 0.250000 0.485269 0.198719
O O21 0.250000 0.452370 0.510395
O O22 0.000000 0.500000 0.500000
#
# Coordination Sequence:
#
# PCOD8240296 Si02
#       8
#     8   8   8   8   8   8   8   8
#     4   9  16  26  40  58  78 104 137 166 196 233
#     4  10  19  29  41  59  82 109 138 166 200 238
#     4   9  17  28  39  54  76 102 132 164 197 234
#     4   8  14  25  41  60  81 105 136 171 201 233
#     4   9  17  29  44  60  79 107 140 171 203 235
#     4   9  18  28  39  58  81 104 132 164 197 234
#     4   9  17  26  38  56  77 103 134 164 194 234
#     4   9  17  29  42  58  80 105 134 166 198 236
#
# _framework density 14.487076
#
# number of rings (size 3 to 8) (size 9 to 14) (size 15 to 20)
#    0.000    3.000    0.000    4.125    0.000    6.750 
#    0.000    0.625    0.000    1.125    0.000    0.000 
#    0.000    1.000    0.000    5.500    0.000    3.750 
#
# Total GULP energy -793059.639531 kJ/mol
# GULP energy per Si atom -12391.556868 kJ/mol
# Density = 1.445410 g / cm^3
# Si number density = 14.487076 Si / 1000 Ang^3
#
#
#
# Elastic Constant Matrix: (Units=GPa)
#
#
# Indices 1 2 3 4 5 6 
#
# 1 66.9832 32.1989 43.3810 0.0000 0.0000 0.0000
# 2 32.1989 75.6798 45.1373 0.0000 0.0000 0.0000
# 3 43.3810 45.1373 80.7914 0.0000 0.0000 0.0000
# 4 0.0000 0.0000 0.0000 25.9521 0.0000 0.0000
# 5 0.0000 0.0000 0.0000 0.0000 26.8909 0.0000
# 6 0.0000 0.0000 0.0000 0.0000 0.0000 18.9802
#
#
#
# Elastic Compliance Matrix: (Units=1/GPa)
#
#
# Indices 1 2 3 4 5 6 
#
# 1 0.023566 -0.003719 -0.010576 0.000000 0.000000 0.000000
# 2 -0.003719 0.020404 -0.009403 0.000000 0.000000 0.000000
# 3 -0.010576 -0.009403 0.023310 0.000000 0.000000 0.000000
# 4 0.000000 0.000000 0.000000 0.038532 0.000000 0.000000
# 5 0.000000 0.000000 0.000000 0.000000 0.037187 0.000000
# 6 0.000000 0.000000 0.000000 0.000000 0.000000 0.052687
#
#
# Mechanical properties :
#
#
# Convention : Reuss Voigt Hill
#
# Bulk Modulus (GPa) = 50.29045 51.65430 50.97238
# Shear Modulus (GPa) = 20.02326 21.21378 20.61852
#
# Velocity S-wave (km/s) = 3.72176 3.83080 3.77667
# Velocity P-wave (km/s) = 7.29781 7.43637 7.36741
#
# Compressibility (1/GPa) = 0.01988449
#
# Stress axis : x y z
#
# Youngs Moduli (GPa) = 42.43333 49.01092 42.90047
#
# Poissons Ratio (x) = 0.18225 0.45374
# Poissons Ratio (y) = 0.15779 0.40338
# Poissons Ratio (z) = 0.44880 0.46083
#
# Static dielectric constant tensor:
#      x y z
#    x 2.856930 0.000000 0.000000 
#    y 0.000000 3.266740 0.000000 
#    z 0.000000 0.000000 3.287320 
# 
# 
# High freq. dielectric constant tensor:
#      x y z
#    x 1.553550 0.000000 0.000000 
#    y 0.000000 1.523380 0.000000 
#    z 0.000000 0.000000 1.539940 
# 
# From -- ./inp_files/26672.got.cif
#   From: 2010.03.12/outbox.cif.g09.slc.cpg/sg59_14_cif.got.tgz:26672.got - 2010.04.16 16:29:54.
