data_PCOD8240938
_publ_section_title
;
Structure prediction by ZEFSAII (Michael W. Deem and Ramdas Pophale) SiO2 
 PCOD8240938
Probable space group: P M M N
;
_chemical_formula_sum "Si O2"
_cell_formula_units_Z 64
_cell_length_a 17.589411
_cell_length_b 8.889389
_cell_length_c 23.133151
_cell_angle_alpha 90.000000
_cell_angle_beta 90.000000
_cell_angle_gamma 90.000000
_cell_volume 3617.079056
_symmetry_space_group_name_H-M "P M M N"
_symmetry_group_IT_number 59
_space_group.IT_coordinate_system_code '2'
_symmetry_cell_setting 'orthorhombic'
loop_
_space_group_symop_operation_xyz
x,y,z
1/2-x,1/2-y,z
1/2+x,-y,-z
-x,1/2+y,-z
-x,-y,-z
1/2+x,1/2+y,-z
1/2-x,y,z
x,1/2-y,z
loop_
_atom_site_type_symbol
_atom_site_label
_atom_site_fract_x
_atom_site_fract_y
_atom_site_fract_z
Si Si1 0.474273 0.427584 0.739734
Si Si2 0.661450 0.425922 0.551784
Si Si3 0.065889 0.422752 0.033342
Si Si4 0.336361 0.072315 0.931928
Si Si5 0.474286 0.927335 0.861403
Si Si6 0.335767 0.575964 0.685258
Si Si7 0.050394 0.427430 0.367498
Si Si8 0.901498 0.426095 0.432866
O O1 0.482622 0.250000 0.738238
O O2 0.493732 0.488718 0.802603
O O3 0.387856 0.473961 0.725664
O O4 0.533020 0.498353 0.694130
O O5 0.750000 0.458761 0.548307
O O6 0.643746 0.250000 0.558441
O O7 0.629557 0.511142 0.607977
O O8 0.623327 0.498335 0.493884
O O9 0.050199 0.250000 0.024770
O O10 0.051355 0.462386 0.100798
O O11 0.144952 0.464369 0.000440
O O12 0.000000 0.500000 0.000000
O O13 0.250000 0.016513 0.919975
O O14 0.342969 0.250000 0.919872
O O15 0.396112 0.988440 0.890180
O O16 0.463096 0.750000 0.850807
O O17 0.250000 0.552156 0.705988
O O18 0.361659 0.750000 0.691404
O O19 0.344172 0.525218 0.618440
O O20 0.053472 0.250000 0.358426
O O21 0.986089 0.475138 0.414251
O O22 0.895196 0.250000 0.442086
#
# Coordination Sequence:
#
# PCOD8240938 Si02
#       8
#     8   8   8   8   8   8   8   8
#     4  11  22  35  51  70  94 127 169 211 251 293
#     4  10  19  31  50  76 103 129 158 196 248 307
#     4   8  15  28  47  70  95 125 158 191 228 271
#     4   9  17  30  49  75 106 133 156 189 235 283
#     4  10  19  32  50  71  96 128 167 204 237 280
#     4   9  17  31  50  71  98 131 164 199 242 293
#     4  10  20  35  53  72  97 129 168 210 250 295
#     4   8  15  29  50  74  98 127 161 197 242 298
#
# _framework density 17.693836000000001
#
# number of rings (size 3 to 8) (size 9 to 14) (size 15 to 20)
#    0.000    2.625    0.000    3.375    0.000    3.250 
#    0.000    2.500    0.000    3.750    0.000    1.750 
#    0.000    0.000    0.000    0.000    0.000    0.000 
#
# Total GULP energy -792987.083666 kJ/mol
# GULP energy per Si atom -12390.423182 kJ/mol
# Density = 1.765356 g / cm^3
# Si number density = 17.693836 Si / 1000 Ang^3
#
#
#
# Elastic Constant Matrix: (Units=GPa)
#
#
# Indices 1 2 3 4 5 6 
#
# 1 34.0824 36.5697 41.1676 0.0000 0.0000 0.0000
# 2 36.5697 69.9419 52.8705 0.0000 0.0000 0.0000
# 3 41.1676 52.8705 128.4558 0.0000 0.0000 0.0000
# 4 0.0000 0.0000 0.0000 23.2124 0.0000 0.0000
# 5 0.0000 0.0000 0.0000 0.0000 3.6675 0.0000
# 6 0.0000 0.0000 0.0000 0.0000 0.0000 22.8023
#
#
#
# Elastic Compliance Matrix: (Units=1/GPa)
#
#
# Indices 1 2 3 4 5 6 
#
# 1 0.077551 -0.031589 -0.011852 0.000000 0.000000 0.000000
# 2 -0.031589 0.033622 -0.003715 0.000000 0.000000 0.000000
# 3 -0.011852 -0.003715 0.013112 0.000000 0.000000 0.000000
# 4 0.000000 0.000000 0.000000 0.043080 0.000000 0.000000
# 5 0.000000 0.000000 0.000000 0.000000 0.272664 0.000000
# 6 0.000000 0.000000 0.000000 0.000000 0.000000 0.043855
#
#
# Mechanical properties :
#
#
# Convention : Reuss Voigt Hill
#
# Bulk Modulus (GPa) = 33.36258 54.85506 44.10882
# Shear Modulus (GPa) = 8.50069 16.72793 12.61431
#
# Velocity S-wave (km/s) = 2.19425 3.07809 2.67296
# Velocity P-wave (km/s) = 5.03151 6.61079 5.87446
#
# Compressibility (1/GPa) = 0.02997370
#
# Stress axis : x y z
#
# Youngs Moduli (GPa) = 12.89474 29.74225 76.26563
#
# Poissons Ratio (x) = 0.93953 0.90390
# Poissons Ratio (y) = 0.40733 0.28331
# Poissons Ratio (z) = 0.15283 0.11048
#
# Static dielectric constant tensor:
#      x y z
#    x 2.813360 0.000000 0.000000 
#    y 0.000000 3.090120 0.000000 
#    z 0.000000 0.000000 3.369540 
# 
# 
# High freq. dielectric constant tensor:
#      x y z
#    x 1.664440 0.000000 0.000000 
#    y 0.000000 1.675320 0.000000 
#    z 0.000000 0.000000 1.684310 
# 
# From -- ./inp_files/29562.got.cif
#   From: 2010.03.12/outbox.cif.g09.slc.cpg/sg59_15_cif.got.tgz:29562.got - 2010.04.16 16:29:54.
