data_PCOD8240721
_publ_section_title
;
Structure prediction by ZEFSAII (Michael W. Deem and Ramdas Pophale) SiO2 
 PCOD8240721
Probable space group: P M M N
;
_chemical_formula_sum "Si O2"
_cell_formula_units_Z 64
_cell_length_a 23.378734
_cell_length_b 8.908850
_cell_length_c 18.915070
_cell_angle_alpha 90.000000
_cell_angle_beta 90.000000
_cell_angle_gamma 90.000000
_cell_volume 3939.586034
_symmetry_space_group_name_H-M "P M M N"
_symmetry_group_IT_number 59
_space_group.IT_coordinate_system_code '2'
_symmetry_cell_setting 'orthorhombic'
loop_
_space_group_symop_operation_xyz
x,y,z
1/2-x,1/2-y,z
1/2+x,-y,-z
-x,1/2+y,-z
-x,-y,-z
1/2+x,1/2+y,-z
1/2-x,y,z
x,1/2-y,z
loop_
_atom_site_type_symbol
_atom_site_label
_atom_site_fract_x
_atom_site_fract_y
_atom_site_fract_z
Si Si1 0.974791 0.424004 0.607400
Si Si2 0.686546 0.571560 0.388711
Si Si3 0.585333 0.575202 0.484823
Si Si4 0.589705 0.924458 0.024516
Si Si5 0.632481 0.571599 0.243715
Si Si6 0.816129 0.424298 0.106195
Si Si7 0.510166 0.422745 0.255970
Si Si8 0.988718 0.921141 0.899572
O O1 0.964842 0.250000 0.621486
O O2 0.924657 0.483861 0.556657
O O3 0.035948 0.457244 0.572148
O O4 0.971535 0.509344 0.681818
O O5 0.750000 0.509223 0.404607
O O6 0.685664 0.750000 0.387334
O O7 0.644205 0.515584 0.450524
O O8 0.666302 0.512486 0.312484
O O9 0.587434 0.750000 0.504136
O O10 0.603119 0.750000 0.035076
O O11 0.647513 0.016903 0.039221
O O12 0.541065 0.970884 0.080567
O O13 0.567696 0.961649 0.945214
O O14 0.629855 0.750000 0.240991
O O15 0.665861 0.513172 0.175860
O O16 0.568733 0.511231 0.247549
O O17 0.750000 0.454546 0.089220
O O18 0.828970 0.250000 0.118702
O O19 0.523780 0.250000 0.272657
O O20 0.474375 0.440303 0.183172
O O21 0.007579 0.750000 0.916583
#
# Coordination Sequence:
#
# PCOD8240721 Si02
#       8
#     8   8   8   8   8   8   8   8
#     4  10  19  31  47  69  95 124 161 201 241 286
#     4   9  17  30  48  69  95 126 161 201 239 278
#     4   9  17  31  47  67  93 124 161 200 243 286
#     4  10  19  32  51  72  94 125 165 205 243 286
#     4  11  20  32  48  71  99 130 171 205 233 278
#     4  11  23  36  48  67  99 136 170 204 244 289
#     4  11  20  31  49  72 100 132 159 192 245 295
#     4   9  19  33  49  71  99 127 157 198 248 296
#
# _framework density 16.245362
#
# number of rings (size 3 to 8) (size 9 to 14) (size 15 to 20)
#    0.000    2.000    2.500    2.250    0.000    3.000 
#    0.000    0.000    0.000    1.875    0.000    0.875 
#    0.000    3.000    0.000    0.000    0.000    0.000 
#
# Total GULP energy -793653.304721 kJ/mol
# GULP energy per Si atom -12400.832886 kJ/mol
# Density = 1.620839 g / cm^3
# Si number density = 16.245362 Si / 1000 Ang^3
#
#
#
# Elastic Constant Matrix: (Units=GPa)
#
#
# Indices 1 2 3 4 5 6 
#
# 1 96.2748 36.2816 63.7847 0.0000 0.0000 0.0000
# 2 36.2816 76.1909 48.4297 0.0000 0.0000 0.0000
# 3 63.7847 48.4297 117.4557 0.0000 0.0000 0.0000
# 4 0.0000 0.0000 0.0000 23.1828 0.0000 0.0000
# 5 0.0000 0.0000 0.0000 0.0000 23.8186 0.0000
# 6 0.0000 0.0000 0.0000 0.0000 0.0000 20.4441
#
#
#
# Elastic Compliance Matrix: (Units=1/GPa)
#
#
# Indices 1 2 3 4 5 6 
#
# 1 0.016704 -0.002966 -0.007849 0.000000 0.000000 0.000000
# 2 -0.002966 0.018313 -0.005940 0.000000 0.000000 0.000000
# 3 -0.007849 -0.005940 0.015225 0.000000 0.000000 0.000000
# 4 0.000000 0.000000 0.000000 0.043135 0.000000 0.000000
# 5 0.000000 0.000000 0.000000 0.000000 0.041984 0.000000
# 6 0.000000 0.000000 0.000000 0.000000 0.000000 0.048914
#
#
# Mechanical properties :
#
#
# Convention : Reuss Voigt Hill
#
# Bulk Modulus (GPa) = 59.75989 65.21258 62.48624
# Shear Modulus (GPa) = 22.38502 22.91745 22.65124
#
# Velocity S-wave (km/s) = 3.71608 3.76001 3.73811
# Velocity P-wave (km/s) = 7.43492 7.68633 7.56167
#
# Compressibility (1/GPa) = 0.01673363
#
# Stress axis : x y z
#
# Youngs Moduli (GPa) = 59.86422 54.60577 65.67976
#
# Poissons Ratio (x) = 0.16194 0.51549
# Poissons Ratio (y) = 0.17754 0.39016
# Poissons Ratio (z) = 0.46985 0.32438
#
# Static dielectric constant tensor:
#      x y z
#    x 3.044130 0.000000 0.000000 
#    y 0.000000 3.124120 0.000000 
#    z 0.000000 0.000000 3.258180 
# 
# 
# High freq. dielectric constant tensor:
#      x y z
#    x 1.597250 0.000000 0.000000 
#    y 0.000000 1.628990 0.000000 
#    z 0.000000 0.000000 1.621660 
# 
# From -- ./inp_files/28436.got.cif
#   From: 2010.03.12/outbox.cif.g09.slc.cpg/sg59_15_cif.got.tgz:28436.got - 2010.04.16 16:29:54.
