data_PCOD8240473
_publ_section_title
;
Structure prediction by ZEFSAII (Michael W. Deem and Ramdas Pophale) SiO2 
 PCOD8240473
Probable space group: P M M N
;
_chemical_formula_sum "Si O2"
_cell_formula_units_Z 56
_cell_length_a 23.928483
_cell_length_b 8.961007
_cell_length_c 16.126184
_cell_angle_alpha 90.000000
_cell_angle_beta 90.000000
_cell_angle_gamma 90.000000
_cell_volume 3457.829649
_symmetry_space_group_name_H-M "P M M N"
_symmetry_group_IT_number 59
_space_group.IT_coordinate_system_code '2'
_symmetry_cell_setting 'orthorhombic'
loop_
_space_group_symop_operation_xyz
x,y,z
1/2-x,1/2-y,z
1/2+x,-y,-z
-x,1/2+y,-z
-x,-y,-z
1/2+x,1/2+y,-z
1/2-x,y,z
x,1/2-y,z
loop_
_atom_site_type_symbol
_atom_site_label
_atom_site_fract_x
_atom_site_fract_y
_atom_site_fract_z
Si Si1 0.586578 0.924956 0.010818
Si Si2 0.016347 0.574856 0.125923
Si Si3 0.685784 0.919991 0.267570
Si Si4 0.393697 0.582164 0.617081
Si Si5 0.949351 0.077078 0.545746
Si Si6 0.685450 0.075337 0.098291
Si Si7 0.014177 0.077205 0.302619
O O1 0.591627 0.750000 0.994920
O O2 0.543569 0.961953 0.085027
O O3 0.647332 0.990240 0.032040
O O4 0.565949 0.002015 0.926882
O O5 0.027081 0.750000 0.130742
O O6 0.017974 0.506201 0.216294
O O7 0.750000 0.941154 0.291502
O O8 0.672027 0.750000 0.243369
O O9 0.650893 0.966187 0.347969
O O10 0.668833 0.022293 0.190150
O O11 0.374001 0.750000 0.637596
O O12 0.396812 0.560376 0.517073
O O13 0.453107 0.551547 0.659699
O O14 0.963421 0.250000 0.561427
O O15 0.940219 0.994981 0.634044
O O16 0.000000 0.000000 0.500000
O O17 0.750000 0.036045 0.079149
O O18 0.673651 0.250000 0.092087
O O19 0.028567 0.250000 0.290272
#
# Coordination Sequence:
#
# PCOD8240473 Si02
#       7
#     8   8   8   8   8   8   8
#     4  10  20  33  49  69  93 122 156 193 232 274
#     4  10  20  32  47  68  95 126 156 189 231 278
#     4  10  20  31  44  65  91 119 153 189 223 263
#     4   9  18  30  45  65  90 121 152 184 222 265
#     4   9  17  29  44  64  89 116 148 182 218 262
#     4  10  20  33  49  68  92 123 156 191 231 274
#     4  10  19  30  45  67  93 120 152 186 222 267
#
# _framework density 16.195131
#
# number of rings (size 3 to 8) (size 9 to 14) (size 15 to 20)
#    0.000    2.286    0.000    4.286    0.000    9.143 
#    0.000    0.000    0.000    0.000    0.000    1.000 
#    0.000    3.429    0.000    0.000    0.000    0.000 
#
# Total GULP energy -694381.476817 kJ/mol
# GULP energy per Si atom -12399.669229 kJ/mol
# Density = 1.615827 g / cm^3
# Si number density = 16.195131 Si / 1000 Ang^3
#
#
#
# Elastic Constant Matrix: (Units=GPa)
#
#
# Indices 1 2 3 4 5 6 
#
# 1 57.6446 39.2792 33.5180 0.0000 0.0000 0.0000
# 2 39.2792 95.2775 48.9848 0.0000 0.0000 0.0000
# 3 33.5180 48.9848 105.5808 0.0000 0.0000 0.0000
# 4 0.0000 0.0000 0.0000 33.6184 0.0000 0.0000
# 5 0.0000 0.0000 0.0000 0.0000 23.2906 0.0000
# 6 0.0000 0.0000 0.0000 0.0000 0.0000 26.4329
#
#
#
# Elastic Compliance Matrix: (Units=1/GPa)
#
#
# Indices 1 2 3 4 5 6 
#
# 1 0.025482 -0.008334 -0.004223 0.000000 0.000000 0.000000
# 2 -0.008334 0.016509 -0.005014 0.000000 0.000000 0.000000
# 3 -0.004223 -0.005014 0.013138 0.000000 0.000000 0.000000
# 4 0.000000 0.000000 0.000000 0.029746 0.000000 0.000000
# 5 0.000000 0.000000 0.000000 0.000000 0.042936 0.000000
# 6 0.000000 0.000000 0.000000 0.000000 0.000000 0.037832
#
#
# Mechanical properties :
#
#
# Convention : Reuss Voigt Hill
#
# Bulk Modulus (GPa) = 50.03051 55.78521 52.90786
# Shear Modulus (GPa) = 24.10260 25.78312 24.94286
#
# Velocity S-wave (km/s) = 3.86198 3.99435 3.92873
# Velocity P-wave (km/s) = 7.13063 7.46951 7.30204
#
# Compressibility (1/GPa) = 0.01998780
#
# Stress axis : x y z
#
# Youngs Moduli (GPa) = 39.24341 60.57233 76.11385
#
# Poissons Ratio (x) = 0.50481 0.32142
# Poissons Ratio (y) = 0.32706 0.38162
# Poissons Ratio (z) = 0.16572 0.30370
#
# Static dielectric constant tensor:
#      x y z
#    x 2.886190 0.000000 0.000000 
#    y 0.000000 3.290320 0.000000 
#    z 0.000000 0.000000 3.184100 
# 
# 
# High freq. dielectric constant tensor:
#      x y z
#    x 1.588470 0.000000 0.000000 
#    y 0.000000 1.643860 0.000000 
#    z 0.000000 0.000000 1.618420 
# 
# From -- ./inp_files/28024.got.cif
#   From: 2010.03.12/outbox.cif.g09.slc.cpg/sg59_15_cif.got.tgz:28024.got - 2010.04.16 16:29:54.
