data_PCOD8240302
_publ_section_title
;
Structure prediction by ZEFSAII (Michael W. Deem and Ramdas Pophale) SiO2 
 PCOD8240302
Probable space group: P M M N
;
_chemical_formula_sum "Si O2"
_cell_formula_units_Z 56
_cell_length_a 30.316175
_cell_length_b 9.290334
_cell_length_c 12.672799
_cell_angle_alpha 90.000000
_cell_angle_beta 90.000000
_cell_angle_gamma 90.000000
_cell_volume 3569.260779
_symmetry_space_group_name_H-M "P M M N"
_symmetry_group_IT_number 59
_space_group.IT_coordinate_system_code '2'
_symmetry_cell_setting 'orthorhombic'
loop_
_space_group_symop_operation_xyz
x,y,z
1/2-x,1/2-y,z
1/2+x,-y,-z
-x,1/2+y,-z
-x,-y,-z
1/2+x,1/2+y,-z
1/2-x,y,z
x,1/2-y,z
loop_
_atom_site_type_symbol
_atom_site_label
_atom_site_fract_x
_atom_site_fract_y
_atom_site_fract_z
Si Si1 0.454861 0.589025 0.617064
Si Si2 0.132983 0.579502 0.371925
Si Si3 0.130761 0.079996 0.588879
Si Si4 0.464575 0.908788 0.367311
Si Si5 0.197546 0.909608 0.965451
Si Si6 0.700783 0.078531 0.803906
Si Si7 0.199925 0.083140 0.766942
O O1 0.447717 0.750000 0.662460
O O2 0.412665 0.489922 0.641206
O O3 0.498154 0.519789 0.672450
O O4 0.462757 0.595726 0.493152
O O5 0.137381 0.750000 0.395899
O O6 0.142734 0.492053 0.477906
O O7 0.083994 0.544367 0.327358
O O8 0.167520 0.522705 0.285387
O O9 0.122859 0.250000 0.573886
O O10 0.171531 0.044812 0.664723
O O11 0.476638 0.750000 0.324204
O O12 0.250000 0.903668 0.962272
O O13 0.177689 0.750000 0.950508
O O14 0.179430 0.006359 0.870031
O O15 0.184072 0.974041 0.080394
O O16 0.750000 0.019251 0.778958
O O17 0.701900 0.250000 0.805843
O O18 0.250000 0.032126 0.744119
O O19 0.198164 0.250000 0.793061
#
# Coordination Sequence:
#
# PCOD8240302 Si02
#       7
#     8   8   8   8   8   8   8
#     4   9  16  26  41  59  79 105 138 174 209 246
#     4   9  17  28  42  62  88 116 143 169 201 247
#     4  10  19  29  41  59  86 116 142 170 206 247
#     4   8  14  24  38  57  81 108 137 168 203 244
#     4   8  14  26  45  65  81 102 138 180 213 241
#     4   8  14  26  44  65  88 112 139 173 210 244
#     4   9  18  31  44  59  83 114 143 172 208 247
#
# _framework density 15.689522999999999
#
# number of rings (size 3 to 8) (size 9 to 14) (size 15 to 20)
#    0.000    3.286    0.000    2.571    0.000    5.143 
#    0.000    0.714    0.000    0.857    0.000    1.000 
#    0.000    0.000    0.000    0.000    0.000    0.000 
#
# Total GULP energy -694019.905967 kJ/mol
# GULP energy per Si atom -12393.212607 kJ/mol
# Density = 1.565381 g / cm^3
# Si number density = 15.689523 Si / 1000 Ang^3
#
#
#
# Elastic Constant Matrix: (Units=GPa)
#
#
# Indices 1 2 3 4 5 6 
#
# 1 94.6424 48.8955 54.3685 0.0000 0.0000 0.0000
# 2 48.8955 72.6404 46.6543 0.0000 0.0000 0.0000
# 3 54.3685 46.6543 80.5758 0.0000 0.0000 0.0000
# 4 0.0000 0.0000 0.0000 15.4038 0.0000 0.0000
# 5 0.0000 0.0000 0.0000 0.0000 1.9109 0.0000
# 6 0.0000 0.0000 0.0000 0.0000 0.0000 20.5191
#
#
#
# Elastic Compliance Matrix: (Units=1/GPa)
#
#
# Indices 1 2 3 4 5 6 
#
# 1 0.019489 -0.007439 -0.008843 0.000000 0.000000 0.000000
# 2 -0.007439 0.024756 -0.009315 0.000000 0.000000 0.000000
# 3 -0.008843 -0.009315 0.023771 0.000000 0.000000 0.000000
# 4 0.000000 0.000000 0.000000 0.064919 0.000000 0.000000
# 5 0.000000 0.000000 0.000000 0.000000 0.523314 0.000000
# 6 0.000000 0.000000 0.000000 0.000000 0.000000 0.048735
#
#
# Mechanical properties :
#
#
# Convention : Reuss Voigt Hill
#
# Bulk Modulus (GPa) = 59.44309 60.85500 60.14905
# Shear Modulus (GPa) = 6.56352 14.09611 10.32982
#
# Velocity S-wave (km/s) = 2.04755 3.00065 2.56869
# Velocity P-wave (km/s) = 6.59995 7.13277 6.87153
#
# Compressibility (1/GPa) = 0.01682281
#
# Stress axis : x y z
#
# Youngs Moduli (GPa) = 51.30992 40.39389 42.06817
#
# Poissons Ratio (x) = 0.30049 0.37202
# Poissons Ratio (y) = 0.38169 0.39185
# Poissons Ratio (z) = 0.45374 0.37626
#
# Static dielectric constant tensor:
#      x y z
#    x 3.147800 0.000000 0.000000 
#    y 0.000000 3.050180 0.000000 
#    z 0.000000 0.000000 2.857260 
# 
# 
# High freq. dielectric constant tensor:
#      x y z
#    x 1.593830 0.000000 0.000000 
#    y 0.000000 1.595430 0.000000 
#    z 0.000000 0.000000 1.566270 
# 
# From -- ./inp_files/24987.got.cif
#   From: 2010.03.12/outbox.cif.g09.slc.cpg/sg59_13_cif.got.tgz:24987.got - 2010.04.16 16:29:54.
