data_PCOD8240287
_publ_section_title
;
Structure prediction by ZEFSAII (Michael W. Deem and Ramdas Pophale) SiO2 
 PCOD8240287
Probable space group: P M M N
;
_chemical_formula_sum "Si O2"
_cell_formula_units_Z 64
_cell_length_a 8.991631
_cell_length_b 26.958653
_cell_length_c 17.087498
_cell_angle_alpha 90.000000
_cell_angle_beta 90.000000
_cell_angle_gamma 90.000000
_cell_volume 4142.048134
_symmetry_space_group_name_H-M "P M M N"
_symmetry_group_IT_number 59
_space_group.IT_coordinate_system_code '2'
_symmetry_cell_setting 'orthorhombic'
loop_
_space_group_symop_operation_xyz
x,y,z
1/2-x,1/2-y,z
1/2+x,-y,-z
-x,1/2+y,-z
-x,-y,-z
1/2+x,1/2+y,-z
1/2-x,y,z
x,1/2-y,z
loop_
_atom_site_type_symbol
_atom_site_label
_atom_site_fract_x
_atom_site_fract_y
_atom_site_fract_z
Si Si1 0.426142 0.612009 0.471095
Si Si2 0.073270 0.436228 0.664031
Si Si3 0.423104 0.449671 0.975942
Si Si4 0.920359 0.925940 0.855428
Si Si5 0.425532 0.541045 0.604495
Si Si6 0.925529 0.122452 0.277486
Si Si7 0.073362 0.960993 0.175800
Si Si8 0.073256 0.694814 0.591341
O O1 0.250000 0.612056 0.456069
O O2 0.512249 0.609514 0.388187
O O3 0.478589 0.564135 0.522118
O O4 0.477404 0.661546 0.517322
O O5 0.250000 0.433095 0.673755
O O6 0.018433 0.485421 0.617847
O O7 0.997195 0.435472 0.748326
O O8 0.250000 0.458511 0.957242
O O9 0.506944 0.430025 0.898276
O O10 0.500000 0.500000 0.000000
O O11 0.442112 0.414187 0.051936
O O12 0.750000 0.922482 0.831325
O O13 0.005902 0.882400 0.809014
O O14 0.977314 0.981445 0.832486
O O15 0.250000 0.544129 0.606745
O O16 0.485454 0.574632 0.675407
O O17 0.750000 0.123238 0.268619
O O18 0.979761 0.170945 0.325943
O O19 0.250000 0.955315 0.177229
O O20 0.250000 0.696461 0.591471
O O21 0.005011 0.750000 0.583498
#
# Coordination Sequence:
#
# PCOD8240287 Si02
#       8
#     8   8   8   8   8   8   8   8
#     4   9  17  29  43  59  81 107 141 178 212 255
#     4  11  19  27  40  58  84 113 143 177 213 252
#     4   9  17  28  40  56  80 112 147 179 209 243
#     4   9  17  27  39  58  84 110 140 175 209 245
#     4   8  15  26  38  55  79 109 140 172 208 244
#     4   9  15  25  43  63  82 108 144 177 208 251
#     4  10  19  29  40  57  81 114 150 180 212 246
#     4   8  15  29  48  66  84 108 139 178 220 256
#
# _framework density 15.451294000000001
#
# number of rings (size 3 to 8) (size 9 to 14) (size 15 to 20)
#    0.000    2.875    1.250    3.750    0.000    2.500 
#    0.000    3.125    0.000    1.500    0.000    0.000 
#    0.000    1.000    0.000    9.750    0.000    2.750 
#
# Total GULP energy -792986.643342 kJ/mol
# GULP energy per Si atom -12390.416302 kJ/mol
# Density = 1.541613 g / cm^3
# Si number density = 15.451294 Si / 1000 Ang^3
#
#
#
# Elastic Constant Matrix: (Units=GPa)
#
#
# Indices 1 2 3 4 5 6 
#
# 1 55.8116 22.8731 49.0914 0.0000 0.0000 0.0000
# 2 22.8731 61.4583 47.6114 0.0000 0.0000 0.0000
# 3 49.0914 47.6114 138.0724 0.0000 0.0000 0.0000
# 4 0.0000 0.0000 0.0000 14.1807 0.0000 0.0000
# 5 0.0000 0.0000 0.0000 0.0000 29.0634 0.0000
# 6 0.0000 0.0000 0.0000 0.0000 0.0000 10.0846
#
#
#
# Elastic Compliance Matrix: (Units=1/GPa)
#
#
# Indices 1 2 3 4 5 6 
#
# 1 0.026615 -0.003513 -0.008252 0.000000 0.000000 0.000000
# 2 -0.003513 0.022666 -0.006567 0.000000 0.000000 0.000000
# 3 -0.008252 -0.006567 0.012441 0.000000 0.000000 0.000000
# 4 0.000000 0.000000 0.000000 0.070519 0.000000 0.000000
# 5 0.000000 0.000000 0.000000 0.000000 0.034408 0.000000
# 6 0.000000 0.000000 0.000000 0.000000 0.000000 0.099161
#
#
# Mechanical properties :
#
#
# Convention : Reuss Voigt Hill
#
# Bulk Modulus (GPa) = 39.90563 54.94379 47.42471
# Shear Modulus (GPa) = 16.08621 19.71682 17.90152
#
# Velocity S-wave (km/s) = 3.23010 3.57608 3.40748
# Velocity P-wave (km/s) = 6.30826 7.25863 6.80007
#
# Compressibility (1/GPa) = 0.02505912
#
# Stress axis : x y z
#
# Youngs Moduli (GPa) = 37.57256 44.11903 80.38031
#
# Poissons Ratio (x) = 0.15499 0.66327
# Poissons Ratio (y) = 0.13199 0.52785
# Poissons Ratio (z) = 0.31003 0.28972
#
# Static dielectric constant tensor:
#      x y z
#    x 2.766670 0.000000 0.000000 
#    y 0.000000 2.808760 0.000000 
#    z 0.000000 0.000000 3.233120 
# 
# 
# High freq. dielectric constant tensor:
#      x y z
#    x 1.581180 0.000000 0.000000 
#    y 0.000000 1.531910 0.000000 
#    z 0.000000 0.000000 1.602460 
# 
# From -- ./inp_files/26611.got.cif
#   From: 2010.03.12/outbox.cif.g09.slc.cpg/sg59_14_cif.got.tgz:26611.got - 2010.04.16 16:29:54.
