data_PCOD8240027
_publ_section_title
;
Structure prediction by ZEFSAII (Michael W. Deem and Ramdas Pophale) SiO2 
 PCOD8240027
Probable space group: P M M N
;
_chemical_formula_sum "Si O2"
_cell_formula_units_Z 40
_cell_length_a 9.258710
_cell_length_b 16.468417
_cell_length_c 13.971961
_cell_angle_alpha 90.000000
_cell_angle_beta 90.000000
_cell_angle_gamma 90.000000
_cell_volume 2130.392877
_symmetry_space_group_name_H-M "P M M N"
_symmetry_group_IT_number 59
_space_group.IT_coordinate_system_code '2'
_symmetry_cell_setting 'orthorhombic'
loop_
_space_group_symop_operation_xyz
x,y,z
1/2-x,1/2-y,z
1/2+x,-y,-z
-x,1/2+y,-z
-x,-y,-z
1/2+x,1/2+y,-z
1/2-x,y,z
x,1/2-y,z
loop_
_atom_site_type_symbol
_atom_site_label
_atom_site_fract_x
_atom_site_fract_y
_atom_site_fract_z
Si Si1 0.578426 0.750000 0.031462
Si Si2 0.920319 0.575997 0.949565
Si Si3 0.917223 0.947325 0.729362
Si Si4 0.579893 0.661014 0.556777
Si Si5 0.079149 0.095050 0.639618
Si Si6 0.078868 0.250000 0.754189
O O1 0.750000 0.750000 0.026538
O O2 0.515988 0.750000 0.138738
O O3 0.523541 0.834837 0.983891
O O4 0.750000 0.566277 0.969992
O O5 0.956929 0.574312 0.837482
O O6 0.000000 0.500000 0.000000
O O7 0.750000 0.970227 0.718568
O O8 0.959147 0.872086 0.661440
O O9 0.011194 0.020554 0.693176
O O10 0.750000 0.669354 0.543457
O O11 0.508665 0.750000 0.547354
O O12 0.523901 0.603083 0.470485
O O13 0.250000 0.085556 0.644892
O O14 0.022390 0.172506 0.697454
O O15 0.250000 0.250000 0.759171
#
# Coordination Sequence:
#
# PCOD8240027 Si02
#       6
#     4   8   8   8   8   4
#     4   9  18  32  52  76 102 135 179 225 264 311
#     4  10  21  37  56  80 108 141 182 226 272 319
#     4  10  21  33  51  78 108 137 169 214 268 313
#     4   9  17  31  52  78 106 135 172 215 254 303
#     4  10  18  32  54  77 102 137 176 212 253 308
#     4   9  16  28  50  76  96 125 175 221 252 291
#
# _framework density 18.775879
#
# number of rings (size 3 to 8) (size 9 to 14) (size 15 to 20)
#    0.000    2.400    1.000    1.800    1.400    2.400 
#    0.000    1.000    0.000    5.400    0.000    0.000 
#    0.000    0.000    0.000    0.000    0.000    0.000 
#
# Total GULP energy -495757.480340 kJ/mol
# GULP energy per Si atom -12393.937008 kJ/mol
# Density = 1.873314 g / cm^3
# Si number density = 18.775879 Si / 1000 Ang^3
#
#
#
# Elastic Constant Matrix: (Units=GPa)
#
#
# Indices 1 2 3 4 5 6 
#
# 1 23.1801 32.6353 31.7750 0.0000 0.0000 0.0000
# 2 32.6353 138.5628 70.6688 0.0000 0.0000 0.0000
# 3 31.7750 70.6688 174.6137 0.0000 0.0000 0.0000
# 4 0.0000 0.0000 0.0000 34.0171 0.0000 0.0000
# 5 0.0000 0.0000 0.0000 0.0000 21.3770 0.0000
# 6 0.0000 0.0000 0.0000 0.0000 0.0000 26.1392
#
#
#
# Elastic Compliance Matrix: (Units=1/GPa)
#
#
# Indices 1 2 3 4 5 6 
#
# 1 0.072247 -0.012993 -0.007889 0.000000 0.000000 0.000000
# 2 -0.012993 0.011431 -0.002262 0.000000 0.000000 0.000000
# 3 -0.007889 -0.002262 0.008078 0.000000 0.000000 0.000000
# 4 0.000000 0.000000 0.000000 0.029397 0.000000 0.000000
# 5 0.000000 0.000000 0.000000 0.000000 0.046779 0.000000
# 6 0.000000 0.000000 0.000000 0.000000 0.000000 0.038257
#
#
# Mechanical properties :
#
#
# Convention : Reuss Voigt Hill
#
# Bulk Modulus (GPa) = 21.99312 67.39053 44.69182
# Shear Modulus (GPa) = 18.68247 29.72515 24.20381
#
# Velocity S-wave (km/s) = 3.15782 3.98321 3.59429
# Velocity P-wave (km/s) = 5.00347 7.55808 6.40934
#
# Compressibility (1/GPa) = 0.04546877
#
# Stress axis : x y z
#
# Youngs Moduli (GPa) = 13.84148 87.48420 123.79551
#
# Poissons Ratio (x) = 1.13666 0.97657
# Poissons Ratio (y) = 0.17984 0.28000
# Poissons Ratio (z) = 0.10919 0.19787
#
# Static dielectric constant tensor:
#      x y z
#    x 2.987600 0.000000 0.000000 
#    y 0.000000 3.354010 0.000000 
#    z 0.000000 0.000000 3.859000 
# 
# 
# High freq. dielectric constant tensor:
#      x y z
#    x 1.674250 0.000000 0.000000 
#    y 0.000000 1.742370 0.000000 
#    z 0.000000 0.000000 1.751580 
# 
# From -- ./inp_files/19944.got.cif
#   From: 2010.03.12/outbox.cif.g09.slc.cpg/sg59_10_cif.got.tgz:19944.got - 2010.04.16 16:29:54.
