data_PCOD8240300
_publ_section_title
;
Structure prediction by ZEFSAII (Michael W. Deem and Ramdas Pophale) SiO2 
 PCOD8240300
Probable space group: P M M N
;
_chemical_formula_sum "Si O2"
_cell_formula_units_Z 56
_cell_length_a 13.611949
_cell_length_b 9.200617
_cell_length_c 29.237235
_cell_angle_alpha 90.000000
_cell_angle_beta 90.000000
_cell_angle_gamma 90.000000
_cell_volume 3661.622467
_symmetry_space_group_name_H-M "P M M N"
_symmetry_group_IT_number 59
_space_group.IT_coordinate_system_code '2'
_symmetry_cell_setting 'orthorhombic'
loop_
_space_group_symop_operation_xyz
x,y,z
1/2-x,1/2-y,z
1/2+x,-y,-z
-x,1/2+y,-z
-x,-y,-z
1/2+x,1/2+y,-z
1/2-x,y,z
x,1/2-y,z
loop_
_atom_site_type_symbol
_atom_site_label
_atom_site_fract_x
_atom_site_fract_y
_atom_site_fract_z
Si Si1 0.133308 0.911849 0.758486
Si Si2 0.860326 0.915817 0.986084
Si Si3 0.859631 0.077129 0.340964
Si Si4 0.635366 0.920005 0.152936
Si Si5 0.640429 0.582047 0.513849
Si Si6 0.046979 0.920990 0.567269
Si Si7 0.449851 0.919202 0.931809
O O1 0.250000 0.903507 0.756579
O O2 0.091079 0.750000 0.768434
O O3 0.097768 0.971938 0.708732
O O4 0.098513 0.020937 0.798076
O O5 0.750000 0.942669 0.967599
O O6 0.873561 0.750000 0.003374
O O7 0.936459 0.948102 0.945185
O O8 0.878997 0.020998 0.028678
O O9 0.750000 0.013959 0.349265
O O10 0.854345 0.250000 0.340532
O O11 0.930690 0.020770 0.381554
O O12 0.750000 0.955864 0.144745
O O13 0.614804 0.750000 0.151061
O O14 0.570342 0.997855 0.114913
O O15 0.750000 0.550494 0.532143
O O16 0.625577 0.750000 0.501165
O O17 0.564502 0.535796 0.553815
O O18 0.622828 0.492047 0.467918
O O19 0.064618 0.750000 0.564732
O O20 0.426917 0.750000 0.925026
#
# Coordination Sequence:
#
# PCOD8240300 Si02
#       7
#     8   8   8   8   8   8   8
#     4   8  14  25  40  57  77 100 128 164 203 241
#     4   9  18  32  46  61  85 113 138 168 204 237
#     4   8  13  22  38  59  78  96 125 166 203 234
#     4  10  19  29  41  59  85 113 137 164 200 240
#     4   9  17  27  37  54  82 109 132 164 202 234
#     4   9  16  26  41  58  76 104 139 166 193 236
#     4  10  19  29  44  65  85 109 141 170 198 236
#
# _framework density 15.293767000000001
#
# number of rings (size 3 to 8) (size 9 to 14) (size 15 to 20)
#    0.000    3.000    0.000    2.571    0.000    4.286 
#    0.000    0.714    0.000    2.571    0.000    1.000 
#    0.000    5.714    0.000    0.000    0.000    0.000 
#
# Total GULP energy -694139.132295 kJ/mol
# GULP energy per Si atom -12395.341648 kJ/mol
# Density = 1.525896 g / cm^3
# Si number density = 15.293767 Si / 1000 Ang^3
#
#
#
# Elastic Constant Matrix: (Units=GPa)
#
#
# Indices 1 2 3 4 5 6 
#
# 1 81.8313 30.7445 54.4860 0.0000 0.0000 0.0000
# 2 30.7445 57.1918 51.7704 0.0000 0.0000 0.0000
# 3 54.4860 51.7704 144.7033 0.0000 0.0000 0.0000
# 4 0.0000 0.0000 0.0000 22.7417 0.0000 0.0000
# 5 0.0000 0.0000 0.0000 0.0000 20.7369 0.0000
# 6 0.0000 0.0000 0.0000 0.0000 0.0000 16.0197
#
#
#
# Elastic Compliance Matrix: (Units=1/GPa)
#
#
# Indices 1 2 3 4 5 6 
#
# 1 0.017229 -0.005013 -0.004694 0.000000 0.000000 0.000000
# 2 -0.005013 0.027318 -0.007886 0.000000 0.000000 0.000000
# 3 -0.004694 -0.007886 0.011500 0.000000 0.000000 0.000000
# 4 0.000000 0.000000 0.000000 0.043972 0.000000 0.000000
# 5 0.000000 0.000000 0.000000 0.000000 0.048223 0.000000
# 6 0.000000 0.000000 0.000000 0.000000 0.000000 0.062423
#
#
# Mechanical properties :
#
#
# Convention : Reuss Voigt Hill
#
# Bulk Modulus (GPa) = 47.93601 61.96977 54.95289
# Shear Modulus (GPa) = 19.77811 21.68135 20.72973
#
# Velocity S-wave (km/s) = 3.60003 3.76927 3.68562
# Velocity P-wave (km/s) = 6.97795 7.71691 7.35672
#
# Compressibility (1/GPa) = 0.02086114
#
# Stress axis : x y z
#
# Youngs Moduli (GPa) = 58.04184 36.60545 86.96006
#
# Poissons Ratio (x) = 0.18350 0.40818
# Poissons Ratio (y) = 0.29095 0.68578
# Poissons Ratio (z) = 0.27244 0.28868
#
# Static dielectric constant tensor:
#      x y z
#    x 2.847380 0.000000 0.000000 
#    y 0.000000 2.922350 0.000000 
#    z 0.000000 0.000000 3.173370 
# 
# 
# High freq. dielectric constant tensor:
#      x y z
#    x 1.556520 0.000000 0.000000 
#    y 0.000000 1.579630 0.000000 
#    z 0.000000 0.000000 1.583080 
# 
# From -- ./inp_files/33303.got.cif
#   From: 2010.03.12/outbox.cif.g09.slc.cpg/sg59_17_cif.got.tgz:33303.got - 2010.04.16 16:29:54.
