data_PCOD8240896
_publ_section_title
;
Structure prediction by ZEFSAII (Michael W. Deem and Ramdas Pophale) SiO2 
 PCOD8240896
Probable space group: P M M N
;
_chemical_formula_sum "Si O2"
_cell_formula_units_Z 40
_cell_length_a 8.869348
_cell_length_b 26.786122
_cell_length_c 10.178762
_cell_angle_alpha 90.000000
_cell_angle_beta 90.000000
_cell_angle_gamma 90.000000
_cell_volume 2418.223836
_symmetry_space_group_name_H-M "P M M N"
_symmetry_group_IT_number 59
_space_group.IT_coordinate_system_code '2'
_symmetry_cell_setting 'orthorhombic'
loop_
_space_group_symop_operation_xyz
x,y,z
1/2-x,1/2-y,z
1/2+x,-y,-z
-x,1/2+y,-z
-x,-y,-z
1/2+x,1/2+y,-z
1/2-x,y,z
x,1/2-y,z
loop_
_atom_site_type_symbol
_atom_site_label
_atom_site_fract_x
_atom_site_fract_y
_atom_site_fract_z
Si Si1 0.924318 0.933043 0.597148
Si Si2 0.424239 0.953175 0.333531
Si Si3 0.572317 0.900208 0.093538
Si Si4 0.079042 0.612436 0.835815
Si Si5 0.078493 0.694113 0.027362
O O1 0.750000 0.922442 0.568824
O O2 0.014992 0.925195 0.462613
O O3 0.986013 0.893532 0.702356
O O4 0.951348 0.988010 0.654172
O O5 0.250000 0.939504 0.314578
O O6 0.518170 0.935851 0.208758
O O7 0.750000 0.903186 0.080612
O O8 0.497591 0.918856 0.955910
O O9 0.520140 0.842515 0.121107
O O10 0.250000 0.593349 0.815471
O O11 0.075060 0.671053 0.878877
O O12 0.250000 0.694514 0.079997
O O13 0.010582 0.750000 0.026510
#
# Coordination Sequence:
#
# PCOD8240896 Si02
#       5
#     8   8   8   8   8
#     4  10  20  33  50  72  98 130 166 204 243 285
#     4  10  20  34  50  69  98 135 167 197 242 294
#     4  10  19  31  49  75 100 126 163 206 243 280
#     4   9  18  32  50  73  98 129 163 199 243 290
#     4   8  16  32  52  73  97 126 160 197 243 295
#
# _framework density 16.541066000000001
#
# number of rings (size 3 to 8) (size 9 to 14) (size 15 to 20)
#    1.200    1.400    0.000    3.000    0.000    3.600 
#    0.000    0.000    0.000    1.200    0.000    2.800 
#    0.000    0.000    0.000    0.000    0.000    0.000 
#
# Total GULP energy -495691.207668 kJ/mol
# GULP energy per Si atom -12392.280192 kJ/mol
# Density = 1.650342 g / cm^3
# Si number density = 16.541066 Si / 1000 Ang^3
#
#
#
# Elastic Constant Matrix: (Units=GPa)
#
#
# Indices 1 2 3 4 5 6 
#
# 1 88.5402 16.7089 12.6917 0.0000 0.0000 0.0000
# 2 16.7089 18.1342 -4.9380 0.0000 0.0000 0.0000
# 3 12.6917 -4.9380 45.1582 0.0000 0.0000 0.0000
# 4 0.0000 0.0000 0.0000 9.6217 0.0000 0.0000
# 5 0.0000 0.0000 0.0000 0.0000 30.9664 0.0000
# 6 0.0000 0.0000 0.0000 0.0000 0.0000 17.5827
#
#
#
# Elastic Compliance Matrix: (Units=1/GPa)
#
#
# Indices 1 2 3 4 5 6 
#
# 1 0.015069 -0.015500 -0.005930 0.000000 0.000000 0.000000
# 2 -0.015500 0.072779 0.012314 0.000000 0.000000 0.000000
# 3 -0.005930 0.012314 0.025158 0.000000 0.000000 0.000000
# 4 0.000000 0.000000 0.000000 0.103931 0.000000 0.000000
# 5 0.000000 0.000000 0.000000 0.000000 0.032293 0.000000
# 6 0.000000 0.000000 0.000000 0.000000 0.000000 0.056874
#
#
# Mechanical properties :
#
#
# Convention : Reuss Voigt Hill
#
# Bulk Modulus (GPa) = 10.55125 22.30642 16.42884
# Shear Modulus (GPa) = 14.04781 20.12549 17.08665
#
# Velocity S-wave (km/s) = 2.91738 3.49190 3.21749
# Velocity P-wave (km/s) = 4.21199 5.45643 4.87409
#
# Compressibility (1/GPa) = 0.09477550
#
# Stress axis : x y z
#
# Youngs Moduli (GPa) = 66.35972 13.74017 39.74943
#
# Poissons Ratio (x) = 0.21297 0.23572
# Poissons Ratio (y) = 1.02856 -0.48949
# Poissons Ratio (z) = 0.39352 -0.16920
#
# Static dielectric constant tensor:
#      x y z
#    x 3.188610 0.000000 0.000000 
#    y 0.000000 2.902210 0.000000 
#    z 0.000000 0.000000 2.944320 
# 
# 
# High freq. dielectric constant tensor:
#      x y z
#    x 1.652420 0.000000 0.000000 
#    y 0.000000 1.605820 0.000000 
#    z 0.000000 0.000000 1.622450 
# 
# From -- ./inp_files/6024.got.cif
#   From: 2010.03.12/outbox.cif.g09.slc.cpg/sg59_4_cif.got.tgz:6024.got - 2010.04.16 16:29:54.
