data_PCOD8240751
_publ_section_title
;
Structure prediction by ZEFSAII (Michael W. Deem and Ramdas Pophale) SiO2 
 PCOD8240751
Probable space group: P M M N
;
_chemical_formula_sum "Si O2"
_cell_formula_units_Z 48
_cell_length_a 18.694480
_cell_length_b 8.670609
_cell_length_c 16.481282
_cell_angle_alpha 90.000000
_cell_angle_beta 90.000000
_cell_angle_gamma 90.000000
_cell_volume 2671.492640
_symmetry_space_group_name_H-M "P M M N"
_symmetry_group_IT_number 59
_space_group.IT_coordinate_system_code '2'
_symmetry_cell_setting 'orthorhombic'
loop_
_space_group_symop_operation_xyz
x,y,z
1/2-x,1/2-y,z
1/2+x,-y,-z
-x,1/2+y,-z
-x,-y,-z
1/2+x,1/2+y,-z
1/2-x,y,z
x,1/2-y,z
loop_
_atom_site_type_symbol
_atom_site_label
_atom_site_fract_x
_atom_site_fract_y
_atom_site_fract_z
Si Si1 0.539473 0.568599 0.762787
Si Si2 0.328747 0.069263 0.836703
Si Si3 0.590143 0.568720 0.323710
Si Si4 0.528330 0.932320 0.082976
Si Si5 0.329567 0.066683 0.340446
Si Si6 0.670371 0.566816 0.480003
O O1 0.539990 0.750000 0.779864
O O2 0.480162 0.528394 0.696065
O O3 0.526309 0.480246 0.846526
O O4 0.615148 0.508273 0.727387
O O5 0.250000 0.995501 0.855192
O O6 0.323749 0.250000 0.851236
O O7 0.349208 0.034565 0.743606
O O8 0.391548 0.003728 0.895873
O O9 0.571236 0.750000 0.324285
O O10 0.617239 0.505363 0.410450
O O11 0.529749 0.750000 0.077066
O O12 0.500000 0.000000 0.000000
O O13 0.250000 0.003844 0.319746
O O14 0.328445 0.250000 0.341558
O O15 0.353803 0.009888 0.430445
O O16 0.750000 0.503987 0.462403
O O17 0.671315 0.750000 0.475436
#
# Coordination Sequence:
#
# PCOD8240751 Si02
#       6
#     8   8   8   8   8   8
#     4  10  19  31  48  69  94 124 156 192 236 283
#     4   8  14  26  46  71  94 117 150 188 222 263
#     4   9  16  26  44  70  97 124 155 194 238 280
#     4  10  20  35  55  75  96 121 149 187 234 284
#     4   8  15  28  45  66  92 124 166 209 237 261
#     4   8  13  23  42  67  93 124 165 207 237 263
#
# _framework density 17.967483999999999
#
# number of rings (size 3 to 8) (size 9 to 14) (size 15 to 20)
#    0.000    3.167    0.000    3.500    0.000    2.667 
#    0.000    0.833    0.000   25.000    0.000    4.667 
#    0.000    0.000    0.000    0.000    0.000    0.000 
#
# Total GULP energy -594805.940124 kJ/mol
# GULP energy per Si atom -12391.790419 kJ/mol
# Density = 1.792659 g / cm^3
# Si number density = 17.967484 Si / 1000 Ang^3
#
#
#
# Elastic Constant Matrix: (Units=GPa)
#
#
# Indices 1 2 3 4 5 6 
#
# 1 133.0982 18.2612 91.1045 0.0000 0.0000 0.0000
# 2 18.2612 27.6795 20.0402 0.0000 0.0000 0.0000
# 3 91.1045 20.0402 135.2190 0.0000 0.0000 0.0000
# 4 0.0000 0.0000 0.0000 21.0693 0.0000 0.0000
# 5 0.0000 0.0000 0.0000 0.0000 27.3897 0.0000
# 6 0.0000 0.0000 0.0000 0.0000 0.0000 20.0492
#
#
#
# Elastic Compliance Matrix: (Units=1/GPa)
#
#
# Indices 1 2 3 4 5 6 
#
# 1 0.014124 -0.002720 -0.009113 0.000000 0.000000 0.000000
# 2 -0.002720 0.040994 -0.004243 0.000000 0.000000 0.000000
# 3 -0.009113 -0.004243 0.014164 0.000000 0.000000 0.000000
# 4 0.000000 0.000000 0.000000 0.047462 0.000000 0.000000
# 5 0.000000 0.000000 0.000000 0.000000 0.036510 0.000000
# 6 0.000000 0.000000 0.000000 0.000000 0.000000 0.049877
#
#
# Mechanical properties :
#
#
# Convention : Reuss Voigt Hill
#
# Bulk Modulus (GPa) = 26.93212 61.64539 44.28875
# Shear Modulus (GPa) = 20.18879 24.80769 22.49824
#
# Velocity S-wave (km/s) = 3.35569 3.71981 3.54243
# Velocity P-wave (km/s) = 5.48053 7.26864 6.43698
#
# Compressibility (1/GPa) = 0.03713039
#
# Stress axis : x y z
#
# Youngs Moduli (GPa) = 70.79958 24.39363 70.60021
#
# Poissons Ratio (x) = 0.06636 0.64339
# Poissons Ratio (y) = 0.19260 0.29954
# Poissons Ratio (z) = 0.64521 0.10350
#
# Static dielectric constant tensor:
#      x y z
#    x 3.269690 0.000000 0.000000 
#    y 0.000000 2.878690 0.000000 
#    z 0.000000 0.000000 3.534970 
# 
# 
# High freq. dielectric constant tensor:
#      x y z
#    x 1.697860 0.000000 0.000000 
#    y 0.000000 1.650540 0.000000 
#    z 0.000000 0.000000 1.690490 
# 
# From -- ./inp_files/25756.got.cif
#   From: 2010.03.12/outbox.cif.g09.slc.cpg/sg59_13_cif.got.tgz:25756.got - 2010.04.16 16:29:54.
