data_PCOD8240122
_publ_section_title
;
Structure prediction by ZEFSAII (Michael W. Deem and Ramdas Pophale) SiO2 
 PCOD8240122
Probable space group: P M M N
;
_chemical_formula_sum "Si O2"
_cell_formula_units_Z 56
_cell_length_a 24.121489
_cell_length_b 8.952873
_cell_length_c 14.928950
_cell_angle_alpha 90.000000
_cell_angle_beta 90.000000
_cell_angle_gamma 90.000000
_cell_volume 3224.005695
_symmetry_space_group_name_H-M "P M M N"
_symmetry_group_IT_number 59
_space_group.IT_coordinate_system_code '2'
_symmetry_cell_setting 'orthorhombic'
loop_
_space_group_symop_operation_xyz
x,y,z
1/2-x,1/2-y,z
1/2+x,-y,-z
-x,1/2+y,-z
-x,-y,-z
1/2+x,1/2+y,-z
1/2-x,y,z
x,1/2-y,z
loop_
_atom_site_type_symbol
_atom_site_label
_atom_site_fract_x
_atom_site_fract_y
_atom_site_fract_z
Si Si1 0.574204 0.577067 0.546508
Si Si2 0.064338 0.073528 0.128638
Si Si3 0.443105 0.927974 0.824125
Si Si4 0.856907 0.576300 0.714555
Si Si5 0.864149 0.928315 0.039584
Si Si6 0.250000 0.928616 0.011720
Si Si7 0.542615 0.074174 0.378687
Si Si8 0.250000 0.925415 0.216261
O O1 0.567723 0.750000 0.524408
O O2 0.625454 0.546757 0.612376
O O3 0.518993 0.517579 0.596384
O O4 0.584817 0.492996 0.452468
O O5 0.062912 0.250000 0.126935
O O6 0.095168 0.019193 0.218428
O O7 0.000933 0.016208 0.130964
O O8 0.097681 0.012868 0.042604
O O9 0.435710 0.750000 0.834214
O O10 0.441988 0.979397 0.720703
O O11 0.392795 0.015299 0.869878
O O12 0.844440 0.750000 0.732290
O O13 0.802585 0.482293 0.730483
O O14 0.857845 0.750000 0.039299
O O15 0.804040 0.003637 0.035430
O O16 0.250000 0.750000 0.002478
O O17 0.250000 0.984129 0.114450
O O18 0.546168 0.250000 0.382749
O O19 0.250000 0.750000 0.216605
#
# Coordination Sequence:
#
# PCOD8240122 Si02
#       8
#     8   8   8   8   8   4   8   4
#     4   9  17  30  51  77 103 134 173 213 252 303
#     4   9  17  31  52  76 106 141 175 209 254 314
#     4  10  19  34  53  76 109 146 178 212 260 320
#     4  10  18  33  55  76 103 143 179 209 255 315
#     4  11  22  35  54  78 104 138 179 224 264 304
#     4  11  23  39  55  74 101 138 179 219 264 314
#     4   9  17  30  50  75 105 139 170 206 257 309
#     4  11  23  35  51  78 107 134 173 223 266 306
#
# _framework density 17.369696999999999
#
# number of rings (size 3 to 8) (size 9 to 14) (size 15 to 20)
#    0.000    2.143    2.857    1.286    0.000    1.714 
#    0.000    1.429    0.000    0.857    0.000    4.000 
#    0.000    0.000    0.000    0.000    0.000    0.000 
#
# Total GULP energy -694376.225198 kJ/mol
# GULP energy per Si atom -12399.575450 kJ/mol
# Density = 1.733016 g / cm^3
# Si number density = 17.369697 Si / 1000 Ang^3
#
#
#
# Elastic Constant Matrix: (Units=GPa)
#
#
# Indices 1 2 3 4 5 6 
#
# 1 115.9735 34.4182 59.7920 0.0000 0.0000 0.0000
# 2 34.4182 39.2535 36.0818 0.0000 0.0000 0.0000
# 3 59.7920 36.0818 124.3084 0.0000 0.0000 0.0000
# 4 0.0000 0.0000 0.0000 28.9567 0.0000 0.0000
# 5 0.0000 0.0000 0.0000 0.0000 29.6031 0.0000
# 6 0.0000 0.0000 0.0000 0.0000 0.0000 21.2102
#
#
#
# Elastic Compliance Matrix: (Units=1/GPa)
#
#
# Indices 1 2 3 4 5 6 
#
# 1 0.012971 -0.007690 -0.004007 0.000000 0.000000 0.000000
# 2 -0.007690 0.039305 -0.007710 0.000000 0.000000 0.000000
# 3 -0.004007 -0.007710 0.012210 0.000000 0.000000 0.000000
# 4 0.000000 0.000000 0.000000 0.034534 0.000000 0.000000
# 5 0.000000 0.000000 0.000000 0.000000 0.033780 0.000000
# 6 0.000000 0.000000 0.000000 0.000000 0.000000 0.047147
#
#
# Mechanical properties :
#
#
# Convention : Reuss Voigt Hill
#
# Bulk Modulus (GPa) = 38.95268 60.01329 49.48298
# Shear Modulus (GPa) = 21.99573 25.90358 23.94965
#
# Velocity S-wave (km/s) = 3.56241 3.86594 3.71727
# Velocity P-wave (km/s) = 6.27657 7.38599 6.85377
#
# Compressibility (1/GPa) = 0.02567218
#
# Stress axis : x y z
#
# Youngs Moduli (GPa) = 77.09763 25.44214 81.90271
#
# Poissons Ratio (x) = 0.19565 0.32816
# Poissons Ratio (y) = 0.59287 0.63146
# Poissons Ratio (z) = 0.30891 0.19616
#
# Static dielectric constant tensor:
#      x y z
#    x 3.103590 0.000000 0.000000 
#    y 0.000000 3.045910 0.000000 
#    z 0.000000 0.000000 3.357700 
# 
# 
# High freq. dielectric constant tensor:
#      x y z
#    x 1.655720 0.000000 0.000000 
#    y 0.000000 1.656360 0.000000 
#    z 0.000000 0.000000 1.672320 
# 
# From -- ./inp_files/24379.got.cif
#   From: 2010.03.12/outbox.cif.g09.slc.cpg/sg59_13_cif.got.tgz:24379.got - 2010.04.16 16:29:54.
