data_PCOD8240072
_publ_section_title
;
Structure prediction by ZEFSAII (Michael W. Deem and Ramdas Pophale) SiO2 
 PCOD8240072
Probable space group: P M M N
;
_chemical_formula_sum "Si O2"
_cell_formula_units_Z 56
_cell_length_a 15.593444
_cell_length_b 8.900416
_cell_length_c 21.046207
_cell_angle_alpha 90.000000
_cell_angle_beta 90.000000
_cell_angle_gamma 90.000000
_cell_volume 2920.963891
_symmetry_space_group_name_H-M "P M M N"
_symmetry_group_IT_number 59
_space_group.IT_coordinate_system_code '2'
_symmetry_cell_setting 'orthorhombic'
loop_
_space_group_symop_operation_xyz
x,y,z
1/2-x,1/2-y,z
1/2+x,-y,-z
-x,1/2+y,-z
-x,-y,-z
1/2+x,1/2+y,-z
1/2-x,y,z
x,1/2-y,z
loop_
_atom_site_type_symbol
_atom_site_label
_atom_site_fract_x
_atom_site_fract_y
_atom_site_fract_z
Si Si1 0.655595 0.571529 0.858882
Si Si2 0.485562 0.071438 0.652079
Si Si3 0.487729 0.927515 0.786484
Si Si4 0.909427 0.924145 0.992411
Si Si5 0.577114 0.424263 0.463514
Si Si6 0.346901 0.076962 0.870840
Si Si7 0.158402 0.575070 0.410715
O O1 0.750000 0.512329 0.836837
O O2 0.655598 0.750000 0.859267
O O3 0.580242 0.514379 0.812049
O O4 0.638199 0.510716 0.930135
O O5 0.481477 0.250000 0.651259
O O6 0.577849 0.005677 0.627691
O O7 0.466417 0.011433 0.721588
O O8 0.411899 0.007827 0.604359
O O9 0.487933 0.750000 0.775628
O O10 0.413169 0.968253 0.835820
O O11 0.927538 0.750000 0.982048
O O12 0.851105 0.954296 0.053868
O O13 0.000000 0.000000 0.000000
O O14 0.500000 0.500000 0.500000
O O15 0.558512 0.250000 0.450568
O O16 0.655650 0.447203 0.512473
O O17 0.250000 0.041436 0.848234
O O18 0.370826 0.250000 0.856003
O O19 0.250000 0.505248 0.387909
O O20 0.156712 0.750000 0.394913
#
# Coordination Sequence:
#
# PCOD8240072 Si02
#       7
#     8   8   8   8   8   8   8
#     4   9  18  33  53  78 109 144 180 219 271 334
#     4  10  20  34  53  74 103 143 180 218 263 318
#     4  11  22  36  55  79 108 145 186 230 275 325
#     4  10  18  32  56  82 108 139 176 222 276 331
#     4   9  16  29  51  76 102 133 168 209 256 309
#     4  10  21  37  58  81 106 140 182 228 279 334
#     4   8  15  29  51  79 106 132 166 210 261 313
#
# _framework density 19.171755000000001
#
# number of rings (size 3 to 8) (size 9 to 14) (size 15 to 20)
#    0.000    2.429    1.429    2.571    0.000    2.571 
#    0.000    0.714    0.000   21.857    0.000    0.000 
#    0.000    0.000    0.000    0.000    0.000    0.000 
#
# Total GULP energy -693951.818052 kJ/mol
# GULP energy per Si atom -12391.996751 kJ/mol
# Density = 1.912812 g / cm^3
# Si number density = 19.171755 Si / 1000 Ang^3
#
#
#
# Elastic Constant Matrix: (Units=GPa)
#
#
# Indices 1 2 3 4 5 6 
#
# 1 72.3842 13.6012 0.2349 0.0000 0.0000 0.0000
# 2 13.6012 56.3502 23.7166 0.0000 0.0000 0.0000
# 3 0.2349 23.7166 84.2167 0.0000 0.0000 0.0000
# 4 0.0000 0.0000 0.0000 25.8246 0.0000 0.0000
# 5 0.0000 0.0000 0.0000 0.0000 15.9200 0.0000
# 6 0.0000 0.0000 0.0000 0.0000 0.0000 21.2457
#
#
#
# Elastic Compliance Matrix: (Units=1/GPa)
#
#
# Indices 1 2 3 4 5 6 
#
# 1 0.014557 -0.003967 0.001076 0.000000 0.000000 0.000000
# 2 -0.003967 0.021213 -0.005963 0.000000 0.000000 0.000000
# 3 0.001076 -0.005963 0.013550 0.000000 0.000000 0.000000
# 4 0.000000 0.000000 0.000000 0.038723 0.000000 0.000000
# 5 0.000000 0.000000 0.000000 0.000000 0.062814 0.000000
# 6 0.000000 0.000000 0.000000 0.000000 0.000000 0.047068
#
#
# Mechanical properties :
#
#
# Convention : Reuss Voigt Hill
#
# Bulk Modulus (GPa) = 31.63111 32.00628 31.81869
# Shear Modulus (GPa) = 22.10723 24.29127 23.19925
#
# Velocity S-wave (km/s) = 3.39944 3.56340 3.48239
# Velocity P-wave (km/s) = 5.65180 5.80183 5.72731
#
# Compressibility (1/GPa) = 0.03161445
#
# Stress axis : x y z
#
# Youngs Moduli (GPa) = 68.69537 47.14036 73.79877
#
# Poissons Ratio (x) = 0.18699 -0.07944
# Poissons Ratio (y) = 0.27249 0.44005
# Poissons Ratio (z) = -0.07395 0.28109
#
# Static dielectric constant tensor:
#      x y z
#    x 3.745790 0.000000 0.000000 
#    y 0.000000 3.324000 0.000000 
#    z 0.000000 0.000000 3.887010 
# 
# 
# High freq. dielectric constant tensor:
#      x y z
#    x 1.738430 0.000000 0.000000 
#    y 0.000000 1.719750 0.000000 
#    z 0.000000 0.000000 1.746410 
# 
# From -- ./inp_files/30294.got.cif
#   From: 2010.03.12/outbox.cif.g09.slc.cpg/sg59_16_cif.got.tgz:30294.got - 2010.04.16 16:29:54.
