data_PCOD8240778
_publ_section_title
;
Structure prediction by ZEFSAII (Michael W. Deem and Ramdas Pophale) SiO2 
 PCOD8240778
Probable space group: P M M N
;
_chemical_formula_sum "Si O2"
_cell_formula_units_Z 64
_cell_length_a 21.646786
_cell_length_b 9.063900
_cell_length_c 19.036082
_cell_angle_alpha 90.000000
_cell_angle_beta 90.000000
_cell_angle_gamma 90.000000
_cell_volume 3734.961213
_symmetry_space_group_name_H-M "P M M N"
_symmetry_group_IT_number 59
_space_group.IT_coordinate_system_code '2'
_symmetry_cell_setting 'orthorhombic'
loop_
_space_group_symop_operation_xyz
x,y,z
1/2-x,1/2-y,z
1/2+x,-y,-z
-x,1/2+y,-z
-x,-y,-z
1/2+x,1/2+y,-z
1/2-x,y,z
x,1/2-y,z
loop_
_atom_site_type_symbol
_atom_site_label
_atom_site_fract_x
_atom_site_fract_y
_atom_site_fract_z
Si Si1 0.996045 0.579552 0.313767
Si Si2 0.321647 0.586334 0.205869
Si Si3 0.554387 0.579862 0.040227
Si Si4 0.385654 0.415554 0.098441
Si Si5 0.056477 0.421310 0.539375
Si Si6 0.619546 0.579422 0.669761
Si Si7 0.981703 0.078533 0.168544
Si Si8 0.818116 0.578119 0.526846
O O1 0.004788 0.750000 0.293194
O O2 0.059174 0.516115 0.345838
O O3 0.946594 0.560262 0.376428
O O4 0.974036 0.490915 0.245447
O O5 0.250000 0.589982 0.220038
O O6 0.349562 0.750000 0.217304
O O7 0.335496 0.531475 0.126850
O O8 0.352534 0.468182 0.256508
O O9 0.536870 0.750000 0.053565
O O10 0.566767 0.500223 0.114970
O O11 0.500000 0.500000 0.000000
O O12 0.611859 0.566797 0.986276
O O13 0.364881 0.250000 0.117063
O O14 0.450353 0.449988 0.137656
O O15 0.052747 0.250000 0.516852
O O16 0.123644 0.488478 0.516670
O O17 0.000000 0.500000 0.500000
O O18 0.600094 0.750000 0.674618
O O19 0.669551 0.550306 0.609248
O O20 0.965239 0.250000 0.173080
O O21 0.750000 0.507950 0.508671
O O22 0.814329 0.750000 0.510041
#
# Coordination Sequence:
#
# PCOD8240778 Si02
#       8
#     8   8   8   8   8   8   8   8
#     4  11  21  31  48  73 102 135 166 206 260 309
#     4  11  23  34  45  66  98 135 173 211 250 294
#     4   9  17  29  46  69  96 124 157 195 238 288
#     4   9  18  31  47  67  92 126 165 201 242 291
#     4  10  20  34  52  75 103 133 169 212 259 310
#     4  11  20  32  51  71  96 132 173 212 249 301
#     4  10  19  31  48  71  97 126 162 200 245 299
#     4   9  18  33  53  75  98 130 172 214 255 303
#
# _framework density 17.135386
#
# number of rings (size 3 to 8) (size 9 to 14) (size 15 to 20)
#    0.000    2.000    2.500    3.000    0.000    4.500 
#    0.000    0.000    0.000    1.125    0.000    0.875 
#    0.000    5.000    0.000    0.000    0.000    0.000 
#
# Total GULP energy -793224.421271 kJ/mol
# GULP energy per Si atom -12394.131582 kJ/mol
# Density = 1.709639 g / cm^3
# Si number density = 17.135386 Si / 1000 Ang^3
#
#
#
# Elastic Constant Matrix: (Units=GPa)
#
#
# Indices 1 2 3 4 5 6 
#
# 1 78.9770 28.4603 41.7332 0.0000 0.0000 0.0000
# 2 28.4603 93.0454 47.8478 0.0000 0.0000 0.0000
# 3 41.7332 47.8478 98.4075 0.0000 0.0000 0.0000
# 4 0.0000 0.0000 0.0000 24.7038 0.0000 0.0000
# 5 0.0000 0.0000 0.0000 0.0000 16.7022 0.0000
# 6 0.0000 0.0000 0.0000 0.0000 0.0000 17.9479
#
#
#
# Elastic Compliance Matrix: (Units=1/GPa)
#
#
# Indices 1 2 3 4 5 6 
#
# 1 0.016578 -0.001941 -0.006087 0.000000 0.000000 0.000000
# 2 -0.001941 0.014558 -0.006255 0.000000 0.000000 0.000000
# 3 -0.006087 -0.006255 0.015785 0.000000 0.000000 0.000000
# 4 0.000000 0.000000 0.000000 0.040480 0.000000 0.000000
# 5 0.000000 0.000000 0.000000 0.000000 0.059872 0.000000
# 6 0.000000 0.000000 0.000000 0.000000 0.000000 0.055717
#
#
# Mechanical properties :
#
#
# Convention : Reuss Voigt Hill
#
# Bulk Modulus (GPa) = 54.48222 56.27917 55.38069
# Shear Modulus (GPa) = 21.03736 22.03002 21.53369
#
# Velocity S-wave (km/s) = 3.50768 3.58948 3.54881
# Velocity P-wave (km/s) = 6.94761 7.07773 7.01297
#
# Compressibility (1/GPa) = 0.01835461
#
# Stress axis : x y z
#
# Youngs Moduli (GPa) = 60.32229 68.69185 63.35293
#
# Poissons Ratio (x) = 0.13330 0.38561
# Poissons Ratio (y) = 0.11706 0.39629
# Poissons Ratio (z) = 0.36717 0.42969
#
# Static dielectric constant tensor:
#      x y z
#    x 3.227570 0.000000 0.000000 
#    y 0.000000 3.316180 0.000000 
#    z 0.000000 0.000000 3.493130 
# 
# 
# High freq. dielectric constant tensor:
#      x y z
#    x 1.618930 0.000000 0.000000 
#    y 0.000000 1.664370 0.000000 
#    z 0.000000 0.000000 1.664950 
# 
# From -- ./inp_files/28451.got.cif
#   From: 2010.03.12/outbox.cif.g09.slc.cpg/sg59_15_cif.got.tgz:28451.got - 2010.04.16 16:29:54.
