data_PCOD8240793
_publ_section_title
;
Structure prediction by ZEFSAII (Michael W. Deem and Ramdas Pophale) SiO2 
 PCOD8240793
Probable space group: P M M N
;
_chemical_formula_sum "Si O2"
_cell_formula_units_Z 64
_cell_length_a 23.036958
_cell_length_b 12.533339
_cell_length_c 12.536800
_cell_angle_alpha 90.000000
_cell_angle_beta 90.000000
_cell_angle_gamma 90.000000
_cell_volume 3619.750316
_symmetry_space_group_name_H-M "P M M N"
_symmetry_group_IT_number 59
_space_group.IT_coordinate_system_code '2'
_symmetry_cell_setting 'orthorhombic'
loop_
_space_group_symop_operation_xyz
x,y,z
1/2-x,1/2-y,z
1/2+x,-y,-z
-x,1/2+y,-z
-x,-y,-z
1/2+x,1/2+y,-z
1/2-x,y,z
x,1/2-y,z
loop_
_atom_site_type_symbol
_atom_site_label
_atom_site_fract_x
_atom_site_fract_y
_atom_site_fract_z
Si Si1 0.183547 0.624746 0.692995
Si Si2 0.316070 0.964853 0.921493
Si Si3 0.456860 0.373882 0.409072
Si Si4 0.092631 0.371468 0.991690
Si Si5 0.316483 0.629994 0.145258
Si Si6 0.415428 0.013759 0.209948
Si Si7 0.075719 0.990215 0.609469
Si Si8 0.476083 0.371169 0.784576
O O1 0.250000 0.589163 0.667652
O O2 0.176667 0.750000 0.676381
O O3 0.166120 0.596654 0.814243
O O4 0.138652 0.566301 0.613561
O O5 0.250000 0.003063 0.916375
O O6 0.326705 0.883261 0.018681
O O7 0.352320 0.072071 0.938410
O O8 0.452108 0.250000 0.435701
O O9 0.419677 0.399412 0.303316
O O10 0.427391 0.439227 0.503914
O O11 0.524461 0.402702 0.392330
O O12 0.110393 0.250000 0.016303
O O13 0.071197 0.427603 0.099130
O O14 0.039708 0.377620 0.908977
O O15 0.250000 0.610009 0.176298
O O16 0.335706 0.750000 0.175602
O O17 0.352584 0.542151 0.210659
O O18 0.460616 0.919513 0.231322
O O19 0.070083 0.064950 0.713198
O O20 0.477318 0.250000 0.743666
#
# Coordination Sequence:
#
# PCOD8240793 Si02
#       8
#     8   8   8   8   8   8   8   8
#     4  10  19  33  55  82 111 137 165 209 263 315
#     4   9  17  30  49  75 107 140 173 207 250 311
#     4  10  21  37  57  77 102 139 180 219 255 303
#     4  10  19  31  48  72 107 141 169 209 256 306
#     4   9  17  31  51  75 103 136 174 214 259 311
#     4  10  20  33  51  74 103 135 176 215 259 306
#     4  10  20  36  57  80 105 135 176 217 262 310
#     4  10  19  32  51  75 104 135 169 214 265 313
#
# _framework density 17.680776999999999
#
# number of rings (size 3 to 8) (size 9 to 14) (size 15 to 20)
#    0.000    2.250    1.250    2.250    0.000    1.750 
#    0.000    2.500    0.000    4.875    0.000    0.000 
#    0.000    0.000    0.000    0.000    0.000    0.000 
#
# Total GULP energy -793658.250834 kJ/mol
# GULP energy per Si atom -12400.910169 kJ/mol
# Density = 1.764054 g / cm^3
# Si number density = 17.680777 Si / 1000 Ang^3
#
#
#
# Elastic Constant Matrix: (Units=GPa)
#
#
# Indices 1 2 3 4 5 6 
#
# 1 86.4846 44.8800 35.3030 0.0000 0.0000 0.0000
# 2 44.8800 103.9385 30.5659 0.0000 0.0000 0.0000
# 3 35.3030 30.5659 81.2881 0.0000 0.0000 0.0000
# 4 0.0000 0.0000 0.0000 16.0255 0.0000 0.0000
# 5 0.0000 0.0000 0.0000 0.0000 25.2332 0.0000
# 6 0.0000 0.0000 0.0000 0.0000 0.0000 26.3608
#
#
#
# Elastic Compliance Matrix: (Units=1/GPa)
#
#
# Indices 1 2 3 4 5 6 
#
# 1 0.016571 -0.005665 -0.005066 0.000000 0.000000 0.000000
# 2 -0.005665 0.012754 -0.002335 0.000000 0.000000 0.000000
# 3 -0.005066 -0.002335 0.015380 0.000000 0.000000 0.000000
# 4 0.000000 0.000000 0.000000 0.062400 0.000000 0.000000
# 5 0.000000 0.000000 0.000000 0.000000 0.039630 0.000000
# 6 0.000000 0.000000 0.000000 0.000000 0.000000 0.037935
#
#
# Mechanical properties :
#
#
# Convention : Reuss Voigt Hill
#
# Bulk Modulus (GPa) = 53.84679 54.80100 54.32389
# Shear Modulus (GPa) = 23.04194 24.25470 23.64832
#
# Velocity S-wave (km/s) = 3.61393 3.70782 3.66117
# Velocity P-wave (km/s) = 6.92352 7.02798 6.97594
#
# Compressibility (1/GPa) = 0.01857121
#
# Stress axis : x y z
#
# Youngs Moduli (GPa) = 60.34730 78.40622 65.01803
#
# Poissons Ratio (x) = 0.44419 0.32940
# Poissons Ratio (y) = 0.34188 0.15184
# Poissons Ratio (z) = 0.30574 0.18311
#
# Static dielectric constant tensor:
#      x y z
#    x 3.208700 0.000000 0.000000 
#    y 0.000000 3.269770 0.000000 
#    z 0.000000 0.000000 3.254410 
# 
# 
# High freq. dielectric constant tensor:
#      x y z
#    x 1.675400 0.000000 0.000000 
#    y 0.000000 1.688350 0.000000 
#    z 0.000000 0.000000 1.676880 
# 
# From -- ./inp_files/18741.got.cif
#   From: 2010.03.12/outbox.cif.g09.slc.cpg/sg59_10_cif.got.tgz:18741.got - 2010.04.16 16:29:54.
