data_PCOD8240503
_publ_section_title
;
Structure prediction by ZEFSAII (Michael W. Deem and Ramdas Pophale) SiO2 
 PCOD8240503
Probable space group: P M M N
;
_chemical_formula_sum "Si O2"
_cell_formula_units_Z 48
_cell_length_a 8.998405
_cell_length_b 25.235397
_cell_length_c 12.649053
_cell_angle_alpha 90.000000
_cell_angle_beta 90.000000
_cell_angle_gamma 90.000000
_cell_volume 2872.325737
_symmetry_space_group_name_H-M "P M M N"
_symmetry_group_IT_number 59
_space_group.IT_coordinate_system_code '2'
_symmetry_cell_setting 'orthorhombic'
loop_
_space_group_symop_operation_xyz
x,y,z
1/2-x,1/2-y,z
1/2+x,-y,-z
-x,1/2+y,-z
-x,-y,-z
1/2+x,1/2+y,-z
1/2-x,y,z
x,1/2-y,z
loop_
_atom_site_type_symbol
_atom_site_label
_atom_site_fract_x
_atom_site_fract_y
_atom_site_fract_z
Si Si1 0.914843 0.812835 0.973600
Si Si2 0.919795 0.312659 0.232311
Si Si3 0.427634 0.190658 0.794066
Si Si4 0.926290 0.889109 0.613486
Si Si5 0.923825 0.007557 0.388423
Si Si6 0.423114 0.108389 0.626610
O O1 0.750000 0.836980 0.954634
O O2 0.903293 0.750000 0.970544
O O3 0.978527 0.829035 0.089124
O O4 0.023966 0.833422 0.881815
O O5 0.750000 0.330442 0.245537
O O6 0.938751 0.250000 0.242395
O O7 0.019024 0.337815 0.324202
O O8 0.250000 0.190753 0.792519
O O9 0.487068 0.250000 0.769768
O O10 0.496935 0.150639 0.707003
O O11 0.750000 0.893774 0.619362
O O12 0.985340 0.884269 0.492526
O O13 0.997602 0.942099 0.667381
O O14 0.750000 0.019210 0.402198
O O15 0.949999 0.951391 0.328354
O O16 0.000000 0.000000 0.500000
O O17 0.250000 0.120792 0.620997
#
# Coordination Sequence:
#
# PCOD8240503 Si02
#       6
#     8   8   8   8   8   8
#     4   8  14  26  45  66  86 112 147 182 214 255
#     4  10  20  32  46  65  91 121 149 181 224 270
#     4   8  13  23  42  68  94 116 141 177 220 264
#     4  10  19  30  46  68  92 119 153 190 227 268
#     4   9  16  28  45  64  89 121 157 192 224 264
#     4   8  15  26  42  67  94 119 147 181 223 265
#
# _framework density 16.711196999999999
#
# number of rings (size 3 to 8) (size 9 to 14) (size 15 to 20)
#    0.000    3.167    0.000    3.500    0.000    1.667 
#    0.000    1.667    0.000    7.000    0.000    2.333 
#    0.000    0.000    0.000    0.000    0.000    0.000 
#
# Total GULP energy -594739.652742 kJ/mol
# GULP energy per Si atom -12390.409432 kJ/mol
# Density = 1.667316 g / cm^3
# Si number density = 16.711197 Si / 1000 Ang^3
#
#
#
# Elastic Constant Matrix: (Units=GPa)
#
#
# Indices 1 2 3 4 5 6 
#
# 1 67.8224 34.2625 31.8070 0.0000 0.0000 0.0000
# 2 34.2625 74.4733 49.5307 0.0000 0.0000 0.0000
# 3 31.8070 49.5307 95.6388 0.0000 0.0000 0.0000
# 4 0.0000 0.0000 0.0000 6.5872 0.0000 0.0000
# 5 0.0000 0.0000 0.0000 0.0000 13.9755 0.0000
# 6 0.0000 0.0000 0.0000 0.0000 0.0000 22.9496
#
#
#
# Elastic Compliance Matrix: (Units=1/GPa)
#
#
# Indices 1 2 3 4 5 6 
#
# 1 0.019700 -0.007178 -0.002834 0.000000 0.000000 0.000000
# 2 -0.007178 0.023098 -0.009575 0.000000 0.000000 0.000000
# 3 -0.002834 -0.009575 0.016357 0.000000 0.000000 0.000000
# 4 0.000000 0.000000 0.000000 0.151809 0.000000 0.000000
# 5 0.000000 0.000000 0.000000 0.000000 0.071554 0.000000
# 6 0.000000 0.000000 0.000000 0.000000 0.000000 0.043574
#
#
# Mechanical properties :
#
#
# Convention : Reuss Voigt Hill
#
# Bulk Modulus (GPa) = 50.04858 52.12608 51.08733
# Shear Modulus (GPa) = 13.44349 16.85808 15.15079
#
# Velocity S-wave (km/s) = 2.83938 3.17959 3.01429
# Velocity P-wave (km/s) = 6.38464 6.68878 6.53848
#
# Compressibility (1/GPa) = 0.01998059
#
# Stress axis : x y z
#
# Youngs Moduli (GPa) = 50.76181 43.29302 61.13416
#
# Poissons Ratio (x) = 0.31077 0.17326
# Poissons Ratio (y) = 0.36439 0.58537
# Poissons Ratio (z) = 0.14386 0.41454
#
# Static dielectric constant tensor:
#      x y z
#    x 3.053220 0.000000 0.000000 
#    y 0.000000 3.379130 0.000000 
#    z 0.000000 0.000000 3.248500 
# 
# 
# High freq. dielectric constant tensor:
#      x y z
#    x 1.622840 0.000000 0.000000 
#    y 0.000000 1.632410 0.000000 
#    z 0.000000 0.000000 1.626380 
# 
# From -- ./inp_files/14517.got.cif
#   From: 2010.03.12/outbox.cif.g09.slc.cpg/sg59_8_cif.got.tgz:14517.got - 2010.04.16 16:29:54.
