data_PCOD8240753
_publ_section_title
;
Structure prediction by ZEFSAII (Michael W. Deem and Ramdas Pophale) SiO2 
 PCOD8240753
Probable space group: P M M N
;
_chemical_formula_sum "Si O2"
_cell_formula_units_Z 64
_cell_length_a 9.083118
_cell_length_b 17.690855
_cell_length_c 22.857148
_cell_angle_alpha 90.000000
_cell_angle_beta 90.000000
_cell_angle_gamma 90.000000
_cell_volume 3672.872220
_symmetry_space_group_name_H-M "P M M N"
_symmetry_group_IT_number 59
_space_group.IT_coordinate_system_code '2'
_symmetry_cell_setting 'orthorhombic'
loop_
_space_group_symop_operation_xyz
x,y,z
1/2-x,1/2-y,z
1/2+x,-y,-z
-x,1/2+y,-z
-x,-y,-z
1/2+x,1/2+y,-z
1/2-x,y,z
x,1/2-y,z
loop_
_atom_site_type_symbol
_atom_site_label
_atom_site_fract_x
_atom_site_fract_y
_atom_site_fract_z
Si Si1 0.418347 0.568671 0.470699
Si Si2 0.074880 0.964977 0.755035
Si Si3 0.083607 0.165449 0.186585
Si Si4 0.922093 0.379924 0.074010
Si Si5 0.582163 0.525504 0.637433
Si Si6 0.579590 0.537723 0.128331
Si Si7 0.078003 0.336055 0.444964
Si Si8 0.578625 0.836413 0.044292
O O1 0.500000 0.500000 0.500000
O O2 0.250000 0.570793 0.491190
O O3 0.429872 0.551022 0.401519
O O4 0.495782 0.645694 0.493295
O O5 0.250000 0.959225 0.756124
O O6 0.008321 0.882423 0.766640
O O7 0.020608 0.993017 0.692357
O O8 0.014087 0.020241 0.806980
O O9 0.250000 0.133920 0.180682
O O10 0.085844 0.250000 0.211497
O O11 0.007065 0.166626 0.123388
O O12 0.750000 0.360210 0.077734
O O13 0.951119 0.468666 0.084163
O O14 0.983417 0.355337 0.011975
O O15 0.750000 0.537973 0.658043
O O16 0.528741 0.602460 0.604094
O O17 0.750000 0.550450 0.138331
O O18 0.515506 0.613267 0.098181
O O19 0.250000 0.345151 0.457199
O O20 0.039007 0.250000 0.425499
O O21 0.750000 0.854896 0.031173
O O22 0.556803 0.750000 0.062773
#
# Coordination Sequence:
#
# PCOD8240753 Si02
#       8
#     8   8   8   8   8   8   8   8
#     4   9  17  30  49  72  98 129 164 199 235 277
#     4  10  20  33  50  70  92 122 162 204 238 273
#     4  10  20  33  48  66  92 126 159 191 232 285
#     4  10  19  31  48  69  95 122 149 188 234 283
#     4   9  18  32  49  71  99 131 165 198 236 284
#     4   8  17  33  48  66  92 121 154 192 235 278
#     4   9  18  32  50  74 105 135 160 193 239 287
#     4  10  19  31  49  70  91 117 150 189 235 288
#
# _framework density 17.425055
#
# number of rings (size 3 to 8) (size 9 to 14) (size 15 to 20)
#    0.000    2.625    0.000    3.750    0.000    6.000 
#    0.000    4.375    0.000    0.750    0.000    1.750 
#    0.000    0.000    0.000    0.000    0.000    0.000 
#
# Total GULP energy -793198.021661 kJ/mol
# GULP energy per Si atom -12393.719088 kJ/mol
# Density = 1.738539 g / cm^3
# Si number density = 17.425055 Si / 1000 Ang^3
#
#
#
# Elastic Constant Matrix: (Units=GPa)
#
#
# Indices 1 2 3 4 5 6 
#
# 1 77.0199 20.4339 37.8111 0.0000 0.0000 0.0000
# 2 20.4339 51.5590 27.0780 0.0000 0.0000 0.0000
# 3 37.8111 27.0780 84.8869 0.0000 0.0000 0.0000
# 4 0.0000 0.0000 0.0000 14.7079 0.0000 0.0000
# 5 0.0000 0.0000 0.0000 0.0000 30.1090 0.0000
# 6 0.0000 0.0000 0.0000 0.0000 0.0000 21.8746
#
#
#
# Elastic Compliance Matrix: (Units=1/GPa)
#
#
# Indices 1 2 3 4 5 6 
#
# 1 0.017081 -0.003332 -0.006546 0.000000 0.000000 0.000000
# 2 -0.003332 0.023948 -0.006155 0.000000 0.000000 0.000000
# 3 -0.006546 -0.006155 0.016659 0.000000 0.000000 0.000000
# 4 0.000000 0.000000 0.000000 0.067990 0.000000 0.000000
# 5 0.000000 0.000000 0.000000 0.000000 0.033213 0.000000
# 6 0.000000 0.000000 0.000000 0.000000 0.000000 0.045715
#
#
# Mechanical properties :
#
#
# Convention : Reuss Voigt Hill
#
# Bulk Modulus (GPa) = 39.02661 42.67908 40.85285
# Shear Modulus (GPa) = 20.39042 21.88117 21.13579
#
# Velocity S-wave (km/s) = 3.42450 3.54747 3.48653
# Velocity P-wave (km/s) = 6.17104 6.42849 6.30108
#
# Compressibility (1/GPa) = 0.02562354
#
# Stress axis : x y z
#
# Youngs Moduli (GPa) = 58.54458 41.75659 60.02639
#
# Poissons Ratio (x) = 0.13913 0.39290
# Poissons Ratio (y) = 0.19507 0.36947
# Poissons Ratio (z) = 0.38320 0.25702
#
# Static dielectric constant tensor:
#      x y z
#    x 3.295720 0.000000 0.000000 
#    y 0.000000 3.361020 0.000000 
#    z 0.000000 0.000000 3.406230 
# 
# 
# High freq. dielectric constant tensor:
#      x y z
#    x 1.672370 0.000000 0.000000 
#    y 0.000000 1.656900 0.000000 
#    z 0.000000 0.000000 1.661180 
# 
# From -- ./inp_files/31705.got.cif
#   From: 2010.03.12/outbox.cif.g09.slc.cpg/sg59_16_cif.got.tgz:31705.got - 2010.04.16 16:29:54.
