data_PCOD8240624
_publ_section_title
;
Structure prediction by ZEFSAII (Michael W. Deem and Ramdas Pophale) SiO2 
 PCOD8240624
Probable space group: P M M N
;
_chemical_formula_sum "Si O2"
_cell_formula_units_Z 48
_cell_length_a 9.155374
_cell_length_b 15.665559
_cell_length_c 18.656825
_cell_angle_alpha 90.000000
_cell_angle_beta 90.000000
_cell_angle_gamma 90.000000
_cell_volume 2675.837431
_symmetry_space_group_name_H-M "P M M N"
_symmetry_group_IT_number 59
_space_group.IT_coordinate_system_code '2'
_symmetry_cell_setting 'orthorhombic'
loop_
_space_group_symop_operation_xyz
x,y,z
1/2-x,1/2-y,z
1/2+x,-y,-z
-x,1/2+y,-z
-x,-y,-z
1/2+x,1/2+y,-z
1/2-x,y,z
x,1/2-y,z
loop_
_atom_site_type_symbol
_atom_site_label
_atom_site_fract_x
_atom_site_fract_y
_atom_site_fract_z
Si Si1 0.418622 0.840850 0.404126
Si Si2 0.576636 0.155913 0.912509
Si Si3 0.422989 0.488889 0.167237
Si Si4 0.080600 0.652070 0.924571
Si Si5 0.081664 0.572444 0.543526
Si Si6 0.423113 0.489170 0.331252
O O1 0.250000 0.839740 0.382263
O O2 0.490769 0.750000 0.381174
O O3 0.433084 0.846332 0.490984
O O4 0.486772 0.920008 0.360241
O O5 0.750000 0.158362 0.909044
O O6 0.517691 0.250000 0.887841
O O7 0.515498 0.079580 0.862621
O O8 0.527366 0.137972 0.993958
O O9 0.250000 0.486469 0.158614
O O10 0.487522 0.409183 0.125380
O O11 0.470994 0.479126 0.249427
O O12 0.250000 0.628249 0.916482
O O13 0.053111 0.750000 0.901404
O O14 0.250000 0.548158 0.556714
O O15 0.000000 0.500000 0.500000
O O16 0.001474 0.584300 0.620619
O O17 0.250000 0.481143 0.341629
#
# Coordination Sequence:
#
# PCOD8240624 Si02
#       6
#     8   8   8   8   8   8
#     4   8  14  26  45  67  87 109 143 185 222 261
#     4   8  15  29  49  73  99 126 160 203 247 290
#     4  10  19  30  48  74 100 127 160 199 244 293
#     4   9  18  33  51  69  92 126 167 207 246 290
#     4   9  16  28  47  66  86 115 149 184 220 262
#     4   9  18  30  44  66  95 122 148 182 229 284
#
# _framework density 17.938309
#
# number of rings (size 3 to 8) (size 9 to 14) (size 15 to 20)
#    0.000    3.167    0.000    3.000    0.000    1.667 
#    0.000    4.167    0.000   17.000    0.000    4.667 
#    0.000    0.000    0.000    0.000    0.000    0.000 
#
# Total GULP energy -594644.683830 kJ/mol
# GULP energy per Si atom -12388.430913 kJ/mol
# Density = 1.789748 g / cm^3
# Si number density = 17.938309 Si / 1000 Ang^3
#
#
#
# Elastic Constant Matrix: (Units=GPa)
#
#
# Indices 1 2 3 4 5 6 
#
# 1 31.9158 14.7576 27.8468 0.0000 0.0000 0.0000
# 2 14.7576 60.4174 30.4969 0.0000 0.0000 0.0000
# 3 27.8468 30.4969 105.9978 0.0000 0.0000 0.0000
# 4 0.0000 0.0000 0.0000 14.8305 0.0000 0.0000
# 5 0.0000 0.0000 0.0000 0.0000 25.2968 0.0000
# 6 0.0000 0.0000 0.0000 0.0000 0.0000 20.0558
#
#
#
# Elastic Compliance Matrix: (Units=1/GPa)
#
#
# Indices 1 2 3 4 5 6 
#
# 1 0.042160 -0.005507 -0.009492 0.000000 0.000000 0.000000
# 2 -0.005507 0.020083 -0.004331 0.000000 0.000000 0.000000
# 3 -0.009492 -0.004331 0.013174 0.000000 0.000000 0.000000
# 4 0.000000 0.000000 0.000000 0.067429 0.000000 0.000000
# 5 0.000000 0.000000 0.000000 0.000000 0.039531 0.000000
# 6 0.000000 0.000000 0.000000 0.000000 0.000000 0.049861
#
#
# Mechanical properties :
#
#
# Convention : Reuss Voigt Hill
#
# Bulk Modulus (GPa) = 27.20550 38.28152 32.74351
# Shear Modulus (GPa) = 17.65849 20.38527 19.02188
#
# Velocity S-wave (km/s) = 3.14092 3.37472 3.25992
# Velocity P-wave (km/s) = 5.32475 6.04748 5.69758
#
# Compressibility (1/GPa) = 0.03675727
#
# Stress axis : x y z
#
# Youngs Moduli (GPa) = 23.71898 49.79323 75.90785
#
# Poissons Ratio (x) = 0.27422 0.72048
# Poissons Ratio (y) = 0.13062 0.32879
# Poissons Ratio (z) = 0.22513 0.21567
#
# Static dielectric constant tensor:
#      x y z
#    x 3.049870 0.000000 0.000000 
#    y 0.000000 3.584290 0.000000 
#    z 0.000000 0.000000 3.624180 
# 
# 
# High freq. dielectric constant tensor:
#      x y z
#    x 1.656730 0.000000 0.000000 
#    y 0.000000 1.688260 0.000000 
#    z 0.000000 0.000000 1.693340 
# 
# From -- ./inp_files/25433.got.cif
#   From: 2010.03.12/outbox.cif.g09.slc.cpg/sg59_13_cif.got.tgz:25433.got - 2010.04.16 16:29:54.
