data_PCOD8240542
_publ_section_title
;
Structure prediction by ZEFSAII (Michael W. Deem and Ramdas Pophale) SiO2 
 PCOD8240542
Probable space group: P M M N
;
_chemical_formula_sum "Si O2"
_cell_formula_units_Z 64
_cell_length_a 13.770639
_cell_length_b 9.221906
_cell_length_c 29.451296
_cell_angle_alpha 90.000000
_cell_angle_beta 90.000000
_cell_angle_gamma 90.000000
_cell_volume 3740.065387
_symmetry_space_group_name_H-M "P M M N"
_symmetry_group_IT_number 59
_space_group.IT_coordinate_system_code '2'
_symmetry_cell_setting 'orthorhombic'
loop_
_space_group_symop_operation_xyz
x,y,z
1/2-x,1/2-y,z
1/2+x,-y,-z
-x,1/2+y,-z
-x,-y,-z
1/2+x,1/2+y,-z
1/2-x,y,z
x,1/2-y,z
loop_
_atom_site_type_symbol
_atom_site_label
_atom_site_fract_x
_atom_site_fract_y
_atom_site_fract_z
Si Si1 0.359092 0.583527 0.601748
Si Si2 0.140511 0.422206 0.156476
Si Si3 0.864950 0.412857 0.572605
Si Si4 0.955847 0.918305 0.654046
Si Si5 0.859256 0.577942 0.744089
Si Si6 0.641125 0.418057 0.013796
Si Si7 0.454938 0.420586 0.066400
Si Si8 0.365797 0.414017 0.513595
O O1 0.250000 0.538219 0.616233
O O2 0.361268 0.750000 0.585312
O O3 0.429382 0.558843 0.644850
O O4 0.400036 0.486070 0.560728
O O5 0.250000 0.476343 0.146399
O O6 0.138818 0.250000 0.157109
O O7 0.106671 0.480509 0.206232
O O8 0.068670 0.480114 0.116998
O O9 0.750000 0.409528 0.568588
O O10 0.907328 0.250000 0.573302
O O11 0.891957 0.494686 0.618391
O O12 0.909524 0.496045 0.528825
O O13 0.926569 0.750000 0.649413
O O14 0.931423 0.977867 0.704521
O O15 0.750000 0.522830 0.733726
O O16 0.859982 0.750000 0.745350
O O17 0.750000 0.453333 0.030834
O O18 0.629144 0.250000 0.001264
O O19 0.566101 0.461334 0.053916
O O20 0.619352 0.507564 0.968626
O O21 0.436662 0.250000 0.063634
O O22 0.250000 0.418064 0.511662
O O23 0.404936 0.250000 0.511096
#
# Coordination Sequence:
#
# PCOD8240542 Si02
#       8
#     8   8   8   8   8   8   8   8
#     4   9  18  32  47  63  85 111 139 174 214 249
#     4   8  13  22  39  63  86 107 137 180 220 249
#     4  10  20  32  46  66  93 119 138 164 207 254
#     4  10  19  30  47  67  85 111 144 174 207 252
#     4   8  14  25  42  65  89 108 132 173 219 256
#     4   9  17  27  38  57  89 122 147 179 225 265
#     4   9  16  26  42  62  83 113 154 189 214 253
#     4   9  17  30  48  67  86 111 144 176 203 241
#
# _framework density 17.112000999999999
#
# number of rings (size 3 to 8) (size 9 to 14) (size 15 to 20)
#    0.000    3.000    0.000    2.250    0.000    4.500 
#    0.000    0.000    0.000    1.500    0.000    8.750 
#    0.000    0.000    0.000    6.375    0.000    8.250 
#
# Total GULP energy -793289.420126 kJ/mol
# GULP energy per Si atom -12395.147189 kJ/mol
# Density = 1.707305 g / cm^3
# Si number density = 17.112001 Si / 1000 Ang^3
#
#
#
# Elastic Constant Matrix: (Units=GPa)
#
#
# Indices 1 2 3 4 5 6 
#
# 1 78.4216 25.3554 70.8768 0.0000 0.0000 0.0000
# 2 25.3554 50.9877 39.5453 0.0000 0.0000 0.0000
# 3 70.8768 39.5453 169.0108 0.0000 0.0000 0.0000
# 4 0.0000 0.0000 0.0000 16.7960 0.0000 0.0000
# 5 0.0000 0.0000 0.0000 0.0000 28.7554 0.0000
# 6 0.0000 0.0000 0.0000 0.0000 0.0000 14.5096
#
#
#
# Elastic Compliance Matrix: (Units=1/GPa)
#
#
# Indices 1 2 3 4 5 6 
#
# 1 0.021342 -0.004486 -0.007901 0.000000 0.000000 0.000000
# 2 -0.004486 0.024904 -0.003946 0.000000 0.000000 0.000000
# 3 -0.007901 -0.003946 0.010153 0.000000 0.000000 0.000000
# 4 0.000000 0.000000 0.000000 0.059538 0.000000 0.000000
# 5 0.000000 0.000000 0.000000 0.000000 0.034776 0.000000
# 6 0.000000 0.000000 0.000000 0.000000 0.000000 0.068920
#
#
# Mechanical properties :
#
#
# Convention : Reuss Voigt Hill
#
# Bulk Modulus (GPa) = 42.13192 63.33056 52.73124
# Shear Modulus (GPa) = 19.21534 22.85507 21.03520
#
# Velocity S-wave (km/s) = 3.35463 3.65857 3.50989
# Velocity P-wave (km/s) = 6.29916 7.41193 6.87808
#
# Compressibility (1/GPa) = 0.02373498
#
# Stress axis : x y z
#
# Youngs Moduli (GPa) = 46.85501 40.15488 98.49042
#
# Poissons Ratio (x) = 0.18012 0.77814
# Poissons Ratio (y) = 0.21018 0.38863
# Poissons Ratio (z) = 0.37019 0.15844
#
# Static dielectric constant tensor:
#      x y z
#    x 3.237810 0.000000 0.000000 
#    y 0.000000 3.050450 0.000000 
#    z 0.000000 0.000000 3.466680 
# 
# 
# High freq. dielectric constant tensor:
#      x y z
#    x 1.655510 0.000000 0.000000 
#    y 0.000000 1.635800 0.000000 
#    z 0.000000 0.000000 1.648190 
# 
# From -- ./inp_files/33344.got.cif
#   From: 2010.03.12/outbox.cif.g09.slc.cpg/sg59_17_cif.got.tgz:33344.got - 2010.04.16 16:29:54.
