data_PCOD8240362
_publ_section_title
;
Structure prediction by ZEFSAII (Michael W. Deem and Ramdas Pophale) SiO2 
 PCOD8240362
Probable space group: P M M N
;
_chemical_formula_sum "Si O2"
_cell_formula_units_Z 64
_cell_length_a 8.928896
_cell_length_b 13.949980
_cell_length_c 31.094988
_cell_angle_alpha 90.000000
_cell_angle_beta 90.000000
_cell_angle_gamma 90.000000
_cell_volume 3873.127047
_symmetry_space_group_name_H-M "P M M N"
_symmetry_group_IT_number 59
_space_group.IT_coordinate_system_code '2'
_symmetry_cell_setting 'orthorhombic'
loop_
_space_group_symop_operation_xyz
x,y,z
1/2-x,1/2-y,z
1/2+x,-y,-z
-x,1/2+y,-z
-x,-y,-z
1/2+x,1/2+y,-z
1/2-x,y,z
x,1/2-y,z
loop_
_atom_site_type_symbol
_atom_site_label
_atom_site_fract_x
_atom_site_fract_y
_atom_site_fract_z
Si Si1 0.076479 0.045757 0.064358
Si Si2 0.572000 0.944572 0.600240
Si Si3 0.421562 0.636434 0.683527
Si Si4 0.926192 0.360383 0.143894
Si Si5 0.422742 0.649695 0.427036
Si Si6 0.578200 0.407596 0.481712
Si Si7 0.918502 0.863800 0.769123
Si Si8 0.422233 0.859015 0.014195
O O1 0.250000 0.065014 0.074069
O O2 0.980481 0.071054 0.105950
O O3 0.046570 0.933830 0.052885
O O4 0.027736 0.114912 0.025593
O O5 0.750000 0.939920 0.597735
O O6 0.518535 0.910320 0.646228
O O7 0.505534 0.875951 0.562424
O O8 0.504945 0.052381 0.591935
O O9 0.250000 0.603529 0.679930
O O10 0.436744 0.750000 0.680197
O O11 0.487902 0.597717 0.728461
O O12 0.750000 0.370190 0.149577
O O13 0.971326 0.250000 0.134120
O O14 0.002622 0.398899 0.187331
O O15 0.250000 0.642316 0.414331
O O16 0.490001 0.750000 0.407425
O O17 0.437694 0.665331 0.478723
O O18 0.500000 0.500000 0.500000
O O19 0.750000 0.427058 0.469729
O O20 0.750000 0.905063 0.767242
O O21 0.916703 0.750000 0.768117
O O22 0.250000 0.868548 0.998906
O O23 0.456763 0.750000 0.029527
#
# Coordination Sequence:
#
# PCOD8240362 Si02
#       8
#     8   8   8   8   8   8   8   8
#     4  10  19  29  44  67  91 118 157 198 231 268
#     4  10  19  30  46  67  90 117 149 186 223 261
#     4  10  20  33  48  66  91 122 150 177 217 271
#     4  10  19  30  45  66  94 125 152 180 220 270
#     4   8  15  28  45  64  86 114 148 183 219 259
#     4   9  16  27  43  61  84 114 146 181 219 259
#     4   9  17  30  48  69  92 116 145 183 222 262
#     4   9  18  32  46  61  88 125 159 193 235 277
#
# _framework density 16.524114999999998
#
# number of rings (size 3 to 8) (size 9 to 14) (size 15 to 20)
#    0.000    2.625    0.000    3.375    0.000    5.750 
#    0.000    1.250    0.000   13.125    0.000    0.875 
#    0.000    7.000    0.000    0.000    0.000    0.000 
#
# Total GULP energy -793058.978274 kJ/mol
# GULP energy per Si atom -12391.546536 kJ/mol
# Density = 1.648651 g / cm^3
# Si number density = 16.524115 Si / 1000 Ang^3
#
#
#
# Elastic Constant Matrix: (Units=GPa)
#
#
# Indices 1 2 3 4 5 6 
#
# 1 85.7599 24.1172 38.8900 0.0000 0.0000 0.0000
# 2 24.1172 60.1843 23.2182 0.0000 0.0000 0.0000
# 3 38.8900 23.2182 99.5134 0.0000 0.0000 0.0000
# 4 0.0000 0.0000 0.0000 -3.7120 0.0000 0.0000
# 5 0.0000 0.0000 0.0000 0.0000 34.3136 0.0000
# 6 0.0000 0.0000 0.0000 0.0000 0.0000 16.2077
#
#
#
# Elastic Compliance Matrix: (Units=1/GPa)
#
#
# Indices 1 2 3 4 5 6 
#
# 1 0.015054 -0.004135 -0.004918 0.000000 0.000000 0.000000
# 2 -0.004135 0.019395 -0.002909 0.000000 0.000000 0.000000
# 3 -0.004918 -0.002909 0.012650 0.000000 0.000000 0.000000
# 4 0.000000 0.000000 0.000000 -0.269397 0.000000 0.000000
# 5 0.000000 0.000000 0.000000 0.000000 0.029143 0.000000
# 6 0.000000 0.000000 0.000000 0.000000 0.000000 0.061699
#
#
# Mechanical properties :
#
#
# Convention : Reuss Voigt Hill
#
# Bulk Modulus (GPa) = 43.15280 46.43426 44.79353
# Shear Modulus (GPa) = -50.09657 19.97735 -15.05961
#
# Velocity S-wave (km/s) = -5.51208 3.48081 -3.02217
# Velocity P-wave (km/s) = 3.78669 6.65708 3.87154
#
# Compressibility (1/GPa) = 0.02317347
#
# Stress axis : x y z
#
# Youngs Moduli (GPa) = 66.42951 51.55985 79.05319
#
# Poissons Ratio (x) = 0.21320 0.38880
# Poissons Ratio (y) = 0.27468 0.22999
# Poissons Ratio (z) = 0.32671 0.15000
#
# Static dielectric constant tensor:
#      x y z
#    x 3.256630 0.000000 0.000000 
#    y 0.000000 3.302300 0.000000 
#    z 0.000000 0.000000 3.189450 
# 
# 
# High freq. dielectric constant tensor:
#      x y z
#    x 1.643090 0.000000 0.000000 
#    y 0.000000 1.608080 0.000000 
#    z 0.000000 0.000000 1.625680 
# 
# From -- ./inp_files/33235.got.cif
#   From: 2010.03.12/outbox.cif.g09.slc.cpg/sg59_17_cif.got.tgz:33235.got - 2010.04.16 16:29:54.
