data_PCOD8240159
_publ_section_title
;
Structure prediction by ZEFSAII (Michael W. Deem and Ramdas Pophale) SiO2 
 PCOD8240159
Probable space group: P M M N
;
_chemical_formula_sum "Si O2"
_cell_formula_units_Z 48
_cell_length_a 14.069416
_cell_length_b 8.792438
_cell_length_c 20.225870
_cell_angle_alpha 90.000000
_cell_angle_beta 90.000000
_cell_angle_gamma 90.000000
_cell_volume 2502.030486
_symmetry_space_group_name_H-M "P M M N"
_symmetry_group_IT_number 59
_space_group.IT_coordinate_system_code '2'
_symmetry_cell_setting 'orthorhombic'
loop_
_space_group_symop_operation_xyz
x,y,z
1/2-x,1/2-y,z
1/2+x,-y,-z
-x,1/2+y,-z
-x,-y,-z
1/2+x,1/2+y,-z
1/2-x,y,z
x,1/2-y,z
loop_
_atom_site_type_symbol
_atom_site_label
_atom_site_fract_x
_atom_site_fract_y
_atom_site_fract_z
Si Si1 0.931827 0.576152 0.816307
Si Si2 0.250000 0.423665 0.890828
Si Si3 0.750000 0.071432 0.762827
Si Si4 0.439512 0.577263 0.690023
Si Si5 0.543582 0.927541 0.064859
Si Si6 0.250000 0.931472 0.750165
Si Si7 0.452939 0.068922 0.435493
Si Si8 0.250000 0.070102 0.382982
O O1 0.906858 0.750000 0.834906
O O2 0.837775 0.477890 0.808188
O O3 0.984011 0.567151 0.747018
O O4 0.998650 0.506194 0.871692
O O5 0.250000 0.250000 0.866189
O O6 0.343012 0.457721 0.934980
O O7 0.250000 0.527925 0.826720
O O8 0.750000 0.250000 0.752153
O O9 0.750000 0.996172 0.690690
O O10 0.415073 0.750000 0.672585
O O11 0.341728 0.497212 0.713142
O O12 0.484475 0.501192 0.624923
O O13 0.519721 0.750000 0.066381
O O14 0.500000 0.000000 0.000000
O O15 0.250000 0.750000 0.747827
O O16 0.457356 0.250000 0.438903
O O17 0.343254 0.017130 0.424238
O O18 0.500000 0.000000 0.500000
O O19 0.250000 0.250000 0.372970
#
# Coordination Sequence:
#
# PCOD8240159 Si02
#       8
#     8   4   4   8   8   4   8   4
#     4  11  21  39  64  89 118 159 203 249 305 362
#     4  10  22  39  60  87 122 157 192 247 312 358
#     4  12  24  37  60  95 126 155 200 257 308 365
#     4   9  18  33  58  87 116 151 196 245 292 351
#     4  11  24  42  62  90 126 164 206 254 307 367
#     4  10  18  33  60  92 116 149 202 244 286 354
#     4  10  21  38  58  85 119 157 199 246 300 361
#     4  10  20  39  62  82 116 163 206 246 304 371
#
# _framework density 19.184418999999998
#
# number of rings (size 3 to 8) (size 9 to 14) (size 15 to 20)
#    0.000    1.667    3.333    1.750    0.000    2.667 
#    0.000    4.167    0.000    0.000    0.000    0.000 
#    0.000    0.000    0.000    0.000    0.000    0.000 
#
# Total GULP energy -595127.981326 kJ/mol
# GULP energy per Si atom -12398.499611 kJ/mol
# Density = 1.914075 g / cm^3
# Si number density = 19.184419 Si / 1000 Ang^3
#
#
#
# Elastic Constant Matrix: (Units=GPa)
#
#
# Indices 1 2 3 4 5 6 
#
# 1 142.6625 36.4759 45.4478 0.0000 0.0000 0.0000
# 2 36.4759 61.0152 36.0575 0.0000 0.0000 0.0000
# 3 45.4478 36.0575 112.9870 0.0000 0.0000 0.0000
# 4 0.0000 0.0000 0.0000 30.4171 0.0000 0.0000
# 5 0.0000 0.0000 0.0000 0.0000 34.4458 0.0000
# 6 0.0000 0.0000 0.0000 0.0000 0.0000 23.7496
#
#
#
# Elastic Compliance Matrix: (Units=1/GPa)
#
#
# Indices 1 2 3 4 5 6 
#
# 1 0.008724 -0.003872 -0.002273 0.000000 0.000000 0.000000
# 2 -0.003872 0.021917 -0.005437 0.000000 0.000000 0.000000
# 3 -0.002273 -0.005437 0.011500 0.000000 0.000000 0.000000
# 4 0.000000 0.000000 0.000000 0.032876 0.000000 0.000000
# 5 0.000000 0.000000 0.000000 0.000000 0.029031 0.000000
# 6 0.000000 0.000000 0.000000 0.000000 0.000000 0.042106
#
#
# Mechanical properties :
#
#
# Convention : Reuss Voigt Hill
#
# Bulk Modulus (GPa) = 52.69661 61.40302 57.04981
# Shear Modulus (GPa) = 28.46669 30.96808 29.71738
#
# Velocity S-wave (km/s) = 3.85625 4.02211 3.94005
# Velocity P-wave (km/s) = 6.88154 7.32434 7.10639
#
# Compressibility (1/GPa) = 0.01897655
#
# Stress axis : x y z
#
# Youngs Moduli (GPa) = 114.63018 45.62680 86.95529
#
# Poissons Ratio (x) = 0.17665 0.19769
# Poissons Ratio (y) = 0.44381 0.47278
# Poissons Ratio (z) = 0.26061 0.24807
#
# Static dielectric constant tensor:
#      x y z
#    x 3.922770 0.000000 0.000000 
#    y 0.000000 3.387990 0.000000 
#    z 0.000000 0.000000 3.527150 
# 
# 
# High freq. dielectric constant tensor:
#      x y z
#    x 1.767570 0.000000 0.000000 
#    y 0.000000 1.728190 0.000000 
#    z 0.000000 0.000000 1.744320 
# 
# From -- ./inp_files/27500.got.cif
#   From: 2010.03.12/outbox.cif.g09.slc.cpg/sg59_14_cif.got.tgz:27500.got - 2010.04.16 16:29:54.
