data_PCOD8240143
_publ_section_title
;
Structure prediction by ZEFSAII (Michael W. Deem and Ramdas Pophale) SiO2 
 PCOD8240143
Probable space group: P M M N
;
_chemical_formula_sum "Si O2"
_cell_formula_units_Z 48
_cell_length_a 8.892051
_cell_length_b 18.190657
_cell_length_c 14.755210
_cell_angle_alpha 90.000000
_cell_angle_beta 90.000000
_cell_angle_gamma 90.000000
_cell_volume 2386.688413
_symmetry_space_group_name_H-M "P M M N"
_symmetry_group_IT_number 59
_space_group.IT_coordinate_system_code '2'
_symmetry_cell_setting 'orthorhombic'
loop_
_space_group_symop_operation_xyz
x,y,z
1/2-x,1/2-y,z
1/2+x,-y,-z
-x,1/2+y,-z
-x,-y,-z
1/2+x,1/2+y,-z
1/2-x,y,z
x,1/2-y,z
loop_
_atom_site_type_symbol
_atom_site_label
_atom_site_fract_x
_atom_site_fract_y
_atom_site_fract_z
Si Si1 0.929106 0.250000 0.289346
Si Si2 0.927712 0.328961 0.826435
Si Si3 0.571832 0.750000 0.511213
Si Si4 0.084394 0.487160 0.408640
Si Si5 0.571379 0.481545 0.904826
Si Si6 0.081484 0.650511 0.371430
Si Si7 0.429458 0.397223 0.242423
O O1 0.750000 0.250000 0.295482
O O2 0.998612 0.250000 0.389745
O O3 0.985848 0.180052 0.230866
O O4 0.750000 0.340076 0.822108
O O5 0.969064 0.250000 0.874631
O O6 0.994481 0.400955 0.876245
O O7 0.986568 0.320958 0.723197
O O8 0.750000 0.750000 0.523804
O O9 0.521173 0.822521 0.455281
O O10 0.250000 0.460117 0.434542
O O11 0.086246 0.563795 0.356646
O O12 0.013720 0.427920 0.340110
O O13 0.000000 0.500000 0.500000
O O14 0.750000 0.479375 0.913449
O O15 0.520969 0.545041 0.834669
O O16 0.500000 0.500000 0.000000
O O17 0.250000 0.680510 0.389584
O O18 0.250000 0.386282 0.241424
#
# Coordination Sequence:
#
# PCOD8240143 Si02
#       7
#     4   8   4   8   8   8   8
#     4  12  26  42  60  85 116 159 216 265 304 356
#     4   9  16  32  62  91 116 152 195 239 291 354
#     4  12  24  36  52  83 126 167 202 245 304 364
#     4  10  20  33  54  83 112 150 198 243 292 358
#     4  10  21  40  66  94 124 161 201 248 309 372
#     4  10  18  33  57  82 111 151 200 245 289 347
#     4  10  21  41  64  85 120 164 204 252 312 369
#
# _framework density 20.111547000000002
#
# number of rings (size 3 to 8) (size 9 to 14) (size 15 to 20)
#    0.000    1.833    2.500    2.500    0.000    4.667 
#    1.500    0.833    0.000    0.000    0.000    0.000 
#    0.000    0.000    0.000    0.000    0.000    0.000 
#
# Total GULP energy -594819.276456 kJ/mol
# GULP energy per Si atom -12392.068259 kJ/mol
# Density = 2.006577 g / cm^3
# Si number density = 20.111547 Si / 1000 Ang^3
#
#
#
# Elastic Constant Matrix: (Units=GPa)
#
#
# Indices 1 2 3 4 5 6 
#
# 1 65.5837 40.4021 39.7061 0.0000 0.0000 0.0000
# 2 40.4021 166.6245 65.5147 0.0000 0.0000 0.0000
# 3 39.7061 65.5147 120.6421 0.0000 0.0000 0.0000
# 4 0.0000 0.0000 0.0000 22.0319 0.0000 0.0000
# 5 0.0000 0.0000 0.0000 0.0000 30.9715 0.0000
# 6 0.0000 0.0000 0.0000 0.0000 0.0000 23.3445
#
#
#
# Elastic Compliance Matrix: (Units=1/GPa)
#
#
# Indices 1 2 3 4 5 6 
#
# 1 0.020077 -0.002886 -0.005040 0.000000 0.000000 0.000000
# 2 -0.002886 0.008046 -0.003419 0.000000 0.000000 0.000000
# 3 -0.005040 -0.003419 0.011805 0.000000 0.000000 0.000000
# 4 0.000000 0.000000 0.000000 0.045389 0.000000 0.000000
# 5 0.000000 0.000000 0.000000 0.000000 0.032288 0.000000
# 6 0.000000 0.000000 0.000000 0.000000 0.000000 0.042837
#
#
# Mechanical properties :
#
#
# Convention : Reuss Voigt Hill
#
# Bulk Modulus (GPa) = 58.01923 71.56623 64.79273
# Shear Modulus (GPa) = 26.47200 29.08474 27.77837
#
# Velocity S-wave (km/s) = 3.63196 3.80698 3.72050
# Velocity P-wave (km/s) = 6.81906 7.41526 7.12340
#
# Compressibility (1/GPa) = 0.01723567
#
# Stress axis : x y z
#
# Youngs Moduli (GPa) = 49.80713 124.28814 84.71154
#
# Poissons Ratio (x) = 0.35874 0.42699
# Poissons Ratio (y) = 0.14376 0.28965
# Poissons Ratio (z) = 0.25105 0.42498
#
# Static dielectric constant tensor:
#      x y z
#    x 3.331510 0.000000 0.000000 
#    y 0.000000 4.603070 0.000000 
#    z 0.000000 0.000000 3.516650 
# 
# 
# High freq. dielectric constant tensor:
#      x y z
#    x 1.746940 0.000000 0.000000 
#    y 0.000000 1.814090 0.000000 
#    z 0.000000 0.000000 1.769310 
# 
# From -- ./inp_files/20503.got.cif
#   From: 2010.03.12/outbox.cif.g09.slc.cpg/sg59_11_cif.got.tgz:20503.got - 2010.04.16 16:29:54.
