data_PCOD8240600
_publ_section_title
;
Structure prediction by ZEFSAII (Michael W. Deem and Ramdas Pophale) SiO2 
 PCOD8240600
Probable space group: P M M N
;
_chemical_formula_sum "Si O2"
_cell_formula_units_Z 64
_cell_length_a 9.082366
_cell_length_b 23.022427
_cell_length_c 18.835367
_cell_angle_alpha 90.000000
_cell_angle_beta 90.000000
_cell_angle_gamma 90.000000
_cell_volume 3938.439607
_symmetry_space_group_name_H-M "P M M N"
_symmetry_group_IT_number 59
_space_group.IT_coordinate_system_code '2'
_symmetry_cell_setting 'orthorhombic'
loop_
_space_group_symop_operation_xyz
x,y,z
1/2-x,1/2-y,z
1/2+x,-y,-z
-x,1/2+y,-z
-x,-y,-z
1/2+x,1/2+y,-z
1/2-x,y,z
x,1/2-y,z
loop_
_atom_site_type_symbol
_atom_site_label
_atom_site_fract_x
_atom_site_fract_y
_atom_site_fract_z
Si Si1 0.921891 0.972680 0.894105
Si Si2 0.418055 0.683716 0.119823
Si Si3 0.424365 0.136720 0.745943
Si Si4 0.918441 0.474704 0.400838
Si Si5 0.421071 0.091043 0.517002
Si Si6 0.079132 0.004298 0.756547
Si Si7 0.420070 0.915703 0.015469
Si Si8 0.920242 0.317522 0.607098
O O1 0.750000 0.962979 0.886681
O O2 0.963919 0.034568 0.928249
O O3 0.991569 0.969167 0.816235
O O4 0.986291 0.921624 0.943580
O O5 0.250000 0.670201 0.143967
O O6 0.436917 0.750000 0.096297
O O7 0.527859 0.670402 0.183692
O O8 0.459297 0.645634 0.051120
O O9 0.250000 0.140492 0.735937
O O10 0.478333 0.070300 0.750913
O O11 0.498406 0.167924 0.679824
O O12 0.750000 0.459026 0.418769
O O13 0.952393 0.540046 0.426528
O O14 0.950206 0.471303 0.317275
O O15 0.022801 0.428436 0.439530
O O16 0.250000 0.106625 0.512133
O O17 0.509016 0.147624 0.541752
O O18 0.250000 0.004222 0.776869
O O19 0.250000 0.920969 0.994431
O O20 0.750000 0.334733 0.614958
O O21 0.939778 0.250000 0.589657
#
# Coordination Sequence:
#
# PCOD8240600 Si02
#       8
#     8   8   8   8   8   8   8   8
#     4  10  19  30  48  71  94 124 161 201 245 290
#     4  10  20  34  50  69  96 131 169 203 239 287
#     4  11  21  33  48  70 100 133 170 205 239 282
#     4   9  18  33  50  71  99 130 161 197 246 298
#     4  10  19  33  51  74  98 126 164 206 248 289
#     4  10  19  32  49  71 100 132 162 196 240 292
#     4   9  18  32  47  67  94 127 161 199 244 288
#     4  11  23  36  50  69  97 136 175 207 242 286
#
# _framework density 16.250091000000001
#
# number of rings (size 3 to 8) (size 9 to 14) (size 15 to 20)
#    0.000    2.000    2.500    1.875    0.000    5.250 
#    0.000    0.000    0.000    0.000    0.000    0.875 
#    0.000    3.000    0.000    0.000    0.000    0.000 
#
# Total GULP energy -793851.805221 kJ/mol
# GULP energy per Si atom -12403.934457 kJ/mol
# Density = 1.621310 g / cm^3
# Si number density = 16.250091 Si / 1000 Ang^3
#
#
#
# Elastic Constant Matrix: (Units=GPa)
#
#
# Indices 1 2 3 4 5 6 
#
# 1 84.7953 44.8476 54.6789 0.0000 0.0000 0.0000
# 2 44.8476 78.0239 48.8022 0.0000 0.0000 0.0000
# 3 54.6789 48.8022 104.5560 0.0000 0.0000 0.0000
# 4 0.0000 0.0000 0.0000 22.3166 0.0000 0.0000
# 5 0.0000 0.0000 0.0000 0.0000 26.6836 0.0000
# 6 0.0000 0.0000 0.0000 0.0000 0.0000 22.4505
#
#
#
# Elastic Compliance Matrix: (Units=1/GPa)
#
#
# Indices 1 2 3 4 5 6 
#
# 1 0.020227 -0.007076 -0.007275 0.000000 0.000000 0.000000
# 2 -0.007076 0.020576 -0.005904 0.000000 0.000000 0.000000
# 3 -0.007275 -0.005904 0.016125 0.000000 0.000000 0.000000
# 4 0.000000 0.000000 0.000000 0.044810 0.000000 0.000000
# 5 0.000000 0.000000 0.000000 0.000000 0.037476 0.000000
# 6 0.000000 0.000000 0.000000 0.000000 0.000000 0.044542
#
#
# Mechanical properties :
#
#
# Convention : Reuss Voigt Hill
#
# Bulk Modulus (GPa) = 60.90806 62.67030 61.78918
# Shear Modulus (GPa) = 21.76391 22.22656 21.99523
#
# Velocity S-wave (km/s) = 3.66363 3.70236 3.68305
# Velocity P-wave (km/s) = 7.44710 7.54497 7.49619
#
# Compressibility (1/GPa) = 0.01641819
#
# Stress axis : x y z
#
# Youngs Moduli (GPa) = 49.43968 48.59943 62.01732
#
# Poissons Ratio (x) = 0.34388 0.45119
# Poissons Ratio (y) = 0.34982 0.36614
# Poissons Ratio (z) = 0.35968 0.28692
#
# Static dielectric constant tensor:
#      x y z
#    x 3.138550 0.000000 0.000000 
#    y 0.000000 2.928770 0.000000 
#    z 0.000000 0.000000 3.012350 
# 
# 
# High freq. dielectric constant tensor:
#      x y z
#    x 1.634800 0.000000 0.000000 
#    y 0.000000 1.597930 0.000000 
#    z 0.000000 0.000000 1.618240 
# 
# From -- ./inp_files/26481.got.cif
#   From: 2010.03.12/outbox.cif.g09.slc.cpg/sg59_14_cif.got.tgz:26481.got - 2010.04.16 16:29:54.
