data_PCOD8240465
_publ_section_title
;
Structure prediction by ZEFSAII (Michael W. Deem and Ramdas Pophale) SiO2 
 PCOD8240465
Probable space group: P M M N
;
_chemical_formula_sum "Si O2"
_cell_formula_units_Z 64
_cell_length_a 9.278776
_cell_length_b 28.349171
_cell_length_c 15.417413
_cell_angle_alpha 90.000000
_cell_angle_beta 90.000000
_cell_angle_gamma 90.000000
_cell_volume 4055.482769
_symmetry_space_group_name_H-M "P M M N"
_symmetry_group_IT_number 59
_space_group.IT_coordinate_system_code '2'
_symmetry_cell_setting 'orthorhombic'
loop_
_space_group_symop_operation_xyz
x,y,z
1/2-x,1/2-y,z
1/2+x,-y,-z
-x,1/2+y,-z
-x,-y,-z
1/2+x,1/2+y,-z
1/2-x,y,z
x,1/2-y,z
loop_
_atom_site_type_symbol
_atom_site_label
_atom_site_fract_x
_atom_site_fract_y
_atom_site_fract_z
Si Si1 0.084309 0.449191 0.911820
Si Si2 0.081311 0.805069 0.321525
Si Si3 0.415354 0.195451 0.008946
Si Si4 0.417431 0.694917 0.658076
Si Si5 0.582763 0.053660 0.085182
Si Si6 0.416451 0.354327 0.831005
Si Si7 0.587158 0.693967 0.490544
Si Si8 0.918763 0.149286 0.164760
O O1 0.250000 0.448286 0.940469
O O2 0.039447 0.501650 0.878788
O O3 0.057729 0.410904 0.836103
O O4 0.997320 0.434403 0.996553
O O5 0.250000 0.814940 0.332643
O O6 0.049950 0.750000 0.305813
O O7 0.021397 0.833965 0.240872
O O8 0.000635 0.823993 0.407082
O O9 0.250000 0.185123 0.031969
O O10 0.443955 0.250000 0.990030
O O11 0.508627 0.179591 0.090053
O O12 0.461385 0.167523 0.923033
O O13 0.250000 0.685264 0.638521
O O14 0.445718 0.750000 0.674831
O O15 0.508445 0.675425 0.576906
O O16 0.473832 0.666476 0.741717
O O17 0.750000 0.055690 0.062522
O O18 0.543026 0.093661 0.155641
O O19 0.250000 0.342177 0.808494
O O20 0.750000 0.674092 0.487076
O O21 0.586924 0.750000 0.491449
O O22 0.750000 0.159003 0.156801
#
# Coordination Sequence:
#
# PCOD8240465 Si02
#       8
#     8   8   8   8   8   8   8   8
#     4   9  17  30  47  65  87 117 152 192 234 270
#     4  10  20  32  47  68  93 120 150 185 225 270
#     4  10  20  31  42  59  88 125 160 190 220 260
#     4   9  17  29  44  63  90 122 152 182 219 264
#     4   9  17  29  46  67  89 115 151 193 233 271
#     4  10  19  31  46  64  89 122 157 189 225 269
#     4   9  17  30  48  68  89 115 148 186 225 264
#     4  10  19  30  45  66  92 122 154 188 227 271
#
# _framework density 15.781105999999999
#
# number of rings (size 3 to 8) (size 9 to 14) (size 15 to 20)
#    0.000    2.500    1.250    1.500    0.000    5.000 
#    0.000    1.250    0.000    0.000    0.000    0.875 
#    0.000    0.000    0.000    0.000    0.000    0.000 
#
# Total GULP energy -793521.984175 kJ/mol
# GULP energy per Si atom -12398.781003 kJ/mol
# Density = 1.574519 g / cm^3
# Si number density = 15.781106 Si / 1000 Ang^3
#
#
#
# Elastic Constant Matrix: (Units=GPa)
#
#
# Indices 1 2 3 4 5 6 
#
# 1 65.3801 32.0971 53.7849 0.0000 0.0000 0.0000
# 2 32.0971 72.4755 45.1747 0.0000 0.0000 0.0000
# 3 53.7849 45.1747 112.2826 0.0000 0.0000 0.0000
# 4 0.0000 0.0000 0.0000 9.1289 0.0000 0.0000
# 5 0.0000 0.0000 0.0000 0.0000 30.0056 0.0000
# 6 0.0000 0.0000 0.0000 0.0000 0.0000 17.9802
#
#
#
# Elastic Compliance Matrix: (Units=1/GPa)
#
#
# Indices 1 2 3 4 5 6 
#
# 1 0.026594 -0.005122 -0.010678 0.000000 0.000000 0.000000
# 2 -0.005122 0.019403 -0.005353 0.000000 0.000000 0.000000
# 3 -0.010678 -0.005353 0.016175 0.000000 0.000000 0.000000
# 4 0.000000 0.000000 0.000000 0.109542 0.000000 0.000000
# 5 0.000000 0.000000 0.000000 0.000000 0.033327 0.000000
# 6 0.000000 0.000000 0.000000 0.000000 0.000000 0.055617
#
#
# Mechanical properties :
#
#
# Convention : Reuss Voigt Hill
#
# Bulk Modulus (GPa) = 50.33836 56.91684 53.62760
# Shear Modulus (GPa) = 16.15066 19.36171 17.75619
#
# Velocity S-wave (km/s) = 3.20256 3.50650 3.35797
# Velocity P-wave (km/s) = 6.75591 7.24837 7.00647
#
# Compressibility (1/GPa) = 0.01986556
#
# Stress axis : x y z
#
# Youngs Moduli (GPa) = 37.60238 51.53971 61.82484
#
# Poissons Ratio (x) = 0.26398 0.66018
# Poissons Ratio (y) = 0.19259 0.33094
# Poissons Ratio (z) = 0.40153 0.27588
#
# Static dielectric constant tensor:
#      x y z
#    x 3.079370 0.000000 0.000000 
#    y 0.000000 3.121230 0.000000 
#    z 0.000000 0.000000 2.961350 
# 
# 
# High freq. dielectric constant tensor:
#      x y z
#    x 1.610900 0.000000 0.000000 
#    y 0.000000 1.590530 0.000000 
#    z 0.000000 0.000000 1.590790 
# 
# From -- ./inp_files/21820.got.cif
#   From: 2010.03.12/outbox.cif.g09.slc.cpg/sg59_11_cif.got.tgz:21820.got - 2010.04.16 16:29:54.
