data_PCOD8240445
_publ_section_title
;
Structure prediction by ZEFSAII (Michael W. Deem and Ramdas Pophale) SiO2 
 PCOD8240445
Probable space group: P M M N
;
_chemical_formula_sum "Si O2"
_cell_formula_units_Z 64
_cell_length_a 24.482015
_cell_length_b 9.350919
_cell_length_c 18.725326
_cell_angle_alpha 90.000000
_cell_angle_beta 90.000000
_cell_angle_gamma 90.000000
_cell_volume 4286.776508
_symmetry_space_group_name_H-M "P M M N"
_symmetry_group_IT_number 59
_space_group.IT_coordinate_system_code '2'
_symmetry_cell_setting 'orthorhombic'
loop_
_space_group_symop_operation_xyz
x,y,z
1/2-x,1/2-y,z
1/2+x,-y,-z
-x,1/2+y,-z
-x,-y,-z
1/2+x,1/2+y,-z
1/2-x,y,z
x,1/2-y,z
loop_
_atom_site_type_symbol
_atom_site_label
_atom_site_fract_x
_atom_site_fract_y
_atom_site_fract_z
Si Si1 0.387333 0.092333 0.816929
Si Si2 0.186806 0.917528 0.559721
Si Si3 0.034740 0.086147 0.104994
Si Si4 0.586044 0.917729 0.495881
Si Si5 0.989040 0.088028 0.767078
Si Si6 0.063355 0.412328 0.956426
Si Si7 0.013125 0.582735 0.395637
Si Si8 0.190134 0.918192 0.721411
O O1 0.366499 0.250000 0.794812
O O2 0.449246 0.071450 0.792415
O O3 0.384527 0.072042 0.903295
O O4 0.351360 0.975440 0.779152
O O5 0.250000 0.951922 0.539818
O O6 0.175064 0.750000 0.547566
O O7 0.174552 0.962976 0.641183
O O8 0.145516 0.010759 0.512470
O O9 0.027748 0.250000 0.127597
O O10 0.049223 0.000978 0.177785
O O11 0.079559 0.066966 0.040546
O O12 0.979531 0.031232 0.068134
O O13 0.594073 0.750000 0.509834
O O14 0.547588 0.946087 0.426927
O O15 0.557916 0.988280 0.564459
O O16 0.968475 0.250000 0.770290
O O17 0.985019 0.030964 0.686297
O O18 0.039264 0.250000 0.946300
O O19 0.027639 0.750000 0.404066
O O20 0.250000 0.979005 0.739711
O O21 0.190091 0.750000 0.727098
#
# Coordination Sequence:
#
# PCOD8240445 Si02
#       8
#     8   8   8   8   8   8   8   8
#     4   9  16  26  40  57  78 105 136 167 199 236
#     4   9  18  32  47  61  81 111 141 169 208 255
#     4   9  15  23  37  55  75 101 132 163 192 225
#     4  10  19  30  45  64  84 107 140 179 210 241
#     4   9  17  28  40  56  81 109 135 165 200 239
#     4   8  15  26  36  50  76 105 130 159 194 229
#     4   9  18  31  44  59  84 117 143 166 207 257
#     4   9  18  30  41  56  79 104 132 168 204 235
#
# _framework density 14.929632
#
# number of rings (size 3 to 8) (size 9 to 14) (size 15 to 20)
#    0.000    3.000    0.000    3.000    0.000    5.500 
#    0.000    1.250    0.000    0.000    0.000    0.000 
#    0.000    1.000    0.000    6.500    0.000    5.250 
#
# Total GULP energy -792967.706138 kJ/mol
# GULP energy per Si atom -12390.120408 kJ/mol
# Density = 1.489565 g / cm^3
# Si number density = 14.929632 Si / 1000 Ang^3
#
#
#
# Elastic Constant Matrix: (Units=GPa)
#
#
# Indices 1 2 3 4 5 6 
#
# 1 53.7435 28.4087 29.6728 0.0000 0.0000 0.0000
# 2 28.4087 56.1883 41.3443 0.0000 0.0000 0.0000
# 3 29.6728 41.3443 112.3767 0.0000 0.0000 0.0000
# 4 0.0000 0.0000 0.0000 26.4608 0.0000 0.0000
# 5 0.0000 0.0000 0.0000 0.0000 17.0138 0.0000
# 6 0.0000 0.0000 0.0000 0.0000 0.0000 20.5862
#
#
#
# Elastic Compliance Matrix: (Units=1/GPa)
#
#
# Indices 1 2 3 4 5 6 
#
# 1 0.026013 -0.011104 -0.002783 0.000000 0.000000 0.000000
# 2 -0.011104 0.029144 -0.007790 0.000000 0.000000 0.000000
# 3 -0.002783 -0.007790 0.012500 0.000000 0.000000 0.000000
# 4 0.000000 0.000000 0.000000 0.037792 0.000000 0.000000
# 5 0.000000 0.000000 0.000000 0.000000 0.058776 0.000000
# 6 0.000000 0.000000 0.000000 0.000000 0.000000 0.048576
#
#
# Mechanical properties :
#
#
# Convention : Reuss Voigt Hill
#
# Bulk Modulus (GPa) = 41.15037 46.79555 43.97296
# Shear Modulus (GPa) = 18.92100 21.00433 19.96267
#
# Velocity S-wave (km/s) = 3.56384 3.75492 3.66063
# Velocity P-wave (km/s) = 6.67513 7.08600 6.88363
#
# Compressibility (1/GPa) = 0.02430112
#
# Stress axis : x y z
#
# Youngs Moduli (GPa) = 38.44178 34.31271 80.00210
#
# Poissons Ratio (x) = 0.38102 0.22268
# Poissons Ratio (y) = 0.42687 0.62323
# Poissons Ratio (z) = 0.10700 0.26730
#
# Static dielectric constant tensor:
#      x y z
#    x 2.610810 0.000000 0.000000 
#    y 0.000000 2.920610 0.000000 
#    z 0.000000 0.000000 3.176420 
# 
# 
# High freq. dielectric constant tensor:
#      x y z
#    x 1.519800 0.000000 0.000000 
#    y 0.000000 1.579350 0.000000 
#    z 0.000000 0.000000 1.575170 
# 
# From -- ./inp_files/31072.got.cif
#   From: 2010.03.12/outbox.cif.g09.slc.cpg/sg59_16_cif.got.tgz:31072.got - 2010.04.16 16:29:54.
