data_PCOD8240410
_publ_section_title
;
Structure prediction by ZEFSAII (Michael W. Deem and Ramdas Pophale) SiO2 
 PCOD8240410
Probable space group: P M M N
;
_chemical_formula_sum "Si O2"
_cell_formula_units_Z 64
_cell_length_a 9.392156
_cell_length_b 19.207206
_cell_length_c 19.886287
_cell_angle_alpha 90.000000
_cell_angle_beta 90.000000
_cell_angle_gamma 90.000000
_cell_volume 3587.428009
_symmetry_space_group_name_H-M "P M M N"
_symmetry_group_IT_number 59
_space_group.IT_coordinate_system_code '2'
_symmetry_cell_setting 'orthorhombic'
loop_
_space_group_symop_operation_xyz
x,y,z
1/2-x,1/2-y,z
1/2+x,-y,-z
-x,1/2+y,-z
-x,-y,-z
1/2+x,1/2+y,-z
1/2-x,y,z
x,1/2-y,z
loop_
_atom_site_type_symbol
_atom_site_label
_atom_site_fract_x
_atom_site_fract_y
_atom_site_fract_z
Si Si1 0.914906 0.458774 0.902959
Si Si2 0.914817 0.831307 0.496398
Si Si3 0.914265 0.090090 0.046879
Si Si4 0.581242 0.077110 0.397502
Si Si5 0.409789 0.170684 0.139929
Si Si6 0.092371 0.931231 0.243050
Si Si7 0.409400 0.406705 0.270485
Si Si8 0.087019 0.420225 0.631833
O O1 0.750000 0.482177 0.895409
O O2 0.963445 0.420013 0.833937
O O3 0.009277 0.526087 0.916388
O O4 0.934930 0.407612 0.966394
O O5 0.750000 0.840713 0.517589
O O6 0.960048 0.750000 0.501189
O O7 0.938132 0.858043 0.420528
O O8 0.012571 0.880796 0.541357
O O9 0.750000 0.086916 0.066737
O O10 0.987584 0.159112 0.076044
O O11 0.750000 0.087445 0.400114
O O12 0.518030 0.111436 0.330104
O O13 0.537637 0.994944 0.399628
O O14 0.250000 0.145719 0.121762
O O15 0.412011 0.250000 0.160443
O O16 0.469851 0.129690 0.204097
O O17 0.250000 0.898714 0.250603
O O18 0.993281 0.897128 0.299866
O O19 0.095873 0.012446 0.256484
O O20 0.250000 0.379245 0.288327
O O21 0.250000 0.427947 0.652762
#
# Coordination Sequence:
#
# PCOD8240410 Si02
#       8
#     8   8   8   8   8   8   8   8
#     4   9  17  31  49  72 101 129 160 201 250 300
#     4  10  21  37  55  73  98 135 173 205 244 303
#     4  10  19  29  47  73 100 129 163 207 251 290
#     4  10  20  33  52  78 106 130 159 209 260 299
#     4  10  20  34  50  66  94 137 176 207 241 293
#     4   9  16  29  51  74  99 128 160 200 245 297
#     4   9  17  31  49  70  97 130 167 200 237 292
#     4   9  19  34  52  77 105 130 163 209 257 300
#
# _framework density 17.840078999999999
#
# number of rings (size 3 to 8) (size 9 to 14) (size 15 to 20)
#    0.000    2.500    1.250    1.125    0.000    3.500 
#    0.000    1.250    0.000    0.750    0.000    3.500 
#    0.000    0.000    0.000    0.000    0.000    0.000 
#
# Total GULP energy -793317.302418 kJ/mol
# GULP energy per Si atom -12395.582850 kJ/mol
# Density = 1.779947 g / cm^3
# Si number density = 17.840079 Si / 1000 Ang^3
#
#
#
# Elastic Constant Matrix: (Units=GPa)
#
#
# Indices 1 2 3 4 5 6 
#
# 1 73.8085 18.9820 52.5055 0.0000 0.0000 0.0000
# 2 18.9820 36.3052 21.0091 0.0000 0.0000 0.0000
# 3 52.5055 21.0091 112.9128 0.0000 0.0000 0.0000
# 4 0.0000 0.0000 0.0000 10.5566 0.0000 0.0000
# 5 0.0000 0.0000 0.0000 0.0000 35.0522 0.0000
# 6 0.0000 0.0000 0.0000 0.0000 0.0000 18.5043
#
#
#
# Elastic Compliance Matrix: (Units=1/GPa)
#
#
# Indices 1 2 3 4 5 6 
#
# 1 0.021380 -0.006080 -0.008811 0.000000 0.000000 0.000000
# 2 -0.006080 0.032597 -0.003238 0.000000 0.000000 0.000000
# 3 -0.008811 -0.003238 0.013556 0.000000 0.000000 0.000000
# 4 0.000000 0.000000 0.000000 0.094728 0.000000 0.000000
# 5 0.000000 0.000000 0.000000 0.000000 0.028529 0.000000
# 6 0.000000 0.000000 0.000000 0.000000 0.000000 0.054041
#
#
# Mechanical properties :
#
#
# Convention : Reuss Voigt Hill
#
# Bulk Modulus (GPa) = 31.97364 45.33552 38.65458
# Shear Modulus (GPa) = 17.15194 21.52462 19.33828
#
# Velocity S-wave (km/s) = 3.10405 3.47728 3.29596
# Velocity P-wave (km/s) = 5.55051 6.44898 6.01654
#
# Compressibility (1/GPa) = 0.03127576
#
# Stress axis : x y z
#
# Youngs Moduli (GPa) = 46.77312 30.67789 73.76890
#
# Poissons Ratio (x) = 0.18652 0.64995
# Poissons Ratio (y) = 0.28437 0.23886
# Poissons Ratio (z) = 0.41210 0.09933
#
# Static dielectric constant tensor:
#      x y z
#    x 3.489900 0.000000 0.000000 
#    y 0.000000 3.019180 0.000000 
#    z 0.000000 0.000000 3.604220 
# 
# 
# High freq. dielectric constant tensor:
#      x y z
#    x 1.689150 0.000000 0.000000 
#    y 0.000000 1.652080 0.000000 
#    z 0.000000 0.000000 1.700080 
# 
# From -- ./inp_files/26196.got.cif
#   From: 2010.03.12/outbox.cif.g09.slc.cpg/sg59_14_cif.got.tgz:26196.got - 2010.04.16 16:29:54.
