data_PCOD8240937
_publ_section_title
;
Structure prediction by ZEFSAII (Michael W. Deem and Ramdas Pophale) SiO2 
 PCOD8240937
Probable space group: P M M N
;
_chemical_formula_sum "Si O2"
_cell_formula_units_Z 64
_cell_length_a 9.020977
_cell_length_b 17.585299
_cell_length_c 22.763625
_cell_angle_alpha 90.000000
_cell_angle_beta 90.000000
_cell_angle_gamma 90.000000
_cell_volume 3611.143569
_symmetry_space_group_name_H-M "P M M N"
_symmetry_group_IT_number 59
_space_group.IT_coordinate_system_code '2'
_symmetry_cell_setting 'orthorhombic'
loop_
_space_group_symop_operation_xyz
x,y,z
1/2-x,1/2-y,z
1/2+x,-y,-z
-x,1/2+y,-z
-x,-y,-z
1/2+x,1/2+y,-z
1/2-x,y,z
x,1/2-y,z
loop_
_atom_site_type_symbol
_atom_site_label
_atom_site_fract_x
_atom_site_fract_y
_atom_site_fract_z
Si Si1 0.424803 0.050902 0.865785
Si Si2 0.580487 0.024610 0.360986
Si Si3 0.921417 0.164057 0.187561
Si Si4 0.080823 0.069101 0.529875
Si Si5 0.923121 0.401233 0.067607
Si Si6 0.422925 0.838916 0.053413
Si Si7 0.575008 0.973155 0.758722
Si Si8 0.422953 0.836175 0.556080
O O1 0.250000 0.057107 0.856237
O O2 0.490117 0.129470 0.890077
O O3 0.467188 0.986572 0.913913
O O4 0.498389 0.031757 0.803482
O O5 0.750000 0.036087 0.339675
O O6 0.472828 0.007212 0.307092
O O7 0.528225 0.102055 0.394658
O O8 0.568532 0.947981 0.400601
O O9 0.750000 0.137444 0.193177
O O10 0.942085 0.250000 0.208566
O O11 0.973833 0.155165 0.119963
O O12 0.022326 0.112794 0.229126
O O13 0.250000 0.071211 0.509434
O O14 0.003878 0.146389 0.506398
O O15 0.000000 0.000000 0.500000
O O16 0.750000 0.391933 0.058451
O O17 0.994469 0.376679 0.005574
O O18 0.250000 0.858153 0.060887
O O19 0.451755 0.750000 0.049878
O O20 0.750000 0.979854 0.765547
O O21 0.250000 0.844925 0.543922
O O22 0.463009 0.750000 0.576286
#
# Coordination Sequence:
#
# PCOD8240937 Si02
#       8
#     8   8   8   8   8   8   8   8
#     4  10  20  35  53  71  96 131 170 207 245 297
#     4   9  18  33  51  72  99 133 172 206 240 288
#     4   9  17  31  50  70  97 134 169 199 239 296
#     4   9  17  30  50  74 100 131 165 201 239 281
#     4   8  15  29  50  74  97 126 163 199 241 297
#     4  10  19  31  50  76 103 127 155 199 254 305
#     4  11  22  34  50  72  97 127 168 214 254 289
#     4   9  18  32  51  77 109 140 166 196 237 285
#
# _framework density 17.722916999999999
#
# number of rings (size 3 to 8) (size 9 to 14) (size 15 to 20)
#    0.000    2.625    0.000    4.125    0.000    5.250 
#    0.000    3.750    0.000    3.750    0.000    3.500 
#    0.000    0.000    0.000    0.000    0.000    0.000 
#
# Total GULP energy -793292.321514 kJ/mol
# GULP energy per Si atom -12395.192524 kJ/mol
# Density = 1.768258 g / cm^3
# Si number density = 17.722917 Si / 1000 Ang^3
#
#
#
# Elastic Constant Matrix: (Units=GPa)
#
#
# Indices 1 2 3 4 5 6 
#
# 1 84.0920 35.5019 51.4433 0.0000 0.0000 0.0000
# 2 35.5019 42.1588 39.5613 0.0000 0.0000 0.0000
# 3 51.4433 39.5613 105.5125 0.0000 0.0000 0.0000
# 4 0.0000 0.0000 0.0000 9.8174 0.0000 0.0000
# 5 0.0000 0.0000 0.0000 0.0000 27.1557 0.0000
# 6 0.0000 0.0000 0.0000 0.0000 0.0000 26.6461
#
#
#
# Elastic Compliance Matrix: (Units=1/GPa)
#
#
# Indices 1 2 3 4 5 6 
#
# 1 0.020247 -0.012013 -0.005367 0.000000 0.000000 0.000000
# 2 -0.012013 0.043724 -0.010537 0.000000 0.000000 0.000000
# 3 -0.005367 -0.010537 0.016045 0.000000 0.000000 0.000000
# 4 0.000000 0.000000 0.000000 0.101860 0.000000 0.000000
# 5 0.000000 0.000000 0.000000 0.000000 0.036825 0.000000
# 6 0.000000 0.000000 0.000000 0.000000 0.000000 0.037529
#
#
# Mechanical properties :
#
#
# Convention : Reuss Voigt Hill
#
# Bulk Modulus (GPa) = 41.35460 53.86403 47.60931
# Shear Modulus (GPa) = 15.61891 19.74096 17.67994
#
# Velocity S-wave (km/s) = 2.97186 3.34108 3.16187
# Velocity P-wave (km/s) = 5.92964 6.73365 6.34439
#
# Compressibility (1/GPa) = 0.02418111
#
# Stress axis : x y z
#
# Youngs Moduli (GPa) = 49.39021 22.87081 62.32452
#
# Poissons Ratio (x) = 0.27476 0.33451
# Poissons Ratio (y) = 0.59335 0.65670
# Poissons Ratio (z) = 0.26509 0.24098
#
# Static dielectric constant tensor:
#      x y z
#    x 3.226160 0.000000 0.000000 
#    y 0.000000 3.515180 0.000000 
#    z 0.000000 0.000000 3.364290 
# 
# 
# High freq. dielectric constant tensor:
#      x y z
#    x 1.674740 0.000000 0.000000 
#    y 0.000000 1.667830 0.000000 
#    z 0.000000 0.000000 1.677670 
# 
# From -- ./inp_files/29559.got.cif
#   From: 2010.03.12/outbox.cif.g09.slc.cpg/sg59_15_cif.got.tgz:29559.got - 2010.04.16 16:29:54.
