data_PCOD8240806
_publ_section_title
;
Structure prediction by ZEFSAII (Michael W. Deem and Ramdas Pophale) SiO2 
 PCOD8240806
Probable space group: P M M N
;
_chemical_formula_sum "Si O2"
_cell_formula_units_Z 48
_cell_length_a 12.706157
_cell_length_b 20.641139
_cell_length_c 10.639186
_cell_angle_alpha 90.000000
_cell_angle_beta 90.000000
_cell_angle_gamma 90.000000
_cell_volume 2790.334554
_symmetry_space_group_name_H-M "P M M N"
_symmetry_group_IT_number 59
_space_group.IT_coordinate_system_code '2'
_symmetry_cell_setting 'orthorhombic'
loop_
_space_group_symop_operation_xyz
x,y,z
1/2-x,1/2-y,z
1/2+x,-y,-z
-x,1/2+y,-z
-x,-y,-z
1/2+x,1/2+y,-z
1/2-x,y,z
x,1/2-y,z
loop_
_atom_site_type_symbol
_atom_site_label
_atom_site_fract_x
_atom_site_fract_y
_atom_site_fract_z
Si Si1 0.129349 0.322780 0.476767
Si Si2 0.628030 0.572825 0.974731
Si Si3 0.046642 0.323658 0.205171
Si Si4 0.993802 0.476077 0.808327
Si Si5 0.471021 0.570560 0.450540
Si Si6 0.370754 0.909818 0.698458
O O1 0.250000 0.330927 0.515360
O O2 0.089273 0.250000 0.512405
O O3 0.118573 0.333096 0.327691
O O4 0.067169 0.378621 0.549509
O O5 0.750000 0.566525 0.010543
O O6 0.605325 0.640704 0.908106
O O7 0.597227 0.513753 0.882564
O O8 0.556821 0.571659 0.099628
O O9 0.034117 0.250000 0.163758
O O10 0.930249 0.351123 0.232639
O O11 0.936816 0.435752 0.695735
O O12 0.079617 0.523666 0.747416
O O13 0.500000 0.500000 0.500000
O O14 0.381317 0.596736 0.546015
O O15 0.250000 0.906419 0.737900
#
# Coordination Sequence:
#
# PCOD8240806 Si02
#       6
#     8   8   8   8   8   8
#     4   9  17  30  48  68  94 127 157 193 245 296
#     4  10  19  31  49  69  93 130 165 193 236 288
#     4   9  18  31  46  69  97 121 156 202 237 276
#     4   9  19  33  46  69 101 125 155 201 242 279
#     4   9  18  30  46  71  98 123 156 201 245 286
#     4   9  17  30  49  71  94 124 159 195 242 290
#
# _framework density 17.202238999999999
#
# number of rings (size 3 to 8) (size 9 to 14) (size 15 to 20)
#    0.000    2.833    0.000    2.000    0.000    5.333 
#    0.000    0.833    0.000    0.000    0.000    0.000 
#    0.000    1.333    0.000    0.000    0.000    0.000 
#
# Total GULP energy -594958.783654 kJ/mol
# GULP energy per Si atom -12394.974659 kJ/mol
# Density = 1.716309 g / cm^3
# Si number density = 17.202239 Si / 1000 Ang^3
#
#
#
# Elastic Constant Matrix: (Units=GPa)
#
#
# Indices 1 2 3 4 5 6 
#
# 1 54.8121 11.8333 -5.8305 0.0000 0.0000 0.0000
# 2 11.8333 88.8183 19.9836 0.0000 0.0000 0.0000
# 3 -5.8305 19.9836 76.1368 0.0000 0.0000 0.0000
# 4 0.0000 0.0000 0.0000 25.7253 0.0000 0.0000
# 5 0.0000 0.0000 0.0000 0.0000 12.0555 0.0000
# 6 0.0000 0.0000 0.0000 0.0000 0.0000 18.0439
#
#
#
# Elastic Compliance Matrix: (Units=1/GPa)
#
#
# Indices 1 2 3 4 5 6 
#
# 1 0.019147 -0.003062 0.002270 0.000000 0.000000 0.000000
# 2 -0.003062 0.012455 -0.003504 0.000000 0.000000 0.000000
# 3 0.002270 -0.003504 0.014228 0.000000 0.000000 0.000000
# 4 0.000000 0.000000 0.000000 0.038872 0.000000 0.000000
# 5 0.000000 0.000000 0.000000 0.000000 0.082949 0.000000
# 6 0.000000 0.000000 0.000000 0.000000 0.000000 0.055420
#
#
# Mechanical properties :
#
#
# Convention : Reuss Voigt Hill
#
# Bulk Modulus (GPa) = 26.85381 30.19332 28.52357
# Shear Modulus (GPa) = 20.48551 24.08367 22.28459
#
# Velocity S-wave (km/s) = 3.45463 3.74576 3.60314
# Velocity P-wave (km/s) = 5.61758 6.02476 5.82473
#
# Compressibility (1/GPa) = 0.03723866
#
# Stress axis : x y z
#
# Youngs Moduli (GPa) = 52.22873 80.28828 70.28565
#
# Poissons Ratio (x) = 0.24581 -0.15954
# Poissons Ratio (y) = 0.15990 0.24625
# Poissons Ratio (z) = -0.11855 0.28129
#
# Static dielectric constant tensor:
#      x y z
#    x 3.012390 0.000000 0.000000 
#    y 0.000000 3.250370 0.000000 
#    z 0.000000 0.000000 3.398470 
# 
# 
# High freq. dielectric constant tensor:
#      x y z
#    x 1.645830 0.000000 0.000000 
#    y 0.000000 1.656180 0.000000 
#    z 0.000000 0.000000 1.658560 
# 
# From -- ./inp_files/15928.got.cif
#   From: 2010.03.12/outbox.cif.g09.slc.cpg/sg59_8_cif.got.tgz:15928.got - 2010.04.16 16:29:54.
