data_PCOD8240536
_publ_section_title
;
Structure prediction by ZEFSAII (Michael W. Deem and Ramdas Pophale) SiO2 
 PCOD8240536
Probable space group: P M M N
;
_chemical_formula_sum "Si O2"
_cell_formula_units_Z 64
_cell_length_a 18.887447
_cell_length_b 9.368539
_cell_length_c 19.849195
_cell_angle_alpha 90.000000
_cell_angle_beta 90.000000
_cell_angle_gamma 90.000000
_cell_volume 3512.271066
_symmetry_space_group_name_H-M "P M M N"
_symmetry_group_IT_number 59
_space_group.IT_coordinate_system_code '2'
_symmetry_cell_setting 'orthorhombic'
loop_
_space_group_symop_operation_xyz
x,y,z
1/2-x,1/2-y,z
1/2+x,-y,-z
-x,1/2+y,-z
-x,-y,-z
1/2+x,1/2+y,-z
1/2-x,y,z
x,1/2-y,z
loop_
_atom_site_type_symbol
_atom_site_label
_atom_site_fract_x
_atom_site_fract_y
_atom_site_fract_z
Si Si1 0.925747 0.587856 0.451200
Si Si2 0.058005 0.414285 0.405431
Si Si3 0.564839 0.913354 0.855820
Si Si4 0.080811 0.582168 0.920127
Si Si5 0.831446 0.914731 0.970667
Si Si6 0.456715 0.916221 0.279344
Si Si7 0.671516 0.091150 0.201156
Si Si8 0.879992 0.591478 0.312419
O O1 0.958209 0.750000 0.444387
O O2 0.892727 0.569525 0.526818
O O3 0.866559 0.571374 0.392598
O O4 0.983028 0.466954 0.434465
O O5 0.052948 0.250000 0.381791
O O6 0.084881 0.507908 0.341883
O O7 0.553991 0.750000 0.831607
O O8 0.502006 0.953283 0.908886
O O9 0.639387 0.932232 0.894488
O O10 0.566052 0.014943 0.791207
O O11 0.094595 0.750000 0.930507
O O12 0.119792 0.521664 0.853573
O O13 0.114984 0.502598 0.982966
O O14 0.750000 0.970389 0.973820
O O15 0.834818 0.750000 0.993031
O O16 0.436588 0.750000 0.277881
O O17 0.539047 0.943857 0.292831
O O18 0.750000 0.088136 0.170451
O O19 0.645330 0.250000 0.216642
O O20 0.671610 0.010601 0.271923
O O21 0.860924 0.750000 0.289204
#
# Coordination Sequence:
#
# PCOD8240536 Si02
#       8
#     8   8   8   8   8   8   8   8
#     4   8  15  26  39  61  92 126 164 204 244 288
#     4   9  15  24  41  64  94 129 162 199 246 296
#     4  10  20  35  55  77 101 133 170 206 249 300
#     4  10  20  35  55  76  99 130 170 210 247 296
#     4  10  22  38  55  78 106 132 162 204 252 303
#     4  10  19  30  46  71 102 129 161 206 250 295
#     4  10  20  32  46  67  96 129 167 209 251 297
#     4   9  17  29  44  64  93 127 163 205 249 292
#
# _framework density 18.221827999999999
#
# number of rings (size 3 to 8) (size 9 to 14) (size 15 to 20)
#    0.000    2.500    1.250    2.250    0.000    5.000 
#    0.000    0.000    0.000    0.000    0.000    0.875 
#    0.000    3.000    0.000    0.000    0.000    0.000 
#
# Total GULP energy -793001.353762 kJ/mol
# GULP energy per Si atom -12390.646153 kJ/mol
# Density = 1.818035 g / cm^3
# Si number density = 18.221828 Si / 1000 Ang^3
#
#
#
# Elastic Constant Matrix: (Units=GPa)
#
#
# Indices 1 2 3 4 5 6 
#
# 1 45.0469 18.2994 29.1454 0.0000 0.0000 0.0000
# 2 18.2994 83.7860 58.6828 0.0000 0.0000 0.0000
# 3 29.1454 58.6828 122.8499 0.0000 0.0000 0.0000
# 4 0.0000 0.0000 0.0000 34.8000 0.0000 0.0000
# 5 0.0000 0.0000 0.0000 0.0000 9.5119 0.0000
# 6 0.0000 0.0000 0.0000 0.0000 0.0000 14.8488
#
#
#
# Elastic Compliance Matrix: (Units=1/GPa)
#
#
# Indices 1 2 3 4 5 6 
#
# 1 0.026463 -0.002078 -0.005286 0.000000 0.000000 0.000000
# 2 -0.002078 0.018099 -0.008153 0.000000 0.000000 0.000000
# 3 -0.005286 -0.008153 0.013288 0.000000 0.000000 0.000000
# 4 0.000000 0.000000 0.000000 0.028736 0.000000 0.000000
# 5 0.000000 0.000000 0.000000 0.000000 0.105131 0.000000
# 6 0.000000 0.000000 0.000000 0.000000 0.000000 0.067346
#
#
# Mechanical properties :
#
#
# Convention : Reuss Voigt Hill
#
# Bulk Modulus (GPa) = 37.28791 51.54868 44.41829
# Shear Modulus (GPa) = 16.72052 21.53582 19.12817
#
# Velocity S-wave (km/s) = 3.03249 3.44156 3.24348
# Velocity P-wave (km/s) = 5.72443 6.64405 6.20131
#
# Compressibility (1/GPa) = 0.02681835
#
# Stress axis : x y z
#
# Youngs Moduli (GPa) = 37.78869 55.25202 75.25395
#
# Poissons Ratio (x) = 0.11479 0.39777
# Poissons Ratio (y) = 0.07851 0.61351
# Poissons Ratio (z) = 0.19974 0.45045
#
# Static dielectric constant tensor:
#      x y z
#    x 2.975660 0.000000 0.000000 
#    y 0.000000 3.368690 0.000000 
#    z 0.000000 0.000000 3.651350 
# 
# 
# High freq. dielectric constant tensor:
#      x y z
#    x 1.650030 0.000000 0.000000 
#    y 0.000000 1.709140 0.000000 
#    z 0.000000 0.000000 1.720470 
# 
# From -- ./inp_files/29351.got.cif
#   From: 2010.03.12/outbox.cif.g09.slc.cpg/sg59_15_cif.got.tgz:29351.got - 2010.04.16 16:29:54.
