data_PCOD8240714
_publ_section_title
;
Structure prediction by ZEFSAII (Michael W. Deem and Ramdas Pophale) SiO2 
 PCOD8240714
Probable space group: P M M N
;
_chemical_formula_sum "Si O2"
_cell_formula_units_Z 64
_cell_length_a 19.351984
_cell_length_b 9.662080
_cell_length_c 20.302386
_cell_angle_alpha 90.000000
_cell_angle_beta 90.000000
_cell_angle_gamma 90.000000
_cell_volume 3796.148612
_symmetry_space_group_name_H-M "P M M N"
_symmetry_group_IT_number 59
_space_group.IT_coordinate_system_code '2'
_symmetry_cell_setting 'orthorhombic'
loop_
_space_group_symop_operation_xyz
x,y,z
1/2-x,1/2-y,z
1/2+x,-y,-z
-x,1/2+y,-z
-x,-y,-z
1/2+x,1/2+y,-z
1/2-x,y,z
x,1/2-y,z
loop_
_atom_site_type_symbol
_atom_site_label
_atom_site_fract_x
_atom_site_fract_y
_atom_site_fract_z
Si Si1 0.943082 0.093352 0.083707
Si Si2 0.403917 0.092324 0.029236
Si Si3 0.829130 0.585494 0.604611
Si Si4 0.327036 0.085171 0.155146
Si Si5 0.326208 0.086201 0.537566
Si Si6 0.582491 0.914807 0.725493
Si Si7 0.167671 0.409741 0.679966
Si Si8 0.068105 0.586851 0.764712
O O1 0.917281 0.250000 0.074760
O O2 0.935139 0.045489 0.158800
O O3 0.022232 0.078214 0.063592
O O4 0.896464 0.997336 0.036903
O O5 0.388289 0.250000 0.009305
O O6 0.349624 0.034343 0.082701
O O7 0.750000 0.532076 0.614677
O O8 0.828185 0.750000 0.610120
O O9 0.860323 0.540028 0.532392
O O10 0.880505 0.524234 0.660010
O O11 0.250000 0.031885 0.169597
O O12 0.331423 0.250000 0.156442
O O13 0.377018 0.024152 0.211381
O O14 0.250000 0.021177 0.536348
O O15 0.319973 0.250000 0.539058
O O16 0.361191 0.042142 0.607070
O O17 0.586573 0.750000 0.726642
O O18 0.502747 0.961657 0.729052
O O19 0.250000 0.430479 0.683619
O O20 0.148515 0.250000 0.693798
O O21 0.132096 0.505972 0.733717
O O22 0.079804 0.750000 0.755810
#
# Coordination Sequence:
#
# PCOD8240714 Si02
#       8
#     8   8   8   8   8   8   8   8
#     4   9  17  30  46  63  87 119 150 182 222 267
#     4   9  16  28  46  67  88 113 151 191 221 257
#     4   8  12  19  36  63  92 122 155 187 220 261
#     4   9  15  24  41  65  93 122 150 184 225 264
#     4   7  11  22  40  61  85 114 149 188 227 266
#     4   9  15  24  38  62  96 127 151 179 219 268
#     4   9  18  33  51  68  87 114 151 195 237 274
#     4  10  19  31  47  68  96 124 149 183 227 276
#
# _framework density 16.859192
#
# number of rings (size 3 to 8) (size 9 to 14) (size 15 to 20)
#    0.000    3.250    1.250    1.875    0.000    2.250 
#    0.000    1.250    0.000    2.625    0.000    0.000 
#    0.000    2.500    0.000    0.250    0.000    0.000 
#
# Total GULP energy -792858.945469 kJ/mol
# GULP energy per Si atom -12388.421023 kJ/mol
# Density = 1.682082 g / cm^3
# Si number density = 16.859192 Si / 1000 Ang^3
#
#
#
# Elastic Constant Matrix: (Units=GPa)
#
#
# Indices 1 2 3 4 5 6 
#
# 1 56.6761 21.3947 44.8730 0.0000 0.0000 0.0000
# 2 21.3947 30.4237 42.4310 0.0000 0.0000 0.0000
# 3 44.8730 42.4310 148.1636 0.0000 0.0000 0.0000
# 4 0.0000 0.0000 0.0000 15.4336 0.0000 0.0000
# 5 0.0000 0.0000 0.0000 0.0000 24.7429 0.0000
# 6 0.0000 0.0000 0.0000 0.0000 0.0000 14.3478
#
#
#
# Elastic Compliance Matrix: (Units=1/GPa)
#
#
# Indices 1 2 3 4 5 6 
#
# 1 0.025582 -0.011962 -0.004322 0.000000 0.000000 0.000000
# 2 -0.011962 0.060321 -0.013652 0.000000 0.000000 0.000000
# 3 -0.004322 -0.013652 0.011968 0.000000 0.000000 0.000000
# 4 0.000000 0.000000 0.000000 0.064794 0.000000 0.000000
# 5 0.000000 0.000000 0.000000 0.000000 0.040416 0.000000
# 6 0.000000 0.000000 0.000000 0.000000 0.000000 0.069697
#
#
# Mechanical properties :
#
#
# Convention : Reuss Voigt Hill
#
# Bulk Modulus (GPa) = 26.31657 50.29566 38.30611
# Shear Modulus (GPa) = 14.47955 19.34248 16.91102
#
# Velocity S-wave (km/s) = 2.93380 3.39085 3.17057
# Velocity P-wave (km/s) = 5.20766 6.72518 6.01447
#
# Compressibility (1/GPa) = 0.03799887
#
# Stress axis : x y z
#
# Youngs Moduli (GPa) = 39.09068 16.57805 83.55677
#
# Poissons Ratio (x) = 0.19830 0.36114
# Poissons Ratio (y) = 0.46759 1.14071
# Poissons Ratio (z) = 0.16895 0.22632
#
# Static dielectric constant tensor:
#      x y z
#    x 3.008150 0.000000 0.000000 
#    y 0.000000 2.678220 0.000000 
#    z 0.000000 0.000000 3.556170 
# 
# 
# High freq. dielectric constant tensor:
#      x y z
#    x 1.625830 0.000000 0.000000 
#    y 0.000000 1.589160 0.000000 
#    z 0.000000 0.000000 1.670420 
# 
# From -- ./inp_files/27972.got.cif
#   From: 2010.03.12/outbox.cif.g09.slc.cpg/sg59_14_cif.got.tgz:27972.got - 2010.04.16 16:29:54.
