data_PCOD8240563
_publ_section_title
;
Structure prediction by ZEFSAII (Michael W. Deem and Ramdas Pophale) SiO2 
 PCOD8240563
Probable space group: P M M N
;
_chemical_formula_sum "Si O2"
_cell_formula_units_Z 64
_cell_length_a 9.158181
_cell_length_b 13.721144
_cell_length_c 30.790235
_cell_angle_alpha 90.000000
_cell_angle_beta 90.000000
_cell_angle_gamma 90.000000
_cell_volume 3869.123108
_symmetry_space_group_name_H-M "P M M N"
_symmetry_group_IT_number 59
_space_group.IT_coordinate_system_code '2'
_symmetry_cell_setting 'orthorhombic'
loop_
_space_group_symop_operation_xyz
x,y,z
1/2-x,1/2-y,z
1/2+x,-y,-z
-x,1/2+y,-z
-x,-y,-z
1/2+x,1/2+y,-z
1/2-x,y,z
x,1/2-y,z
loop_
_atom_site_type_symbol
_atom_site_label
_atom_site_fract_x
_atom_site_fract_y
_atom_site_fract_z
Si Si1 0.920469 0.362011 0.615955
Si Si2 0.421904 0.544083 0.935965
Si Si3 0.579630 0.968103 0.679248
Si Si4 0.577738 0.137571 0.246346
Si Si5 0.423218 0.641998 0.850517
Si Si6 0.419391 0.141008 0.987156
Si Si7 0.588401 0.358576 0.389065
Si Si8 0.416304 0.476036 0.543682
O O1 0.750000 0.377718 0.605966
O O2 0.956598 0.250000 0.627286
O O3 0.966558 0.427642 0.657844
O O4 0.007513 0.392280 0.572609
O O5 0.250000 0.560930 0.938479
O O6 0.479941 0.566407 0.887219
O O7 0.492548 0.620096 0.969158
O O8 0.465612 0.433568 0.948804
O O9 0.750000 0.964002 0.688639
O O10 0.497684 0.944482 0.723967
O O11 0.535188 0.884337 0.645564
O O12 0.750000 0.124553 0.250674
O O13 0.535425 0.250000 0.258453
O O14 0.521995 0.113065 0.197558
O O15 0.250000 0.643426 0.849289
O O16 0.480944 0.750000 0.862524
O O17 0.250000 0.127989 0.998503
O O18 0.454797 0.250000 0.970770
O O19 0.750000 0.369947 0.367473
O O20 0.560252 0.250000 0.405338
O O21 0.577450 0.422799 0.431467
O O22 0.500000 0.500000 0.500000
O O23 0.250000 0.443319 0.534028
#
# Coordination Sequence:
#
# PCOD8240563 Si02
#       8
#     8   8   8   8   8   8   8   8
#     4   9  19  36  54  69  89 121 157 191 229 269
#     4   9  16  27  44  62  81 112 152 186 215 257
#     4  10  19  30  47  71  93 112 141 183 223 260
#     4   9  17  29  45  65  91 122 148 172 214 270
#     4   8  14  25  42  63  84 110 148 185 212 250
#     4   9  17  27  39  60  89 115 140 178 229 272
#     4   9  18  32  48  65  88 120 150 173 207 257
#     4  10  20  33  49  71  97 123 153 187 221 260
#
# _framework density 16.541215000000001
#
# number of rings (size 3 to 8) (size 9 to 14) (size 15 to 20)
#    0.000    2.875    0.000    2.250    0.000    4.500 
#    0.000    1.875    0.000    1.500    0.000    1.750 
#    0.000    0.000    0.000    0.000    0.000    0.000 
#
# Total GULP energy -793216.295985 kJ/mol
# GULP energy per Si atom -12394.004625 kJ/mol
# Density = 1.650357 g / cm^3
# Si number density = 16.541215 Si / 1000 Ang^3
#
#
#
# Elastic Constant Matrix: (Units=GPa)
#
#
# Indices 1 2 3 4 5 6 
#
# 1 48.6235 35.5731 42.5942 0.0000 0.0000 0.0000
# 2 35.5731 112.6469 63.8029 0.0000 0.0000 0.0000
# 3 42.5942 63.8029 127.9306 0.0000 0.0000 0.0000
# 4 0.0000 0.0000 0.0000 20.6302 0.0000 0.0000
# 5 0.0000 0.0000 0.0000 0.0000 24.3824 0.0000
# 6 0.0000 0.0000 0.0000 0.0000 0.0000 20.9831
#
#
#
# Elastic Compliance Matrix: (Units=1/GPa)
#
#
# Indices 1 2 3 4 5 6 
#
# 1 0.031347 -0.005558 -0.007665 0.000000 0.000000 0.000000
# 2 -0.005558 0.013358 -0.004811 0.000000 0.000000 0.000000
# 3 -0.007665 -0.004811 0.012768 0.000000 0.000000 0.000000
# 4 0.000000 0.000000 0.000000 0.048473 0.000000 0.000000
# 5 0.000000 0.000000 0.000000 0.000000 0.041013 0.000000
# 6 0.000000 0.000000 0.000000 0.000000 0.000000 0.047657
#
#
# Mechanical properties :
#
#
# Convention : Reuss Voigt Hill
#
# Bulk Modulus (GPa) = 46.71918 63.68238 55.20078
# Shear Modulus (GPa) = 21.02440 23.01454 22.01947
#
# Velocity S-wave (km/s) = 3.56902 3.73412 3.65250
# Velocity P-wave (km/s) = 6.72973 7.56137 7.15764
#
# Compressibility (1/GPa) = 0.02140449
#
# Stress axis : x y z
#
# Youngs Moduli (GPa) = 31.90121 74.86425 78.31829
#
# Poissons Ratio (x) = 0.41607 0.60032
# Poissons Ratio (y) = 0.17729 0.37682
# Poissons Ratio (z) = 0.24453 0.36020
#
# Static dielectric constant tensor:
#      x y z
#    x 3.075270 0.000000 0.000000 
#    y 0.000000 3.214610 0.000000 
#    z 0.000000 0.000000 3.233600 
# 
# 
# High freq. dielectric constant tensor:
#      x y z
#    x 1.626970 0.000000 0.000000 
#    y 0.000000 1.628110 0.000000 
#    z 0.000000 0.000000 1.630280 
# 
# From -- ./inp_files/33195.got.cif
#   From: 2010.03.12/outbox.cif.g09.slc.cpg/sg59_17_cif.got.tgz:33195.got - 2010.04.16 16:29:54.
