data_PCOD8240305
_publ_section_title
;
Structure prediction by ZEFSAII (Michael W. Deem and Ramdas Pophale) SiO2 
 PCOD8240305
Probable space group: P M M N
;
_chemical_formula_sum "Si O2"
_cell_formula_units_Z 64
_cell_length_a 27.098556
_cell_length_b 9.793421
_cell_length_c 14.115120
_cell_angle_alpha 90.000000
_cell_angle_beta 90.000000
_cell_angle_gamma 90.000000
_cell_volume 3745.977360
_symmetry_space_group_name_H-M "P M M N"
_symmetry_group_IT_number 59
_space_group.IT_coordinate_system_code '2'
_symmetry_cell_setting 'orthorhombic'
loop_
_space_group_symop_operation_xyz
x,y,z
1/2-x,1/2-y,z
1/2+x,-y,-z
-x,1/2+y,-z
-x,-y,-z
1/2+x,1/2+y,-z
1/2-x,y,z
x,1/2-y,z
loop_
_atom_site_type_symbol
_atom_site_label
_atom_site_fract_x
_atom_site_fract_y
_atom_site_fract_z
Si Si1 0.102417 0.094122 0.839246
Si Si2 0.456466 0.599951 0.515095
Si Si3 0.629175 0.407381 0.627254
Si Si4 0.966026 0.098337 0.275391
Si Si5 0.047564 0.091943 0.023901
Si Si6 0.924153 0.592599 0.765610
Si Si7 0.193323 0.090530 0.714542
Si Si8 0.192147 0.902965 0.541134
O O1 0.092850 0.250000 0.810381
O O2 0.157543 0.052341 0.803780
O O3 0.059347 0.008312 0.792144
O O4 0.093591 0.071425 0.951300
O O5 0.500000 0.500000 0.500000
O O6 0.476103 0.750000 0.489259
O O7 0.411381 0.558396 0.451001
O O8 0.438972 0.592857 0.623830
O O9 0.629466 0.250000 0.661216
O O10 0.619439 0.501931 0.718633
O O11 0.678072 0.446880 0.566957
O O12 0.961726 0.250000 0.230133
O O13 0.024039 0.062265 0.287132
O O14 0.030039 0.250000 0.024409
O O15 0.069754 0.049564 0.125109
O O16 0.000000 0.000000 0.000000
O O17 0.908341 0.750000 0.755426
O O18 0.250000 0.052595 0.742144
O O19 0.189488 0.250000 0.688953
O O20 0.174058 0.006890 0.622893
O O21 0.250000 0.898643 0.545279
O O22 0.170077 0.750000 0.560456
#
# Coordination Sequence:
#
# PCOD8240305 Si02
#       8
#     8   8   8   8   8   8   8   8
#     4  10  20  32  50  73  96 126 161 202 248 295
#     4  10  19  29  41  61  92 125 155 186 225 276
#     4  10  20  32  48  70  96 128 164 201 239 286
#     4  10  19  31  46  67  96 129 162 196 238 286
#     4  10  20  34  50  70  97 129 167 206 246 292
#     4  10  20  33  48  67  95 131 165 202 244 286
#     4   9  18  33  52  76 103 128 158 198 246 297
#     4   9  18  34  55  77 101 130 164 202 245 293
#
# _framework density 17.084993999999998
#
# number of rings (size 3 to 8) (size 9 to 14) (size 15 to 20)
#    0.000    2.250    2.500    0.750    0.000    3.500 
#    0.000    0.000    0.000    0.750    0.000    1.750 
#    0.000    0.000    0.000    0.000    0.000    0.000 
#
# Total GULP energy -793154.571783 kJ/mol
# GULP energy per Si atom -12393.040184 kJ/mol
# Density = 1.704611 g / cm^3
# Si number density = 17.084994 Si / 1000 Ang^3
#
#
#
# Elastic Constant Matrix: (Units=GPa)
#
#
# Indices 1 2 3 4 5 6 
#
# 1 42.7471 28.7297 32.9093 0.0000 0.0000 0.0000
# 2 28.7297 59.8577 42.5759 0.0000 0.0000 0.0000
# 3 32.9093 42.5759 107.0295 0.0000 0.0000 0.0000
# 4 0.0000 0.0000 0.0000 26.1927 0.0000 0.0000
# 5 0.0000 0.0000 0.0000 0.0000 29.6624 0.0000
# 6 0.0000 0.0000 0.0000 0.0000 0.0000 20.3458
#
#
#
# Elastic Compliance Matrix: (Units=1/GPa)
#
#
# Indices 1 2 3 4 5 6 
#
# 1 0.037133 -0.013530 -0.006036 0.000000 0.000000 0.000000
# 2 -0.013530 0.028228 -0.007069 0.000000 0.000000 0.000000
# 3 -0.006036 -0.007069 0.014011 0.000000 0.000000 0.000000
# 4 0.000000 0.000000 0.000000 0.038179 0.000000 0.000000
# 5 0.000000 0.000000 0.000000 0.000000 0.033713 0.000000
# 6 0.000000 0.000000 0.000000 0.000000 0.000000 0.049150
#
#
# Mechanical properties :
#
#
# Convention : Reuss Voigt Hill
#
# Bulk Modulus (GPa) = 38.30851 46.45156 42.38004
# Shear Modulus (GPa) = 19.05611 22.26816 20.66214
#
# Velocity S-wave (km/s) = 3.34334 3.61415 3.48138
# Velocity P-wave (km/s) = 6.11350 6.68308 6.40463
#
# Compressibility (1/GPa) = 0.02610386
#
# Stress axis : x y z
#
# Youngs Moduli (GPa) = 26.93022 35.42575 71.37237
#
# Poissons Ratio (x) = 0.47930 0.43077
# Poissons Ratio (y) = 0.36435 0.50453
# Poissons Ratio (z) = 0.16254 0.25042
#
# Static dielectric constant tensor:
#      x y z
#    x 3.031430 0.000000 0.000000 
#    y 0.000000 3.341640 0.000000 
#    z 0.000000 0.000000 3.369030 
# 
# 
# High freq. dielectric constant tensor:
#      x y z
#    x 1.639260 0.000000 0.000000 
#    y 0.000000 1.662510 0.000000 
#    z 0.000000 0.000000 1.652950 
# 
# From -- ./inp_files/18772.got.cif
#   From: 2010.03.12/outbox.cif.g09.slc.cpg/sg59_10_cif.got.tgz:18772.got - 2010.04.16 16:29:54.
