data_PCOD8240140
_publ_section_title
;
Structure prediction by ZEFSAII (Michael W. Deem and Ramdas Pophale) SiO2 
 PCOD8240140
Probable space group: P M M N
;
_chemical_formula_sum "Si O2"
_cell_formula_units_Z 56
_cell_length_a 19.423499
_cell_length_b 9.291958
_cell_length_c 17.421071
_cell_angle_alpha 90.000000
_cell_angle_beta 90.000000
_cell_angle_gamma 90.000000
_cell_volume 3144.195606
_symmetry_space_group_name_H-M "P M M N"
_symmetry_group_IT_number 59
_space_group.IT_coordinate_system_code '2'
_symmetry_cell_setting 'orthorhombic'
loop_
_space_group_symop_operation_xyz
x,y,z
1/2-x,1/2-y,z
1/2+x,-y,-z
-x,1/2+y,-z
-x,-y,-z
1/2+x,1/2+y,-z
1/2-x,y,z
x,1/2-y,z
loop_
_atom_site_type_symbol
_atom_site_label
_atom_site_fract_x
_atom_site_fract_y
_atom_site_fract_z
Si Si1 0.430856 0.919170 0.689292
Si Si2 0.045132 0.414046 0.099965
Si Si3 0.918479 0.916734 0.732203
Si Si4 0.671624 0.081770 0.181791
Si Si5 0.328736 0.580919 0.384054
Si Si6 0.069661 0.581368 0.517685
Si Si7 0.910453 0.917158 0.065810
O O1 0.433429 0.750000 0.701666
O O2 0.507486 0.979605 0.705180
O O3 0.375874 0.982005 0.749761
O O4 0.406183 0.959534 0.603655
O O5 0.016802 0.250000 0.098612
O O6 0.090015 0.439930 0.176341
O O7 0.980389 0.519511 0.101166
O O8 0.092684 0.443638 0.025866
O O9 0.911288 0.750000 0.709364
O O10 0.858074 0.003575 0.691115
O O11 0.750000 0.050736 0.204788
O O12 0.658720 0.250000 0.167798
O O13 0.654186 0.998161 0.103292
O O14 0.250000 0.533760 0.396282
O O15 0.335227 0.750000 0.370634
O O16 0.370691 0.531972 0.459557
O O17 0.054381 0.750000 0.510701
O O18 0.000000 0.500000 0.500000
O O19 0.907103 0.750000 0.086503
#
# Coordination Sequence:
#
# PCOD8240140 Si02
#       7
#     8   8   8   8   8   8   8
#     4   9  17  31  53  79 102 130 175 223 255 298
#     4   9  18  33  53  77 104 134 173 218 258 306
#     4  10  18  33  57  79 103 134 175 222 258 299
#     4  10  20  35  54  75 105 144 179 216 264 315
#     4  10  22  37  52  76 111 142 168 209 265 318
#     4  10  19  33  54  78 104 135 172 213 257 305
#     4  10  19  31  51  78 106 136 170 215 267 312
#
# _framework density 17.810597000000001
#
# number of rings (size 3 to 8) (size 9 to 14) (size 15 to 20)
#    0.000    2.286    2.857    0.429    0.000    2.286 
#    0.000    4.286    0.000    4.286    0.000    2.000 
#    0.000    0.000    0.000    0.000    0.000    0.000 
#
# Total GULP energy -694406.303638 kJ/mol
# GULP energy per Si atom -12400.112565 kJ/mol
# Density = 1.777006 g / cm^3
# Si number density = 17.810597 Si / 1000 Ang^3
#
#
#
# Elastic Constant Matrix: (Units=GPa)
#
#
# Indices 1 2 3 4 5 6 
#
# 1 126.2614 43.6264 69.3683 0.0000 0.0000 0.0000
# 2 43.6264 48.7921 42.0729 0.0000 0.0000 0.0000
# 3 69.3683 42.0729 135.5652 0.0000 0.0000 0.0000
# 4 0.0000 0.0000 0.0000 26.3670 0.0000 0.0000
# 5 0.0000 0.0000 0.0000 0.0000 29.6014 0.0000
# 6 0.0000 0.0000 0.0000 0.0000 0.0000 26.2809
#
#
#
# Elastic Compliance Matrix: (Units=1/GPa)
#
#
# Indices 1 2 3 4 5 6 
#
# 1 0.012970 -0.008021 -0.004148 0.000000 0.000000 0.000000
# 2 -0.008021 0.032944 -0.006120 0.000000 0.000000 0.000000
# 3 -0.004148 -0.006120 0.011398 0.000000 0.000000 0.000000
# 4 0.000000 0.000000 0.000000 0.037926 0.000000 0.000000
# 5 0.000000 0.000000 0.000000 0.000000 0.033782 0.000000
# 6 0.000000 0.000000 0.000000 0.000000 0.000000 0.038051
#
#
# Mechanical properties :
#
#
# Convention : Reuss Voigt Hill
#
# Bulk Modulus (GPa) = 48.22593 68.97267 58.59930
# Shear Modulus (GPa) = 23.74630 26.81993 25.28311
#
# Velocity S-wave (km/s) = 3.65536 3.88473 3.77179
# Velocity P-wave (km/s) = 6.70458 7.67666 7.20703
#
# Compressibility (1/GPa) = 0.02073573
#
# Stress axis : x y z
#
# Youngs Moduli (GPa) = 77.10083 30.35469 87.73313
#
# Poissons Ratio (x) = 0.24346 0.36388
# Poissons Ratio (y) = 0.61839 0.53694
# Poissons Ratio (z) = 0.31978 0.18577
#
# Static dielectric constant tensor:
#      x y z
#    x 3.195560 0.000000 0.000000 
#    y 0.000000 3.144900 0.000000 
#    z 0.000000 0.000000 3.622270 
# 
# 
# High freq. dielectric constant tensor:
#      x y z
#    x 1.669050 0.000000 0.000000 
#    y 0.000000 1.671150 0.000000 
#    z 0.000000 0.000000 1.703760 
# 
# From -- ./inp_files/28108.got.cif
#   From: 2010.03.12/outbox.cif.g09.slc.cpg/sg59_15_cif.got.tgz:28108.got - 2010.04.16 16:29:54.
