data_PCOD8240976
_publ_section_title
;
Structure prediction by ZEFSAII (Michael W. Deem and Ramdas Pophale) SiO2 
 PCOD8240976
Probable space group: P M M N
;
_chemical_formula_sum "Si O2"
_cell_formula_units_Z 56
_cell_length_a 21.196951
_cell_length_b 9.345687
_cell_length_c 16.456342
_cell_angle_alpha 90.000000
_cell_angle_beta 90.000000
_cell_angle_gamma 90.000000
_cell_volume 3260.002492
_symmetry_space_group_name_H-M "P M M N"
_symmetry_group_IT_number 59
_space_group.IT_coordinate_system_code '2'
_symmetry_cell_setting 'orthorhombic'
loop_
_space_group_symop_operation_xyz
x,y,z
1/2-x,1/2-y,z
1/2+x,-y,-z
-x,1/2+y,-z
-x,-y,-z
1/2+x,1/2+y,-z
1/2-x,y,z
x,1/2-y,z
loop_
_atom_site_type_symbol
_atom_site_label
_atom_site_fract_x
_atom_site_fract_y
_atom_site_fract_z
Si Si1 0.586860 0.088221 0.486444
Si Si2 0.820925 0.416154 0.056804
Si Si3 0.442880 0.916440 0.041460
Si Si4 0.483882 0.587094 0.215809
Si Si5 0.532140 0.583167 0.622527
Si Si6 0.871804 0.584637 0.204429
Si Si7 0.822312 0.086755 0.349893
O O1 0.575775 0.250000 0.516977
O O2 0.534812 0.047819 0.418471
O O3 0.653871 0.068969 0.442438
O O4 0.585458 0.985227 0.564391
O O5 0.750000 0.445524 0.022450
O O6 0.829124 0.250000 0.078490
O O7 0.828866 0.503761 0.139461
O O8 0.874361 0.464946 0.992468
O O9 0.455517 0.750000 0.024166
O O10 0.440214 0.946703 0.137994
O O11 0.500000 0.000000 0.000000
O O12 0.475623 0.750000 0.246230
O O13 0.464112 0.483198 0.288171
O O14 0.554913 0.561177 0.184599
O O15 0.545438 0.750000 0.631116
O O16 0.852551 0.750000 0.203868
O O17 0.860080 0.520553 0.292983
O O18 0.750000 0.043489 0.348556
O O19 0.833640 0.250000 0.320525
#
# Coordination Sequence:
#
# PCOD8240976 Si02
#       7
#     8   8   8   8   8   8   8
#     4   9  18  32  49  71  99 129 163 204 246 289
#     4  10  21  36  54  75 102 138 177 216 259 311
#     4  10  20  35  54  76 103 135 173 216 262 308
#     4  10  20  33  50  74 104 135 167 210 258 302
#     4  10  19  31  51  75  97 128 165 203 251 299
#     4  11  21  32  49  75 107 139 172 207 254 307
#     4  10  20  34  51  72 102 139 174 204 243 301
#
# _framework density 17.177900000000001
#
# number of rings (size 3 to 8) (size 9 to 14) (size 15 to 20)
#    0.000    2.000    2.857    1.286    0.000    4.571 
#    0.000    0.000    0.000    0.857    0.000    4.000 
#    0.000    0.000    0.000    0.000    0.000    0.000 
#
# Total GULP energy -694443.546056 kJ/mol
# GULP energy per Si atom -12400.777608 kJ/mol
# Density = 1.713880 g / cm^3
# Si number density = 17.177900 Si / 1000 Ang^3
#
#
#
# Elastic Constant Matrix: (Units=GPa)
#
#
# Indices 1 2 3 4 5 6 
#
# 1 78.1671 41.1814 43.9418 0.0000 0.0000 0.0000
# 2 41.1814 82.8231 56.3439 0.0000 0.0000 0.0000
# 3 43.9418 56.3439 100.8371 0.0000 0.0000 0.0000
# 4 0.0000 0.0000 0.0000 30.6047 0.0000 0.0000
# 5 0.0000 0.0000 0.0000 0.0000 22.9809 0.0000
# 6 0.0000 0.0000 0.0000 0.0000 0.0000 18.5157
#
#
#
# Elastic Compliance Matrix: (Units=1/GPa)
#
#
# Indices 1 2 3 4 5 6 
#
# 1 0.018645 -0.006039 -0.004751 0.000000 0.000000 0.000000
# 2 -0.006039 0.021434 -0.009345 0.000000 0.000000 0.000000
# 3 -0.004751 -0.009345 0.017209 0.000000 0.000000 0.000000
# 4 0.000000 0.000000 0.000000 0.032675 0.000000 0.000000
# 5 0.000000 0.000000 0.000000 0.000000 0.043514 0.000000
# 6 0.000000 0.000000 0.000000 0.000000 0.000000 0.054008
#
#
# Mechanical properties :
#
#
# Convention : Reuss Voigt Hill
#
# Bulk Modulus (GPa) = 58.75830 60.52906 59.64368
# Shear Modulus (GPa) = 21.41998 22.44428 21.93213
#
# Velocity S-wave (km/s) = 3.53505 3.61858 3.57706
# Velocity P-wave (km/s) = 7.13737 7.26443 7.20118
#
# Compressibility (1/GPa) = 0.01701887
#
# Stress axis : x y z
#
# Youngs Moduli (GPa) = 53.63284 46.65528 58.11014
#
# Poissons Ratio (x) = 0.28175 0.27606
# Poissons Ratio (y) = 0.32389 0.54303
# Poissons Ratio (z) = 0.25479 0.43598
#
# Static dielectric constant tensor:
#      x y z
#    x 3.179330 0.000000 0.000000 
#    y 0.000000 3.241590 0.000000 
#    z 0.000000 0.000000 3.151980 
# 
# 
# High freq. dielectric constant tensor:
#      x y z
#    x 1.644060 0.000000 0.000000 
#    y 0.000000 1.667110 0.000000 
#    z 0.000000 0.000000 1.656370 
# 
# From -- ./inp_files/28115.got.cif
#   From: 2010.03.12/outbox.cif.g09.slc.cpg/sg59_15_cif.got.tgz:28115.got - 2010.04.16 16:29:54.
