data_PCOD8240030
_publ_section_title
;
Structure prediction by ZEFSAII (Michael W. Deem and Ramdas Pophale) SiO2 
 PCOD8240030
Probable space group: P M M N
;
_chemical_formula_sum "Si O2"
_cell_formula_units_Z 64
_cell_length_a 9.298076
_cell_length_b 14.077376
_cell_length_c 27.203855
_cell_angle_alpha 90.000000
_cell_angle_beta 90.000000
_cell_angle_gamma 90.000000
_cell_volume 3560.780915
_symmetry_space_group_name_H-M "P M M N"
_symmetry_group_IT_number 59
_space_group.IT_coordinate_system_code '2'
_symmetry_cell_setting 'orthorhombic'
loop_
_space_group_symop_operation_xyz
x,y,z
1/2-x,1/2-y,z
1/2+x,-y,-z
-x,1/2+y,-z
-x,-y,-z
1/2+x,1/2+y,-z
1/2-x,y,z
x,1/2-y,z
loop_
_atom_site_type_symbol
_atom_site_label
_atom_site_fract_x
_atom_site_fract_y
_atom_site_fract_z
Si Si1 0.085641 0.516102 0.950658
Si Si2 0.920495 0.355676 0.332890
Si Si3 0.081371 0.545258 0.569610
Si Si4 0.081748 0.857275 0.218750
Si Si5 0.078812 0.643100 0.861884
Si Si6 0.407754 0.144388 0.876313
Si Si7 0.920257 0.037345 0.237095
Si Si8 0.417453 0.142483 0.516736
O O1 0.250000 0.539059 0.964165
O O2 0.025099 0.597606 0.913527
O O3 0.065386 0.417248 0.923675
O O4 0.000000 0.500000 0.000000
O O5 0.750000 0.350983 0.332996
O O6 0.984236 0.250000 0.341227
O O7 0.973316 0.426605 0.376016
O O8 0.973917 0.392966 0.280141
O O9 0.250000 0.563934 0.563697
O O10 0.044043 0.433998 0.559570
O O11 0.004222 0.615452 0.531790
O O12 0.250000 0.877357 0.222880
O O13 0.044345 0.750000 0.237022
O O14 0.033568 0.870454 0.162578
O O15 0.994197 0.935870 0.249217
O O16 0.250000 0.644407 0.861087
O O17 0.017057 0.750000 0.857611
O O18 0.026816 0.580387 0.815230
O O19 0.250000 0.118841 0.852576
O O20 0.407640 0.250000 0.896850
O O21 0.750000 0.023363 0.238540
O O22 0.250000 0.136207 0.503532
O O23 0.458335 0.250000 0.533751
#
# Coordination Sequence:
#
# PCOD8240030 Si02
#       8
#     8   8   8   8   8   8   8   8
#     4  10  20  33  48  71  98 128 160 195 241 291
#     4   9  17  29  49  78 105 129 163 209 255 294
#     4   9  17  30  48  72 102 134 170 213 256 299
#     4  10  20  33  51  75 100 125 155 196 245 290
#     4   9  17  31  51  73  97 126 160 197 237 286
#     4   9  17  32  53  73  93 120 158 199 237 283
#     4  10  18  32  54  77  99 128 166 203 241 291
#     4   9  17  29  46  69  99 137 176 212 254 301
#
# _framework density 17.973586000000001
#
# number of rings (size 3 to 8) (size 9 to 14) (size 15 to 20)
#    0.000    2.625    1.250    1.125    0.000    4.000 
#    0.000    1.250    0.000    5.250    0.000    0.000 
#    0.000    0.000    0.000    0.000    0.000    0.000 
#
# Total GULP energy -793142.733551 kJ/mol
# GULP energy per Si atom -12392.855212 kJ/mol
# Density = 1.793268 g / cm^3
# Si number density = 17.973586 Si / 1000 Ang^3
#
#
#
# Elastic Constant Matrix: (Units=GPa)
#
#
# Indices 1 2 3 4 5 6 
#
# 1 34.1813 35.4427 24.9815 0.0000 0.0000 0.0000
# 2 35.4427 153.7514 63.4436 0.0000 0.0000 0.0000
# 3 24.9815 63.4436 113.7252 0.0000 0.0000 0.0000
# 4 0.0000 0.0000 0.0000 25.1197 0.0000 0.0000
# 5 0.0000 0.0000 0.0000 0.0000 20.6742 0.0000
# 6 0.0000 0.0000 0.0000 0.0000 0.0000 19.8963
#
#
#
# Elastic Compliance Matrix: (Units=1/GPa)
#
#
# Indices 1 2 3 4 5 6 
#
# 1 0.040345 -0.007331 -0.004773 0.000000 0.000000 0.000000
# 2 -0.007331 0.009781 -0.003846 0.000000 0.000000 0.000000
# 3 -0.004773 -0.003846 0.011987 0.000000 0.000000 0.000000
# 4 0.000000 0.000000 0.000000 0.039809 0.000000 0.000000
# 5 0.000000 0.000000 0.000000 0.000000 0.048369 0.000000
# 6 0.000000 0.000000 0.000000 0.000000 0.000000 0.050261
#
#
# Mechanical properties :
#
#
# Convention : Reuss Voigt Hill
#
# Bulk Modulus (GPa) = 33.09745 61.04371 47.07058
# Shear Modulus (GPa) = 20.61651 24.99072 22.80362
#
# Velocity S-wave (km/s) = 3.39048 3.73287 3.56579
# Velocity P-wave (km/s) = 5.81219 7.25368 6.57257
#
# Compressibility (1/GPa) = 0.03021381
#
# Stress axis : x y z
#
# Youngs Moduli (GPa) = 24.78597 102.23910 83.42252
#
# Poissons Ratio (x) = 0.74951 0.39816
# Poissons Ratio (y) = 0.18171 0.32085
# Poissons Ratio (z) = 0.11830 0.39323
#
# Static dielectric constant tensor:
#      x y z
#    x 3.190720 0.000000 0.000000 
#    y 0.000000 3.872020 0.000000 
#    z 0.000000 0.000000 3.244490 
# 
# 
# High freq. dielectric constant tensor:
#      x y z
#    x 1.660960 0.000000 0.000000 
#    y 0.000000 1.715450 0.000000 
#    z 0.000000 0.000000 1.677490 
# 
# From -- ./inp_files/31602.got.cif
#   From: 2010.03.12/outbox.cif.g09.slc.cpg/sg59_16_cif.got.tgz:31602.got - 2010.04.16 16:29:54.
