data_PCOD8240553
_publ_section_title
;
Structure prediction by ZEFSAII (Michael W. Deem and Ramdas Pophale) SiO2 
 PCOD8240553
Probable space group: P M M N
;
_chemical_formula_sum "Si O2"
_cell_formula_units_Z 64
_cell_length_a 13.684253
_cell_length_b 9.146830
_cell_length_c 30.423666
_cell_angle_alpha 90.000000
_cell_angle_beta 90.000000
_cell_angle_gamma 90.000000
_cell_volume 3808.055305
_symmetry_space_group_name_H-M "P M M N"
_symmetry_group_IT_number 59
_space_group.IT_coordinate_system_code '2'
_symmetry_cell_setting 'orthorhombic'
loop_
_space_group_symop_operation_xyz
x,y,z
1/2-x,1/2-y,z
1/2+x,-y,-z
-x,1/2+y,-z
-x,-y,-z
1/2+x,1/2+y,-z
1/2-x,y,z
x,1/2-y,z
loop_
_atom_site_type_symbol
_atom_site_label
_atom_site_fract_x
_atom_site_fract_y
_atom_site_fract_z
Si Si1 0.452234 0.919894 0.934083
Si Si2 0.500514 0.079186 0.546116
Si Si3 0.638570 0.077727 0.236458
Si Si4 0.505442 0.085466 0.315835
Si Si5 0.860092 0.583112 0.987115
Si Si6 0.862552 0.579161 0.146096
Si Si7 0.861677 0.077416 0.624755
Si Si8 0.139593 0.587598 0.601608
O O1 0.429815 0.750000 0.926334
O O2 0.381264 0.976832 0.972344
O O3 0.432886 0.007409 0.889712
O O4 0.565265 0.947856 0.947250
O O5 0.505954 0.250000 0.537525
O O6 0.587867 0.026613 0.578845
O O7 0.500000 0.000000 0.500000
O O8 0.399386 0.035543 0.568825
O O9 0.750000 0.040362 0.251393
O O10 0.628703 0.250000 0.228130
O O11 0.558435 0.024248 0.272152
O O12 0.611598 0.992386 0.192472
O O13 0.467046 0.250000 0.308185
O O14 0.588762 0.081252 0.351895
O O15 0.413622 0.989634 0.332112
O O16 0.750000 0.554697 0.970015
O O17 0.872732 0.750000 0.003776
O O18 0.750000 0.549107 0.133215
O O19 0.885074 0.750000 0.148885
O O20 0.750000 0.023593 0.623433
O O21 0.869923 0.250000 0.629385
O O22 0.250000 0.547995 0.610909
O O23 0.127003 0.750000 0.580631
#
# Coordination Sequence:
#
# PCOD8240553 Si02
#       8
#     8   8   8   8   8   8   8   8
#     4  10  19  30  47  70  94 123 160 199 238 281
#     4  10  20  33  48  68  94 123 157 195 233 274
#     4   9  17  30  49  73 100 127 153 184 227 280
#     4   9  17  30  50  75  98 119 149 190 231 273
#     4   9  18  32  48  67  93 124 157 195 240 286
#     4  10  20  32  46  67  97 130 160 191 231 279
#     4   9  19  35  52  69  92 125 161 195 234 278
#     4   9  17  30  48  69  94 123 150 179 223 276
#
# _framework density 16.806479
#
# number of rings (size 3 to 8) (size 9 to 14) (size 15 to 20)
#    0.000    2.625    0.000    1.875    0.000    6.500 
#    0.000    1.250    0.000    3.000    0.000    1.750 
#    0.000    0.000    0.000    0.000    0.000    0.000 
#
# Total GULP energy -793448.603932 kJ/mol
# GULP energy per Si atom -12397.634436 kJ/mol
# Density = 1.676823 g / cm^3
# Si number density = 16.806479 Si / 1000 Ang^3
#
#
#
# Elastic Constant Matrix: (Units=GPa)
#
#
# Indices 1 2 3 4 5 6 
#
# 1 114.5209 41.3664 53.8029 0.0000 0.0000 0.0000
# 2 41.3664 62.4299 52.2482 0.0000 0.0000 0.0000
# 3 53.8029 52.2482 110.4183 0.0000 0.0000 0.0000
# 4 0.0000 0.0000 0.0000 30.9639 0.0000 0.0000
# 5 0.0000 0.0000 0.0000 0.0000 19.8133 0.0000
# 6 0.0000 0.0000 0.0000 0.0000 0.0000 24.7268
#
#
#
# Elastic Compliance Matrix: (Units=1/GPa)
#
#
# Indices 1 2 3 4 5 6 
#
# 1 0.012256 -0.005170 -0.003525 0.000000 0.000000 0.000000
# 2 -0.005170 0.028702 -0.011062 0.000000 0.000000 0.000000
# 3 -0.003525 -0.011062 0.016008 0.000000 0.000000 0.000000
# 4 0.000000 0.000000 0.000000 0.032296 0.000000 0.000000
# 5 0.000000 0.000000 0.000000 0.000000 0.050471 0.000000
# 6 0.000000 0.000000 0.000000 0.000000 0.000000 0.040442
#
#
# Mechanical properties :
#
#
# Convention : Reuss Voigt Hill
#
# Bulk Modulus (GPa) = 57.30346 64.68934 60.99640
# Shear Modulus (GPa) = 22.17229 24.43092 23.30160
#
# Velocity S-wave (km/s) = 3.63612 3.81683 3.72757
# Velocity P-wave (km/s) = 7.19712 7.61567 7.40935
#
# Compressibility (1/GPa) = 0.01745095
#
# Stress axis : x y z
#
# Youngs Moduli (GPa) = 81.59355 34.84118 62.46692
#
# Poissons Ratio (x) = 0.18015 0.22021
# Poissons Ratio (y) = 0.42188 0.69100
# Poissons Ratio (z) = 0.28764 0.38541
#
# Static dielectric constant tensor:
#      x y z
#    x 3.250160 0.000000 0.000000 
#    y 0.000000 3.493050 0.000000 
#    z 0.000000 0.000000 3.146860 
# 
# 
# High freq. dielectric constant tensor:
#      x y z
#    x 1.639190 0.000000 0.000000 
#    y 0.000000 1.651280 0.000000 
#    z 0.000000 0.000000 1.638170 
# 
# From -- ./inp_files/33348.got.cif
#   From: 2010.03.12/outbox.cif.g09.slc.cpg/sg59_17_cif.got.tgz:33348.got - 2010.04.16 16:29:54.
