data_PCOD8240468
_publ_section_title
;
Structure prediction by ZEFSAII (Michael W. Deem and Ramdas Pophale) SiO2 
 PCOD8240468
Probable space group: P M M N
;
_chemical_formula_sum "Si O2"
_cell_formula_units_Z 64
_cell_length_a 9.027171
_cell_length_b 18.345847
_cell_length_c 21.593568
_cell_angle_alpha 90.000000
_cell_angle_beta 90.000000
_cell_angle_gamma 90.000000
_cell_volume 3576.134506
_symmetry_space_group_name_H-M "P M M N"
_symmetry_group_IT_number 59
_space_group.IT_coordinate_system_code '2'
_symmetry_cell_setting 'orthorhombic'
loop_
_space_group_symop_operation_xyz
x,y,z
1/2-x,1/2-y,z
1/2+x,-y,-z
-x,1/2+y,-z
-x,-y,-z
1/2+x,1/2+y,-z
1/2-x,y,z
x,1/2-y,z
loop_
_atom_site_type_symbol
_atom_site_label
_atom_site_fract_x
_atom_site_fract_y
_atom_site_fract_z
Si Si1 0.578068 0.664244 0.637534
Si Si2 0.922469 0.831472 0.869836
Si Si3 0.421103 0.965587 0.190071
Si Si4 0.421695 0.832019 0.270646
Si Si5 0.925631 0.398555 0.244028
Si Si6 0.583333 0.836786 0.393437
Si Si7 0.583250 0.163335 0.486375
Si Si8 0.079163 0.472708 0.060615
O O1 0.750000 0.642981 0.640739
O O2 0.554394 0.750000 0.646747
O O3 0.487909 0.622073 0.689446
O O4 0.513558 0.637631 0.571933
O O5 0.750000 0.843738 0.853761
O O6 0.951969 0.750000 0.895540
O O7 0.973392 0.890731 0.920993
O O8 0.012630 0.842173 0.806747
O O9 0.250000 0.987171 0.201929
O O10 0.454692 0.883172 0.211572
O O11 0.523814 0.019659 0.228871
O O12 0.457448 0.972426 0.117166
O O13 0.250000 0.833197 0.288990
O O14 0.472353 0.750000 0.253009
O O15 0.509834 0.863194 0.329539
O O16 0.750000 0.393745 0.244925
O O17 0.750000 0.867310 0.396654
O O18 0.582101 0.750000 0.395843
O O19 0.491835 0.868643 0.451458
O O20 0.750000 0.132478 0.480816
O O21 0.586157 0.250000 0.489786
O O22 0.250000 0.472363 0.044136
O O23 0.000000 0.500000 0.000000
#
# Coordination Sequence:
#
# PCOD8240468 Si02
#       8
#     8   8   8   8   8   8   8   8
#     4  10  19  30  45  66  95 131 167 203 248 299
#     4   9  18  34  54  74  99 133 172 210 248 293
#     4   9  19  36  54  72  98 132 166 198 240 296
#     4   9  17  31  53  77  97 121 159 206 249 289
#     4  11  21  31  47  72 100 129 164 206 249 294
#     4   9  16  26  42  66  96 127 158 196 246 300
#     4   9  16  26  41  63  92 125 164 208 247 286
#     4   9  18  33  53  76 102 134 168 200 239 289
#
# _framework density 17.896419999999999
#
# number of rings (size 3 to 8) (size 9 to 14) (size 15 to 20)
#    0.000    2.625    0.000    3.375    0.000    8.000 
#    0.000    0.625    0.000    1.500    0.000    0.000 
#    0.000    0.000    0.000    0.000    0.000    0.000 
#
# Total GULP energy -793531.761863 kJ/mol
# GULP energy per Si atom -12398.933779 kJ/mol
# Density = 1.785569 g / cm^3
# Si number density = 17.896420 Si / 1000 Ang^3
#
#
#
# Elastic Constant Matrix: (Units=GPa)
#
#
# Indices 1 2 3 4 5 6 
#
# 1 103.2772 36.1856 59.8905 0.0000 0.0000 0.0000
# 2 36.1856 78.5787 63.7923 0.0000 0.0000 0.0000
# 3 59.8905 63.7923 142.9284 0.0000 0.0000 0.0000
# 4 0.0000 0.0000 0.0000 21.9890 0.0000 0.0000
# 5 0.0000 0.0000 0.0000 0.0000 34.9531 0.0000
# 6 0.0000 0.0000 0.0000 0.0000 0.0000 16.6802
#
#
#
# Elastic Compliance Matrix: (Units=1/GPa)
#
#
# Indices 1 2 3 4 5 6 
#
# 1 0.013089 -0.002470 -0.004382 0.000000 0.000000 0.000000
# 2 -0.002470 0.020423 -0.008080 0.000000 0.000000 0.000000
# 3 -0.004382 -0.008080 0.012439 0.000000 0.000000 0.000000
# 4 0.000000 0.000000 0.000000 0.045477 0.000000 0.000000
# 5 0.000000 0.000000 0.000000 0.000000 0.028610 0.000000
# 6 0.000000 0.000000 0.000000 0.000000 0.000000 0.059951
#
#
# Mechanical properties :
#
#
# Convention : Reuss Voigt Hill
#
# Bulk Modulus (GPa) = 62.16367 71.61344 66.88855
# Shear Modulus (GPa) = 23.23218 25.71885 24.47552
#
# Velocity S-wave (km/s) = 3.60689 3.79502 3.70215
# Velocity P-wave (km/s) = 7.22197 7.70099 7.46532
#
# Compressibility (1/GPa) = 0.01608657
#
# Stress axis : x y z
#
# Youngs Moduli (GPa) = 76.39743 48.96325 80.39007
#
# Poissons Ratio (x) = 0.12094 0.35230
# Poissons Ratio (y) = 0.18870 0.64959
# Poissons Ratio (z) = 0.33480 0.39565
#
# Static dielectric constant tensor:
#      x y z
#    x 3.417690 0.000000 0.000000 
#    y 0.000000 3.174530 0.000000 
#    z 0.000000 0.000000 3.281750 
# 
# 
# High freq. dielectric constant tensor:
#      x y z
#    x 1.697080 0.000000 0.000000 
#    y 0.000000 1.662910 0.000000 
#    z 0.000000 0.000000 1.688130 
# 
# From -- ./inp_files/29361.got.cif
#   From: 2010.03.12/outbox.cif.g09.slc.cpg/sg59_15_cif.got.tgz:29361.got - 2010.04.16 16:29:54.
