data_PCOD8240855
_publ_section_title
;
Structure prediction by ZEFSAII (Michael W. Deem and Ramdas Pophale) SiO2 
 PCOD8240855
Probable space group: P M M N
;
_chemical_formula_sum "Si O2"
_cell_formula_units_Z 64
_cell_length_a 23.029548
_cell_length_b 9.065351
_cell_length_c 15.701299
_cell_angle_alpha 90.000000
_cell_angle_beta 90.000000
_cell_angle_gamma 90.000000
_cell_volume 3277.974889
_symmetry_space_group_name_H-M "P M M N"
_symmetry_group_IT_number 59
_space_group.IT_coordinate_system_code '2'
_symmetry_cell_setting 'orthorhombic'
loop_
_space_group_symop_operation_xyz
x,y,z
1/2-x,1/2-y,z
1/2+x,-y,-z
-x,1/2+y,-z
-x,-y,-z
1/2+x,1/2+y,-z
1/2-x,y,z
x,1/2-y,z
loop_
_atom_site_type_symbol
_atom_site_label
_atom_site_fract_x
_atom_site_fract_y
_atom_site_fract_z
Si Si1 0.130995 0.924736 0.753467
Si Si2 0.486406 0.088205 0.581424
Si Si3 0.350953 0.413615 0.584623
Si Si4 0.498087 0.076615 0.255998
Si Si5 0.682945 0.077713 0.589458
Si Si6 0.318549 0.915930 0.074962
Si Si7 0.681369 0.914508 0.087772
Si Si8 0.615146 0.423286 0.759118
O O1 0.135310 0.750000 0.743715
O O2 0.063479 0.972630 0.768621
O O3 0.162933 0.992840 0.670021
O O4 0.165033 0.978973 0.835314
O O5 0.516589 0.250000 0.583307
O O6 0.418811 0.108200 0.588880
O O7 0.500000 0.000000 0.500000
O O8 0.514919 0.983600 0.650593
O O9 0.321729 0.250000 0.588757
O O10 0.331591 0.493668 0.498249
O O11 0.490848 0.250000 0.250332
O O12 0.444648 0.999983 0.207078
O O13 0.750000 0.047607 0.613914
O O14 0.672405 0.250000 0.572423
O O15 0.642290 0.022574 0.668137
O O16 0.250000 0.924684 0.076260
O O17 0.339908 0.750000 0.055391
O O18 0.339567 0.967462 0.167558
O O19 0.344094 0.019948 0.000332
O O20 0.750000 0.908256 0.082065
O O21 0.655748 0.750000 0.101694
O O22 0.604010 0.250000 0.754694
#
# Coordination Sequence:
#
# PCOD8240855 Si02
#       8
#     8   8   8   8   8   8   8   8
#     4  10  21  38  59  81 108 145 185 224 269 323
#     4  10  19  31  49  72  99 133 174 219 264 311
#     4  10  21  35  51  74 104 138 176 218 265 315
#     4  10  21  35  52  77 108 141 181 226 270 321
#     4  10  21  36  53  76 108 145 185 227 270 321
#     4   9  18  35  59  85 112 143 182 226 271 325
#     4  10  21  37  59  87 114 139 172 219 274 328
#     4  10  20  35  57  82 109 145 186 227 273 322
#
# _framework density 19.524249000000001
#
# number of rings (size 3 to 8) (size 9 to 14) (size 15 to 20)
#    0.000    2.125    0.000    3.000    0.000    9.000 
#    0.000    0.625    0.000    2.250    0.000    0.000 
#    0.000    0.000    0.000    0.000    0.000    0.000 
#
# Total GULP energy -793038.724531 kJ/mol
# GULP energy per Si atom -12391.230071 kJ/mol
# Density = 1.947981 g / cm^3
# Si number density = 19.524249 Si / 1000 Ang^3
#
#
#
# Elastic Constant Matrix: (Units=GPa)
#
#
# Indices 1 2 3 4 5 6 
#
# 1 34.2213 30.4497 20.8124 0.0000 0.0000 0.0000
# 2 30.4497 62.0470 45.7856 0.0000 0.0000 0.0000
# 3 20.8124 45.7856 123.9868 0.0000 0.0000 0.0000
# 4 0.0000 0.0000 0.0000 29.1644 0.0000 0.0000
# 5 0.0000 0.0000 0.0000 0.0000 15.5915 0.0000
# 6 0.0000 0.0000 0.0000 0.0000 0.0000 27.3056
#
#
#
# Elastic Compliance Matrix: (Units=1/GPa)
#
#
# Indices 1 2 3 4 5 6 
#
# 1 0.051954 -0.026201 0.000954 0.000000 0.000000 0.000000
# 2 -0.026201 0.035367 -0.008662 0.000000 0.000000 0.000000
# 3 0.000954 -0.008662 0.011104 0.000000 0.000000 0.000000
# 4 0.000000 0.000000 0.000000 0.034288 0.000000 0.000000
# 5 0.000000 0.000000 0.000000 0.000000 0.064138 0.000000
# 6 0.000000 0.000000 0.000000 0.000000 0.000000 0.036623
#
#
# Mechanical properties :
#
#
# Convention : Reuss Voigt Hill
#
# Bulk Modulus (GPa) = 32.67142 46.03895 39.35518
# Shear Modulus (GPa) = 16.05170 22.62613 19.33891
#
# Velocity S-wave (km/s) = 2.87041 3.40792 3.15065
# Velocity P-wave (km/s) = 5.26838 6.25434 5.78241
#
# Compressibility (1/GPa) = 0.03060779
#
# Stress axis : x y z
#
# Youngs Moduli (GPa) = 19.24767 28.27504 90.05834
#
# Poissons Ratio (x) = 0.74083 -0.08595
# Poissons Ratio (y) = 0.50431 0.78010
# Poissons Ratio (z) = -0.01837 0.24492
#
# Static dielectric constant tensor:
#      x y z
#    x 3.560070 0.000000 0.000000 
#    y 0.000000 3.853650 0.000000 
#    z 0.000000 0.000000 3.569150 
# 
# 
# High freq. dielectric constant tensor:
#      x y z
#    x 1.753550 0.000000 0.000000 
#    y 0.000000 1.765320 0.000000 
#    z 0.000000 0.000000 1.756290 
# 
# From -- ./inp_files/21566.got.cif
#   From: 2010.03.12/outbox.cif.g09.slc.cpg/sg59_11_cif.got.tgz:21566.got - 2010.04.16 16:29:54.
