data_PCOD8240711
_publ_section_title
;
Structure prediction by ZEFSAII (Michael W. Deem and Ramdas Pophale) SiO2 
 PCOD8240711
Probable space group: P M M N
;
_chemical_formula_sum "Si O2"
_cell_formula_units_Z 64
_cell_length_a 12.865406
_cell_length_b 28.136433
_cell_length_c 10.184077
_cell_angle_alpha 90.000000
_cell_angle_beta 90.000000
_cell_angle_gamma 90.000000
_cell_volume 3686.499753
_symmetry_space_group_name_H-M "P M M N"
_symmetry_group_IT_number 59
_space_group.IT_coordinate_system_code '2'
_symmetry_cell_setting 'orthorhombic'
loop_
_space_group_symop_operation_xyz
x,y,z
1/2-x,1/2-y,z
1/2+x,-y,-z
-x,1/2+y,-z
-x,-y,-z
1/2+x,1/2+y,-z
1/2-x,y,z
x,1/2-y,z
loop_
_atom_site_type_symbol
_atom_site_label
_atom_site_fract_x
_atom_site_fract_y
_atom_site_fract_z
Si Si1 0.369513 0.895969 0.147311
Si Si2 0.982684 0.196503 0.161630
Si Si3 0.494746 0.441532 0.362461
Si Si4 0.479378 0.803298 0.138063
Si Si5 0.864577 0.805834 0.358742
Si Si6 0.124115 0.539097 0.383100
Si Si7 0.873345 0.846223 0.629759
Si Si8 0.872084 0.101016 0.144933
O O1 0.250000 0.907093 0.148848
O O2 0.385835 0.839526 0.167464
O O3 0.417066 0.927385 0.264500
O O4 0.412768 0.909767 0.003064
O O5 0.939337 0.250000 0.191402
O O6 0.895005 0.156120 0.185797
O O7 0.081122 0.185840 0.253182
O O8 0.020360 0.194125 0.010794
O O9 0.573367 0.440086 0.485097
O O10 0.424082 0.487940 0.354403
O O11 0.410985 0.399912 0.363347
O O12 0.567275 0.436491 0.234765
O O13 0.441134 0.750000 0.173487
O O14 0.572504 0.820773 0.230344
O O15 0.750000 0.827651 0.340106
O O16 0.859747 0.750000 0.374344
O O17 0.915224 0.826234 0.491252
O O18 0.250000 0.537071 0.396570
O O19 0.750000 0.843343 0.641168
O O20 0.750000 0.092577 0.160102
#
# Coordination Sequence:
#
# PCOD8240711 Si02
#       8
#     8   8   8   8   8   8   8   8
#     4   9  18  32  50  71  95 124 155 189 232 280
#     4   9  18  30  46  70  96 125 159 193 232 276
#     4  10  20  33  51  72  94 123 157 196 239 284
#     4   9  17  30  47  68  95 123 155 194 231 274
#     4   9  17  28  43  63  87 119 155 189 229 275
#     4  10  20  34  52  73  96 122 156 196 239 287
#     4  10  19  31  47  67  94 125 159 198 237 281
#     4   9  18  33  51  71  96 125 157 192 233 280
#
# _framework density 17.360641000000001
#
# number of rings (size 3 to 8) (size 9 to 14) (size 15 to 20)
#    0.000    2.625    0.000    1.875    0.000    2.250 
#    0.000    3.750    0.000    0.750    0.000    3.500 
#    0.000    0.000    0.000    0.000    0.000    0.000 
#
# Total GULP energy -793204.178625 kJ/mol
# GULP energy per Si atom -12393.815291 kJ/mol
# Density = 1.732113 g / cm^3
# Si number density = 17.360641 Si / 1000 Ang^3
#
#
#
# Elastic Constant Matrix: (Units=GPa)
#
#
# Indices 1 2 3 4 5 6 
#
# 1 44.1005 12.3359 26.5177 0.0000 0.0000 0.0000
# 2 12.3359 55.8621 40.2380 0.0000 0.0000 0.0000
# 3 26.5177 40.2380 103.4451 0.0000 0.0000 0.0000
# 4 0.0000 0.0000 0.0000 29.2988 0.0000 0.0000
# 5 0.0000 0.0000 0.0000 0.0000 25.1066 0.0000
# 6 0.0000 0.0000 0.0000 0.0000 0.0000 21.2264
#
#
#
# Elastic Compliance Matrix: (Units=1/GPa)
#
#
# Indices 1 2 3 4 5 6 
#
# 1 0.026881 -0.001351 -0.006365 0.000000 0.000000 0.000000
# 2 -0.001351 0.024937 -0.009354 0.000000 0.000000 0.000000
# 3 -0.006365 -0.009354 0.014937 0.000000 0.000000 0.000000
# 4 0.000000 0.000000 0.000000 0.034131 0.000000 0.000000
# 5 0.000000 0.000000 0.000000 0.000000 0.039830 0.000000
# 6 0.000000 0.000000 0.000000 0.000000 0.000000 0.047111
#
#
# Mechanical properties :
#
#
# Convention : Reuss Voigt Hill
#
# Bulk Modulus (GPa) = 30.66073 40.17677 35.41875
# Shear Modulus (GPa) = 21.47404 23.41409 22.44407
#
# Velocity S-wave (km/s) = 3.52083 3.67643 3.59947
# Velocity P-wave (km/s) = 5.85045 6.41983 6.14174
#
# Compressibility (1/GPa) = 0.03261501
#
# Stress axis : x y z
#
# Youngs Moduli (GPa) = 37.20116 40.10087 66.94759
#
# Poissons Ratio (x) = 0.05418 0.42614
# Poissons Ratio (y) = 0.05026 0.62621
# Poissons Ratio (z) = 0.23679 0.37509
#
# Static dielectric constant tensor:
#      x y z
#    x 3.173700 0.000000 0.000000 
#    y 0.000000 3.260930 0.000000 
#    z 0.000000 0.000000 3.556170 
# 
# 
# High freq. dielectric constant tensor:
#      x y z
#    x 1.655160 0.000000 0.000000 
#    y 0.000000 1.670170 0.000000 
#    z 0.000000 0.000000 1.684150 
# 
# From -- ./inp_files/9775.got.cif
#   From: 2010.03.12/outbox.cif.g09.slc.cpg/sg59_5_cif.got.tgz:9775.got - 2010.04.16 16:29:54.
