data_PCOD8240675
_publ_section_title
;
Structure prediction by ZEFSAII (Michael W. Deem and Ramdas Pophale) SiO2 
 PCOD8240675
Probable space group: P M M N
;
_chemical_formula_sum "Si O2"
_cell_formula_units_Z 56
_cell_length_a 8.971169
_cell_length_b 15.478927
_cell_length_c 21.540025
_cell_angle_alpha 90.000000
_cell_angle_beta 90.000000
_cell_angle_gamma 90.000000
_cell_volume 2991.135541
_symmetry_space_group_name_H-M "P M M N"
_symmetry_group_IT_number 59
_space_group.IT_coordinate_system_code '2'
_symmetry_cell_setting 'orthorhombic'
loop_
_space_group_symop_operation_xyz
x,y,z
1/2-x,1/2-y,z
1/2+x,-y,-z
-x,1/2+y,-z
-x,-y,-z
1/2+x,1/2+y,-z
1/2-x,y,z
x,1/2-y,z
loop_
_atom_site_type_symbol
_atom_site_label
_atom_site_fract_x
_atom_site_fract_y
_atom_site_fract_z
Si Si1 0.427363 0.002249 0.788787
Si Si2 0.927180 0.345425 0.430997
Si Si3 0.573294 0.344436 0.131431
Si Si4 0.573919 0.407581 0.998238
Si Si5 0.922443 0.349526 0.571424
Si Si6 0.578911 0.846945 0.122309
Si Si7 0.427338 0.495185 0.649034
O O1 0.250000 0.998891 0.787172
O O2 0.481825 0.087613 0.825295
O O3 0.490609 0.003873 0.719038
O O4 0.494073 0.918112 0.823741
O O5 0.750000 0.344293 0.429114
O O6 0.985878 0.250000 0.410448
O O7 0.979054 0.365387 0.501168
O O8 0.991129 0.419558 0.385770
O O9 0.750000 0.348600 0.135823
O O10 0.515280 0.250000 0.152987
O O11 0.523982 0.358449 0.060497
O O12 0.750000 0.418201 0.994199
O O13 0.500000 0.500000 0.000000
O O14 0.517507 0.353500 0.939760
O O15 0.750000 0.375195 0.577870
O O16 0.947465 0.250000 0.590300
O O17 0.018915 0.408163 0.616675
O O18 0.750000 0.869555 0.105825
O O19 0.563909 0.750000 0.148883
O O20 0.250000 0.495844 0.648113
#
# Coordination Sequence:
#
# PCOD8240675 Si02
#       7
#     8   8   8   8   8   8   8
#     4   9  18  32  47  71 104 134 164 201 251 303
#     4   8  15  29  49  75 104 131 162 204 255 305
#     4   9  17  30  50  74  99 126 158 200 249 298
#     4  11  20  33  55  79 104 130 164 211 259 302
#     4   9  18  33  51  70  99 137 168 201 253 309
#     4  10  20  35  53  72 100 138 172 205 253 306
#     4  10  19  30  51  78 101 129 169 214 250 290
#
# _framework density 18.721986999999999
#
# number of rings (size 3 to 8) (size 9 to 14) (size 15 to 20)
#    0.000    2.571    1.429    2.143    0.000    2.286 
#    0.000    5.000    0.000    1.286    0.000    0.000 
#    0.000    0.000    0.000    0.000    0.000    0.000 
#
# Total GULP energy -694263.902764 kJ/mol
# GULP energy per Si atom -12397.569692 kJ/mol
# Density = 1.867937 g / cm^3
# Si number density = 18.721987 Si / 1000 Ang^3
#
#
#
# Elastic Constant Matrix: (Units=GPa)
#
#
# Indices 1 2 3 4 5 6 
#
# 1 24.0404 19.9894 21.5986 0.0000 0.0000 0.0000
# 2 19.9894 157.0366 87.0920 0.0000 0.0000 0.0000
# 3 21.5986 87.0920 154.5519 0.0000 0.0000 0.0000
# 4 0.0000 0.0000 0.0000 18.7597 0.0000 0.0000
# 5 0.0000 0.0000 0.0000 0.0000 20.2898 0.0000
# 6 0.0000 0.0000 0.0000 0.0000 0.0000 20.8432
#
#
#
# Elastic Compliance Matrix: (Units=1/GPa)
#
#
# Indices 1 2 3 4 5 6 
#
# 1 0.048886 -0.003540 -0.004837 0.000000 0.000000 0.000000
# 2 -0.003540 0.009519 -0.004869 0.000000 0.000000 0.000000
# 3 -0.004837 -0.004869 0.009890 0.000000 0.000000 0.000000
# 4 0.000000 0.000000 0.000000 0.053306 0.000000 0.000000
# 5 0.000000 0.000000 0.000000 0.000000 0.049286 0.000000
# 6 0.000000 0.000000 0.000000 0.000000 0.000000 0.047977
#
#
# Mechanical properties :
#
#
# Convention : Reuss Voigt Hill
#
# Bulk Modulus (GPa) = 23.92215 65.88764 44.90489
# Shear Modulus (GPa) = 19.28335 25.77514 22.52925
#
# Velocity S-wave (km/s) = 3.21282 3.71446 3.47271
# Velocity P-wave (km/s) = 5.15444 7.32566 6.33378
#
# Compressibility (1/GPa) = 0.04180227
#
# Stress axis : x y z
#
# Youngs Moduli (GPa) = 20.45582 105.05144 101.10983
#
# Poissons Ratio (x) = 0.37191 0.48905
# Poissons Ratio (y) = 0.07242 0.49235
# Poissons Ratio (z) = 0.09894 0.51154
#
# Static dielectric constant tensor:
#      x y z
#    x 3.005480 0.000000 0.000000 
#    y 0.000000 3.735610 0.000000 
#    z 0.000000 0.000000 3.661770 
# 
# 
# High freq. dielectric constant tensor:
#      x y z
#    x 1.675030 0.000000 0.000000 
#    y 0.000000 1.745500 0.000000 
#    z 0.000000 0.000000 1.725230 
# 
# From -- ./inp_files/29101.got.cif
#   From: 2010.03.12/outbox.cif.g09.slc.cpg/sg59_15_cif.got.tgz:29101.got - 2010.04.16 16:29:54.
