data_PCOD8240894
_publ_section_title
;
Structure prediction by ZEFSAII (Michael W. Deem and Ramdas Pophale) SiO2 
 PCOD8240894
Probable space group: P M M N
;
_chemical_formula_sum "Si O2"
_cell_formula_units_Z 64
_cell_length_a 9.163264
_cell_length_b 14.608088
_cell_length_c 26.108618
_cell_angle_alpha 90.000000
_cell_angle_beta 90.000000
_cell_angle_gamma 90.000000
_cell_volume 3494.841302
_symmetry_space_group_name_H-M "P M M N"
_symmetry_group_IT_number 59
_space_group.IT_coordinate_system_code '2'
_symmetry_cell_setting 'orthorhombic'
loop_
_space_group_symop_operation_xyz
x,y,z
1/2-x,1/2-y,z
1/2+x,-y,-z
-x,1/2+y,-z
-x,-y,-z
1/2+x,1/2+y,-z
1/2-x,y,z
x,1/2-y,z
loop_
_atom_site_type_symbol
_atom_site_label
_atom_site_fract_x
_atom_site_fract_y
_atom_site_fract_z
Si Si1 0.916348 0.642102 0.124498
Si Si2 0.078921 0.507220 0.423175
Si Si3 0.423484 0.149339 0.761423
Si Si4 0.579653 0.646390 0.866809
Si Si5 0.420298 0.356148 0.505750
Si Si6 0.921187 0.497713 0.316594
Si Si7 0.421926 0.993564 0.053833
Si Si8 0.918626 0.353773 0.232964
O O1 0.750000 0.608356 0.116169
O O2 0.925936 0.750000 0.115640
O O3 0.972333 0.617231 0.181861
O O4 0.022235 0.594889 0.084038
O O5 0.250000 0.524855 0.419271
O O6 0.043840 0.414715 0.454913
O O7 0.008194 0.598082 0.447713
O O8 0.012835 0.491899 0.367767
O O9 0.250000 0.152014 0.761729
O O10 0.486731 0.250000 0.749103
O O11 0.480012 0.082089 0.717402
O O12 0.750000 0.642677 0.856215
O O13 0.526528 0.750000 0.878176
O O14 0.535735 0.584916 0.915041
O O15 0.503729 0.606457 0.815919
O O16 0.250000 0.361711 0.519390
O O17 0.468554 0.250000 0.498060
O O18 0.750000 0.507136 0.329523
O O19 0.956575 0.406850 0.284707
O O20 0.250000 0.984703 0.045455
O O21 0.500000 0.000000 0.000000
O O22 0.750000 0.364752 0.219239
O O23 0.965421 0.250000 0.243501
#
# Coordination Sequence:
#
# PCOD8240894 Si02
#       8
#     8   8   8   8   8   8   8   8
#     4   9  18  35  58  79 101 133 172 214 260 309
#     4  10  21  35  52  79 109 134 170 218 262 303
#     4   8  15  29  50  74  97 128 171 207 239 293
#     4   9  19  36  55  74  99 133 172 214 262 313
#     4   9  19  38  60  76  96 134 179 217 258 311
#     4  10  19  31  49  74 107 141 169 204 250 301
#     4  11  23  36  52  76 104 134 171 215 264 316
#     4   9  18  32  51  76 103 133 172 213 251 297
#
# _framework density 18.312705999999999
#
# number of rings (size 3 to 8) (size 9 to 14) (size 15 to 20)
#    0.000    2.625    0.000    2.250    0.000    5.000 
#    0.000    3.125    0.000    0.750    0.000    0.000 
#    0.000    0.000    0.000    0.000    0.000    0.000 
#
# Total GULP energy -793562.138536 kJ/mol
# GULP energy per Si atom -12399.408415 kJ/mol
# Density = 1.827103 g / cm^3
# Si number density = 18.312706 Si / 1000 Ang^3
#
#
#
# Elastic Constant Matrix: (Units=GPa)
#
#
# Indices 1 2 3 4 5 6 
#
# 1 59.4895 45.8707 62.2533 0.0000 0.0000 0.0000
# 2 45.8707 110.4878 69.3414 0.0000 0.0000 0.0000
# 3 62.2533 69.3414 156.3265 0.0000 0.0000 0.0000
# 4 0.0000 0.0000 0.0000 7.6620 0.0000 0.0000
# 5 0.0000 0.0000 0.0000 0.0000 36.6880 0.0000
# 6 0.0000 0.0000 0.0000 0.0000 0.0000 24.7701
#
#
#
# Elastic Compliance Matrix: (Units=1/GPa)
#
#
# Indices 1 2 3 4 5 6 
#
# 1 0.032768 -0.007503 -0.009721 0.000000 0.000000 0.000000
# 2 -0.007503 0.014260 -0.003337 0.000000 0.000000 0.000000
# 3 -0.009721 -0.003337 0.011748 0.000000 0.000000 0.000000
# 4 0.000000 0.000000 0.000000 0.130514 0.000000 0.000000
# 5 0.000000 0.000000 0.000000 0.000000 0.027257 0.000000
# 6 0.000000 0.000000 0.000000 0.000000 0.000000 0.040371
#
#
# Mechanical properties :
#
#
# Convention : Reuss Voigt Hill
#
# Bulk Modulus (GPa) = 56.64634 75.69272 66.16953
# Shear Modulus (GPa) = 16.45138 23.74658 20.09898
#
# Velocity S-wave (km/s) = 3.00052 3.60492 3.31651
# Velocity P-wave (km/s) = 6.55775 7.66488 7.13283
#
# Compressibility (1/GPa) = 0.01765339
#
# Stress axis : x y z
#
# Youngs Moduli (GPa) = 30.51799 70.12389 85.11893
#
# Poissons Ratio (x) = 0.52616 0.82741
# Poissons Ratio (y) = 0.22899 0.28408
# Poissons Ratio (z) = 0.29665 0.23404
#
# Static dielectric constant tensor:
#      x y z
#    x 3.249840 0.000000 0.000000 
#    y 0.000000 3.719350 0.000000 
#    z 0.000000 0.000000 3.378070 
# 
# 
# High freq. dielectric constant tensor:
#      x y z
#    x 1.693740 0.000000 0.000000 
#    y 0.000000 1.718950 0.000000 
#    z 0.000000 0.000000 1.709770 
# 
# From -- ./inp_files/31638.got.cif
#   From: 2010.03.12/outbox.cif.g09.slc.cpg/sg59_16_cif.got.tgz:31638.got - 2010.04.16 16:29:54.
