data_PCOD8240421
_publ_section_title
;
Structure prediction by ZEFSAII (Michael W. Deem and Ramdas Pophale) SiO2 
 PCOD8240421
Probable space group: P M M N
;
_chemical_formula_sum "Si O2"
_cell_formula_units_Z 56
_cell_length_a 9.243441
_cell_length_b 22.391926
_cell_length_c 17.493319
_cell_angle_alpha 90.000000
_cell_angle_beta 90.000000
_cell_angle_gamma 90.000000
_cell_volume 3620.739997
_symmetry_space_group_name_H-M "P M M N"
_symmetry_group_IT_number 59
_space_group.IT_coordinate_system_code '2'
_symmetry_cell_setting 'orthorhombic'
loop_
_space_group_symop_operation_xyz
x,y,z
1/2-x,1/2-y,z
1/2+x,-y,-z
-x,1/2+y,-z
-x,-y,-z
1/2+x,1/2+y,-z
1/2-x,y,z
x,1/2-y,z
loop_
_atom_site_type_symbol
_atom_site_label
_atom_site_fract_x
_atom_site_fract_y
_atom_site_fract_z
Si Si1 0.918834 0.561280 0.513911
Si Si2 0.414664 0.028730 0.322971
Si Si3 0.416336 0.319775 0.740228
Si Si4 0.581810 0.061139 0.014596
Si Si5 0.584779 0.469988 0.177660
Si Si6 0.081850 0.099250 0.880538
Si Si7 0.421309 0.897549 0.378567
O O1 0.750000 0.555951 0.491495
O O2 0.934726 0.573863 0.604945
O O3 0.000000 0.500000 0.500000
O O4 0.998412 0.610571 0.460999
O O5 0.250000 0.025426 0.297329
O O6 0.500394 0.054948 0.250898
O O7 0.466910 0.961708 0.344044
O O8 0.250000 0.334305 0.718559
O O9 0.445360 0.250000 0.746431
O O10 0.454395 0.347599 0.822527
O O11 0.522193 0.345642 0.676228
O O12 0.750000 0.054241 0.993872
O O13 0.562918 0.074895 0.105313
O O14 0.508714 0.110563 0.959122
O O15 0.500000 0.000000 0.000000
O O16 0.750000 0.473159 0.202571
O O17 0.531015 0.536794 0.157015
O O18 0.250000 0.096705 0.902589
O O19 0.250000 0.891794 0.390445
#
# Coordination Sequence:
#
# PCOD8240421 Si02
#       7
#     8   8   8   8   8   8   8
#     4   9  17  28  41  60  84 112 145 177 212 259
#     4   9  17  26  39  61  85 111 142 172 208 253
#     4  10  20  33  48  64  84 114 151 188 224 260
#     4   9  17  27  39  58  81 110 143 174 210 255
#     4   9  16  25  39  59  83 111 142 172 206 252
#     4   9  17  29  42  59  81 110 145 179 217 257
#     4  10  19  30  43  61  84 113 147 182 220 258
#
# _framework density 15.466450999999999
#
# number of rings (size 3 to 8) (size 9 to 14) (size 15 to 20)
#    0.000    2.714    1.429    3.000    0.000    6.571 
#    0.000    0.000    0.000    0.000    0.000    0.000 
#    0.000    1.143    0.000    6.286    0.000    4.286 
#
# Total GULP energy -693991.656447 kJ/mol
# GULP energy per Si atom -12392.708151 kJ/mol
# Density = 1.543125 g / cm^3
# Si number density = 15.466451 Si / 1000 Ang^3
#
#
#
# Elastic Constant Matrix: (Units=GPa)
#
#
# Indices 1 2 3 4 5 6 
#
# 1 88.8171 26.0477 70.6450 0.0000 0.0000 0.0000
# 2 26.0477 40.9734 37.4772 0.0000 0.0000 0.0000
# 3 70.6450 37.4772 130.4543 0.0000 0.0000 0.0000
# 4 0.0000 0.0000 0.0000 15.8949 0.0000 0.0000
# 5 0.0000 0.0000 0.0000 0.0000 34.7288 0.0000
# 6 0.0000 0.0000 0.0000 0.0000 0.0000 14.2312
#
#
#
# Elastic Compliance Matrix: (Units=1/GPa)
#
#
# Indices 1 2 3 4 5 6 
#
# 1 0.020216 -0.003850 -0.009842 0.000000 0.000000 0.000000
# 2 -0.003850 0.033838 -0.007636 0.000000 0.000000 0.000000
# 3 -0.009842 -0.007636 0.015189 0.000000 0.000000 0.000000
# 4 0.000000 0.000000 0.000000 0.062913 0.000000 0.000000
# 5 0.000000 0.000000 0.000000 0.000000 0.028795 0.000000
# 6 0.000000 0.000000 0.000000 0.000000 0.000000 0.070268
#
#
# Mechanical properties :
#
#
# Convention : Reuss Voigt Hill
#
# Bulk Modulus (GPa) = 37.61162 58.73162 48.17162
# Shear Modulus (GPa) = 17.68421 21.37595 19.53008
#
# Velocity S-wave (km/s) = 3.38508 3.72167 3.55736
# Velocity P-wave (km/s) = 6.29677 7.51823 6.93445
#
# Compressibility (1/GPa) = 0.02658753
#
# Stress axis : x y z
#
# Youngs Moduli (GPa) = 49.46511 29.55231 65.83773
#
# Poissons Ratio (x) = 0.11378 0.64795
# Poissons Ratio (y) = 0.19044 0.50275
# Poissons Ratio (z) = 0.48682 0.22567
#
# Static dielectric constant tensor:
#      x y z
#    x 3.107960 0.000000 0.000000 
#    y 0.000000 2.499820 0.000000 
#    z 0.000000 0.000000 3.528400 
# 
# 
# High freq. dielectric constant tensor:
#      x y z
#    x 1.605160 0.000000 0.000000 
#    y 0.000000 1.517180 0.000000 
#    z 0.000000 0.000000 1.607120 
# 
# From -- ./inp_files/26390.got.cif
#   From: 2010.03.12/outbox.cif.g09.slc.cpg/sg59_14_cif.got.tgz:26390.got - 2010.04.16 16:29:54.
