data_PCOD8240134
_publ_section_title
;
Structure prediction by ZEFSAII (Michael W. Deem and Ramdas Pophale) SiO2 
 PCOD8240134
Probable space group: P M M N
;
_chemical_formula_sum "Si O2"
_cell_formula_units_Z 64
_cell_length_a 9.046971
_cell_length_b 18.748174
_cell_length_c 19.850821
_cell_angle_alpha 90.000000
_cell_angle_beta 90.000000
_cell_angle_gamma 90.000000
_cell_volume 3366.980855
_symmetry_space_group_name_H-M "P M M N"
_symmetry_group_IT_number 59
_space_group.IT_coordinate_system_code '2'
_symmetry_cell_setting 'orthorhombic'
loop_
_space_group_symop_operation_xyz
x,y,z
1/2-x,1/2-y,z
1/2+x,-y,-z
-x,1/2+y,-z
-x,-y,-z
1/2+x,1/2+y,-z
1/2-x,y,z
x,1/2-y,z
loop_
_atom_site_type_symbol
_atom_site_label
_atom_site_fract_x
_atom_site_fract_y
_atom_site_fract_z
Si Si1 0.919121 0.166681 0.394997
Si Si2 0.923031 0.942215 0.855846
Si Si3 0.921965 0.933363 0.704480
Si Si4 0.076464 0.168587 0.034885
Si Si5 0.078558 0.911614 0.348984
Si Si6 0.074322 0.829401 0.218791
Si Si7 0.425416 0.910459 0.087223
Si Si8 0.924246 0.668236 0.467818
O O1 0.750000 0.143289 0.404621
O O2 0.934420 0.250000 0.381513
O O3 0.987297 0.129209 0.330069
O O4 0.007572 0.143795 0.461482
O O5 0.750000 0.955366 0.848297
O O6 0.987852 0.941960 0.780134
O O7 0.960377 0.867995 0.893228
O O8 0.983216 0.008783 0.900158
O O9 0.750000 0.912031 0.707213
O O10 0.945231 0.004592 0.661021
O O11 0.250000 0.166833 0.020573
O O12 0.017378 0.250000 0.036177
O O13 0.997601 0.122107 0.978661
O O14 0.250000 0.892725 0.361069
O O15 0.015345 0.872663 0.282822
O O16 0.985256 0.885050 0.411971
O O17 0.250000 0.829947 0.219220
O O18 0.009475 0.750000 0.222765
O O19 0.017180 0.864783 0.150458
O O20 0.250000 0.906363 0.078404
O O21 0.750000 0.659507 0.472861
O O22 0.969307 0.750000 0.450793
#
# Coordination Sequence:
#
# PCOD8240134 Si02
#       8
#     8   8   8   8   8   8   8   8
#     4  10  22  40  60  82 109 143 183 227 276 326
#     4   9  18  35  57  79 107 143 183 225 270 326
#     4  10  20  36  59  85 110 140 183 229 273 327
#     4  10  21  35  51  76 110 145 181 224 276 328
#     4  10  19  33  54  81 112 144 179 224 275 329
#     4   9  16  27  48  77 106 139 178 218 263 315
#     4  10  18  33  56  80 105 139 183 227 268 317
#     4  10  21  37  57  82 112 147 187 228 270 321
#
# _framework density 19.008127000000002
#
# number of rings (size 3 to 8) (size 9 to 14) (size 15 to 20)
#    0.000    2.250    1.250    1.875    0.000    4.250 
#    0.000    3.125    0.000    2.250    0.000    0.000 
#    0.000    0.000    0.000    0.000    0.000    0.000 
#
# Total GULP energy -793646.677312 kJ/mol
# GULP energy per Si atom -12400.729333 kJ/mol
# Density = 1.896486 g / cm^3
# Si number density = 19.008127 Si / 1000 Ang^3
#
#
#
# Elastic Constant Matrix: (Units=GPa)
#
#
# Indices 1 2 3 4 5 6 
#
# 1 55.9725 38.1334 46.7985 0.0000 0.0000 0.0000
# 2 38.1334 89.0238 62.4719 0.0000 0.0000 0.0000
# 3 46.7985 62.4719 132.6797 0.0000 0.0000 0.0000
# 4 0.0000 0.0000 0.0000 39.3217 0.0000 0.0000
# 5 0.0000 0.0000 0.0000 0.0000 27.1438 0.0000
# 6 0.0000 0.0000 0.0000 0.0000 0.0000 25.6080
#
#
#
# Elastic Compliance Matrix: (Units=1/GPa)
#
#
# Indices 1 2 3 4 5 6 
#
# 1 0.028475 -0.007690 -0.006423 0.000000 0.000000 0.000000
# 2 -0.007690 0.018853 -0.006164 0.000000 0.000000 0.000000
# 3 -0.006423 -0.006164 0.012705 0.000000 0.000000 0.000000
# 4 0.000000 0.000000 0.000000 0.025431 0.000000 0.000000
# 5 0.000000 0.000000 0.000000 0.000000 0.036841 0.000000
# 6 0.000000 0.000000 0.000000 0.000000 0.000000 0.039050
#
#
# Mechanical properties :
#
#
# Convention : Reuss Voigt Hill
#
# Bulk Modulus (GPa) = 51.33943 63.60929 57.47436
# Shear Modulus (GPa) = 23.99199 27.09952 25.54576
#
# Velocity S-wave (km/s) = 3.55659 3.77991 3.66995
# Velocity P-wave (km/s) = 6.62825 7.25171 6.94697
#
# Compressibility (1/GPa) = 0.01947821
#
# Stress axis : x y z
#
# Youngs Moduli (GPa) = 35.11818 53.04237 78.71015
#
# Poissons Ratio (x) = 0.40791 0.50554
# Poissons Ratio (y) = 0.27007 0.48519
# Poissons Ratio (z) = 0.22556 0.32697
#
# Static dielectric constant tensor:
#      x y z
#    x 3.165260 0.000000 0.000000 
#    y 0.000000 3.610030 0.000000 
#    z 0.000000 0.000000 3.563870 
# 
# 
# High freq. dielectric constant tensor:
#      x y z
#    x 1.705810 0.000000 0.000000 
#    y 0.000000 1.747000 0.000000 
#    z 0.000000 0.000000 1.748500 
# 
# From -- ./inp_files/28213.got.cif
#   From: 2010.03.12/outbox.cif.g09.slc.cpg/sg59_15_cif.got.tgz:28213.got - 2010.04.16 16:29:54.
