data_PCOD8240150
_publ_section_title
;
Structure prediction by ZEFSAII (Michael W. Deem and Ramdas Pophale) SiO2 
 PCOD8240150
Probable space group: P M M N
;
_chemical_formula_sum "Si O2"
_cell_formula_units_Z 56
_cell_length_a 8.484866
_cell_length_b 15.815258
_cell_length_c 20.060311
_cell_angle_alpha 90.000000
_cell_angle_beta 90.000000
_cell_angle_gamma 90.000000
_cell_volume 2691.900052
_symmetry_space_group_name_H-M "P M M N"
_symmetry_group_IT_number 59
_space_group.IT_coordinate_system_code '2'
_symmetry_cell_setting 'orthorhombic'
loop_
_space_group_symop_operation_xyz
x,y,z
1/2-x,1/2-y,z
1/2+x,-y,-z
-x,1/2+y,-z
-x,-y,-z
1/2+x,1/2+y,-z
1/2-x,y,z
x,1/2-y,z
loop_
_atom_site_type_symbol
_atom_site_label
_atom_site_fract_x
_atom_site_fract_y
_atom_site_fract_z
Si Si1 0.564016 0.344932 0.326940
Si Si2 0.562341 0.927638 0.948551
Si Si3 0.569550 0.936888 0.795477
Si Si4 0.071795 0.160978 0.631093
Si Si5 0.561646 0.490793 0.425953
Si Si6 0.064913 0.750000 0.993284
Si Si7 0.572001 0.893257 0.224938
Si Si8 0.066644 0.250000 0.864650
O O1 0.750000 0.346791 0.330983
O O2 0.500712 0.250000 0.342294
O O3 0.518863 0.368661 0.250788
O O4 0.496312 0.409976 0.383544
O O5 0.750000 0.921722 0.957935
O O6 0.512545 0.946957 0.872272
O O7 0.482682 0.836043 0.956739
O O8 0.500000 0.000000 0.000000
O O9 0.750000 0.910302 0.793733
O O10 0.540150 0.027416 0.762323
O O11 0.250000 0.159178 0.603966
O O12 0.992259 0.250000 0.606226
O O13 0.071307 0.164830 0.710478
O O14 0.988081 0.075726 0.606736
O O15 0.500000 0.500000 0.500000
O O16 0.750000 0.488143 0.423829
O O17 0.250000 0.750000 0.008473
O O18 0.961582 0.750000 0.058559
O O19 0.750000 0.925415 0.208868
O O20 0.496632 0.836308 0.166044
O O21 0.250000 0.250000 0.845879
#
# Coordination Sequence:
#
# PCOD8240150 Si02
#       8
#     8   8   8   8   8   4   8   4
#     4  10  22  41  65  91 118 157 206 252 300 363
#     4  11  25  45  65  90 126 167 213 265 322 382
#     4  11  24  39  60  89 123 157 197 258 318 361
#     4   9  16  31  56  85 115 148 191 236 279 338
#     4  10  21  38  60  87 122 159 197 242 290 351
#     4  12  26  42  62  88 124 167 210 257 312 379
#     4  10  18  33  59  88 117 153 198 244 296 363
#     4  10  20  34  60  92 120 157 200 253 312 369
#
# _framework density 20.803149999999999
#
# number of rings (size 3 to 8) (size 9 to 14) (size 15 to 20)
#    0.000    1.714    2.143    2.357    1.000    6.571 
#    0.000    0.000    0.000    0.857    0.000    0.000 
#    0.000    0.000    0.000    0.000    0.000    0.000 
#
# Total GULP energy -693762.555752 kJ/mol
# GULP energy per Si atom -12388.617067 kJ/mol
# Density = 2.075580 g / cm^3
# Si number density = 20.803150 Si / 1000 Ang^3
#
#
#
# Elastic Constant Matrix: (Units=GPa)
#
#
# Indices 1 2 3 4 5 6 
#
# 1 21.7753 23.0308 12.4536 0.0000 0.0000 0.0000
# 2 23.0308 192.3839 63.8530 0.0000 0.0000 0.0000
# 3 12.4536 63.8530 120.1642 0.0000 0.0000 0.0000
# 4 0.0000 0.0000 0.0000 -8.1944 0.0000 0.0000
# 5 0.0000 0.0000 0.0000 0.0000 29.9521 0.0000
# 6 0.0000 0.0000 0.0000 0.0000 0.0000 16.6108
#
#
#
# Elastic Compliance Matrix: (Units=1/GPa)
#
#
# Indices 1 2 3 4 5 6 
#
# 1 0.053235 -0.005514 -0.002587 0.000000 0.000000 0.000000
# 2 -0.005514 0.006882 -0.003086 0.000000 0.000000 0.000000
# 3 -0.002587 -0.003086 0.010230 0.000000 0.000000 0.000000
# 4 0.000000 0.000000 0.000000 -0.122035 0.000000 0.000000
# 5 0.000000 0.000000 0.000000 0.000000 0.033387 0.000000
# 6 0.000000 0.000000 0.000000 0.000000 0.000000 0.060202
#
#
# Mechanical properties :
#
#
# Convention : Reuss Voigt Hill
#
# Bulk Modulus (GPa) = 20.84487 59.22203 40.03345
# Shear Modulus (GPa) = 62.29272 23.33941 42.81606
#
# Velocity S-wave (km/s) = 5.47804 3.35314 4.54161
# Velocity P-wave (km/s) = 7.07486 6.59704 6.84013
#
# Compressibility (1/GPa) = 0.04797344
#
# Stress axis : x y z
#
# Youngs Moduli (GPa) = 18.78449 145.30258 97.75477
#
# Poissons Ratio (x) = 0.80124 0.25289
# Poissons Ratio (y) = 0.10358 0.30163
# Poissons Ratio (z) = 0.04860 0.44834
#
# Static dielectric constant tensor:
#      x y z
#    x 3.457190 0.000000 0.000000 
#    y 0.000000 3.791170 0.000000 
#    z 0.000000 0.000000 3.803490 
# 
# 
# High freq. dielectric constant tensor:
#      x y z
#    x 1.779120 0.000000 0.000000 
#    y 0.000000 1.836330 0.000000 
#    z 0.000000 0.000000 1.814710 
# 
# From -- ./inp_files/29252.got.cif
#   From: 2010.03.12/outbox.cif.g09.slc.cpg/sg59_15_cif.got.tgz:29252.got - 2010.04.16 16:29:54.
