data_PCOD8240764
_publ_section_title
;
Structure prediction by ZEFSAII (Michael W. Deem and Ramdas Pophale) SiO2 
 PCOD8240764
Probable space group: P M M N
;
_chemical_formula_sum "Si O2"
_cell_formula_units_Z 64
_cell_length_a 9.193671
_cell_length_b 24.489587
_cell_length_c 15.626767
_cell_angle_alpha 90.000000
_cell_angle_beta 90.000000
_cell_angle_gamma 90.000000
_cell_volume 3518.354179
_symmetry_space_group_name_H-M "P M M N"
_symmetry_group_IT_number 59
_space_group.IT_coordinate_system_code '2'
_symmetry_cell_setting 'orthorhombic'
loop_
_space_group_symop_operation_xyz
x,y,z
1/2-x,1/2-y,z
1/2+x,-y,-z
-x,1/2+y,-z
-x,-y,-z
1/2+x,1/2+y,-z
1/2-x,y,z
x,1/2-y,z
loop_
_atom_site_type_symbol
_atom_site_label
_atom_site_fract_x
_atom_site_fract_y
_atom_site_fract_z
Si Si1 0.581891 0.589254 0.782779
Si Si2 0.921388 0.413945 0.540049
Si Si3 0.579972 0.346994 0.973185
Si Si4 0.092482 0.187692 0.815881
Si Si5 0.919470 0.529197 0.612444
Si Si6 0.580017 0.947773 0.969440
Si Si7 0.418162 0.689422 0.839353
Si Si8 0.421735 0.186468 0.626953
O O1 0.750000 0.603798 0.779489
O O2 0.536862 0.548245 0.707598
O O3 0.538327 0.560332 0.870771
O O4 0.501604 0.647436 0.778320
O O5 0.750000 0.403600 0.531145
O O6 0.954133 0.464373 0.605398
O O7 0.984765 0.433387 0.449492
O O8 0.994664 0.356579 0.566342
O O9 0.750000 0.360254 0.966888
O O10 0.530843 0.315598 0.888235
O O11 0.484534 0.400994 0.971213
O O12 0.541829 0.314158 0.059716
O O13 0.250000 0.161602 0.843376
O O14 0.122867 0.250000 0.796273
O O15 0.040116 0.165306 0.723404
O O16 0.750000 0.539956 0.592209
O O17 0.750000 0.952677 0.984705
O O18 0.500000 0.000000 0.000000
O O19 0.250000 0.676716 0.827313
O O20 0.459434 0.750000 0.808280
O O21 0.250000 0.181543 0.609611
O O22 0.471537 0.250000 0.610057
#
# Coordination Sequence:
#
# PCOD8240764 Si02
#       8
#     8   8   8   8   8   8   8   8
#     4   9  19  35  54  75 100 132 171 213 254 302
#     4  10  20  34  56  84 107 131 167 211 257 306
#     4  10  19  31  48  70  97 132 172 211 254 302
#     4   9  18  32  49  71 100 133 170 210 249 293
#     4   9  19  37  57  77 104 135 168 210 259 308
#     4  10  20  34  50  71 100 133 170 210 254 303
#     4   9  18  32  49  71 101 134 168 210 259 306
#     4   9  19  36  55  76 107 144 175 207 256 315
#
# _framework density 18.190322999999999
#
# number of rings (size 3 to 8) (size 9 to 14) (size 15 to 20)
#    0.000    2.625    0.000    2.250    0.000    4.750 
#    0.000    3.125    0.000    0.750    0.000    0.000 
#    0.000    0.000    0.000    0.000    0.000    0.000 
#
# Total GULP energy -793185.474072 kJ/mol
# GULP energy per Si atom -12393.523032 kJ/mol
# Density = 1.814892 g / cm^3
# Si number density = 18.190323 Si / 1000 Ang^3
#
#
#
# Elastic Constant Matrix: (Units=GPa)
#
#
# Indices 1 2 3 4 5 6 
#
# 1 67.2390 46.7407 35.5896 0.0000 0.0000 0.0000
# 2 46.7407 111.6821 41.4231 0.0000 0.0000 0.0000
# 3 35.5896 41.4231 59.4119 0.0000 0.0000 0.0000
# 4 0.0000 0.0000 0.0000 26.6149 0.0000 0.0000
# 5 0.0000 0.0000 0.0000 0.0000 27.4300 0.0000
# 6 0.0000 0.0000 0.0000 0.0000 0.0000 34.4200
#
#
#
# Elastic Compliance Matrix: (Units=1/GPa)
#
#
# Indices 1 2 3 4 5 6 
#
# 1 0.024930 -0.006602 -0.010331 0.000000 0.000000 0.000000
# 2 -0.006602 0.013825 -0.005685 0.000000 0.000000 0.000000
# 3 -0.010331 -0.005685 0.026984 0.000000 0.000000 0.000000
# 4 0.000000 0.000000 0.000000 0.037573 0.000000 0.000000
# 5 0.000000 0.000000 0.000000 0.000000 0.036456 0.000000
# 6 0.000000 0.000000 0.000000 0.000000 0.000000 0.029053
#
#
# Mechanical properties :
#
#
# Convention : Reuss Voigt Hill
#
# Bulk Modulus (GPa) = 48.77051 53.98219 51.37635
# Shear Modulus (GPa) = 22.63574 25.33162 23.98368
#
# Velocity S-wave (km/s) = 3.53141 3.73579 3.63504
# Velocity P-wave (km/s) = 6.59524 6.95334 6.77666
#
# Compressibility (1/GPa) = 0.02050419
#
# Stress axis : x y z
#
# Youngs Moduli (GPa) = 40.11306 72.33085 37.05962
#
# Poissons Ratio (x) = 0.47751 0.38285
# Poissons Ratio (y) = 0.26481 0.21067
# Poissons Ratio (z) = 0.41440 0.41118
#
# Static dielectric constant tensor:
#      x y z
#    x 3.347580 0.000000 0.000000 
#    y 0.000000 3.202190 0.000000 
#    z 0.000000 0.000000 3.017070 
# 
# 
# High freq. dielectric constant tensor:
#      x y z
#    x 1.707400 0.000000 0.000000 
#    y 0.000000 1.703280 0.000000 
#    z 0.000000 0.000000 1.691480 
# 
# From -- ./inp_files/21420.got.cif
#   From: 2010.03.12/outbox.cif.g09.slc.cpg/sg59_11_cif.got.tgz:21420.got - 2010.04.16 16:29:54.
