data_PCOD8240147
_publ_section_title
;
Structure prediction by ZEFSAII (Michael W. Deem and Ramdas Pophale) SiO2 
 PCOD8240147
Probable space group: P M M N
;
_chemical_formula_sum "Si O2"
_cell_formula_units_Z 64
_cell_length_a 31.068980
_cell_length_b 8.910216
_cell_length_c 11.998632
_cell_angle_alpha 90.000000
_cell_angle_beta 90.000000
_cell_angle_gamma 90.000000
_cell_volume 3321.597167
_symmetry_space_group_name_H-M "P M M N"
_symmetry_group_IT_number 59
_space_group.IT_coordinate_system_code '2'
_symmetry_cell_setting 'orthorhombic'
loop_
_space_group_symop_operation_xyz
x,y,z
1/2-x,1/2-y,z
1/2+x,-y,-z
-x,1/2+y,-z
-x,-y,-z
1/2+x,1/2+y,-z
1/2-x,y,z
x,1/2-y,z
loop_
_atom_site_type_symbol
_atom_site_label
_atom_site_fract_x
_atom_site_fract_y
_atom_site_fract_z
Si Si1 0.333473 0.577279 0.999073
Si Si2 0.373219 0.427653 0.374144
Si Si3 0.297028 0.572837 0.764421
Si Si4 0.874800 0.071360 0.385447
Si Si5 0.923303 0.926468 0.008292
Si Si6 0.798989 0.421999 0.760354
Si Si7 0.547959 0.573141 0.770718
Si Si8 0.452596 0.573377 0.766882
O O1 0.349115 0.750000 0.988213
O O2 0.305632 0.529316 0.892332
O O3 0.373715 0.467991 0.004180
O O4 0.304601 0.552715 0.107922
O O5 0.375267 0.250000 0.386569
O O6 0.373211 0.500593 0.494275
O O7 0.330027 0.470554 0.308997
O O8 0.414867 0.493929 0.308806
O O9 0.250000 0.507713 0.730554
O O10 0.296766 0.750000 0.751220
O O11 0.334007 0.507837 0.683880
O O12 0.873913 0.250000 0.395317
O O13 0.918069 0.015308 0.323108
O O14 0.927899 0.750000 0.023119
O O15 0.944936 0.003801 0.113068
O O16 0.947015 0.986397 0.896956
O O17 0.750000 0.462499 0.728848
O O18 0.809399 0.250000 0.728644
O O19 0.554296 0.750000 0.772311
O O20 0.500585 0.528121 0.725531
O O21 0.448069 0.750000 0.782125
#
# Coordination Sequence:
#
# PCOD8240147 Si02
#       8
#     8   8   8   8   8   8   8   8
#     4  10  18  33  58  86 113 146 183 223 276 335
#     4  11  23  40  58  79 112 153 190 229 283 339
#     4   9  17  32  56  84 111 140 178 226 279 329
#     4  10  21  37  57  82 108 144 192 240 282 325
#     4  11  20  33  55  85 119 148 179 224 282 341
#     4  10  21  37  60  89 116 144 186 236 277 323
#     4   9  20  37  57  81 113 150 184 229 282 336
#     4  10  20  38  60  82 110 146 190 233 280 336
#
# _framework density 19.267838999999999
#
# number of rings (size 3 to 8) (size 9 to 14) (size 15 to 20)
#    0.000    2.000    2.500    1.500    0.000    3.250 
#    0.000    3.125    0.000    1.875    0.000    0.000 
#    0.000    0.000    0.000    0.000    0.000    0.000 
#
# Total GULP energy -793569.863978 kJ/mol
# GULP energy per Si atom -12399.529125 kJ/mol
# Density = 1.922398 g / cm^3
# Si number density = 19.267839 Si / 1000 Ang^3
#
#
#
# Elastic Constant Matrix: (Units=GPa)
#
#
# Indices 1 2 3 4 5 6 
#
# 1 160.7709 23.4614 69.3159 0.0000 0.0000 0.0000
# 2 23.4614 20.0631 25.3043 0.0000 0.0000 0.0000
# 3 69.3159 25.3043 145.7715 0.0000 0.0000 0.0000
# 4 0.0000 0.0000 0.0000 25.7442 0.0000 0.0000
# 5 0.0000 0.0000 0.0000 0.0000 15.9099 0.0000
# 6 0.0000 0.0000 0.0000 0.0000 0.0000 21.6734
#
#
#
# Elastic Compliance Matrix: (Units=1/GPa)
#
#
# Indices 1 2 3 4 5 6 
#
# 1 0.008370 -0.006104 -0.002920 0.000000 0.000000 0.000000
# 2 -0.006104 0.068266 -0.008948 0.000000 0.000000 0.000000
# 3 -0.002920 -0.008948 0.009802 0.000000 0.000000 0.000000
# 4 0.000000 0.000000 0.000000 0.038844 0.000000 0.000000
# 5 0.000000 0.000000 0.000000 0.000000 0.062854 0.000000
# 6 0.000000 0.000000 0.000000 0.000000 0.000000 0.046139
#
#
# Mechanical properties :
#
#
# Convention : Reuss Voigt Hill
#
# Bulk Modulus (GPa) = 19.80456 62.52986 41.16721
# Shear Modulus (GPa) = 17.41853 26.56711 21.99282
#
# Velocity S-wave (km/s) = 3.00996 3.71729 3.38217
# Velocity P-wave (km/s) = 4.73082 7.13777 6.05510
#
# Compressibility (1/GPa) = 0.05049342
#
# Stress axis : x y z
#
# Youngs Moduli (GPa) = 119.47505 14.64854 102.02105
#
# Poissons Ratio (x) = 0.08942 0.29794
# Poissons Ratio (y) = 0.72933 0.91284
# Poissons Ratio (z) = 0.34891 0.13107
#
# Static dielectric constant tensor:
#      x y z
#    x 3.980190 0.000000 0.000000 
#    y 0.000000 3.219750 0.000000 
#    z 0.000000 0.000000 3.585240 
# 
# 
# High freq. dielectric constant tensor:
#      x y z
#    x 1.765740 0.000000 0.000000 
#    y 0.000000 1.716760 0.000000 
#    z 0.000000 0.000000 1.751880 
# 
# From -- ./inp_files/19262.got.cif
#   From: 2010.03.12/outbox.cif.g09.slc.cpg/sg59_10_cif.got.tgz:19262.got - 2010.04.16 16:29:54.
