data_PCOD8240294
_publ_section_title
;
Structure prediction by ZEFSAII (Michael W. Deem and Ramdas Pophale) SiO2 
 PCOD8240294
Probable space group: P M M N
;
_chemical_formula_sum "Si O2"
_cell_formula_units_Z 64
_cell_length_a 9.118712
_cell_length_b 13.574830
_cell_length_c 34.241940
_cell_angle_alpha 90.000000
_cell_angle_beta 90.000000
_cell_angle_gamma 90.000000
_cell_volume 4238.637352
_symmetry_space_group_name_H-M "P M M N"
_symmetry_group_IT_number 59
_space_group.IT_coordinate_system_code '2'
_symmetry_cell_setting 'orthorhombic'
loop_
_space_group_symop_operation_xyz
x,y,z
1/2-x,1/2-y,z
1/2+x,-y,-z
-x,1/2+y,-z
-x,-y,-z
1/2+x,1/2+y,-z
1/2-x,y,z
x,1/2-y,z
loop_
_atom_site_type_symbol
_atom_site_label
_atom_site_fract_x
_atom_site_fract_y
_atom_site_fract_z
Si Si1 0.915169 0.132948 0.790346
Si Si2 0.077828 0.949576 0.442829
Si Si3 0.579833 0.049624 0.941192
Si Si4 0.084511 0.367365 0.715064
Si Si5 0.577758 0.635585 0.131724
Si Si6 0.580307 0.640607 0.513392
Si Si7 0.420545 0.864611 0.361772
Si Si8 0.583040 0.639390 0.988261
O O1 0.750000 0.090843 0.792191
O O2 0.912448 0.250000 0.788126
O O3 0.995510 0.089943 0.752040
O O4 0.004030 0.098559 0.828349
O O5 0.250000 0.931409 0.445211
O O6 0.032973 0.061872 0.453536
O O7 0.022694 0.925526 0.399273
O O8 0.006158 0.874870 0.473335
O O9 0.750000 0.072287 0.933278
O O10 0.487613 0.069803 0.902615
O O11 0.552331 0.935735 0.952846
O O12 0.525444 0.119988 0.975895
O O13 0.250000 0.407686 0.716878
O O14 0.082105 0.250000 0.716214
O O15 0.009401 0.405043 0.675358
O O16 0.750000 0.617431 0.135010
O O17 0.541874 0.750000 0.123519
O O18 0.750000 0.626864 0.503129
O O19 0.546685 0.750000 0.529584
O O20 0.250000 0.882949 0.353298
O O21 0.452305 0.750000 0.369564
O O22 0.750000 0.625809 0.003436
O O23 0.556484 0.750000 0.972609
#
# Coordination Sequence:
#
# PCOD8240294 Si02
#       8
#     8   8   8   8   8   8   8   8
#     4   9  16  26  40  57  78 105 136 166 194 229
#     4   9  17  28  41  57  77 103 135 167 199 238
#     4  10  19  29  43  63  83 105 138 175 206 240
#     4   9  16  25  37  54  77 104 131 158 192 234
#     4  10  19  29  41  58  83 113 140 167 201 240
#     4   9  17  28  41  57  78 103 131 166 206 242
#     4   9  16  25  37  53  74 101 132 163 192 226
#     4   9  18  32  46  59  80 110 139 169 208 248
#
# _framework density 15.099192
#
# number of rings (size 3 to 8) (size 9 to 14) (size 15 to 20)
#    0.000    2.750    0.000    2.250    0.000    7.250 
#    0.000    1.250    0.000    0.000    0.000    0.000 
#    0.000    1.000    0.000    8.500    0.000    2.375 
#
# Total GULP energy -793549.809483 kJ/mol
# GULP energy per Si atom -12399.215773 kJ/mol
# Density = 1.506483 g / cm^3
# Si number density = 15.099192 Si / 1000 Ang^3
#
#
#
# Elastic Constant Matrix: (Units=GPa)
#
#
# Indices 1 2 3 4 5 6 
#
# 1 85.3739 28.3927 63.3749 0.0000 0.0000 0.0000
# 2 28.3927 63.6989 41.8422 0.0000 0.0000 0.0000
# 3 63.3749 41.8422 136.3456 0.0000 0.0000 0.0000
# 4 0.0000 0.0000 0.0000 17.6845 0.0000 0.0000
# 5 0.0000 0.0000 0.0000 0.0000 30.6352 0.0000
# 6 0.0000 0.0000 0.0000 0.0000 0.0000 14.6078
#
#
#
# Elastic Compliance Matrix: (Units=1/GPa)
#
#
# Indices 1 2 3 4 5 6 
#
# 1 0.018401 -0.003236 -0.007560 0.000000 0.000000 0.000000
# 2 -0.003236 0.020232 -0.004705 0.000000 0.000000 0.000000
# 3 -0.007560 -0.004705 0.012292 0.000000 0.000000 0.000000
# 4 0.000000 0.000000 0.000000 0.056547 0.000000 0.000000
# 5 0.000000 0.000000 0.000000 0.000000 0.032642 0.000000
# 6 0.000000 0.000000 0.000000 0.000000 0.000000 0.068457
#
#
# Mechanical properties :
#
#
# Convention : Reuss Voigt Hill
#
# Bulk Modulus (GPa) = 50.19171 61.40421 55.79796
# Shear Modulus (GPa) = 20.30759 22.70607 21.50683
#
# Velocity S-wave (km/s) = 3.67133 3.88209 3.77818
# Velocity P-wave (km/s) = 7.16136 7.80062 7.48781
#
# Compressibility (1/GPa) = 0.01992361
#
# Stress axis : x y z
#
# Youngs Moduli (GPa) = 54.34359 49.42765 81.35329
#
# Poissons Ratio (x) = 0.15995 0.61504
# Poissons Ratio (y) = 0.17586 0.38273
# Poissons Ratio (z) = 0.41084 0.23254
#
# Static dielectric constant tensor:
#      x y z
#    x 3.042370 0.000000 0.000000 
#    y 0.000000 2.694430 0.000000 
#    z 0.000000 0.000000 2.961040 
# 
# 
# High freq. dielectric constant tensor:
#      x y z
#    x 1.590760 0.000000 0.000000 
#    y 0.000000 1.531540 0.000000 
#    z 0.000000 0.000000 1.576270 
# 
# From -- ./inp_files/33239.got.cif
#   From: 2010.03.12/outbox.cif.g09.slc.cpg/sg59_17_cif.got.tgz:33239.got - 2010.04.16 16:29:54.
