data_PCOD8240759
_publ_section_title
;
Structure prediction by ZEFSAII (Michael W. Deem and Ramdas Pophale) SiO2 
 PCOD8240759
Probable space group: P M M N
;
_chemical_formula_sum "Si O2"
_cell_formula_units_Z 64
_cell_length_a 28.001116
_cell_length_b 8.558774
_cell_length_c 14.305542
_cell_angle_alpha 90.000000
_cell_angle_beta 90.000000
_cell_angle_gamma 90.000000
_cell_volume 3428.397867
_symmetry_space_group_name_H-M "P M M N"
_symmetry_group_IT_number 59
_space_group.IT_coordinate_system_code '2'
_symmetry_cell_setting 'orthorhombic'
loop_
_space_group_symop_operation_xyz
x,y,z
1/2-x,1/2-y,z
1/2+x,-y,-z
-x,1/2+y,-z
-x,-y,-z
1/2+x,1/2+y,-z
1/2-x,y,z
x,1/2-y,z
loop_
_atom_site_type_symbol
_atom_site_label
_atom_site_fract_x
_atom_site_fract_y
_atom_site_fract_z
Si Si1 0.564219 0.436259 0.289561
Si Si2 0.871035 0.426222 0.131777
Si Si3 0.303916 0.934740 0.026369
Si Si4 0.638367 0.573742 0.434599
Si Si5 0.626993 0.069858 0.624148
Si Si6 0.803969 0.923851 0.264323
Si Si7 0.982434 0.065140 0.599701
Si Si8 0.304046 0.068766 0.224641
O O1 0.569339 0.250000 0.295822
O O2 0.580912 0.494040 0.183940
O O3 0.594989 0.515421 0.370842
O O4 0.510662 0.491071 0.312082
O O5 0.882067 0.250000 0.103297
O O6 0.832276 0.437850 0.214078
O O7 0.845721 0.508946 0.041510
O O8 0.250000 0.999667 0.003677
O O9 0.303577 0.750000 0.011963
O O10 0.318118 0.974776 0.131680
O O11 0.626790 0.750000 0.468701
O O12 0.647756 0.461166 0.521571
O O13 0.687019 0.568207 0.375157
O O14 0.632580 0.250000 0.650993
O O15 0.571899 0.016504 0.621127
O O16 0.657375 0.970062 0.697020
O O17 0.750000 0.957469 0.241745
O O18 0.819410 0.750000 0.228286
O O19 0.988680 0.250000 0.597606
O O20 0.000000 0.000000 0.500000
O O21 0.250000 0.023902 0.257039
O O22 0.306991 0.250000 0.200248
#
# Coordination Sequence:
#
# PCOD8240759 Si02
#       8
#     8   8   8   8   8   8   8   8
#     4  10  19  32  50  76 109 141 177 218 263 317
#     4   9  18  31  50  76 105 137 174 215 261 315
#     4   9  17  32  55  80 106 138 176 219 268 319
#     4  10  19  31  48  69  99 138 177 218 264 313
#     4  11  23  37  55  79 105 137 179 224 269 319
#     4   9  18  30  43  65  99 136 172 211 256 309
#     4  11  22  35  55  80 108 141 181 226 270 317
#     4  10  22  39  58  81 108 138 175 220 269 321
#
# _framework density 18.667611999999998
#
# number of rings (size 3 to 8) (size 9 to 14) (size 15 to 20)
#    0.000    2.125    1.250    2.250    0.000    5.000 
#    0.000    2.500    0.000    0.750    0.000    0.000 
#    0.000    0.000    0.000    0.000    0.000    0.000 
#
# Total GULP energy -792882.142329 kJ/mol
# GULP energy per Si atom -12388.783474 kJ/mol
# Density = 1.862512 g / cm^3
# Si number density = 18.667612 Si / 1000 Ang^3
#
#
#
# Elastic Constant Matrix: (Units=GPa)
#
#
# Indices 1 2 3 4 5 6 
#
# 1 71.9868 16.2625 43.4528 0.0000 0.0000 0.0000
# 2 16.2625 31.6972 5.4512 0.0000 0.0000 0.0000
# 3 43.4528 5.4512 91.3740 0.0000 0.0000 0.0000
# 4 0.0000 0.0000 0.0000 22.1137 0.0000 0.0000
# 5 0.0000 0.0000 0.0000 0.0000 31.2002 0.0000
# 6 0.0000 0.0000 0.0000 0.0000 0.0000 22.8934
#
#
#
# Elastic Compliance Matrix: (Units=1/GPa)
#
#
# Indices 1 2 3 4 5 6 
#
# 1 0.022043 -0.009605 -0.009909 0.000000 0.000000 0.000000
# 2 -0.009605 0.036061 0.002416 0.000000 0.000000 0.000000
# 3 -0.009909 0.002416 0.015512 0.000000 0.000000 0.000000
# 4 0.000000 0.000000 0.000000 0.045221 0.000000 0.000000
# 5 0.000000 0.000000 0.000000 0.000000 0.032051 0.000000
# 6 0.000000 0.000000 0.000000 0.000000 0.000000 0.043681
#
#
# Mechanical properties :
#
#
# Convention : Reuss Voigt Hill
#
# Bulk Modulus (GPa) = 25.36798 36.15455 30.76127
# Shear Modulus (GPa) = 20.66930 23.90091 22.28510
#
# Velocity S-wave (km/s) = 3.33111 3.58207 3.45887
# Velocity P-wave (km/s) = 5.33047 6.04300 5.69788
#
# Compressibility (1/GPa) = 0.03941977
#
# Stress axis : x y z
#
# Youngs Moduli (GPa) = 45.36619 27.73087 64.46502
#
# Poissons Ratio (x) = 0.26636 0.63881
# Poissons Ratio (y) = 0.43574 -0.15577
# Poissons Ratio (z) = 0.44955 -0.06701
#
# Static dielectric constant tensor:
#      x y z
#    x 3.587350 0.000000 0.000000 
#    y 0.000000 3.406790 0.000000 
#    z 0.000000 0.000000 3.422040 
# 
# 
# High freq. dielectric constant tensor:
#      x y z
#    x 1.712900 0.000000 0.000000 
#    y 0.000000 1.722790 0.000000 
#    z 0.000000 0.000000 1.711180 
# 
# From -- ./inp_files/19381.got.cif
#   From: 2010.03.12/outbox.cif.g09.slc.cpg/sg59_10_cif.got.tgz:19381.got - 2010.04.16 16:29:54.
