data_PCOD8240918
_publ_section_title
;
Structure prediction by ZEFSAII (Michael W. Deem and Ramdas Pophale) SiO2 
 PCOD8240918
Probable space group: P M M N
;
_chemical_formula_sum "Si O2"
_cell_formula_units_Z 64
_cell_length_a 17.674870
_cell_length_b 8.865099
_cell_length_c 22.844371
_cell_angle_alpha 90.000000
_cell_angle_beta 90.000000
_cell_angle_gamma 90.000000
_cell_volume 3579.472438
_symmetry_space_group_name_H-M "P M M N"
_symmetry_group_IT_number 59
_space_group.IT_coordinate_system_code '2'
_symmetry_cell_setting 'orthorhombic'
loop_
_space_group_symop_operation_xyz
x,y,z
1/2-x,1/2-y,z
1/2+x,-y,-z
-x,1/2+y,-z
-x,-y,-z
1/2+x,1/2+y,-z
1/2-x,y,z
x,1/2-y,z
loop_
_atom_site_type_symbol
_atom_site_label
_atom_site_fract_x
_atom_site_fract_y
_atom_site_fract_z
Si Si1 0.953491 0.073148 0.123244
Si Si2 0.520213 0.071970 0.634929
Si Si3 0.468543 0.075274 0.242938
Si Si4 0.662040 0.924845 0.048367
Si Si5 0.336074 0.920913 0.184974
Si Si6 0.091619 0.576116 0.063914
Si Si7 0.063817 0.573347 0.538765
Si Si8 0.834154 0.072950 0.563494
O O1 0.941308 0.250000 0.115598
O O2 0.975441 0.031929 0.189811
O O3 0.876908 0.984143 0.107926
O O4 0.017177 0.020610 0.077342
O O5 0.516847 0.250000 0.628168
O O6 0.600461 0.010150 0.607700
O O7 0.510466 0.025369 0.701809
O O8 0.446056 0.002877 0.602352
O O9 0.474072 0.250000 0.259683
O O10 0.383544 0.038141 0.223119
O O11 0.750000 0.956336 0.055591
O O12 0.644234 0.750000 0.038186
O O13 0.630564 0.019506 0.994481
O O14 0.250000 0.954186 0.200498
O O15 0.359003 0.750000 0.202363
O O16 0.348334 0.945915 0.116049
O O17 0.067815 0.750000 0.056528
O O18 0.049856 0.750000 0.545138
O O19 0.142820 0.540556 0.504663
O O20 0.000000 0.500000 0.500000
O O21 0.750000 0.001881 0.575139
O O22 0.829024 0.250000 0.574101
#
# Coordination Sequence:
#
# PCOD8240918 Si02
#       8
#     8   8   8   8   8   8   8   8
#     4  10  21  37  55  74  99 132 169 210 255 302
#     4  10  19  31  50  73  98 131 167 204 244 290
#     4  10  21  35  51  72  97 128 169 212 250 290
#     4  11  23  36  52  76 103 129 160 204 259 313
#     4   9  18  32  49  70  98 133 169 202 241 293
#     4  10  19  33  54  77 102 132 167 205 247 301
#     4   9  16  28  48  71  97 129 164 201 238 279
#     4   8  15  28  47  73 102 130 160 194 234 279
#
# _framework density 17.879729999999999
#
# number of rings (size 3 to 8) (size 9 to 14) (size 15 to 20)
#    0.000    2.375    0.000    3.750    0.000    4.250 
#    0.000    1.250    0.000   13.875    0.000    1.750 
#    0.000    0.000    0.000    0.000    0.000    0.000 
#
# Total GULP energy -793350.778084 kJ/mol
# GULP energy per Si atom -12396.105908 kJ/mol
# Density = 1.783904 g / cm^3
# Si number density = 17.879730 Si / 1000 Ang^3
#
#
#
# Elastic Constant Matrix: (Units=GPa)
#
#
# Indices 1 2 3 4 5 6 
#
# 1 58.1747 22.2931 34.6428 0.0000 0.0000 0.0000
# 2 22.2931 53.0373 30.8437 0.0000 0.0000 0.0000
# 3 34.6428 30.8437 98.2200 0.0000 0.0000 0.0000
# 4 0.0000 0.0000 0.0000 31.7314 0.0000 0.0000
# 5 0.0000 0.0000 0.0000 0.0000 13.5786 0.0000
# 6 0.0000 0.0000 0.0000 0.0000 0.0000 24.6416
#
#
#
# Elastic Compliance Matrix: (Units=1/GPa)
#
#
# Indices 1 2 3 4 5 6 
#
# 1 0.023283 -0.006130 -0.006287 0.000000 0.000000 0.000000
# 2 -0.006130 0.024681 -0.005588 0.000000 0.000000 0.000000
# 3 -0.006287 -0.005588 0.014154 0.000000 0.000000 0.000000
# 4 0.000000 0.000000 0.000000 0.031514 0.000000 0.000000
# 5 0.000000 0.000000 0.000000 0.000000 0.073645 0.000000
# 6 0.000000 0.000000 0.000000 0.000000 0.000000 0.040582
#
#
# Mechanical properties :
#
#
# Convention : Reuss Voigt Hill
#
# Bulk Modulus (GPa) = 38.30474 42.77680 40.54077
# Shear Modulus (GPa) = 19.79634 22.10050 20.94842
#
# Velocity S-wave (km/s) = 3.33106 3.51958 3.42662
# Velocity P-wave (km/s) = 6.02202 6.36344 6.19508
#
# Compressibility (1/GPa) = 0.02610643
#
# Stress axis : x y z
#
# Youngs Moduli (GPa) = 42.95060 40.51651 70.65367
#
# Poissons Ratio (x) = 0.24837 0.44419
# Poissons Ratio (y) = 0.26330 0.39484
# Poissons Ratio (z) = 0.27002 0.22642
#
# Static dielectric constant tensor:
#      x y z
#    x 3.527470 0.000000 0.000000 
#    y 0.000000 3.416690 0.000000 
#    z 0.000000 0.000000 3.461250 
# 
# 
# High freq. dielectric constant tensor:
#      x y z
#    x 1.673920 0.000000 0.000000 
#    y 0.000000 1.693200 0.000000 
#    z 0.000000 0.000000 1.686600 
# 
# From -- ./inp_files/32330.got.cif
#   From: 2010.03.12/outbox.cif.g09.slc.cpg/sg59_17_cif.got.tgz:32330.got - 2010.04.16 16:29:54.
