data_PCOD8240966
_publ_section_title
;
Structure prediction by ZEFSAII (Michael W. Deem and Ramdas Pophale) SiO2 
 PCOD8240966
Probable space group: P M M N
;
_chemical_formula_sum "Si O2"
_cell_formula_units_Z 40
_cell_length_a 14.822737
_cell_length_b 16.487812
_cell_length_c 8.433258
_cell_angle_alpha 90.000000
_cell_angle_beta 90.000000
_cell_angle_gamma 90.000000
_cell_volume 2061.041881
_symmetry_space_group_name_H-M "P M M N"
_symmetry_group_IT_number 59
_space_group.IT_coordinate_system_code '2'
_symmetry_cell_setting 'orthorhombic'
loop_
_space_group_symop_operation_xyz
x,y,z
1/2-x,1/2-y,z
1/2+x,-y,-z
-x,1/2+y,-z
-x,-y,-z
1/2+x,1/2+y,-z
1/2-x,y,z
x,1/2-y,z
loop_
_atom_site_type_symbol
_atom_site_label
_atom_site_fract_x
_atom_site_fract_y
_atom_site_fract_z
Si Si1 0.147003 0.054748 0.906598
Si Si2 0.644262 0.339735 0.574996
Si Si3 0.452790 0.956259 0.644968
Si Si4 0.352293 0.891386 0.082229
Si Si5 0.980572 0.658544 0.896048
O O1 0.250000 0.080455 0.870649
O O2 0.100746 0.023030 0.746141
O O3 0.092008 0.131826 0.971412
O O4 0.142693 0.986014 0.041224
O O5 0.750000 0.331603 0.575426
O O6 0.600292 0.250000 0.564674
O O7 0.617734 0.391547 0.422948
O O8 0.612551 0.382465 0.737975
O O9 0.524183 0.904711 0.749706
O O10 0.500000 0.000000 0.500000
O O11 0.250000 0.857943 0.060487
O O12 0.418233 0.841581 0.967452
O O13 0.957453 0.750000 0.840998
#
# Coordination Sequence:
#
# PCOD8240966 Si02
#       5
#     8   8   8   8   8
#     4  10  21  38  58  78 104 145 192 230 267 321
#     4  10  19  31  50  79 113 142 168 208 266 327
#     4  11  21  36  55  80 111 143 178 223 279 338
#     4   9  18  34  57  83 111 144 181 221 271 332
#     4  11  22  36  56  81 108 141 184 233 279 323
#
# _framework density 19.407661000000001
#
# number of rings (size 3 to 8) (size 9 to 14) (size 15 to 20)
#    0.000    1.800    0.000    6.600    0.000    2.400 
#    0.000    2.000    0.000    0.000    0.000    0.000 
#    0.000    0.000    0.000    0.000    0.000    0.000 
#
# Total GULP energy -495994.115662 kJ/mol
# GULP energy per Si atom -12399.852892 kJ/mol
# Density = 1.936349 g / cm^3
# Si number density = 19.407661 Si / 1000 Ang^3
#
#
#
# Elastic Constant Matrix: (Units=GPa)
#
#
# Indices 1 2 3 4 5 6 
#
# 1 87.6155 51.0807 44.1489 0.0000 0.0000 0.0000
# 2 51.0807 86.4144 47.1952 0.0000 0.0000 0.0000
# 3 44.1489 47.1952 116.9739 0.0000 0.0000 0.0000
# 4 0.0000 0.0000 0.0000 16.9348 0.0000 0.0000
# 5 0.0000 0.0000 0.0000 0.0000 30.8531 0.0000
# 6 0.0000 0.0000 0.0000 0.0000 0.0000 23.7580
#
#
#
# Elastic Compliance Matrix: (Units=1/GPa)
#
#
# Indices 1 2 3 4 5 6 
#
# 1 0.018340 -0.009056 -0.003268 0.000000 0.000000 0.000000
# 2 -0.009056 0.019315 -0.004375 0.000000 0.000000 0.000000
# 3 -0.003268 -0.004375 0.011548 0.000000 0.000000 0.000000
# 4 0.000000 0.000000 0.000000 0.059050 0.000000 0.000000
# 5 0.000000 0.000000 0.000000 0.000000 0.032412 0.000000
# 6 0.000000 0.000000 0.000000 0.000000 0.000000 0.042091
#
#
# Mechanical properties :
#
#
# Convention : Reuss Voigt Hill
#
# Bulk Modulus (GPa) = 63.27514 63.98373 63.62943
# Shear Modulus (GPa) = 22.58134 24.21442 23.39788
#
# Velocity S-wave (km/s) = 3.41475 3.53607 3.47594
# Velocity P-wave (km/s) = 6.94416 7.05065 6.99760
#
# Compressibility (1/GPa) = 0.01580399
#
# Stress axis : x y z
#
# Youngs Moduli (GPa) = 54.52501 51.77396 86.59879
#
# Poissons Ratio (x) = 0.46888 0.28302
# Poissons Ratio (y) = 0.49379 0.37885
# Poissons Ratio (z) = 0.17820 0.22650
#
# Static dielectric constant tensor:
#      x y z
#    x 3.528660 0.000000 0.000000 
#    y 0.000000 3.564130 0.000000 
#    z 0.000000 0.000000 3.773760 
# 
# 
# High freq. dielectric constant tensor:
#      x y z
#    x 1.743160 0.000000 0.000000 
#    y 0.000000 1.748390 0.000000 
#    z 0.000000 0.000000 1.759400 
# 
# From -- ./inp_files/8587.got.cif
#   From: 2010.03.12/outbox.cif.g09.slc.cpg/sg59_5_cif.got.tgz:8587.got - 2010.04.16 16:29:54.
