data_PCOD8240919
_publ_section_title
;
Structure prediction by ZEFSAII (Michael W. Deem and Ramdas Pophale) SiO2 
 PCOD8240919
Probable space group: P M M N
;
_chemical_formula_sum "Si O2"
_cell_formula_units_Z 64
_cell_length_a 8.982470
_cell_length_b 19.123883
_cell_length_c 21.250317
_cell_angle_alpha 90.000000
_cell_angle_beta 90.000000
_cell_angle_gamma 90.000000
_cell_volume 3650.373192
_symmetry_space_group_name_H-M "P M M N"
_symmetry_group_IT_number 59
_space_group.IT_coordinate_system_code '2'
_symmetry_cell_setting 'orthorhombic'
loop_
_space_group_symop_operation_xyz
x,y,z
1/2-x,1/2-y,z
1/2+x,-y,-z
-x,1/2+y,-z
-x,-y,-z
1/2+x,1/2+y,-z
1/2-x,y,z
x,1/2-y,z
loop_
_atom_site_type_symbol
_atom_site_label
_atom_site_fract_x
_atom_site_fract_y
_atom_site_fract_z
Si Si1 0.414211 0.982038 0.319995
Si Si2 0.575374 0.028212 0.437976
Si Si3 0.579331 0.325707 0.386116
Si Si4 0.923569 0.830946 0.962592
Si Si5 0.915300 0.863175 0.732937
Si Si6 0.924513 0.051563 0.813214
Si Si7 0.073451 0.590296 0.851270
Si Si8 0.579002 0.170552 0.908901
O O1 0.250000 0.959540 0.344375
O O2 0.527086 0.980198 0.378648
O O3 0.466956 0.934471 0.260711
O O4 0.407526 0.058310 0.290679
O O5 0.750000 0.021750 0.446391
O O6 0.500000 0.000000 0.500000
O O7 0.522582 0.109191 0.428474
O O8 0.750000 0.341050 0.368783
O O9 0.561816 0.250000 0.421269
O O10 0.491090 0.317548 0.321155
O O11 0.750000 0.848137 0.955128
O O12 0.958134 0.750000 0.947473
O O13 0.018079 0.880272 0.917412
O O14 0.973397 0.849290 0.033190
O O15 0.750000 0.833724 0.746358
O O16 0.010068 0.859068 0.796771
O O17 0.750000 0.031825 0.817602
O O18 0.963870 0.122060 0.850097
O O19 0.017674 0.988822 0.843527
O O20 0.250000 0.591381 0.848539
O O21 0.750000 0.159067 0.929598
O O22 0.551536 0.250000 0.887006
#
# Coordination Sequence:
#
# PCOD8240919 Si02
#       8
#     8   8   8   8   8   8   8   8
#     4   8  15  29  48  70  96 124 154 189 230 278
#     4  10  19  31  50  74 100 132 166 200 239 283
#     4   9  18  32  49  71  99 130 166 205 241 282
#     4  10  21  36  51  67  92 127 165 206 252 301
#     4   9  17  30  47  68  96 127 157 192 237 287
#     4   9  18  33  53  76 102 129 158 200 249 295
#     4  11  21  32  49  72  98 130 167 205 245 290
#     4   9  18  34  55  76  97 124 161 204 252 304
#
# _framework density 17.532453
#
# number of rings (size 3 to 8) (size 9 to 14) (size 15 to 20)
#    0.000    2.625    0.000    3.000    0.000    6.000 
#    0.000    0.000    0.000    0.750    0.000    3.500 
#    0.000    0.000    0.000    0.000    0.000    0.000 
#
# Total GULP energy -793338.715502 kJ/mol
# GULP energy per Si atom -12395.917430 kJ/mol
# Density = 1.749255 g / cm^3
# Si number density = 17.532453 Si / 1000 Ang^3
#
#
#
# Elastic Constant Matrix: (Units=GPa)
#
#
# Indices 1 2 3 4 5 6 
#
# 1 96.7076 41.5724 56.6371 0.0000 0.0000 0.0000
# 2 41.5724 77.7238 63.4325 0.0000 0.0000 0.0000
# 3 56.6371 63.4325 127.1187 0.0000 0.0000 0.0000
# 4 0.0000 0.0000 0.0000 20.9062 0.0000 0.0000
# 5 0.0000 0.0000 0.0000 0.0000 32.1662 0.0000
# 6 0.0000 0.0000 0.0000 0.0000 0.0000 19.0135
#
#
#
# Elastic Compliance Matrix: (Units=1/GPa)
#
#
# Indices 1 2 3 4 5 6 
#
# 1 0.014787 -0.004272 -0.004456 0.000000 0.000000 0.000000
# 2 -0.004272 0.022940 -0.009544 0.000000 0.000000 0.000000
# 3 -0.004456 -0.009544 0.014615 0.000000 0.000000 0.000000
# 4 0.000000 0.000000 0.000000 0.047833 0.000000 0.000000
# 5 0.000000 0.000000 0.000000 0.000000 0.031088 0.000000
# 6 0.000000 0.000000 0.000000 0.000000 0.000000 0.052594
#
#
# Mechanical properties :
#
#
# Convention : Reuss Voigt Hill
#
# Bulk Modulus (GPa) = 63.30342 69.42601 66.36471
# Shear Modulus (GPa) = 22.15656 23.74439 22.95047
#
# Velocity S-wave (km/s) = 3.55878 3.68409 3.62197
# Velocity P-wave (km/s) = 7.28501 7.60140 7.44488
#
# Compressibility (1/GPa) = 0.01579694
#
# Stress axis : x y z
#
# Youngs Moduli (GPa) = 67.62770 43.59205 68.42513
#
# Poissons Ratio (x) = 0.18623 0.30493
# Poissons Ratio (y) = 0.28891 0.65303
# Poissons Ratio (z) = 0.30138 0.41603
#
# Static dielectric constant tensor:
#      x y z
#    x 3.375040 0.000000 0.000000 
#    y 0.000000 3.199980 0.000000 
#    z 0.000000 0.000000 3.350590 
# 
# 
# High freq. dielectric constant tensor:
#      x y z
#    x 1.682660 0.000000 0.000000 
#    y 0.000000 1.656460 0.000000 
#    z 0.000000 0.000000 1.668370 
# 
# From -- ./inp_files/29574.got.cif
#   From: 2010.03.12/outbox.cif.g09.slc.cpg/sg59_15_cif.got.tgz:29574.got - 2010.04.16 16:29:54.
