data_PCOD8240814
_publ_section_title
;
Structure prediction by ZEFSAII (Michael W. Deem and Ramdas Pophale) SiO2 
 PCOD8240814
Probable space group: P M M N
;
_chemical_formula_sum "Si O2"
_cell_formula_units_Z 64
_cell_length_a 23.194439
_cell_length_b 9.252276
_cell_length_c 17.958595
_cell_angle_alpha 90.000000
_cell_angle_beta 90.000000
_cell_angle_gamma 90.000000
_cell_volume 3853.938754
_symmetry_space_group_name_H-M "P M M N"
_symmetry_group_IT_number 59
_space_group.IT_coordinate_system_code '2'
_symmetry_cell_setting 'orthorhombic'
loop_
_space_group_symop_operation_xyz
x,y,z
1/2-x,1/2-y,z
1/2+x,-y,-z
-x,1/2+y,-z
-x,-y,-z
1/2+x,1/2+y,-z
1/2-x,y,z
x,1/2-y,z
loop_
_atom_site_type_symbol
_atom_site_label
_atom_site_fract_x
_atom_site_fract_y
_atom_site_fract_z
Si Si1 0.314325 0.921942 0.211744
Si Si2 0.875655 0.079078 0.642326
Si Si3 0.818512 0.912142 0.090465
Si Si4 0.880759 0.582711 0.365895
Si Si5 0.816898 0.080162 0.236708
Si Si6 0.495766 0.582553 0.422823
Si Si7 0.683770 0.914924 0.514427
Si Si8 0.818676 0.411421 0.951312
O O1 0.250000 0.983244 0.228076
O O2 0.311242 0.750000 0.210252
O O3 0.358234 0.977225 0.275335
O O4 0.336660 0.973344 0.130213
O O5 0.869539 0.250000 0.637795
O O6 0.940458 0.027932 0.623780
O O7 0.830741 0.013949 0.584193
O O8 0.750000 0.909303 0.086339
O O9 0.843359 0.750000 0.097424
O O10 0.838645 0.005082 0.161148
O O11 0.843862 0.984578 0.015432
O O12 0.866127 0.750000 0.348059
O O13 0.855071 0.480891 0.303114
O O14 0.949079 0.555105 0.370614
O O15 0.853747 0.535040 0.444283
O O16 0.750000 0.044291 0.252475
O O17 0.827143 0.250000 0.228824
O O18 0.500000 0.500000 0.500000
O O19 0.490168 0.750000 0.443677
O O20 0.750000 0.935363 0.492436
O O21 0.669367 0.750000 0.535499
O O22 0.750000 0.405040 0.955431
O O23 0.843558 0.250000 0.964033
#
# Coordination Sequence:
#
# PCOD8240814 Si02
#       8
#     8   8   8   8   8   8   8   8
#     4   8  14  25  42  66  96 125 151 185 231 277
#     4  10  19  31  49  71  92 119 158 201 239 275
#     4   9  16  26  42  65  94 126 154 181 220 271
#     4  10  20  34  49  65  90 125 159 192 236 285
#     4  10  20  32  47  70  97 122 153 193 233 277
#     4  10  20  34  52  70  89 118 159 203 241 280
#     4  10  20  32  46  65  92 126 157 186 231 289
#     4   8  13  23  40  61  88 123 156 182 214 264
#
# _framework density 16.606387000000002
#
# number of rings (size 3 to 8) (size 9 to 14) (size 15 to 20)
#    0.000    2.625    1.250    2.250    0.000    4.500 
#    0.000    0.625    0.000    2.250    0.000    0.875 
#    0.000    0.000    0.000    0.000    0.000    0.000 
#
# Total GULP energy -793484.144714 kJ/mol
# GULP energy per Si atom -12398.189761 kJ/mol
# Density = 1.656859 g / cm^3
# Si number density = 16.606387 Si / 1000 Ang^3
#
#
#
# Elastic Constant Matrix: (Units=GPa)
#
#
# Indices 1 2 3 4 5 6 
#
# 1 57.9278 24.6749 36.4296 0.0000 0.0000 0.0000
# 2 24.6749 65.6381 55.1189 0.0000 0.0000 0.0000
# 3 36.4296 55.1189 133.0322 0.0000 0.0000 0.0000
# 4 0.0000 0.0000 0.0000 25.9396 0.0000 0.0000
# 5 0.0000 0.0000 0.0000 0.0000 6.8691 0.0000
# 6 0.0000 0.0000 0.0000 0.0000 0.0000 17.0562
#
#
#
# Elastic Compliance Matrix: (Units=1/GPa)
#
#
# Indices 1 2 3 4 5 6 
#
# 1 0.021831 -0.004887 -0.003953 0.000000 0.000000 0.000000
# 2 -0.004887 0.024458 -0.008795 0.000000 0.000000 0.000000
# 3 -0.003953 -0.008795 0.012244 0.000000 0.000000 0.000000
# 4 0.000000 0.000000 0.000000 0.038551 0.000000 0.000000
# 5 0.000000 0.000000 0.000000 0.000000 0.145580 0.000000
# 6 0.000000 0.000000 0.000000 0.000000 0.000000 0.058630
#
#
# Mechanical properties :
#
#
# Convention : Reuss Voigt Hill
#
# Bulk Modulus (GPa) = 42.99014 54.33831 48.66423
# Shear Modulus (GPa) = 14.52144 19.33128 16.92636
#
# Velocity S-wave (km/s) = 2.96032 3.41557 3.19606
# Velocity P-wave (km/s) = 6.13421 6.95322 6.55651
#
# Compressibility (1/GPa) = 0.02326115
#
# Stress axis : x y z
#
# Youngs Moduli (GPa) = 45.80715 40.88640 81.67443
#
# Poissons Ratio (x) = 0.19981 0.32289
# Poissons Ratio (y) = 0.22385 0.71836
# Poissons Ratio (z) = 0.18109 0.35961
#
# Static dielectric constant tensor:
#      x y z
#    x 2.971120 0.000000 0.000000 
#    y 0.000000 3.090520 0.000000 
#    z 0.000000 0.000000 3.365780 
# 
# 
# High freq. dielectric constant tensor:
#      x y z
#    x 1.602380 0.000000 0.000000 
#    y 0.000000 1.630010 0.000000 
#    z 0.000000 0.000000 1.647040 
# 
# From -- ./inp_files/28446.got.cif
#   From: 2010.03.12/outbox.cif.g09.slc.cpg/sg59_15_cif.got.tgz:28446.got - 2010.04.16 16:29:54.
