data_PCOD8240250
_publ_section_title
;
Structure prediction by ZEFSAII (Michael W. Deem and Ramdas Pophale) SiO2 
 PCOD8240250
Probable space group: P M M N
;
_chemical_formula_sum "Si O2"
_cell_formula_units_Z 64
_cell_length_a 9.404254
_cell_length_b 24.952796
_cell_length_c 18.420073
_cell_angle_alpha 90.000000
_cell_angle_beta 90.000000
_cell_angle_gamma 90.000000
_cell_volume 4322.499120
_symmetry_space_group_name_H-M "P M M N"
_symmetry_group_IT_number 59
_space_group.IT_coordinate_system_code '2'
_symmetry_cell_setting 'orthorhombic'
loop_
_space_group_symop_operation_xyz
x,y,z
1/2-x,1/2-y,z
1/2+x,-y,-z
-x,1/2+y,-z
-x,-y,-z
1/2+x,1/2+y,-z
1/2-x,y,z
x,1/2-y,z
loop_
_atom_site_type_symbol
_atom_site_label
_atom_site_fract_x
_atom_site_fract_y
_atom_site_fract_z
Si Si1 0.912393 0.472030 0.405790
Si Si2 0.585912 0.420093 0.004949
Si Si3 0.588659 0.886035 0.330149
Si Si4 0.585481 0.310208 0.936888
Si Si5 0.408543 0.999400 0.745447
Si Si6 0.912071 0.811529 0.205679
Si Si7 0.583845 0.991074 0.889189
Si Si8 0.412800 0.573174 0.449880
O O1 0.750000 0.495426 0.414143
O O2 0.934242 0.456188 0.320397
O O3 0.929182 0.421754 0.461834
O O4 0.030179 0.515030 0.427708
O O5 0.750000 0.428632 0.026720
O O6 0.551155 0.356767 0.995210
O O7 0.552196 0.453211 0.931127
O O8 0.488098 0.441301 0.069586
O O9 0.750000 0.870851 0.348785
O O10 0.574769 0.943809 0.293709
O O11 0.523313 0.843840 0.273291
O O12 0.501190 0.882151 0.405599
O O13 0.750000 0.312349 0.915463
O O14 0.545361 0.250000 0.965844
O O15 0.499274 0.325278 0.865687
O O16 0.250000 0.992973 0.778782
O O17 0.523112 0.993544 0.808298
O O18 0.750000 0.829393 0.190593
O O19 0.923563 0.750000 0.226661
O O20 0.750000 0.979233 0.884011
O O21 0.250000 0.578309 0.425743
#
# Coordination Sequence:
#
# PCOD8240250 Si02
#       8
#     8   8   8   8   8   8   8   8
#     4   8  15  26  37  52  76 103 128 155 189 227
#     4   9  18  31  43  56  79 108 133 160 198 240
#     4   9  17  27  38  54  78 107 136 164 195 233
#     4   9  17  29  45  63  81 102 131 168 205 239
#     4   9  16  26  39  54  76 105 131 157 195 237
#     4   9  17  28  41  57  78 105 135 165 197 233
#     4  10  19  28  40  59  80 104 136 168 194 229
#     4   9  15  23  37  55  74  99 131 161 187 219
#
# _framework density 14.806248999999999
#
# number of rings (size 3 to 8) (size 9 to 14) (size 15 to 20)
#    0.000    3.000    0.000    2.250    0.000    4.000 
#    0.000    0.000    0.000    0.000    0.000    0.000 
#    0.000    1.000    0.000    4.750    0.000    3.000 
#
# Total GULP energy -792976.251085 kJ/mol
# GULP energy per Si atom -12390.253923 kJ/mol
# Density = 1.477255 g / cm^3
# Si number density = 14.806249 Si / 1000 Ang^3
#
#
#
# Elastic Constant Matrix: (Units=GPa)
#
#
# Indices 1 2 3 4 5 6 
#
# 1 62.6472 22.6712 38.4818 0.0000 0.0000 0.0000
# 2 22.6712 51.1001 25.0560 0.0000 0.0000 0.0000
# 3 38.4818 25.0560 81.2037 0.0000 0.0000 0.0000
# 4 0.0000 0.0000 0.0000 23.0339 0.0000 0.0000
# 5 0.0000 0.0000 0.0000 0.0000 27.9026 0.0000
# 6 0.0000 0.0000 0.0000 0.0000 0.0000 15.7678
#
#
#
# Elastic Compliance Matrix: (Units=1/GPa)
#
#
# Indices 1 2 3 4 5 6 
#
# 1 0.023968 -0.005967 -0.009517 0.000000 0.000000 0.000000
# 2 -0.005967 0.024544 -0.004745 0.000000 0.000000 0.000000
# 3 -0.009517 -0.004745 0.018289 0.000000 0.000000 0.000000
# 4 0.000000 0.000000 0.000000 0.043414 0.000000 0.000000
# 5 0.000000 0.000000 0.000000 0.000000 0.035839 0.000000
# 6 0.000000 0.000000 0.000000 0.000000 0.000000 0.063420
#
#
# Mechanical properties :
#
#
# Convention : Reuss Voigt Hill
#
# Bulk Modulus (GPa) = 37.96295 40.81878 39.39087
# Shear Modulus (GPa) = 19.32643 20.59033 19.95838
#
# Velocity S-wave (km/s) = 3.61680 3.73319 3.67545
# Velocity P-wave (km/s) = 6.56789 6.79785 6.68386
#
# Compressibility (1/GPa) = 0.02634147
#
# Stress axis : x y z
#
# Youngs Moduli (GPa) = 41.72280 40.74379 54.67793
#
# Poissons Ratio (x) = 0.24312 0.52037
# Poissons Ratio (y) = 0.24897 0.25946
# Poissons Ratio (z) = 0.39707 0.19334
#
# Static dielectric constant tensor:
#      x y z
#    x 2.968170 0.000000 0.000000 
#    y 0.000000 2.720080 0.000000 
#    z 0.000000 0.000000 3.033430 
# 
# 
# High freq. dielectric constant tensor:
#      x y z
#    x 1.575130 0.000000 0.000000 
#    y 0.000000 1.523050 0.000000 
#    z 0.000000 0.000000 1.560550 
# 
# From -- ./inp_files/26644.got.cif
#   From: 2010.03.12/outbox.cif.g09.slc.cpg/sg59_14_cif.got.tgz:26644.got - 2010.04.16 16:29:54.
