data_PCOD8240230
_publ_section_title
;
Structure prediction by ZEFSAII (Michael W. Deem and Ramdas Pophale) SiO2 
 PCOD8240230
Probable space group: P M M N
;
_chemical_formula_sum "Si O2"
_cell_formula_units_Z 64
_cell_length_a 30.915163
_cell_length_b 8.722968
_cell_length_c 11.883087
_cell_angle_alpha 90.000000
_cell_angle_beta 90.000000
_cell_angle_gamma 90.000000
_cell_volume 3204.535571
_symmetry_space_group_name_H-M "P M M N"
_symmetry_group_IT_number 59
_space_group.IT_coordinate_system_code '2'
_symmetry_cell_setting 'orthorhombic'
loop_
_space_group_symop_operation_xyz
x,y,z
1/2-x,1/2-y,z
1/2+x,-y,-z
-x,1/2+y,-z
-x,-y,-z
1/2+x,1/2+y,-z
1/2-x,y,z
x,1/2-y,z
loop_
_atom_site_type_symbol
_atom_site_label
_atom_site_fract_x
_atom_site_fract_y
_atom_site_fract_z
Si Si1 0.202017 0.932124 0.999901
Si Si2 0.122404 0.068343 0.387210
Si Si3 0.954457 0.073133 0.473729
Si Si4 0.546982 0.570908 0.011577
Si Si5 0.120789 0.568071 0.141379
Si Si6 0.297579 0.073550 0.529959
Si Si7 0.579211 0.423513 0.230022
Si Si8 0.177928 0.928288 0.755429
O O1 0.250000 0.984591 0.040518
O O2 0.198822 0.750000 0.996189
O O3 0.193598 0.998055 0.874575
O O4 0.165064 0.995356 0.083904
O O5 0.123453 0.250000 0.369188
O O6 0.165957 0.004330 0.447465
O O7 0.081819 0.023617 0.462953
O O8 0.119014 0.986665 0.268383
O O9 0.952118 0.250000 0.512797
O O10 0.949720 0.059289 0.340081
O O11 0.000000 0.000000 0.500000
O O12 0.544698 0.750000 0.986490
O O13 0.579214 0.495232 0.922779
O O14 0.500000 0.500000 0.000000
O O15 0.563023 0.542477 0.137819
O O16 0.119164 0.750000 0.136425
O O17 0.250000 0.048397 0.475341
O O18 0.308535 0.250000 0.547561
O O19 0.296235 0.000223 0.652900
O O20 0.576830 0.250000 0.181215
O O21 0.627807 0.465380 0.263160
O O22 0.188037 0.750000 0.753588
#
# Coordination Sequence:
#
# PCOD8240230 Si02
#       8
#     8   8   8   8   8   8   8   8
#     4   9  18  34  59  90 121 155 196 247 305 362
#     4  11  24  42  62  87 122 164 210 256 306 367
#     4  11  24  42  65  92 125 161 204 254 308 366
#     4  12  26  43  66  93 125 163 206 251 305 367
#     4  11  23  42  64  88 123 162 205 258 310 362
#     4  10  22  39  59  87 125 165 204 251 306 363
#     4  10  21  40  65  93 125 160 201 254 307 359
#     4  10  18  35  62  91 123 157 199 250 304 360
#
# _framework density 19.971692000000001
#
# number of rings (size 3 to 8) (size 9 to 14) (size 15 to 20)
#    0.000    1.500    2.500    2.625    1.750    3.250 
#    0.000    0.000    0.000    1.875    0.000    0.000 
#    0.000    0.000    0.000    0.000    0.000    0.000 
#
# Total GULP energy -793718.400504 kJ/mol
# GULP energy per Si atom -12401.850008 kJ/mol
# Density = 1.992624 g / cm^3
# Si number density = 19.971692 Si / 1000 Ang^3
#
#
#
# Elastic Constant Matrix: (Units=GPa)
#
#
# Indices 1 2 3 4 5 6 
#
# 1 132.8854 38.9045 47.7504 0.0000 0.0000 0.0000
# 2 38.9045 71.1342 32.9254 0.0000 0.0000 0.0000
# 3 47.7504 32.9254 110.4818 0.0000 0.0000 0.0000
# 4 0.0000 0.0000 0.0000 32.3931 0.0000 0.0000
# 5 0.0000 0.0000 0.0000 0.0000 20.6448 0.0000
# 6 0.0000 0.0000 0.0000 0.0000 0.0000 25.0982
#
#
#
# Elastic Compliance Matrix: (Units=1/GPa)
#
#
# Indices 1 2 3 4 5 6 
#
# 1 0.009773 -0.003932 -0.003052 0.000000 0.000000 0.000000
# 2 -0.003932 0.017890 -0.003632 0.000000 0.000000 0.000000
# 3 -0.003052 -0.003632 0.011453 0.000000 0.000000 0.000000
# 4 0.000000 0.000000 0.000000 0.030871 0.000000 0.000000
# 5 0.000000 0.000000 0.000000 0.000000 0.048438 0.000000
# 6 0.000000 0.000000 0.000000 0.000000 0.000000 0.039844
#
#
# Mechanical properties :
#
#
# Convention : Reuss Voigt Hill
#
# Bulk Modulus (GPa) = 55.91911 61.51801 58.71856
# Shear Modulus (GPa) = 26.95970 28.62197 27.79083
#
# Velocity S-wave (km/s) = 3.67808 3.78977 3.73434
# Velocity P-wave (km/s) = 6.78953 7.07243 6.93242
#
# Compressibility (1/GPa) = 0.01788297
#
# Stress axis : x y z
#
# Youngs Moduli (GPa) = 102.31950 55.89813 87.31548
#
# Poissons Ratio (x) = 0.21982 0.26650
# Poissons Ratio (y) = 0.40237 0.31711
# Poissons Ratio (z) = 0.31229 0.20301
#
# Static dielectric constant tensor:
#      x y z
#    x 3.955760 0.000000 0.000000 
#    y 0.000000 3.468670 0.000000 
#    z 0.000000 0.000000 3.572350 
# 
# 
# High freq. dielectric constant tensor:
#      x y z
#    x 1.798750 0.000000 0.000000 
#    y 0.000000 1.765150 0.000000 
#    z 0.000000 0.000000 1.782280 
# 
# From -- ./inp_files/19392.got.cif
#   From: 2010.03.12/outbox.cif.g09.slc.cpg/sg59_10_cif.got.tgz:19392.got - 2010.04.16 16:29:54.
