data_PCOD8240285
_publ_section_title
;
Structure prediction by ZEFSAII (Michael W. Deem and Ramdas Pophale) SiO2 
 PCOD8240285
Probable space group: P M M N
;
_chemical_formula_sum "Si O2"
_cell_formula_units_Z 64
_cell_length_a 23.048720
_cell_length_b 9.304665
_cell_length_c 20.157528
_cell_angle_alpha 90.000000
_cell_angle_beta 90.000000
_cell_angle_gamma 90.000000
_cell_volume 4322.995918
_symmetry_space_group_name_H-M "P M M N"
_symmetry_group_IT_number 59
_space_group.IT_coordinate_system_code '2'
_symmetry_cell_setting 'orthorhombic'
loop_
_space_group_symop_operation_xyz
x,y,z
1/2-x,1/2-y,z
1/2+x,-y,-z
-x,1/2+y,-z
-x,-y,-z
1/2+x,1/2+y,-z
1/2-x,y,z
x,1/2-y,z
loop_
_atom_site_type_symbol
_atom_site_label
_atom_site_fract_x
_atom_site_fract_y
_atom_site_fract_z
Si Si1 0.389318 0.081208 0.323103
Si Si2 0.076745 0.585074 0.442511
Si Si3 0.480724 0.587610 0.720357
Si Si4 0.537417 0.086090 0.422090
Si Si5 0.182505 0.915463 0.217301
Si Si6 0.558759 0.582739 0.014706
Si Si7 0.024165 0.413747 0.845043
Si Si8 0.900137 0.082609 0.900839
O O1 0.379071 0.250000 0.328746
O O2 0.453127 0.041051 0.296168
O O3 0.381321 0.011706 0.396666
O O4 0.341069 0.015383 0.275470
O O5 0.083323 0.750000 0.419818
O O6 0.088653 0.568572 0.522535
O O7 0.010635 0.534679 0.434296
O O8 0.480053 0.750000 0.745066
O O9 0.441043 0.565696 0.654129
O O10 0.453810 0.497761 0.780544
O O11 0.511246 0.250000 0.427526
O O12 0.250000 0.945993 0.208398
O O13 0.169491 0.750000 0.235646
O O14 0.152723 0.955200 0.147533
O O15 0.552488 0.750000 0.996041
O O16 0.569700 0.565302 0.093971
O O17 0.500000 0.500000 0.000000
O O18 0.608340 0.508907 0.969080
O O19 0.020368 0.250000 0.823131
O O20 0.959886 0.466682 0.865779
O O21 0.902357 0.250000 0.919879
#
# Coordination Sequence:
#
# PCOD8240285 Si02
#       8
#     8   8   8   8   8   8   8   8
#     4  10  19  29  40  56  77 101 133 170 204 240
#     4   9  15  24  39  53  71 100 132 164 197 232
#     4   9  16  24  36  54  77 104 131 160 194 230
#     4   8  15  25  34  52  77 100 130 164 194 228
#     4  10  20  33  47  61  78 102 135 173 211 249
#     4   9  17  27  39  56  76 100 130 163 198 236
#     4   9  16  25  37  55  77 101 131 163 192 232
#     4   9  17  29  42  57  76  98 129 167 203 242
#
# _framework density 14.804548
#
# number of rings (size 3 to 8) (size 9 to 14) (size 15 to 20)
#    0.000    2.875    1.250    2.625    0.000    5.750 
#    0.000    0.000    0.000    0.000    0.000    0.000 
#    0.000    0.000    0.000    1.125    0.000   18.500 
#
# Total GULP energy -792918.779568 kJ/mol
# GULP energy per Si atom -12389.355931 kJ/mol
# Density = 1.477085 g / cm^3
# Si number density = 14.804548 Si / 1000 Ang^3
#
#
#
# Elastic Constant Matrix: (Units=GPa)
#
#
# Indices 1 2 3 4 5 6 
#
# 1 34.6450 25.0053 37.4155 0.0000 0.0000 0.0000
# 2 25.0053 77.8922 66.1641 0.0000 0.0000 0.0000
# 3 37.4155 66.1641 138.7087 0.0000 0.0000 0.0000
# 4 0.0000 0.0000 0.0000 29.9291 0.0000 0.0000
# 5 0.0000 0.0000 0.0000 0.0000 13.4866 0.0000
# 6 0.0000 0.0000 0.0000 0.0000 0.0000 11.8665
#
#
#
# Elastic Compliance Matrix: (Units=1/GPa)
#
#
# Indices 1 2 3 4 5 6 
#
# 1 0.042650 -0.006589 -0.008361 0.000000 0.000000 0.000000
# 2 -0.006589 0.022601 -0.009003 0.000000 0.000000 0.000000
# 3 -0.008361 -0.009003 0.013759 0.000000 0.000000 0.000000
# 4 0.000000 0.000000 0.000000 0.033412 0.000000 0.000000
# 5 0.000000 0.000000 0.000000 0.000000 0.074148 0.000000
# 6 0.000000 0.000000 0.000000 0.000000 0.000000 0.084271
#
#
# Mechanical properties :
#
#
# Convention : Reuss Voigt Hill
#
# Bulk Modulus (GPa) = 32.15162 56.49062 44.32112
# Shear Modulus (GPa) = 15.19213 19.23384 17.21298
#
# Velocity S-wave (km/s) = 3.20688 3.60833 3.41351
# Velocity P-wave (km/s) = 5.95623 7.45658 6.74823
#
# Compressibility (1/GPa) = 0.03110263
#
# Stress axis : x y z
#
# Youngs Moduli (GPa) = 23.44662 44.24503 72.67731
#
# Poissons Ratio (x) = 0.29154 0.60769
# Poissons Ratio (y) = 0.15450 0.65435
# Poissons Ratio (z) = 0.19605 0.39836
#
# Static dielectric constant tensor:
#      x y z
#    x 2.340860 0.000000 0.000000 
#    y 0.000000 2.979710 0.000000 
#    z 0.000000 0.000000 3.364760 
# 
# 
# High freq. dielectric constant tensor:
#      x y z
#    x 1.479790 0.000000 0.000000 
#    y 0.000000 1.579350 0.000000 
#    z 0.000000 0.000000 1.584300 
# 
# From -- ./inp_files/31086.got.cif
#   From: 2010.03.12/outbox.cif.g09.slc.cpg/sg59_16_cif.got.tgz:31086.got - 2010.04.16 16:29:54.
