data_PCOD8240272
_publ_section_title
;
Structure prediction by ZEFSAII (Michael W. Deem and Ramdas Pophale) SiO2 
 PCOD8240272
Probable space group: P M M N
;
_chemical_formula_sum "Si O2"
_cell_formula_units_Z 64
_cell_length_a 9.091067
_cell_length_b 22.787317
_cell_length_c 17.393260
_cell_angle_alpha 90.000000
_cell_angle_beta 90.000000
_cell_angle_gamma 90.000000
_cell_volume 3603.205580
_symmetry_space_group_name_H-M "P M M N"
_symmetry_group_IT_number 59
_space_group.IT_coordinate_system_code '2'
_symmetry_cell_setting 'orthorhombic'
loop_
_space_group_symop_operation_xyz
x,y,z
1/2-x,1/2-y,z
1/2+x,-y,-z
-x,1/2+y,-z
-x,-y,-z
1/2+x,1/2+y,-z
1/2-x,y,z
x,1/2-y,z
loop_
_atom_site_type_symbol
_atom_site_label
_atom_site_fract_x
_atom_site_fract_y
_atom_site_fract_z
Si Si1 0.410023 0.105731 0.815632
Si Si2 0.422376 0.816905 0.552711
Si Si3 0.414216 0.681425 0.285504
Si Si4 0.923672 0.997707 0.081456
Si Si5 0.911851 0.513898 0.321083
Si Si6 0.082595 0.184514 0.290616
Si Si7 0.423916 0.118860 0.580805
Si Si8 0.579678 0.933465 0.785797
O O1 0.250000 0.135140 0.829419
O O2 0.529341 0.155106 0.795662
O O3 0.397505 0.061162 0.745586
O O4 0.458078 0.068188 0.889602
O O5 0.250000 0.828428 0.546972
O O6 0.460510 0.750000 0.527217
O O7 0.473333 0.827879 0.639366
O O8 0.503106 0.864606 0.499871
O O9 0.250000 0.657843 0.301985
O O10 0.415015 0.750000 0.275270
O O11 0.518273 0.664051 0.355490
O O12 0.750000 0.009535 0.075218
O O13 0.989591 0.045974 0.139772
O O14 0.000000 0.000000 0.000000
O O15 0.750000 0.485613 0.335636
O O16 0.964483 0.551116 0.396316
O O17 0.025933 0.464161 0.293979
O O18 0.250000 0.179066 0.321164
O O19 0.054439 0.250000 0.256667
O O20 0.054840 0.136474 0.223948
O O21 0.250000 0.126664 0.574877
O O22 0.750000 0.949446 0.798043
#
# Coordination Sequence:
#
# PCOD8240272 Si02
#       8
#     8   8   8   8   8   8   8   8
#     4   8  16  30  46  66  93 125 159 192 228 275
#     4  10  20  32  47  69  95 124 164 215 263 300
#     4  10  19  28  41  65  95 127 164 203 240 279
#     4  10  20  34  54  80 106 128 153 189 233 281
#     4   8  16  30  46  67  96 128 162 201 244 289
#     4   9  19  36  55  74  98 129 165 204 245 293
#     4  10  19  30  45  65  92 129 169 207 250 298
#     4  10  19  32  54  80 102 128 163 199 240 292
#
# _framework density 17.761962
#
# number of rings (size 3 to 8) (size 9 to 14) (size 15 to 20)
#    0.000    2.625    0.000    3.750    0.000    9.750 
#    0.000    0.625    0.000    0.750    0.000    1.750 
#    0.000    0.000    0.000    0.000    0.000    0.000 
#
# Total GULP energy -793243.902421 kJ/mol
# GULP energy per Si atom -12394.435975 kJ/mol
# Density = 1.772153 g / cm^3
# Si number density = 17.761962 Si / 1000 Ang^3
#
#
#
# Elastic Constant Matrix: (Units=GPa)
#
#
# Indices 1 2 3 4 5 6 
#
# 1 102.3481 46.5945 43.2219 0.0000 0.0000 0.0000
# 2 46.5945 76.6558 38.8947 0.0000 0.0000 0.0000
# 3 43.2219 38.8947 71.4871 0.0000 0.0000 0.0000
# 4 0.0000 0.0000 0.0000 23.7655 0.0000 0.0000
# 5 0.0000 0.0000 0.0000 0.0000 26.9303 0.0000
# 6 0.0000 0.0000 0.0000 0.0000 0.0000 25.4473
#
#
#
# Elastic Compliance Matrix: (Units=1/GPa)
#
#
# Indices 1 2 3 4 5 6 
#
# 1 0.015011 -0.006243 -0.005679 0.000000 0.000000 0.000000
# 2 -0.006243 0.020616 -0.007442 0.000000 0.000000 0.000000
# 3 -0.005679 -0.007442 0.021472 0.000000 0.000000 0.000000
# 4 0.000000 0.000000 0.000000 0.042078 0.000000 0.000000
# 5 0.000000 0.000000 0.000000 0.000000 0.037133 0.000000
# 6 0.000000 0.000000 0.000000 0.000000 0.000000 0.039297
#
#
# Mechanical properties :
#
#
# Convention : Reuss Voigt Hill
#
# Bulk Modulus (GPa) = 54.43687 56.43481 55.43584
# Shear Modulus (GPa) = 22.68002 23.34727 23.01365
#
# Velocity S-wave (km/s) = 3.57723 3.62947 3.60345
# Velocity P-wave (km/s) = 6.91207 7.02893 6.97075
#
# Compressibility (1/GPa) = 0.01836990
#
# Stress axis : x y z
#
# Youngs Moduli (GPa) = 66.61800 48.50575 46.57314
#
# Poissons Ratio (x) = 0.30280 0.26450
# Poissons Ratio (y) = 0.41587 0.34662
# Poissons Ratio (z) = 0.37834 0.36100
#
# Static dielectric constant tensor:
#      x y z
#    x 4.323360 0.000000 0.000000 
#    y 0.000000 3.493460 0.000000 
#    z 0.000000 0.000000 3.158050 
# 
# 
# High freq. dielectric constant tensor:
#      x y z
#    x 1.700470 0.000000 0.000000 
#    y 0.000000 1.677390 0.000000 
#    z 0.000000 0.000000 1.655110 
# 
# From -- ./inp_files/26162.got.cif
#   From: 2010.03.12/outbox.cif.g09.slc.cpg/sg59_14_cif.got.tgz:26162.got - 2010.04.16 16:29:54.
