data_PCOD8240846
_publ_section_title
;
Structure prediction by ZEFSAII (Michael W. Deem and Ramdas Pophale) SiO2 
 PCOD8240846
Probable space group: P M M N
;
_chemical_formula_sum "Si O2"
_cell_formula_units_Z 56
_cell_length_a 13.978146
_cell_length_b 14.606773
_cell_length_c 15.294206
_cell_angle_alpha 90.000000
_cell_angle_beta 90.000000
_cell_angle_gamma 90.000000
_cell_volume 3122.703772
_symmetry_space_group_name_H-M "P M M N"
_symmetry_group_IT_number 59
_space_group.IT_coordinate_system_code '2'
_symmetry_cell_setting 'orthorhombic'
loop_
_space_group_symop_operation_xyz
x,y,z
1/2-x,1/2-y,z
1/2+x,-y,-z
-x,1/2+y,-z
-x,-y,-z
1/2+x,1/2+y,-z
1/2-x,y,z
x,1/2-y,z
loop_
_atom_site_type_symbol
_atom_site_label
_atom_site_fract_x
_atom_site_fract_y
_atom_site_fract_z
Si Si1 0.643158 0.535248 0.159605
Si Si2 0.137945 0.352843 0.502752
Si Si3 0.855982 0.149197 0.074856
Si Si4 0.361273 0.495211 0.648517
Si Si5 0.953314 0.854387 0.012617
Si Si6 0.358028 0.358838 0.167002
Si Si7 0.981499 0.643421 0.668769
O O1 0.750000 0.564972 0.131645
O O2 0.623927 0.559191 0.260224
O O3 0.570379 0.586844 0.097196
O O4 0.630589 0.425204 0.150950
O O5 0.250000 0.363104 0.487644
O O6 0.112371 0.250000 0.534973
O O7 0.101856 0.425703 0.574358
O O8 0.089755 0.374345 0.410922
O O9 0.750000 0.142180 0.032785
O O10 0.872704 0.250000 0.117737
O O11 0.932624 0.134419 0.998116
O O12 0.250000 0.522082 0.636079
O O13 0.422095 0.587944 0.648652
O O14 0.922948 0.750000 0.030053
O O15 0.899934 0.892348 0.926123
O O16 0.250000 0.397406 0.178334
O O17 0.356289 0.250000 0.170350
O O18 0.427256 0.394268 0.244469
O O19 0.008632 0.750000 0.678102
#
# Coordination Sequence:
#
# PCOD8240846 Si02
#       7
#     8   8   8   8   8   8   8
#     4  10  20  32  47  68  96 131 165 197 237 285
#     4   9  18  34  55  76  98 126 160 199 243 287
#     4   9  18  32  48  66  91 126 166 204 242 285
#     4  10  21  34  49  73 102 130 162 198 234 282
#     4  10  19  31  49  72  98 128 161 201 245 286
#     4   9  17  29  46  71 100 126 158 202 248 292
#     4  10  19  32  52  75  99 128 159 196 245 293
#
# _framework density 17.933178000000002
#
# number of rings (size 3 to 8) (size 9 to 14) (size 15 to 20)
#    0.000    2.429    0.000    2.571    0.000    5.143 
#    0.000    2.857    0.000    0.857    0.000    0.000 
#    0.000    2.286    0.000    0.000    0.000    0.429 
#
# Total GULP energy -694261.548934 kJ/mol
# GULP energy per Si atom -12397.527660 kJ/mol
# Density = 1.789236 g / cm^3
# Si number density = 17.933178 Si / 1000 Ang^3
#
#
#
# Elastic Constant Matrix: (Units=GPa)
#
#
# Indices 1 2 3 4 5 6 
#
# 1 78.7329 32.6493 28.2183 0.0000 0.0000 0.0000
# 2 32.6493 62.1031 39.5680 0.0000 0.0000 0.0000
# 3 28.2183 39.5680 92.7373 0.0000 0.0000 0.0000
# 4 0.0000 0.0000 0.0000 19.1951 0.0000 0.0000
# 5 0.0000 0.0000 0.0000 0.0000 19.5355 0.0000
# 6 0.0000 0.0000 0.0000 0.0000 0.0000 26.5188
#
#
#
# Elastic Compliance Matrix: (Units=1/GPa)
#
#
# Indices 1 2 3 4 5 6 
#
# 1 0.016460 -0.007502 -0.001808 0.000000 0.000000 0.000000
# 2 -0.007502 0.025533 -0.008611 0.000000 0.000000 0.000000
# 3 -0.001808 -0.008611 0.015007 0.000000 0.000000 0.000000
# 4 0.000000 0.000000 0.000000 0.052097 0.000000 0.000000
# 5 0.000000 0.000000 0.000000 0.000000 0.051189 0.000000
# 6 0.000000 0.000000 0.000000 0.000000 0.000000 0.037709
#
#
# Mechanical properties :
#
#
# Convention : Reuss Voigt Hill
#
# Bulk Modulus (GPa) = 47.26237 48.27162 47.76699
# Shear Modulus (GPa) = 20.75647 21.92574 21.34111
#
# Velocity S-wave (km/s) = 3.40580 3.50041 3.45343
# Velocity P-wave (km/s) = 6.47131 6.58127 6.52652
#
# Compressibility (1/GPa) = 0.02115848
#
# Stress axis : x y z
#
# Youngs Moduli (GPa) = 60.75367 39.16545 66.63376
#
# Poissons Ratio (x) = 0.29381 0.12046
# Poissons Ratio (y) = 0.45575 0.57381
# Poissons Ratio (z) = 0.10983 0.33727
#
# Static dielectric constant tensor:
#      x y z
#    x 3.480560 0.000000 0.000000 
#    y 0.000000 3.233720 0.000000 
#    z 0.000000 0.000000 3.242740 
# 
# 
# High freq. dielectric constant tensor:
#      x y z
#    x 1.702850 0.000000 0.000000 
#    y 0.000000 1.676200 0.000000 
#    z 0.000000 0.000000 1.683210 
# 
# From -- ./inp_files/16962.got.cif
#   From: 2010.03.12/outbox.cif.g09.slc.cpg/sg59_9_cif.got.tgz:16962.got - 2010.04.16 16:29:54.
