data_PCOD8240583
_publ_section_title
;
Structure prediction by ZEFSAII (Michael W. Deem and Ramdas Pophale) SiO2 
 PCOD8240583
Probable space group: P M M N
;
_chemical_formula_sum "Si O2"
_cell_formula_units_Z 64
_cell_length_a 33.454163
_cell_length_b 9.704125
_cell_length_c 11.343044
_cell_angle_alpha 90.000000
_cell_angle_beta 90.000000
_cell_angle_gamma 90.000000
_cell_volume 3682.444138
_symmetry_space_group_name_H-M "P M M N"
_symmetry_group_IT_number 59
_space_group.IT_coordinate_system_code '2'
_symmetry_cell_setting 'orthorhombic'
loop_
_space_group_symop_operation_xyz
x,y,z
1/2-x,1/2-y,z
1/2+x,-y,-z
-x,1/2+y,-z
-x,-y,-z
1/2+x,1/2+y,-z
1/2-x,y,z
x,1/2-y,z
loop_
_atom_site_type_symbol
_atom_site_label
_atom_site_fract_x
_atom_site_fract_y
_atom_site_fract_z
Si Si1 0.058743 0.909497 0.282383
Si Si2 0.203580 0.595567 0.508349
Si Si3 0.895485 0.589973 0.115870
Si Si4 0.294199 0.913715 0.245917
Si Si5 0.970257 0.590111 0.251589
Si Si6 0.433759 0.407751 0.511196
Si Si7 0.371271 0.912873 0.104735
Si Si8 0.352341 0.096794 0.641294
O O1 0.062843 0.750000 0.318743
O O2 0.094003 0.954361 0.195771
O O3 0.016262 0.936114 0.216409
O O4 0.059431 0.998873 0.398707
O O5 0.250000 0.596025 0.538480
O O6 0.186064 0.750000 0.514000
O O7 0.182451 0.507826 0.608940
O O8 0.196186 0.531621 0.377756
O O9 0.896142 0.750000 0.075673
O O10 0.940127 0.534154 0.150647
O O11 0.866983 0.566719 0.227100
O O12 0.878202 0.495477 0.013827
O O13 0.250000 0.966422 0.204747
O O14 0.293439 0.750000 0.253547
O O15 0.328584 0.962960 0.156530
O O16 0.958759 0.750000 0.262979
O O17 0.961079 0.530707 0.382399
O O18 0.445185 0.250000 0.480044
O O19 0.387871 0.419772 0.548215
O O20 0.371682 0.750000 0.078841
O O21 0.334483 0.250000 0.634002
#
# Coordination Sequence:
#
# PCOD8240583 Si02
#       8
#     8   8   8   8   8   8   8   8
#     4  10  19  30  47  72  99 124 153 196 246 288
#     4   9  17  30  51  78 102 123 151 188 233 289
#     4   9  19  36  52  64  88 130 168 194 229 279
#     4   8  15  30  50  70  96 127 151 179 230 287
#     4   8  16  32  50  67  93 128 159 191 238 290
#     4   9  17  30  48  70  95 124 160 196 234 289
#     4  10  20  32  48  72  96 120 159 204 237 271
#     4   9  18  32  49  68  93 127 161 193 235 283
#
# _framework density 17.379760999999998
#
# number of rings (size 3 to 8) (size 9 to 14) (size 15 to 20)
#    0.000    3.000    0.000    3.375    0.000    3.250 
#    0.000    3.750    0.000    3.375    0.000    0.000 
#    0.000    0.000    0.000    0.000    0.000    0.000 
#
# Total GULP energy -793310.542381 kJ/mol
# GULP energy per Si atom -12395.477225 kJ/mol
# Density = 1.734020 g / cm^3
# Si number density = 17.379761 Si / 1000 Ang^3
#
#
#
# Elastic Constant Matrix: (Units=GPa)
#
#
# Indices 1 2 3 4 5 6 
#
# 1 115.6772 42.2868 63.9672 0.0000 0.0000 0.0000
# 2 42.2868 49.4968 36.4491 0.0000 0.0000 0.0000
# 3 63.9672 36.4491 75.5587 0.0000 0.0000 0.0000
# 4 0.0000 0.0000 0.0000 32.8191 0.0000 0.0000
# 5 0.0000 0.0000 0.0000 0.0000 22.9722 0.0000
# 6 0.0000 0.0000 0.0000 0.0000 0.0000 20.5063
#
#
#
# Elastic Compliance Matrix: (Units=1/GPa)
#
#
# Indices 1 2 3 4 5 6 
#
# 1 0.017413 -0.006236 -0.011733 0.000000 0.000000 0.000000
# 2 -0.006236 0.033568 -0.010913 0.000000 0.000000 0.000000
# 3 -0.011733 -0.010913 0.028432 0.000000 0.000000 0.000000
# 4 0.000000 0.000000 0.000000 0.030470 0.000000 0.000000
# 5 0.000000 0.000000 0.000000 0.000000 0.043531 0.000000
# 6 0.000000 0.000000 0.000000 0.000000 0.000000 0.048765
#
#
# Mechanical properties :
#
#
# Convention : Reuss Voigt Hill
#
# Bulk Modulus (GPa) = 46.19483 58.45990 52.32736
# Shear Modulus (GPa) = 18.71539 21.79482 20.25510
#
# Velocity S-wave (km/s) = 3.28510 3.54508 3.41756
# Velocity P-wave (km/s) = 6.40520 7.10398 6.76362
#
# Compressibility (1/GPa) = 0.02164744
#
# Stress axis : x y z
#
# Youngs Moduli (GPa) = 57.42995 29.79069 35.17110
#
# Poissons Ratio (x) = 0.18577 0.41266
# Poissons Ratio (y) = 0.35813 0.38384
# Poissons Ratio (z) = 0.67383 0.32512
#
# Static dielectric constant tensor:
#      x y z
#    x 3.416400 0.000000 0.000000 
#    y 0.000000 3.004030 0.000000 
#    z 0.000000 0.000000 3.058770 
# 
# 
# High freq. dielectric constant tensor:
#      x y z
#    x 1.679820 0.000000 0.000000 
#    y 0.000000 1.644810 0.000000 
#    z 0.000000 0.000000 1.659080 
# 
# From -- ./inp_files/13198.got.cif
#   From: 2010.03.12/outbox.cif.g09.slc.cpg/sg59_7_cif.got.tgz:13198.got - 2010.04.16 16:29:54.
