data_PCOD8240092
_publ_section_title
;
Structure prediction by ZEFSAII (Michael W. Deem and Ramdas Pophale) SiO2 
 PCOD8240092
Probable space group: P M M N
;
_chemical_formula_sum "Si O2"
_cell_formula_units_Z 64
_cell_length_a 9.264109
_cell_length_b 30.707728
_cell_length_c 11.817537
_cell_angle_alpha 90.000000
_cell_angle_beta 90.000000
_cell_angle_gamma 90.000000
_cell_volume 3361.849845
_symmetry_space_group_name_H-M "P M M N"
_symmetry_group_IT_number 59
_space_group.IT_coordinate_system_code '2'
_symmetry_cell_setting 'orthorhombic'
loop_
_space_group_symop_operation_xyz
x,y,z
1/2-x,1/2-y,z
1/2+x,-y,-z
-x,1/2+y,-z
-x,-y,-z
1/2+x,1/2+y,-z
1/2-x,y,z
x,1/2-y,z
loop_
_atom_site_type_symbol
_atom_site_label
_atom_site_fract_x
_atom_site_fract_y
_atom_site_fract_z
Si Si1 0.085641 0.449557 0.243884
Si Si2 0.082542 0.954242 0.223475
Si Si3 0.918655 0.373249 0.628365
Si Si4 0.081561 0.299292 0.756572
Si Si5 0.080632 0.625662 0.633353
Si Si6 0.420937 0.329419 0.997338
Si Si7 0.916619 0.572507 0.010426
Si Si8 0.418871 0.299625 0.238971
O O1 0.250000 0.434801 0.270214
O O2 0.056686 0.499119 0.284728
O O3 0.976976 0.417146 0.304561
O O4 0.058306 0.449762 0.109864
O O5 0.250000 0.947847 0.196304
O O6 0.025175 0.916006 0.305338
O O7 0.000759 0.954321 0.104690
O O8 0.750000 0.366045 0.647981
O O9 0.956050 0.380012 0.497852
O O10 0.999099 0.330549 0.671427
O O11 0.250000 0.311045 0.751116
O O12 0.052281 0.250000 0.717565
O O13 0.023248 0.304948 0.885044
O O14 0.250000 0.629597 0.656299
O O15 0.004885 0.669337 0.676752
O O16 0.250000 0.328239 0.001088
O O17 0.479228 0.378578 0.994785
O O18 0.477943 0.306035 0.110924
O O19 0.750000 0.573074 0.045567
O O20 0.250000 0.311655 0.246264
O O21 0.446726 0.250000 0.276285
#
# Coordination Sequence:
#
# PCOD8240092 Si02
#       8
#     8   8   8   8   8   8   8   8
#     4  10  21  38  59  84 113 145 183 230 278 330
#     4  10  21  37  58  83 113 147 185 228 275 331
#     4  10  23  41  56  76 110 150 187 227 281 329
#     4  10  20  35  58  86 111 140 182 226 268 322
#     4  11  24  40  57  78 110 149 189 234 278 325
#     4   9  16  31  56  85 115 143 174 219 274 327
#     4  10  18  32  57  85 115 146 177 218 277 338
#     4  10  20  37  62  87 113 147 184 225 277 334
#
# _framework density 19.037139
#
# number of rings (size 3 to 8) (size 9 to 14) (size 15 to 20)
#    0.000    2.000    2.500    1.125    0.000    5.000 
#    0.000    3.125    0.000    1.500    0.000    0.000 
#    0.000    0.000    0.000    0.000    0.000    0.000 
#
# Total GULP energy -793689.672260 kJ/mol
# GULP energy per Si atom -12401.401129 kJ/mol
# Density = 1.899381 g / cm^3
# Si number density = 19.037139 Si / 1000 Ang^3
#
#
#
# Elastic Constant Matrix: (Units=GPa)
#
#
# Indices 1 2 3 4 5 6 
#
# 1 58.7691 47.8213 50.0981 0.0000 0.0000 0.0000
# 2 47.8213 129.3484 51.1844 0.0000 0.0000 0.0000
# 3 50.0981 51.1844 93.3820 0.0000 0.0000 0.0000
# 4 0.0000 0.0000 0.0000 11.7297 0.0000 0.0000
# 5 0.0000 0.0000 0.0000 0.0000 27.1987 0.0000
# 6 0.0000 0.0000 0.0000 0.0000 0.0000 28.1350
#
#
#
# Elastic Compliance Matrix: (Units=1/GPa)
#
#
# Indices 1 2 3 4 5 6 
#
# 1 0.035972 -0.007231 -0.015335 0.000000 0.000000 0.000000
# 2 -0.007231 0.011326 -0.002329 0.000000 0.000000 0.000000
# 3 -0.015335 -0.002329 0.020212 0.000000 0.000000 0.000000
# 4 0.000000 0.000000 0.000000 0.085254 0.000000 0.000000
# 5 0.000000 0.000000 0.000000 0.000000 0.036766 0.000000
# 6 0.000000 0.000000 0.000000 0.000000 0.000000 0.035543
#
#
# Mechanical properties :
#
#
# Convention : Reuss Voigt Hill
#
# Bulk Modulus (GPa) = 56.43096 64.41191 60.42143
# Shear Modulus (GPa) = 17.80819 22.23907 20.02363
#
# Velocity S-wave (km/s) = 3.06182 3.42159 3.24669
# Velocity P-wave (km/s) = 6.49666 7.03691 6.77217
#
# Compressibility (1/GPa) = 0.01772077
#
# Stress axis : x y z
#
# Youngs Moduli (GPa) = 27.79917 88.29336 49.47525
#
# Poissons Ratio (x) = 0.63845 0.75871
# Poissons Ratio (y) = 0.20102 0.11521
# Poissons Ratio (z) = 0.42630 0.20560
#
# Static dielectric constant tensor:
#      x y z
#    x 3.266880 0.000000 0.000000 
#    y 0.000000 3.611080 0.000000 
#    z 0.000000 0.000000 3.479820 
# 
# 
# High freq. dielectric constant tensor:
#      x y z
#    x 1.717010 0.000000 0.000000 
#    y 0.000000 1.755540 0.000000 
#    z 0.000000 0.000000 1.736460 
# 
# From -- ./inp_files/15058.got.cif
#   From: 2010.03.12/outbox.cif.g09.slc.cpg/sg59_8_cif.got.tgz:15058.got - 2010.04.16 16:29:54.
