data_PCOD8240193
_publ_section_title
;
Structure prediction by ZEFSAII (Michael W. Deem and Ramdas Pophale) SiO2 
 PCOD8240193
Probable space group: P M M N
;
_chemical_formula_sum "Si O2"
_cell_formula_units_Z 64
_cell_length_a 9.135444
_cell_length_b 19.704264
_cell_length_c 19.972112
_cell_angle_alpha 90.000000
_cell_angle_beta 90.000000
_cell_angle_gamma 90.000000
_cell_volume 3595.123966
_symmetry_space_group_name_H-M "P M M N"
_symmetry_group_IT_number 59
_space_group.IT_coordinate_system_code '2'
_symmetry_cell_setting 'orthorhombic'
loop_
_space_group_symop_operation_xyz
x,y,z
1/2-x,1/2-y,z
1/2+x,-y,-z
-x,1/2+y,-z
-x,-y,-z
1/2+x,1/2+y,-z
1/2-x,y,z
x,1/2-y,z
loop_
_atom_site_type_symbol
_atom_site_label
_atom_site_fract_x
_atom_site_fract_y
_atom_site_fract_z
Si Si1 0.419593 0.579483 0.732464
Si Si2 0.077736 0.327142 0.661598
Si Si3 0.419465 0.594282 0.950376
Si Si4 0.420092 0.589064 0.441830
Si Si5 0.083054 0.545762 0.586279
Si Si6 0.581001 0.561388 0.079406
Si Si7 0.076776 0.068926 0.771755
Si Si8 0.580712 0.670413 0.835534
O O1 0.250000 0.586666 0.754155
O O2 0.440233 0.590670 0.652794
O O3 0.482037 0.505199 0.751440
O O4 0.512377 0.636067 0.770031
O O5 0.250000 0.336912 0.652793
O O6 0.036906 0.250000 0.678800
O O7 0.014540 0.373866 0.721724
O O8 0.002052 0.347799 0.591936
O O9 0.250000 0.613729 0.952792
O O10 0.445579 0.519173 0.921976
O O11 0.501198 0.646880 0.902924
O O12 0.483822 0.600379 0.025076
O O13 0.250000 0.594497 0.425438
O O14 0.478501 0.519034 0.410915
O O15 0.451524 0.591913 0.521547
O O16 0.250000 0.518398 0.583362
O O17 0.750000 0.578212 0.064760
O O18 0.530223 0.587291 0.152420
O O19 0.250000 0.067203 0.766201
O O20 0.750000 0.650201 0.840808
O O21 0.558086 0.750000 0.827405
#
# Coordination Sequence:
#
# PCOD8240193 Si02
#       8
#     8   8   8   8   8   8   8   8
#     4  10  18  34  58  80 104 138 181 229 270 316
#     4  10  20  35  55  77 106 148 188 223 270 327
#     4  10  19  33  54  80 106 139 178 214 258 318
#     4  10  19  31  51  80 109 140 176 222 273 317
#     4   9  18  33  54  79 108 138 175 222 269 319
#     4   9  17  31  52  79 109 136 168 220 272 307
#     4   9  16  31  54  79 106 138 180 225 264 313
#     4  11  24  39  54  77 111 145 177 221 276 330
#
# _framework density 17.801888000000002
#
# number of rings (size 3 to 8) (size 9 to 14) (size 15 to 20)
#    0.000    2.250    2.500    1.125    0.000    2.750 
#    0.000    1.875    0.000    6.000    0.000    0.000 
#    0.000    0.000    0.000    0.000    0.000    0.000 
#
# Total GULP energy -793661.799102 kJ/mol
# GULP energy per Si atom -12400.965611 kJ/mol
# Density = 1.776137 g / cm^3
# Si number density = 17.801888 Si / 1000 Ang^3
#
#
#
# Elastic Constant Matrix: (Units=GPa)
#
#
# Indices 1 2 3 4 5 6 
#
# 1 80.5051 52.3231 55.3715 0.0000 0.0000 0.0000
# 2 52.3231 88.9346 63.5416 0.0000 0.0000 0.0000
# 3 55.3715 63.5416 139.7014 0.0000 0.0000 0.0000
# 4 0.0000 0.0000 0.0000 27.1755 0.0000 0.0000
# 5 0.0000 0.0000 0.0000 0.0000 30.6509 0.0000
# 6 0.0000 0.0000 0.0000 0.0000 0.0000 24.4736
#
#
#
# Elastic Compliance Matrix: (Units=1/GPa)
#
#
# Indices 1 2 3 4 5 6 
#
# 1 0.021603 -0.009765 -0.004121 0.000000 0.000000 0.000000
# 2 -0.009765 0.021072 -0.005714 0.000000 0.000000 0.000000
# 3 -0.004121 -0.005714 0.011390 0.000000 0.000000 0.000000
# 4 0.000000 0.000000 0.000000 0.036798 0.000000 0.000000
# 5 0.000000 0.000000 0.000000 0.000000 0.032625 0.000000
# 6 0.000000 0.000000 0.000000 0.000000 0.000000 0.040860
#
#
# Mechanical properties :
#
#
# Convention : Reuss Voigt Hill
#
# Bulk Modulus (GPa) = 67.27161 72.40150 69.83655
# Shear Modulus (GPa) = 23.98050 25.65368 24.81709
#
# Velocity S-wave (km/s) = 3.67424 3.80025 3.73778
# Velocity P-wave (km/s) = 7.47470 7.74693 7.61203
#
# Compressibility (1/GPa) = 0.01486511
#
# Stress axis : x y z
#
# Youngs Moduli (GPa) = 46.29063 47.45674 87.79492
#
# Poissons Ratio (x) = 0.46344 0.36177
# Poissons Ratio (y) = 0.45205 0.50163
# Poissons Ratio (z) = 0.19075 0.27115
#
# Static dielectric constant tensor:
#      x y z
#    x 3.225610 0.000000 0.000000 
#    y 0.000000 3.056480 0.000000 
#    z 0.000000 0.000000 3.562120 
# 
# 
# High freq. dielectric constant tensor:
#      x y z
#    x 1.678740 0.000000 0.000000 
#    y 0.000000 1.657830 0.000000 
#    z 0.000000 0.000000 1.704930 
# 
# From -- ./inp_files/29425.got.cif
#   From: 2010.03.12/outbox.cif.g09.slc.cpg/sg59_15_cif.got.tgz:29425.got - 2010.04.16 16:29:54.
