data_PCOD8240807
_publ_section_title
;
Structure prediction by ZEFSAII (Michael W. Deem and Ramdas Pophale) SiO2 
 PCOD8240807
Probable space group: P M M N
;
_chemical_formula_sum "Si O2"
_cell_formula_units_Z 48
_cell_length_a 13.651943
_cell_length_b 9.204466
_cell_length_c 21.117062
_cell_angle_alpha 90.000000
_cell_angle_beta 90.000000
_cell_angle_gamma 90.000000
_cell_volume 2653.545624
_symmetry_space_group_name_H-M "P M M N"
_symmetry_group_IT_number 59
_space_group.IT_coordinate_system_code '2'
_symmetry_cell_setting 'orthorhombic'
loop_
_space_group_symop_operation_xyz
x,y,z
1/2-x,1/2-y,z
1/2+x,-y,-z
-x,1/2+y,-z
-x,-y,-z
1/2+x,1/2+y,-z
1/2-x,y,z
x,1/2-y,z
loop_
_atom_site_type_symbol
_atom_site_label
_atom_site_fract_x
_atom_site_fract_y
_atom_site_fract_z
Si Si1 0.142673 0.077692 0.097176
Si Si2 0.551192 0.078684 0.156201
Si Si3 0.365241 0.409958 0.959037
Si Si4 0.360110 0.916138 0.479940
Si Si5 0.550572 0.580618 0.406100
Si Si6 0.136540 0.921716 0.711565
O O1 0.250000 0.010707 0.113888
O O2 0.152035 0.250000 0.094014
O O3 0.063262 0.031308 0.150247
O O4 0.102172 0.026117 0.028034
O O5 0.563781 0.250000 0.153872
O O6 0.596137 0.019165 0.221459
O O7 0.610051 0.018095 0.097046
O O8 0.250000 0.393261 0.963456
O O9 0.411850 0.250000 0.946366
O O10 0.250000 0.943948 0.454401
O O11 0.372802 0.750000 0.503269
O O12 0.436896 0.949501 0.423837
O O13 0.378869 0.019897 0.539347
O O14 0.572788 0.750000 0.397882
O O15 0.571989 0.499401 0.341203
O O16 0.250000 0.965552 0.704704
O O17 0.122219 0.750000 0.704926
#
# Coordination Sequence:
#
# PCOD8240807 Si02
#       6
#     8   8   8   8   8   8
#     4   8  15  29  48  69  93 121 154 195 245 294
#     4  10  19  31  49  70  92 123 163 201 234 278
#     4   9  17  29  46  69  96 123 151 191 246 297
#     4   9  18  34  55  77 103 132 157 189 239 286
#     4  10  20  33  52  78 102 127 164 201 229 270
#     4  10  21  35  48  66  98 134 161 191 238 288
#
# _framework density 18.089003999999999
#
# number of rings (size 3 to 8) (size 9 to 14) (size 15 to 20)
#    0.000    2.667    0.000    3.000    0.000    5.000 
#    0.000    0.833    0.000    2.500    0.000    0.000 
#    0.000    0.000    0.000    0.000    0.000    0.000 
#
# Total GULP energy -594993.734537 kJ/mol
# GULP energy per Si atom -12395.702803 kJ/mol
# Density = 1.804783 g / cm^3
# Si number density = 18.089004 Si / 1000 Ang^3
#
#
#
# Elastic Constant Matrix: (Units=GPa)
#
#
# Indices 1 2 3 4 5 6 
#
# 1 100.9077 30.9664 61.6417 0.0000 0.0000 0.0000
# 2 30.9664 35.7446 35.7875 0.0000 0.0000 0.0000
# 3 61.6417 35.7875 110.8321 0.0000 0.0000 0.0000
# 4 0.0000 0.0000 0.0000 26.4596 0.0000 0.0000
# 5 0.0000 0.0000 0.0000 0.0000 25.9772 0.0000
# 6 0.0000 0.0000 0.0000 0.0000 0.0000 21.0869
#
#
#
# Elastic Compliance Matrix: (Units=1/GPa)
#
#
# Indices 1 2 3 4 5 6 
#
# 1 0.016243 -0.007429 -0.006635 0.000000 0.000000 0.000000
# 2 -0.007429 0.044739 -0.010315 0.000000 0.000000 0.000000
# 3 -0.006635 -0.010315 0.016044 0.000000 0.000000 0.000000
# 4 0.000000 0.000000 0.000000 0.037794 0.000000 0.000000
# 5 0.000000 0.000000 0.000000 0.000000 0.038495 0.000000
# 6 0.000000 0.000000 0.000000 0.000000 0.000000 0.047423
#
#
# Mechanical properties :
#
#
# Convention : Reuss Voigt Hill
#
# Bulk Modulus (GPa) = 35.37483 56.03062 45.70273
# Shear Modulus (GPa) = 19.31126 22.64398 20.97762
#
# Velocity S-wave (km/s) = 3.27091 3.54193 3.40912
# Velocity P-wave (km/s) = 5.81924 6.91153 6.38877
#
# Compressibility (1/GPa) = 0.02826869
#
# Stress axis : x y z
#
# Youngs Moduli (GPa) = 61.56509 22.35202 62.33047
#
# Poissons Ratio (x) = 0.16604 0.41358
# Poissons Ratio (y) = 0.45734 0.64291
# Poissons Ratio (z) = 0.40850 0.23055
#
# Static dielectric constant tensor:
#      x y z
#    x 3.595400 0.000000 0.000000 
#    y 0.000000 3.179190 0.000000 
#    z 0.000000 0.000000 3.311640 
# 
# 
# High freq. dielectric constant tensor:
#      x y z
#    x 1.710880 0.000000 0.000000 
#    y 0.000000 1.681740 0.000000 
#    z 0.000000 0.000000 1.686250 
# 
# From -- ./inp_files/27383.got.cif
#   From: 2010.03.12/outbox.cif.g09.slc.cpg/sg59_14_cif.got.tgz:27383.got - 2010.04.16 16:29:54.
