data_PCOD8240893
_publ_section_title
;
Structure prediction by ZEFSAII (Michael W. Deem and Ramdas Pophale) SiO2 
 PCOD8240893
Probable space group: P M M N
;
_chemical_formula_sum "Si O2"
_cell_formula_units_Z 64
_cell_length_a 19.415698
_cell_length_b 9.062039
_cell_length_c 19.589285
_cell_angle_alpha 90.000000
_cell_angle_beta 90.000000
_cell_angle_gamma 90.000000
_cell_volume 3446.652665
_symmetry_space_group_name_H-M "P M M N"
_symmetry_group_IT_number 59
_space_group.IT_coordinate_system_code '2'
_symmetry_cell_setting 'orthorhombic'
loop_
_space_group_symop_operation_xyz
x,y,z
1/2-x,1/2-y,z
1/2+x,-y,-z
-x,1/2+y,-z
-x,-y,-z
1/2+x,1/2+y,-z
1/2-x,y,z
x,1/2-y,z
loop_
_atom_site_type_symbol
_atom_site_label
_atom_site_fract_x
_atom_site_fract_y
_atom_site_fract_z
Si Si1 0.828729 0.076146 0.031653
Si Si2 0.170595 0.421146 0.109493
Si Si3 0.586590 0.577860 0.147640
Si Si4 0.965884 0.916850 0.662778
Si Si5 0.117827 0.580686 0.604023
Si Si6 0.437564 0.921699 0.200094
Si Si7 0.673035 0.916310 0.274746
Si Si8 0.429509 0.078666 0.482629
O O1 0.750000 0.035120 0.052144
O O2 0.838486 0.250000 0.025938
O O3 0.882963 0.014463 0.085567
O O4 0.848211 0.006409 0.959394
O O5 0.250000 0.445429 0.129567
O O6 0.153489 0.250000 0.098536
O O7 0.125382 0.485108 0.170686
O O8 0.602999 0.750000 0.135813
O O9 0.505359 0.547413 0.154501
O O10 0.622486 0.520550 0.216838
O O11 0.958458 0.750000 0.691017
O O12 0.913905 0.941772 0.598354
O O13 0.042520 0.944299 0.635529
O O14 0.948913 0.031987 0.721747
O O15 0.134844 0.750000 0.590521
O O16 0.171561 0.516002 0.657982
O O17 0.127664 0.495856 0.531595
O O18 0.418642 0.750000 0.199005
O O19 0.750000 0.920559 0.244742
O O20 0.650769 0.750000 0.294203
O O21 0.436503 0.250000 0.500875
O O22 0.500000 0.000000 0.500000
#
# Coordination Sequence:
#
# PCOD8240893 Si02
#       8
#     8   8   8   8   8   8   8   8
#     4  10  21  37  58  83 110 143 185 230 271 315
#     4  10  22  41  63  83 106 140 178 218 271 335
#     4  10  21  36  54  80 112 147 185 223 271 327
#     4   9  18  32  50  76 108 141 175 217 269 322
#     4  10  19  31  49  74 105 141 182 228 273 319
#     4  11  22  35  57  85 113 144 178 225 275 320
#     4  10  20  34  52  74 106 150 193 231 272 325
#     4   9  17  29  48  74 103 136 176 220 267 318
#
# _framework density 18.568739999999998
#
# number of rings (size 3 to 8) (size 9 to 14) (size 15 to 20)
#    0.000    2.125    1.250    3.000    0.000    6.750 
#    0.000    0.000    0.000    0.750    0.000    5.250 
#    0.000    0.000    0.000    0.000    0.000    0.000 
#
# Total GULP energy -793594.449729 kJ/mol
# GULP energy per Si atom -12399.913277 kJ/mol
# Density = 1.852648 g / cm^3
# Si number density = 18.568740 Si / 1000 Ang^3
#
#
#
# Elastic Constant Matrix: (Units=GPa)
#
#
# Indices 1 2 3 4 5 6 
#
# 1 56.8511 33.8616 32.5192 0.0000 0.0000 0.0000
# 2 33.8616 103.1993 51.6148 0.0000 0.0000 0.0000
# 3 32.5192 51.6148 89.1621 0.0000 0.0000 0.0000
# 4 0.0000 0.0000 0.0000 38.0492 0.0000 0.0000
# 5 0.0000 0.0000 0.0000 0.0000 24.5167 0.0000
# 6 0.0000 0.0000 0.0000 0.0000 0.0000 26.1012
#
#
#
# Elastic Compliance Matrix: (Units=1/GPa)
#
#
# Indices 1 2 3 4 5 6 
#
# 1 0.023862 -0.004894 -0.005870 0.000000 0.000000 0.000000
# 2 -0.004894 0.014642 -0.006691 0.000000 0.000000 0.000000
# 3 -0.005870 -0.006691 0.017230 0.000000 0.000000 0.000000
# 4 0.000000 0.000000 0.000000 0.026282 0.000000 0.000000
# 5 0.000000 0.000000 0.000000 0.000000 0.040788 0.000000
# 6 0.000000 0.000000 0.000000 0.000000 0.000000 0.038312
#
#
# Mechanical properties :
#
#
# Convention : Reuss Voigt Hill
#
# Bulk Modulus (GPa) = 48.02112 53.91152 50.96632
# Shear Modulus (GPa) = 24.63422 26.48123 25.55772
#
# Velocity S-wave (km/s) = 3.64627 3.78050 3.71399
# Velocity P-wave (km/s) = 6.60640 6.93922 6.77485
#
# Compressibility (1/GPa) = 0.02082417
#
# Stress axis : x y z
#
# Youngs Moduli (GPa) = 41.90694 68.29461 58.03800
#
# Poissons Ratio (x) = 0.33422 0.34069
# Poissons Ratio (y) = 0.20508 0.38836
# Poissons Ratio (z) = 0.24600 0.45699
#
# Static dielectric constant tensor:
#      x y z
#    x 3.201210 0.000000 0.000000 
#    y 0.000000 3.502740 0.000000 
#    z 0.000000 0.000000 3.397470 
# 
# 
# High freq. dielectric constant tensor:
#      x y z
#    x 1.691490 0.000000 0.000000 
#    y 0.000000 1.730750 0.000000 
#    z 0.000000 0.000000 1.723690 
# 
# From -- ./inp_files/28250.got.cif
#   From: 2010.03.12/outbox.cif.g09.slc.cpg/sg59_15_cif.got.tgz:28250.got - 2010.04.16 16:29:54.
