data_PCOD8240449
_publ_section_title
;
Structure prediction by ZEFSAII (Michael W. Deem and Ramdas Pophale) SiO2 
 PCOD8240449
Probable space group: P M M N
;
_chemical_formula_sum "Si O2"
_cell_formula_units_Z 64
_cell_length_a 13.783519
_cell_length_b 9.056826
_cell_length_c 31.300753
_cell_angle_alpha 90.000000
_cell_angle_beta 90.000000
_cell_angle_gamma 90.000000
_cell_volume 3907.427411
_symmetry_space_group_name_H-M "P M M N"
_symmetry_group_IT_number 59
_space_group.IT_coordinate_system_code '2'
_symmetry_cell_setting 'orthorhombic'
loop_
_space_group_symop_operation_xyz
x,y,z
1/2-x,1/2-y,z
1/2+x,-y,-z
-x,1/2+y,-z
-x,-y,-z
1/2+x,1/2+y,-z
1/2-x,y,z
x,1/2-y,z
loop_
_atom_site_type_symbol
_atom_site_label
_atom_site_fract_x
_atom_site_fract_y
_atom_site_fract_z
Si Si1 0.362212 0.076737 0.312482
Si Si2 0.033207 0.921776 0.065069
Si Si3 0.142768 0.079604 0.561156
Si Si4 0.637587 0.576064 0.857549
Si Si5 0.041956 0.578567 0.390800
Si Si6 0.635444 0.082468 0.522157
Si Si7 0.134840 0.583599 0.227603
Si Si8 0.138109 0.920987 0.977356
O O1 0.250000 0.035757 0.320847
O O2 0.376183 0.250000 0.306558
O O3 0.425914 0.020985 0.351645
O O4 0.402817 0.998170 0.269987
O O5 0.027549 0.750000 0.076913
O O6 0.073820 0.012348 0.104531
O O7 0.105442 0.951171 0.025778
O O8 0.925316 0.979526 0.054508
O O9 0.250000 0.015821 0.572162
O O10 0.149529 0.250000 0.549504
O O11 0.073334 0.054957 0.601966
O O12 0.096077 0.004602 0.519132
O O13 0.750000 0.535019 0.865424
O O14 0.622571 0.750000 0.854433
O O15 0.598021 0.504117 0.813889
O O16 0.067758 0.750000 0.381671
O O17 0.094974 0.519371 0.433366
O O18 0.750000 0.067060 0.523835
O O19 0.599989 0.250000 0.517210
O O20 0.250000 0.583939 0.227909
O O21 0.093426 0.750000 0.226641
O O22 0.250000 0.967947 0.972555
O O23 0.122319 0.750000 0.965535
#
# Coordination Sequence:
#
# PCOD8240449 Si02
#       8
#     8   8   8   8   8   8   8   8
#     4  10  20  32  46  67  94 119 144 177 217 264
#     4  10  19  30  46  69  95 124 162 203 240 282
#     4   9  18  31  45  62  85 113 147 186 222 254
#     4  10  19  30  46  69  97 127 158 192 229 271
#     4  10  19  30  45  64  87 117 149 179 215 261
#     4   9  17  28  42  61  85 113 145 180 217 258
#     4   9  17  30  48  68  92 122 151 180 219 268
#     4   9  18  32  47  64  92 129 165 202 243 283
#
# _framework density 16.379062999999999
#
# number of rings (size 3 to 8) (size 9 to 14) (size 15 to 20)
#    0.000    2.500    0.000    2.625    0.000    5.750 
#    0.000    1.250    0.000    0.000    0.000    0.875 
#    0.000    5.000    0.000    0.000    0.000    0.000 
#
# Total GULP energy -793604.739137 kJ/mol
# GULP energy per Si atom -12400.074049 kJ/mol
# Density = 1.634178 g / cm^3
# Si number density = 16.379063 Si / 1000 Ang^3
#
#
#
# Elastic Constant Matrix: (Units=GPa)
#
#
# Indices 1 2 3 4 5 6 
#
# 1 64.0690 34.7169 46.2198 0.0000 0.0000 0.0000
# 2 34.7169 82.1614 58.2287 0.0000 0.0000 0.0000
# 3 46.2198 58.2287 117.9743 0.0000 0.0000 0.0000
# 4 0.0000 0.0000 0.0000 34.1628 0.0000 0.0000
# 5 0.0000 0.0000 0.0000 0.0000 20.8673 0.0000
# 6 0.0000 0.0000 0.0000 0.0000 0.0000 21.0097
#
#
#
# Elastic Compliance Matrix: (Units=1/GPa)
#
#
# Indices 1 2 3 4 5 6 
#
# 1 0.023090 -0.005145 -0.006507 0.000000 0.000000 0.000000
# 2 -0.005145 0.019866 -0.007789 0.000000 0.000000 0.000000
# 3 -0.006507 -0.007789 0.014870 0.000000 0.000000 0.000000
# 4 0.000000 0.000000 0.000000 0.029272 0.000000 0.000000
# 5 0.000000 0.000000 0.000000 0.000000 0.047922 0.000000
# 6 0.000000 0.000000 0.000000 0.000000 0.000000 0.047597
#
#
# Mechanical properties :
#
#
# Convention : Reuss Voigt Hill
#
# Bulk Modulus (GPa) = 52.78861 60.28173 56.53517
# Shear Modulus (GPa) = 21.94776 23.54390 22.74583
#
# Velocity S-wave (km/s) = 3.66456 3.79547 3.73059
# Velocity P-wave (km/s) = 7.08552 7.48943 7.29027
#
# Compressibility (1/GPa) = 0.01894348
#
# Stress axis : x y z
#
# Youngs Moduli (GPa) = 43.30836 50.33814 67.24879
#
# Poissons Ratio (x) = 0.25901 0.43757
# Poissons Ratio (y) = 0.22284 0.52382
# Poissons Ratio (z) = 0.28179 0.39210
#
# Static dielectric constant tensor:
#      x y z
#    x 3.050550 0.000000 0.000000 
#    y 0.000000 3.176780 0.000000 
#    z 0.000000 0.000000 3.043660 
# 
# 
# High freq. dielectric constant tensor:
#      x y z
#    x 1.607870 0.000000 0.000000 
#    y 0.000000 1.637890 0.000000 
#    z 0.000000 0.000000 1.620880 
# 
# From -- ./inp_files/33329.got.cif
#   From: 2010.03.12/outbox.cif.g09.slc.cpg/sg59_17_cif.got.tgz:33329.got - 2010.04.16 16:29:54.
