data_PCOD8240906
_publ_section_title
;
Structure prediction by ZEFSAII (Michael W. Deem and Ramdas Pophale) SiO2 
 PCOD8240906
Probable space group: P M M N
;
_chemical_formula_sum "Si O2"
_cell_formula_units_Z 64
_cell_length_a 9.172917
_cell_length_b 19.097597
_cell_length_c 18.917787
_cell_angle_alpha 90.000000
_cell_angle_beta 90.000000
_cell_angle_gamma 90.000000
_cell_volume 3314.030643
_symmetry_space_group_name_H-M "P M M N"
_symmetry_group_IT_number 59
_space_group.IT_coordinate_system_code '2'
_symmetry_cell_setting 'orthorhombic'
loop_
_space_group_symop_operation_xyz
x,y,z
1/2-x,1/2-y,z
1/2+x,-y,-z
-x,1/2+y,-z
-x,-y,-z
1/2+x,1/2+y,-z
1/2-x,y,z
x,1/2-y,z
loop_
_atom_site_type_symbol
_atom_site_label
_atom_site_fract_x
_atom_site_fract_y
_atom_site_fract_z
Si Si1 0.414732 0.476345 0.711970
Si Si2 0.577223 0.921882 0.918811
Si Si3 0.576616 0.433829 0.852100
Si Si4 0.411178 0.174041 0.200336
Si Si5 0.087843 0.634563 0.677201
Si Si6 0.080897 0.831816 0.522667
Si Si7 0.422742 0.168161 0.948438
Si Si8 0.923050 0.945568 0.447125
O O1 0.250000 0.448955 0.725575
O O2 0.520379 0.447179 0.772715
O O3 0.418571 0.559599 0.713894
O O4 0.470569 0.454825 0.634250
O O5 0.750000 0.913477 0.918576
O O6 0.509497 0.879251 0.852844
O O7 0.531436 0.002971 0.906828
O O8 0.518610 0.883103 0.988987
O O9 0.750000 0.425693 0.849140
O O10 0.503628 0.361792 0.879057
O O11 0.250000 0.145631 0.217535
O O12 0.404517 0.250000 0.163018
O O13 0.492397 0.184525 0.274264
O O14 0.250000 0.665766 0.675451
O O15 0.030613 0.634664 0.597188
O O16 0.250000 0.848588 0.506668
O O17 0.049089 0.750000 0.522006
O O18 0.977324 0.867544 0.464967
O O19 0.250000 0.161335 0.938119
O O20 0.465462 0.250000 0.960668
O O21 0.750000 0.954708 0.455325
O O22 0.000000 0.000000 0.500000
#
# Coordination Sequence:
#
# PCOD8240906 Si02
#       8
#     8   8   8   8   8   8   8   8
#     4  10  21  38  59  84 113 151 196 235 278 341
#     4   9  18  34  56  84 114 148 188 228 280 337
#     4  11  22  37  60  88 118 148 185 241 292 334
#     4  10  19  31  49  77 115 153 190 230 272 328
#     4  10  19  34  54  77 112 153 190 228 275 337
#     4  10  21  38  58  83 118 155 191 235 291 349
#     4  10  21  39  62  84 111 152 195 233 281 344
#     4  11  22  38  61  86 115 150 194 241 286 339
#
# _framework density 19.31183
#
# number of rings (size 3 to 8) (size 9 to 14) (size 15 to 20)
#    0.000    1.875    2.500    1.875    0.000    4.250 
#    0.000    1.875    0.000    2.250    0.000    0.000 
#    0.000    0.000    0.000    0.000    0.000    0.000 
#
# Total GULP energy -793249.424671 kJ/mol
# GULP energy per Si atom -12394.522260 kJ/mol
# Density = 1.926788 g / cm^3
# Si number density = 19.311830 Si / 1000 Ang^3
#
#
#
# Elastic Constant Matrix: (Units=GPa)
#
#
# Indices 1 2 3 4 5 6 
#
# 1 59.4493 42.0963 47.6040 0.0000 0.0000 0.0000
# 2 42.0963 85.3035 55.7774 0.0000 0.0000 0.0000
# 3 47.6040 55.7774 116.6109 0.0000 0.0000 0.0000
# 4 0.0000 0.0000 0.0000 29.7162 0.0000 0.0000
# 5 0.0000 0.0000 0.0000 0.0000 30.7417 0.0000
# 6 0.0000 0.0000 0.0000 0.0000 0.0000 26.9363
#
#
#
# Elastic Compliance Matrix: (Units=1/GPa)
#
#
# Indices 1 2 3 4 5 6 
#
# 1 0.029722 -0.009798 -0.007447 0.000000 0.000000 0.000000
# 2 -0.009798 0.020288 -0.005704 0.000000 0.000000 0.000000
# 3 -0.007447 -0.005704 0.014344 0.000000 0.000000 0.000000
# 4 0.000000 0.000000 0.000000 0.033652 0.000000 0.000000
# 5 0.000000 0.000000 0.000000 0.000000 0.032529 0.000000
# 6 0.000000 0.000000 0.000000 0.000000 0.000000 0.037125
#
#
# Mechanical properties :
#
#
# Convention : Reuss Voigt Hill
#
# Bulk Modulus (GPa) = 54.18405 61.36880 57.77643
# Shear Modulus (GPa) = 22.75721 25.20456 23.98089
#
# Velocity S-wave (km/s) = 3.43652 3.61659 3.52770
# Velocity P-wave (km/s) = 6.62303 7.02043 6.82462
#
# Compressibility (1/GPa) = 0.01845562
#
# Stress axis : x y z
#
# Youngs Moduli (GPa) = 33.64467 49.29007 69.71583
#
# Poissons Ratio (x) = 0.48297 0.51916
# Poissons Ratio (y) = 0.32967 0.39767
# Poissons Ratio (z) = 0.25054 0.28116
#
# Static dielectric constant tensor:
#      x y z
#    x 3.365520 0.000000 0.000000 
#    y 0.000000 3.530110 0.000000 
#    z 0.000000 0.000000 3.558880 
# 
# 
# High freq. dielectric constant tensor:
#      x y z
#    x 1.732560 0.000000 0.000000 
#    y 0.000000 1.751240 0.000000 
#    z 0.000000 0.000000 1.751210 
# 
# From -- ./inp_files/26208.got.cif
#   From: 2010.03.12/outbox.cif.g09.slc.cpg/sg59_14_cif.got.tgz:26208.got - 2010.04.16 16:29:54.
