data_PCOD8240931
_publ_section_title
;
Structure prediction by ZEFSAII (Michael W. Deem and Ramdas Pophale) SiO2 
 PCOD8240931
Probable space group: P M M N
;
_chemical_formula_sum "Si O2"
_cell_formula_units_Z 48
_cell_length_a 18.403892
_cell_length_b 9.113338
_cell_length_c 16.084542
_cell_angle_alpha 90.000000
_cell_angle_beta 90.000000
_cell_angle_gamma 90.000000
_cell_volume 2697.713672
_symmetry_space_group_name_H-M "P M M N"
_symmetry_group_IT_number 59
_space_group.IT_coordinate_system_code '2'
_symmetry_cell_setting 'orthorhombic'
loop_
_space_group_symop_operation_xyz
x,y,z
1/2-x,1/2-y,z
1/2+x,-y,-z
-x,1/2+y,-z
-x,-y,-z
1/2+x,1/2+y,-z
1/2-x,y,z
x,1/2-y,z
loop_
_atom_site_type_symbol
_atom_site_label
_atom_site_fract_x
_atom_site_fract_y
_atom_site_fract_z
Si Si1 0.166795 0.079274 0.843596
Si Si2 0.468627 0.417591 0.251097
Si Si3 0.035474 0.920889 0.922547
Si Si4 0.596594 0.920916 0.329101
Si Si5 0.834332 0.420598 0.483114
Si Si6 0.668603 0.918914 0.648911
O O1 0.250000 0.036582 0.862467
O O2 0.151916 0.250000 0.861371
O O3 0.150390 0.042569 0.747350
O O4 0.115276 0.985514 0.903813
O O5 0.491133 0.250000 0.271397
O O6 0.481163 0.450551 0.154197
O O7 0.516052 0.526061 0.306981
O O8 0.384279 0.447009 0.272779
O O9 0.044407 0.750000 0.942204
O O10 0.000000 0.000000 0.000000
O O11 0.595194 0.750000 0.349565
O O12 0.621328 0.005627 0.410041
O O13 0.750000 0.453438 0.467990
O O14 0.852429 0.250000 0.484099
O O15 0.859209 0.487087 0.570941
O O16 0.750000 0.966006 0.676135
O O17 0.666913 0.750000 0.621076
#
# Coordination Sequence:
#
# PCOD8240931 Si02
#       6
#     8   8   8   8   8   8
#     4   9  18  33  53  77 104 133 167 208 253 300
#     4   9  19  35  53  74  99 128 165 208 254 302
#     4  10  20  35  55  78 105 135 167 204 250 305
#     4  10  19  31  50  75 102 134 170 206 247 297
#     4  10  20  32  47  70 101 135 169 206 249 294
#     4   9  18  34  54  72  93 126 169 213 252 291
#
# _framework density 17.792845
#
# number of rings (size 3 to 8) (size 9 to 14) (size 15 to 20)
#    0.000    2.500    0.000    2.000    0.000    4.667 
#    0.000    0.833    0.000    3.000    0.000    0.000 
#    0.000    0.000    0.000    0.000    0.000    0.000 
#
# Total GULP energy -595278.687613 kJ/mol
# GULP energy per Si atom -12401.639325 kJ/mol
# Density = 1.775235 g / cm^3
# Si number density = 17.792845 Si / 1000 Ang^3
#
#
#
# Elastic Constant Matrix: (Units=GPa)
#
#
# Indices 1 2 3 4 5 6 
#
# 1 116.5815 55.6152 74.9363 0.0000 0.0000 0.0000
# 2 55.6152 80.5887 55.3647 0.0000 0.0000 0.0000
# 3 74.9363 55.3647 106.6772 0.0000 0.0000 0.0000
# 4 0.0000 0.0000 0.0000 28.6789 0.0000 0.0000
# 5 0.0000 0.0000 0.0000 0.0000 26.2709 0.0000
# 6 0.0000 0.0000 0.0000 0.0000 0.0000 28.8937
#
#
#
# Elastic Compliance Matrix: (Units=1/GPa)
#
#
# Indices 1 2 3 4 5 6 
#
# 1 0.017080 -0.005508 -0.009139 0.000000 0.000000 0.000000
# 2 -0.005508 0.021061 -0.007061 0.000000 0.000000 0.000000
# 3 -0.009139 -0.007061 0.019459 0.000000 0.000000 0.000000
# 4 0.000000 0.000000 0.000000 0.034869 0.000000 0.000000
# 5 0.000000 0.000000 0.000000 0.000000 0.038065 0.000000
# 6 0.000000 0.000000 0.000000 0.000000 0.000000 0.034610
#
#
# Mechanical properties :
#
#
# Convention : Reuss Voigt Hill
#
# Bulk Modulus (GPa) = 70.51037 75.07552 72.79294
# Shear Modulus (GPa) = 23.44252 24.63079 24.03665
#
# Velocity S-wave (km/s) = 3.63371 3.72467 3.67947
# Velocity P-wave (km/s) = 7.57097 7.79637 7.68450
#
# Compressibility (1/GPa) = 0.01418231
#
# Stress axis : x y z
#
# Youngs Moduli (GPa) = 58.54831 47.48084 51.39137
#
# Poissons Ratio (x) = 0.26155 0.46967
# Poissons Ratio (y) = 0.32251 0.36288
# Poissons Ratio (z) = 0.53508 0.33527
#
# Static dielectric constant tensor:
#      x y z
#    x 3.353120 0.000000 0.000000 
#    y 0.000000 3.413590 0.000000 
#    z 0.000000 0.000000 3.168810 
# 
# 
# High freq. dielectric constant tensor:
#      x y z
#    x 1.686540 0.000000 0.000000 
#    y 0.000000 1.696470 0.000000 
#    z 0.000000 0.000000 1.675010 
# 
# From -- ./inp_files/20348.got.cif
#   From: 2010.03.12/outbox.cif.g09.slc.cpg/sg59_11_cif.got.tgz:20348.got - 2010.04.16 16:29:54.
