data_PCOD8240929
_publ_section_title
;
Structure prediction by ZEFSAII (Michael W. Deem and Ramdas Pophale) SiO2 
 PCOD8240929
Probable space group: P M M N
;
_chemical_formula_sum "Si O2"
_cell_formula_units_Z 40
_cell_length_a 18.009765
_cell_length_b 9.126799
_cell_length_c 12.865623
_cell_angle_alpha 90.000000
_cell_angle_beta 90.000000
_cell_angle_gamma 90.000000
_cell_volume 2114.741818
_symmetry_space_group_name_H-M "P M M N"
_symmetry_group_IT_number 59
_space_group.IT_coordinate_system_code '2'
_symmetry_cell_setting 'orthorhombic'
loop_
_space_group_symop_operation_xyz
x,y,z
1/2-x,1/2-y,z
1/2+x,-y,-z
-x,1/2+y,-z
-x,-y,-z
1/2+x,1/2+y,-z
1/2-x,y,z
x,1/2-y,z
loop_
_atom_site_type_symbol
_atom_site_label
_atom_site_fract_x
_atom_site_fract_y
_atom_site_fract_z
Si Si1 0.408050 0.084573 0.406226
Si Si2 0.164446 0.082609 0.010471
Si Si3 0.426072 0.079327 0.810359
Si Si4 0.084660 0.915140 0.606287
Si Si5 0.097851 0.921416 0.200476
O O1 0.377179 0.250000 0.406303
O O2 0.496478 0.083581 0.403810
O O3 0.379567 0.003046 0.509927
O O4 0.376413 0.000247 0.306168
O O5 0.250000 0.068649 0.978896
O O6 0.143433 0.250000 0.038678
O O7 0.148539 0.980224 0.108112
O O8 0.116023 0.026915 0.913453
O O9 0.413427 0.250000 0.787803
O O10 0.512522 0.042405 0.825698
O O11 0.391554 0.991790 0.713529
O O12 0.115599 0.750000 0.605109
O O13 0.111299 0.750000 0.214832
#
# Coordination Sequence:
#
# PCOD8240929 Si02
#       5
#     8   8   8   8   8
#     4   9  16  27  45  70 101 132 160 195 242 294
#     4  10  21  36  52  70  96 131 168 204 244 293
#     4   9  18  32  50  73 100 130 164 202 245 293
#     4   9  16  26  44  72 102 129 159 198 244 291
#     4  10  19  31  50  75 101 128 162 205 248 290
#
# _framework density 18.914839000000001
#
# number of rings (size 3 to 8) (size 9 to 14) (size 15 to 20)
#    0.000    2.600    0.000    2.400    0.000    6.800 
#    0.000    0.000    0.000    1.200    0.000    2.800 
#    0.000    0.000    0.000    0.000    0.000    0.000 
#
# Total GULP energy -496092.350452 kJ/mol
# GULP energy per Si atom -12402.308761 kJ/mol
# Density = 1.887179 g / cm^3
# Si number density = 18.914839 Si / 1000 Ang^3
#
#
#
# Elastic Constant Matrix: (Units=GPa)
#
#
# Indices 1 2 3 4 5 6 
#
# 1 26.1816 15.5393 18.1862 0.0000 0.0000 0.0000
# 2 15.5393 114.7069 66.2533 0.0000 0.0000 0.0000
# 3 18.1862 66.2533 139.7823 0.0000 0.0000 0.0000
# 4 0.0000 0.0000 0.0000 39.5036 0.0000 0.0000
# 5 0.0000 0.0000 0.0000 0.0000 3.4066 0.0000
# 6 0.0000 0.0000 0.0000 0.0000 0.0000 15.4271
#
#
#
# Elastic Compliance Matrix: (Units=1/GPa)
#
#
# Indices 1 2 3 4 5 6 
#
# 1 0.043028 -0.003574 -0.003904 0.000000 0.000000 0.000000
# 2 -0.003574 0.012301 -0.005365 0.000000 0.000000 0.000000
# 3 -0.003904 -0.005365 0.010205 0.000000 0.000000 0.000000
# 4 0.000000 0.000000 0.000000 0.025314 0.000000 0.000000
# 5 0.000000 0.000000 0.000000 0.000000 0.293548 0.000000
# 6 0.000000 0.000000 0.000000 0.000000 0.000000 0.064821
#
#
# Mechanical properties :
#
#
# Convention : Reuss Voigt Hill
#
# Bulk Modulus (GPa) = 25.09607 53.40315 39.24961
# Shear Modulus (GPa) = 10.24200 23.71360 16.97780
#
# Velocity S-wave (km/s) = 2.32950 3.54461 2.99923
# Velocity P-wave (km/s) = 4.53124 6.71171 5.72622
#
# Compressibility (1/GPa) = 0.03984687
#
# Stress axis : x y z
#
# Youngs Moduli (GPa) = 23.24076 81.29408 97.99149
#
# Poissons Ratio (x) = 0.29055 0.38257
# Poissons Ratio (y) = 0.08306 0.52576
# Poissons Ratio (z) = 0.09073 0.43617
#
# Static dielectric constant tensor:
#      x y z
#    x 2.952820 0.000000 0.000000 
#    y 0.000000 3.571290 0.000000 
#    z 0.000000 0.000000 3.606120 
# 
# 
# High freq. dielectric constant tensor:
#      x y z
#    x 1.679990 0.000000 0.000000 
#    y 0.000000 1.743090 0.000000 
#    z 0.000000 0.000000 1.749160 
# 
# From -- ./inp_files/13832.got.cif
#   From: 2010.03.12/outbox.cif.g09.slc.cpg/sg59_7_cif.got.tgz:13832.got - 2010.04.16 16:29:54.
