data_PCOD8240757
_publ_section_title
;
Structure prediction by ZEFSAII (Michael W. Deem and Ramdas Pophale) SiO2 
 PCOD8240757
Probable space group: P M M N
;
_chemical_formula_sum "Si O2"
_cell_formula_units_Z 64
_cell_length_a 9.087437
_cell_length_b 28.061120
_cell_length_c 15.420171
_cell_angle_alpha 90.000000
_cell_angle_beta 90.000000
_cell_angle_gamma 90.000000
_cell_volume 3932.200045
_symmetry_space_group_name_H-M "P M M N"
_symmetry_group_IT_number 59
_space_group.IT_coordinate_system_code '2'
_symmetry_cell_setting 'orthorhombic'
loop_
_space_group_symop_operation_xyz
x,y,z
1/2-x,1/2-y,z
1/2+x,-y,-z
-x,1/2+y,-z
-x,-y,-z
1/2+x,1/2+y,-z
1/2-x,y,z
x,1/2-y,z
loop_
_atom_site_type_symbol
_atom_site_label
_atom_site_fract_x
_atom_site_fract_y
_atom_site_fract_z
Si Si1 0.578033 0.305013 0.331682
Si Si2 0.422106 0.348399 0.837901
Si Si3 0.423409 0.864034 0.835311
Si Si4 0.577483 0.194401 0.674269
Si Si5 0.081419 0.694962 0.002288
Si Si6 0.584149 0.806615 0.497766
Si Si7 0.922163 0.545429 0.892684
Si Si8 0.919739 0.951450 0.092157
O O1 0.750000 0.311153 0.350233
O O2 0.538753 0.250000 0.313830
O O3 0.525857 0.334783 0.248721
O O4 0.491944 0.325660 0.414765
O O5 0.250000 0.338234 0.826381
O O6 0.506669 0.335375 0.751141
O O7 0.454878 0.403668 0.855755
O O8 0.479424 0.316126 0.916216
O O9 0.250000 0.872103 0.835588
O O10 0.474012 0.834998 0.920042
O O11 0.502778 0.914936 0.832574
O O12 0.750000 0.184510 0.670815
O O13 0.543159 0.250000 0.689226
O O14 0.506810 0.175308 0.585180
O O15 0.250000 0.682403 0.026153
O O16 0.065960 0.750000 0.977105
O O17 0.750000 0.826516 0.492353
O O18 0.582197 0.750000 0.499188
O O19 0.750000 0.546233 0.875363
O O20 0.983927 0.493636 0.866409
O O21 0.963789 0.556835 0.992161
O O22 0.750000 0.966316 0.098922
#
# Coordination Sequence:
#
# PCOD8240757 Si02
#       8
#     8   8   8   8   8   8   8   8
#     4   9  17  30  48  70  97 130 166 200 235 280
#     4  11  21  33  48  69  96 126 160 199 242 286
#     4  10  19  31  48  69  96 130 164 198 238 282
#     4  10  20  33  49  70  97 129 164 199 235 282
#     4  10  20  32  45  64  94 132 169 198 227 273
#     4   9  17  30  48  70  95 124 159 201 246 283
#     4  10  19  32  50  70  92 120 159 204 246 286
#     4   9  19  34  49  67  92 122 158 200 246 290
#
# _framework density 16.275876
#
# number of rings (size 3 to 8) (size 9 to 14) (size 15 to 20)
#    0.000    2.250    1.250    2.250    0.000    7.500 
#    0.000    0.000    0.000    2.250    0.000    0.875 
#    0.000    0.000    0.000    0.000    0.000    0.000 
#
# Total GULP energy -793795.045745 kJ/mol
# GULP energy per Si atom -12403.047590 kJ/mol
# Density = 1.623883 g / cm^3
# Si number density = 16.275876 Si / 1000 Ang^3
#
#
#
# Elastic Constant Matrix: (Units=GPa)
#
#
# Indices 1 2 3 4 5 6 
#
# 1 73.6542 39.1444 49.8124 0.0000 0.0000 0.0000
# 2 39.1444 72.6528 41.7352 0.0000 0.0000 0.0000
# 3 49.8124 41.7352 111.4494 0.0000 0.0000 0.0000
# 4 0.0000 0.0000 0.0000 9.4148 0.0000 0.0000
# 5 0.0000 0.0000 0.0000 0.0000 24.9809 0.0000
# 6 0.0000 0.0000 0.0000 0.0000 0.0000 25.5150
#
#
#
# Elastic Compliance Matrix: (Units=1/GPa)
#
#
# Indices 1 2 3 4 5 6 
#
# 1 0.022713 -0.008162 -0.007095 0.000000 0.000000 0.000000
# 2 -0.008162 0.020469 -0.004017 0.000000 0.000000 0.000000
# 3 -0.007095 -0.004017 0.013648 0.000000 0.000000 0.000000
# 4 0.000000 0.000000 0.000000 0.106216 0.000000 0.000000
# 5 0.000000 0.000000 0.000000 0.000000 0.040031 0.000000
# 6 0.000000 0.000000 0.000000 0.000000 0.000000 0.039193
#
#
# Mechanical properties :
#
#
# Convention : Reuss Voigt Hill
#
# Bulk Modulus (GPa) = 54.69851 57.68224 56.19038
# Shear Modulus (GPa) = 17.42691 20.45310 18.94001
#
# Velocity S-wave (km/s) = 3.27574 3.54877 3.41498
# Velocity P-wave (km/s) = 6.92729 7.23250 7.08154
#
# Compressibility (1/GPa) = 0.01828203
#
# Stress axis : x y z
#
# Youngs Moduli (GPa) = 44.02747 48.85372 73.26889
#
# Poissons Ratio (x) = 0.39873 0.51986
# Poissons Ratio (y) = 0.35934 0.29435
# Poissons Ratio (z) = 0.31239 0.19627
#
# Static dielectric constant tensor:
#      x y z
#    x 3.147190 0.000000 0.000000 
#    y 0.000000 2.931930 0.000000 
#    z 0.000000 0.000000 3.063970 
# 
# 
# High freq. dielectric constant tensor:
#      x y z
#    x 1.634970 0.000000 0.000000 
#    y 0.000000 1.604930 0.000000 
#    z 0.000000 0.000000 1.614960 
# 
# From -- ./inp_files/21957.got.cif
#   From: 2010.03.12/outbox.cif.g09.slc.cpg/sg59_11_cif.got.tgz:21957.got - 2010.04.16 16:29:54.
