data_PCOD8240784
_publ_section_title
;
Structure prediction by ZEFSAII (Michael W. Deem and Ramdas Pophale) SiO2 
 PCOD8240784
Probable space group: P M M N
;
_chemical_formula_sum "Si O2"
_cell_formula_units_Z 64
_cell_length_a 19.617936
_cell_length_b 9.353452
_cell_length_c 20.081507
_cell_angle_alpha 90.000000
_cell_angle_beta 90.000000
_cell_angle_gamma 90.000000
_cell_volume 3684.864616
_symmetry_space_group_name_H-M "P M M N"
_symmetry_group_IT_number 59
_space_group.IT_coordinate_system_code '2'
_symmetry_cell_setting 'orthorhombic'
loop_
_space_group_symop_operation_xyz
x,y,z
1/2-x,1/2-y,z
1/2+x,-y,-z
-x,1/2+y,-z
-x,-y,-z
1/2+x,1/2+y,-z
1/2-x,y,z
x,1/2-y,z
loop_
_atom_site_type_symbol
_atom_site_label
_atom_site_fract_x
_atom_site_fract_y
_atom_site_fract_z
Si Si1 0.828625 0.915584 0.600848
Si Si2 0.175931 0.082671 0.159659
Si Si3 0.959885 0.583911 0.095614
Si Si4 0.586293 0.914187 0.957040
Si Si5 0.828151 0.584106 0.345665
Si Si6 0.921937 0.918187 0.726262
Si Si7 0.444026 0.417161 0.755823
Si Si8 0.830892 0.089024 0.473188
O O1 0.750000 0.952435 0.618897
O O2 0.835039 0.750000 0.581280
O O3 0.876389 0.955371 0.662447
O O4 0.856390 0.007680 0.538977
O O5 0.250000 0.011269 0.171854
O O6 0.181557 0.250000 0.174652
O O7 0.156027 0.053696 0.082495
O O8 0.119375 0.020584 0.209918
O O9 0.977250 0.750000 0.097859
O O10 0.931923 0.534032 0.167427
O O11 0.029101 0.505285 0.078891
O O12 0.905770 0.549642 0.035899
O O13 0.564517 0.750000 0.947808
O O14 0.750000 0.544276 0.328088
O O15 0.834163 0.750000 0.365169
O O16 0.874173 0.545371 0.282077
O O17 0.856739 0.493408 0.407743
O O18 0.936520 0.750000 0.731993
O O19 0.993790 0.998467 0.722079
O O20 0.461027 0.250000 0.750763
O O21 0.750000 0.089502 0.472928
O O22 0.860386 0.250000 0.472933
#
# Coordination Sequence:
#
# PCOD8240784 Si02
#       8
#     8   8   8   8   8   8   8   8
#     4   9  17  30  49  72  98 130 165 199 236 281
#     4   9  16  27  45  70  99 128 162 204 241 275
#     4   9  17  29  46  68  95 123 155 196 240 284
#     4   9  16  28  47  69  91 122 163 198 233 279
#     4   9  18  34  54  72  92 123 160 197 243 298
#     4  10  19  31  48  71  98 130 167 200 234 283
#     4  10  20  33  49  71  99 128 158 199 247 291
#     4   9  17  30  50  75  99 123 156 200 244 287
#
# _framework density 17.368344
#
# number of rings (size 3 to 8) (size 9 to 14) (size 15 to 20)
#    0.000    2.750    1.250    0.750    0.000    4.000 
#    0.000    1.250    0.000    6.000    0.000    0.000 
#    0.000    3.000    0.000    0.000    0.000    0.000 
#
# Total GULP energy -793281.117081 kJ/mol
# GULP energy per Si atom -12395.017454 kJ/mol
# Density = 1.732881 g / cm^3
# Si number density = 17.368344 Si / 1000 Ang^3
#
#
#
# Elastic Constant Matrix: (Units=GPa)
#
#
# Indices 1 2 3 4 5 6 
#
# 1 85.4881 30.9492 60.1936 0.0000 0.0000 0.0000
# 2 30.9492 49.4720 51.7760 0.0000 0.0000 0.0000
# 3 60.1936 51.7760 152.7157 0.0000 0.0000 0.0000
# 4 0.0000 0.0000 0.0000 21.6149 0.0000 0.0000
# 5 0.0000 0.0000 0.0000 0.0000 24.0692 0.0000
# 6 0.0000 0.0000 0.0000 0.0000 0.0000 20.2286
#
#
#
# Elastic Compliance Matrix: (Units=1/GPa)
#
#
# Indices 1 2 3 4 5 6 
#
# 1 0.017158 -0.005667 -0.004842 0.000000 0.000000 0.000000
# 2 -0.005667 0.033202 -0.009023 0.000000 0.000000 0.000000
# 3 -0.004842 -0.009023 0.011516 0.000000 0.000000 0.000000
# 4 0.000000 0.000000 0.000000 0.046264 0.000000 0.000000
# 5 0.000000 0.000000 0.000000 0.000000 0.041547 0.000000
# 6 0.000000 0.000000 0.000000 0.000000 0.000000 0.049435
#
#
# Mechanical properties :
#
#
# Convention : Reuss Voigt Hill
#
# Bulk Modulus (GPa) = 43.83547 63.72371 53.77959
# Shear Modulus (GPa) = 20.34264 22.83298 21.58781
#
# Velocity S-wave (km/s) = 3.42606 3.62972 3.52936
# Velocity P-wave (km/s) = 6.39875 7.37128 6.90216
#
# Compressibility (1/GPa) = 0.02281258
#
# Stress axis : x y z
#
# Youngs Moduli (GPa) = 58.28102 30.11895 86.83846
#
# Poissons Ratio (x) = 0.17068 0.42045
# Poissons Ratio (y) = 0.33026 0.78354
# Poissons Ratio (z) = 0.28218 0.27176
#
# Static dielectric constant tensor:
#      x y z
#    x 3.079940 0.000000 0.000000 
#    y 0.000000 3.170380 0.000000 
#    z 0.000000 0.000000 3.521700 
# 
# 
# High freq. dielectric constant tensor:
#      x y z
#    x 1.642800 0.000000 0.000000 
#    y 0.000000 1.655000 0.000000 
#    z 0.000000 0.000000 1.684210 
# 
# From -- ./inp_files/30835.got.cif
#   From: 2010.03.12/outbox.cif.g09.slc.cpg/sg59_16_cif.got.tgz:30835.got - 2010.04.16 16:29:54.
