data_PCOD8240797
_publ_section_title
;
Structure prediction by ZEFSAII (Michael W. Deem and Ramdas Pophale) SiO2 
 PCOD8240797
Probable space group: P M M N
;
_chemical_formula_sum "Si O2"
_cell_formula_units_Z 64
_cell_length_a 18.664509
_cell_length_b 12.606405
_cell_length_c 16.275443
_cell_angle_alpha 90.000000
_cell_angle_beta 90.000000
_cell_angle_gamma 90.000000
_cell_volume 3829.487387
_symmetry_space_group_name_H-M "P M M N"
_symmetry_group_IT_number 59
_space_group.IT_coordinate_system_code '2'
_symmetry_cell_setting 'orthorhombic'
loop_
_space_group_symop_operation_xyz
x,y,z
1/2-x,1/2-y,z
1/2+x,-y,-z
-x,1/2+y,-z
-x,-y,-z
1/2+x,1/2+y,-z
1/2-x,y,z
x,1/2-y,z
loop_
_atom_site_type_symbol
_atom_site_label
_atom_site_fract_x
_atom_site_fract_y
_atom_site_fract_z
Si Si1 0.329632 0.870126 0.841356
Si Si2 0.066494 0.003039 0.247097
Si Si3 0.832849 0.126754 0.633275
Si Si4 0.932997 0.375233 0.306428
Si Si5 0.670669 0.375880 0.447941
Si Si6 0.011197 0.875421 0.094772
Si Si7 0.614087 0.995229 0.017484
Si Si8 0.830672 0.871444 0.867308
O O1 0.250000 0.880388 0.803158
O O2 0.344394 0.750000 0.869974
O O3 0.387314 0.903850 0.773876
O O4 0.334038 0.945335 0.919905
O O5 0.117552 0.937917 0.306171
O O6 0.028769 0.924524 0.183250
O O7 0.113172 0.090463 0.200249
O O8 0.007831 0.063383 0.301975
O O9 0.750000 0.104753 0.654873
O O10 0.850693 0.250000 0.644484
O O11 0.849779 0.089710 0.540302
O O12 0.947450 0.250000 0.313456
O O13 0.889156 0.419139 0.385205
O O14 0.750000 0.420701 0.425516
O O15 0.674136 0.250000 0.441888
O O16 0.016837 0.750000 0.101583
O O17 0.065262 0.916026 0.025309
O O18 0.931993 0.909033 0.067358
O O19 0.662750 0.936443 0.951243
O O20 0.750000 0.885748 0.833486
O O21 0.848432 0.750000 0.886925
#
# Coordination Sequence:
#
# PCOD8240797 Si02
#       8
#     8   8   8   8   8   8   8   8
#     4  10  19  31  49  73  99 126 160 205 251 291
#     4  11  20  32  49  73 100 129 160 200 245 292
#     4   9  18  33  53  75  99 127 160 199 242 292
#     4  10  19  31  48  73 103 132 161 198 244 292
#     4   8  15  30  51  74 100 129 160 196 241 290
#     4  10  20  32  47  68  96 126 160 198 247 296
#     4  10  19  33  49  70  91 127 163 206 247 287
#     4  10  21  35  50  68  94 129 167 206 243 286
#
# _framework density 16.712420000000002
#
# number of rings (size 3 to 8) (size 9 to 14) (size 15 to 20)
#    0.000    2.250    1.250    3.375    0.000    2.000 
#    0.000    0.000    0.000    6.000    0.000    0.000 
#    0.000    3.000    0.000    0.000    0.000    0.000 
#
# Total GULP energy -793592.864950 kJ/mol
# GULP energy per Si atom -12399.888515 kJ/mol
# Density = 1.667438 g / cm^3
# Si number density = 16.712420 Si / 1000 Ang^3
#
#
#
# Elastic Constant Matrix: (Units=GPa)
#
#
# Indices 1 2 3 4 5 6 
#
# 1 88.6649 34.9546 42.3330 0.0000 0.0000 0.0000
# 2 34.9546 64.2060 25.3985 0.0000 0.0000 0.0000
# 3 42.3330 25.3985 85.2606 0.0000 0.0000 0.0000
# 4 0.0000 0.0000 0.0000 20.4994 0.0000 0.0000
# 5 0.0000 0.0000 0.0000 0.0000 29.2850 0.0000
# 6 0.0000 0.0000 0.0000 0.0000 0.0000 25.5291
#
#
#
# Elastic Compliance Matrix: (Units=1/GPa)
#
#
# Indices 1 2 3 4 5 6 
#
# 1 0.016998 -0.006705 -0.006442 0.000000 0.000000 0.000000
# 2 -0.006705 0.020301 -0.002718 0.000000 0.000000 0.000000
# 3 -0.006442 -0.002718 0.015737 0.000000 0.000000 0.000000
# 4 0.000000 0.000000 0.000000 0.048782 0.000000 0.000000
# 5 0.000000 0.000000 0.000000 0.000000 0.034147 0.000000
# 6 0.000000 0.000000 0.000000 0.000000 0.000000 0.039171
#
#
# Mechanical properties :
#
#
# Convention : Reuss Voigt Hill
#
# Bulk Modulus (GPa) = 46.93917 49.27819 48.10868
# Shear Modulus (GPa) = 23.36800 24.09240 23.73020
#
# Velocity S-wave (km/s) = 3.74336 3.80094 3.77226
# Velocity P-wave (km/s) = 6.84332 6.98662 6.91534
#
# Compressibility (1/GPa) = 0.02130417
#
# Stress axis : x y z
#
# Youngs Moduli (GPa) = 58.83163 49.25959 63.54449
#
# Poissons Ratio (x) = 0.33031 0.40936
# Poissons Ratio (y) = 0.39449 0.17272
# Poissons Ratio (z) = 0.37900 0.13389
#
# Static dielectric constant tensor:
#      x y z
#    x 3.188630 0.000000 0.000000 
#    y 0.000000 2.919080 0.000000 
#    z 0.000000 0.000000 3.206540 
# 
# 
# High freq. dielectric constant tensor:
#      x y z
#    x 1.650850 0.000000 0.000000 
#    y 0.000000 1.624700 0.000000 
#    z 0.000000 0.000000 1.644330 
# 
# From -- ./inp_files/22737.got.cif
#   From: 2010.03.12/outbox.cif.g09.slc.cpg/sg59_12_cif.got.tgz:22737.got - 2010.04.16 16:29:54.
