data_PCOD8240316
_publ_section_title
;
Structure prediction by ZEFSAII (Michael W. Deem and Ramdas Pophale) SiO2 
 PCOD8240316
Probable space group: P M M N
;
_chemical_formula_sum "Si O2"
_cell_formula_units_Z 56
_cell_length_a 18.557179
_cell_length_b 9.076866
_cell_length_c 19.083952
_cell_angle_alpha 90.000000
_cell_angle_beta 90.000000
_cell_angle_gamma 90.000000
_cell_volume 3214.520476
_symmetry_space_group_name_H-M "P M M N"
_symmetry_group_IT_number 59
_space_group.IT_coordinate_system_code '2'
_symmetry_cell_setting 'orthorhombic'
loop_
_space_group_symop_operation_xyz
x,y,z
1/2-x,1/2-y,z
1/2+x,-y,-z
-x,1/2+y,-z
-x,-y,-z
1/2+x,1/2+y,-z
1/2-x,y,z
x,1/2-y,z
loop_
_atom_site_type_symbol
_atom_site_label
_atom_site_fract_x
_atom_site_fract_y
_atom_site_fract_z
Si Si1 0.397602 0.076982 0.284658
Si Si2 0.829148 0.924490 0.859544
Si Si3 0.026833 0.074515 0.069969
Si Si4 0.668030 0.076053 0.305178
Si Si5 0.958632 0.076780 0.210758
Si Si6 0.833754 0.422372 0.582853
Si Si7 0.835587 0.584162 0.444754
O O1 0.388859 0.250000 0.301084
O O2 0.347116 0.028012 0.219869
O O3 0.479352 0.033244 0.265730
O O4 0.377273 0.983290 0.351779
O O5 0.750000 0.988251 0.880363
O O6 0.828334 0.750000 0.862093
O O7 0.891114 0.978697 0.913265
O O8 0.023134 0.250000 0.062068
O O9 0.975561 0.014991 0.133086
O O10 0.000000 0.000000 0.000000
O O11 0.750000 0.029636 0.287737
O O12 0.661618 0.250000 0.317326
O O13 0.618471 0.022036 0.240187
O O14 0.638167 0.998649 0.374983
O O15 0.959198 0.250000 0.202518
O O16 0.750000 0.460044 0.593615
O O17 0.847161 0.250000 0.575056
O O18 0.864733 0.499413 0.512971
O O19 0.750000 0.583255 0.446007
O O20 0.866224 0.750000 0.444745
#
# Coordination Sequence:
#
# PCOD8240316 Si02
#       7
#     8   8   8   8   8   8   8
#     4   9  16  28  47  67  88 117 153 190 225 265
#     4   8  14  26  46  69  90 118 157 192 221 261
#     4   9  17  31  50  70  95 125 153 183 222 270
#     4   9  16  29  50  70  88 115 151 190 232 275
#     4   8  16  31  49  69  92 118 149 184 224 273
#     4  10  19  29  42  64  94 123 151 186 228 273
#     4   9  17  29  45  65  89 118 154 194 231 267
#
# _framework density 17.420950000000001
#
# number of rings (size 3 to 8) (size 9 to 14) (size 15 to 20)
#    0.000    3.143    0.000    3.000    0.000    3.143 
#    0.000    5.714    0.000    2.143    0.000    0.000 
#    0.000    0.000    0.000    0.000    0.000    0.000 
#
# Total GULP energy -694058.880358 kJ/mol
# GULP energy per Si atom -12393.908578 kJ/mol
# Density = 1.738130 g / cm^3
# Si number density = 17.420950 Si / 1000 Ang^3
#
#
#
# Elastic Constant Matrix: (Units=GPa)
#
#
# Indices 1 2 3 4 5 6 
#
# 1 107.0074 28.5449 80.3509 0.0000 0.0000 0.0000
# 2 28.5449 46.5934 41.4595 0.0000 0.0000 0.0000
# 3 80.3509 41.4595 149.0330 0.0000 0.0000 0.0000
# 4 0.0000 0.0000 0.0000 29.9211 0.0000 0.0000
# 5 0.0000 0.0000 0.0000 0.0000 23.4066 0.0000
# 6 0.0000 0.0000 0.0000 0.0000 0.0000 14.7357
#
#
#
# Elastic Compliance Matrix: (Units=1/GPa)
#
#
# Indices 1 2 3 4 5 6 
#
# 1 0.015976 -0.002822 -0.007829 0.000000 0.000000 0.000000
# 2 -0.002822 0.029021 -0.006552 0.000000 0.000000 0.000000
# 3 -0.007829 -0.006552 0.012753 0.000000 0.000000 0.000000
# 4 0.000000 0.000000 0.000000 0.033421 0.000000 0.000000
# 5 0.000000 0.000000 0.000000 0.000000 0.042723 0.000000
# 6 0.000000 0.000000 0.000000 0.000000 0.000000 0.067862
#
#
# Mechanical properties :
#
#
# Convention : Reuss Voigt Hill
#
# Bulk Modulus (GPa) = 42.83384 67.03827 54.93605
# Shear Modulus (GPa) = 20.49650 23.76459 22.13055
#
# Velocity S-wave (km/s) = 3.43380 3.69743 3.56805
# Velocity P-wave (km/s) = 6.35313 7.53611 6.96976
#
# Compressibility (1/GPa) = 0.02334603
#
# Stress axis : x y z
#
# Youngs Moduli (GPa) = 62.59273 34.45779 78.41036
#
# Poissons Ratio (x) = 0.09723 0.61385
# Poissons Ratio (y) = 0.17662 0.51375
# Poissons Ratio (z) = 0.49001 0.22577
#
# Static dielectric constant tensor:
#      x y z
#    x 3.692570 0.000000 0.000000 
#    y 0.000000 2.977870 0.000000 
#    z 0.000000 0.000000 3.344430 
# 
# 
# High freq. dielectric constant tensor:
#      x y z
#    x 1.661330 0.000000 0.000000 
#    y 0.000000 1.644940 0.000000 
#    z 0.000000 0.000000 1.670060 
# 
# From -- ./inp_files/30625.got.cif
#   From: 2010.03.12/outbox.cif.g09.slc.cpg/sg59_16_cif.got.tgz:30625.got - 2010.04.16 16:29:54.
