data_PCOD8240383
_publ_section_title
;
Structure prediction by ZEFSAII (Michael W. Deem and Ramdas Pophale) SiO2 
 PCOD8240383
Probable space group: P M M N
;
_chemical_formula_sum "Si O2"
_cell_formula_units_Z 48
_cell_length_a 18.287486
_cell_length_b 9.101434
_cell_length_c 17.257263
_cell_angle_alpha 90.000000
_cell_angle_beta 90.000000
_cell_angle_gamma 90.000000
_cell_volume 2872.339354
_symmetry_space_group_name_H-M "P M M N"
_symmetry_group_IT_number 59
_space_group.IT_coordinate_system_code '2'
_symmetry_cell_setting 'orthorhombic'
loop_
_space_group_symop_operation_xyz
x,y,z
1/2-x,1/2-y,z
1/2+x,-y,-z
-x,1/2+y,-z
-x,-y,-z
1/2+x,1/2+y,-z
1/2-x,y,z
x,1/2-y,z
loop_
_atom_site_type_symbol
_atom_site_label
_atom_site_fract_x
_atom_site_fract_y
_atom_site_fract_z
Si Si1 0.955108 0.422547 0.433134
Si Si2 0.333349 0.421322 0.028407
Si Si3 0.442495 0.575987 0.329610
Si Si4 0.434335 0.082105 0.173056
Si Si5 0.053704 0.580827 0.942598
Si Si6 0.330609 0.578322 0.460090
O O1 0.972892 0.250000 0.429863
O O2 0.870050 0.450030 0.456460
O O3 0.000000 0.500000 0.500000
O O4 0.979919 0.498983 0.352787
O O5 0.250000 0.471069 0.039134
O O6 0.340542 0.250000 0.010732
O O7 0.376900 0.463141 0.106396
O O8 0.366774 0.506202 0.953432
O O9 0.452708 0.750000 0.333206
O O10 0.420302 0.526698 0.243975
O O11 0.379433 0.518745 0.388456
O O12 0.420495 0.250000 0.199105
O O13 0.518372 0.064310 0.142991
O O14 0.059171 0.750000 0.966504
O O15 0.000000 0.500000 0.000000
O O16 0.250000 0.503337 0.460533
O O17 0.321519 0.750000 0.446685
#
# Coordination Sequence:
#
# PCOD8240383 Si02
#       6
#     8   8   8   8   8   8
#     4   9  16  28  47  66  87 117 152 188 223 265
#     4   9  18  32  49  70  97 126 153 187 235 285
#     4  10  19  29  45  68  93 121 151 186 226 269
#     4   9  18  31  46  66  94 124 153 187 226 271
#     4   9  17  30  48  68  90 120 159 198 233 272
#     4   8  15  28  45  66  90 115 145 181 221 264
#
# _framework density 16.711117999999999
#
# number of rings (size 3 to 8) (size 9 to 14) (size 15 to 20)
#    0.000    3.000    0.000    3.500    0.000    4.333 
#    0.000    0.000    0.000   18.500    0.000    2.333 
#    0.000    0.000    0.000    0.000    0.000    0.000 
#
# Total GULP energy -594717.015307 kJ/mol
# GULP energy per Si atom -12389.937819 kJ/mol
# Density = 1.667308 g / cm^3
# Si number density = 16.711118 Si / 1000 Ang^3
#
#
#
# Elastic Constant Matrix: (Units=GPa)
#
#
# Indices 1 2 3 4 5 6 
#
# 1 123.2157 45.1403 56.3334 0.0000 0.0000 0.0000
# 2 45.1403 69.5518 23.7496 0.0000 0.0000 0.0000
# 3 56.3334 23.7496 38.2811 0.0000 0.0000 0.0000
# 4 0.0000 0.0000 0.0000 30.3332 0.0000 0.0000
# 5 0.0000 0.0000 0.0000 0.0000 17.9800 0.0000
# 6 0.0000 0.0000 0.0000 0.0000 0.0000 21.8824
#
#
#
# Elastic Compliance Matrix: (Units=1/GPa)
#
#
# Indices 1 2 3 4 5 6 
#
# 1 0.026027 -0.004839 -0.035298 0.000000 0.000000 0.000000
# 2 -0.004839 0.019142 -0.004755 0.000000 0.000000 0.000000
# 3 -0.035298 -0.004755 0.081017 0.000000 0.000000 0.000000
# 4 0.000000 0.000000 0.000000 0.032967 0.000000 0.000000
# 5 0.000000 0.000000 0.000000 0.000000 0.055617 0.000000
# 6 0.000000 0.000000 0.000000 0.000000 0.000000 0.045699
#
#
# Mechanical properties :
#
#
# Convention : Reuss Voigt Hill
#
# Bulk Modulus (GPa) = 27.47176 53.49945 40.48561
# Shear Modulus (GPa) = 13.79742 21.09412 17.44577
#
# Velocity S-wave (km/s) = 2.87652 3.55671 3.23455
# Velocity P-wave (km/s) = 5.24475 6.99648 6.18296
#
# Compressibility (1/GPa) = 0.03640101
#
# Stress axis : x y z
#
# Youngs Moduli (GPa) = 38.42225 52.24152 12.34312
#
# Poissons Ratio (x) = 0.25277 0.43569
# Poissons Ratio (y) = 0.18591 0.05870
# Poissons Ratio (z) = 1.35624 0.24843
#
# Static dielectric constant tensor:
#      x y z
#    x 3.201740 0.000000 0.000000 
#    y 0.000000 3.181270 0.000000 
#    z 0.000000 0.000000 2.770420 
# 
# 
# High freq. dielectric constant tensor:
#      x y z
#    x 1.635060 0.000000 0.000000 
#    y 0.000000 1.641000 0.000000 
#    z 0.000000 0.000000 1.619400 
# 
# From -- ./inp_files/23678.got.cif
#   From: 2010.03.12/outbox.cif.g09.slc.cpg/sg59_12_cif.got.tgz:23678.got - 2010.04.16 16:29:54.
