data_PCOD8240607
_publ_section_title
;
Structure prediction by ZEFSAII (Michael W. Deem and Ramdas Pophale) SiO2 
 PCOD8240607
Probable space group: P M M N
;
_chemical_formula_sum "Si O2"
_cell_formula_units_Z 48
_cell_length_a 9.225773
_cell_length_b 17.993342
_cell_length_c 15.537197
_cell_angle_alpha 90.000000
_cell_angle_beta 90.000000
_cell_angle_gamma 90.000000
_cell_volume 2579.213371
_symmetry_space_group_name_H-M "P M M N"
_symmetry_group_IT_number 59
_space_group.IT_coordinate_system_code '2'
_symmetry_cell_setting 'orthorhombic'
loop_
_space_group_symop_operation_xyz
x,y,z
1/2-x,1/2-y,z
1/2+x,-y,-z
-x,1/2+y,-z
-x,-y,-z
1/2+x,1/2+y,-z
1/2-x,y,z
x,1/2-y,z
loop_
_atom_site_type_symbol
_atom_site_label
_atom_site_fract_x
_atom_site_fract_y
_atom_site_fract_z
Si Si1 0.584288 0.664556 0.507150
Si Si2 0.414386 0.584338 0.174905
Si Si3 0.580542 0.926101 0.341993
Si Si4 0.410286 0.092805 0.173759
Si Si5 0.581590 0.401283 0.336683
Si Si6 0.420385 0.422738 0.987394
O O1 0.750000 0.644194 0.528408
O O2 0.567053 0.750000 0.480552
O O3 0.527781 0.615094 0.427932
O O4 0.490574 0.648655 0.590893
O O5 0.250000 0.614655 0.173093
O O6 0.491733 0.609500 0.263022
O O7 0.418798 0.495873 0.169353
O O8 0.503866 0.618504 0.093683
O O9 0.750000 0.913380 0.323872
O O10 0.544127 0.012811 0.353968
O O11 0.250000 0.117602 0.203491
O O12 0.523466 0.124290 0.243004
O O13 0.441514 0.123471 0.076837
O O14 0.750000 0.384948 0.338202
O O15 0.250000 0.435668 0.968379
O O16 0.500000 0.500000 0.000000
#
# Coordination Sequence:
#
# PCOD8240607 Si02
#       6
#     8   8   8   8   8   8
#     4  10  21  36  52  69  92 124 159 195 237 286
#     4   9  16  25  40  64  93 125 157 191 234 279
#     4   9  18  32  49  70  95 124 159 196 236 281
#     4   8  15  26  40  61  91 125 157 188 226 276
#     4  10  19  30  48  72  96 123 155 196 240 280
#     4   9  15  23  37  60  92 127 158 191 231 274
#
# _framework density 18.610325
#
# number of rings (size 3 to 8) (size 9 to 14) (size 15 to 20)
#    0.000    2.833    0.000    3.000    0.000    6.333 
#    0.000    0.000    0.000    0.000    0.000    1.167 
#    0.000    4.000    0.000    0.000    0.000    0.000 
#
# Total GULP energy -594992.272103 kJ/mol
# GULP energy per Si atom -12395.672335 kJ/mol
# Density = 1.856797 g / cm^3
# Si number density = 18.610325 Si / 1000 Ang^3
#
#
#
# Elastic Constant Matrix: (Units=GPa)
#
#
# Indices 1 2 3 4 5 6 
#
# 1 105.6080 15.7934 67.3860 0.0000 0.0000 0.0000
# 2 15.7934 19.7318 15.8541 0.0000 0.0000 0.0000
# 3 67.3860 15.8541 141.5195 0.0000 0.0000 0.0000
# 4 0.0000 0.0000 0.0000 2.1714 0.0000 0.0000
# 5 0.0000 0.0000 0.0000 0.0000 37.2309 0.0000
# 6 0.0000 0.0000 0.0000 0.0000 0.0000 12.5450
#
#
#
# Elastic Compliance Matrix: (Units=1/GPa)
#
#
# Indices 1 2 3 4 5 6 
#
# 1 0.014340 -0.006584 -0.006090 0.000000 0.000000 0.000000
# 2 -0.006584 0.058716 -0.003443 0.000000 0.000000 0.000000
# 3 -0.006090 -0.003443 0.010352 0.000000 0.000000 0.000000
# 4 0.000000 0.000000 0.000000 0.460531 0.000000 0.000000
# 5 0.000000 0.000000 0.000000 0.000000 0.026859 0.000000
# 6 0.000000 0.000000 0.000000 0.000000 0.000000 0.079713
#
#
# Mechanical properties :
#
#
# Convention : Reuss Voigt Hill
#
# Bulk Modulus (GPa) = 19.54158 51.65848 35.60003
# Shear Modulus (GPa) = 7.14487 21.57785 14.36136
#
# Velocity S-wave (km/s) = 1.96151 3.40877 2.78094
# Velocity P-wave (km/s) = 3.95642 6.58112 5.42975
#
# Compressibility (1/GPa) = 0.05117294
#
# Stress axis : x y z
#
# Youngs Moduli (GPa) = 69.73605 17.03121 96.60089
#
# Poissons Ratio (x) = 0.11214 0.58834
# Poissons Ratio (y) = 0.45915 0.33257
# Poissons Ratio (z) = 0.42472 0.05863
#
# Static dielectric constant tensor:
#      x y z
#    x 3.522450 0.000000 0.000000 
#    y 0.000000 2.788340 0.000000 
#    z 0.000000 0.000000 3.969690 
# 
# 
# High freq. dielectric constant tensor:
#      x y z
#    x 1.729340 0.000000 0.000000 
#    y 0.000000 1.649620 0.000000 
#    z 0.000000 0.000000 1.744220 
# 
# From -- ./inp_files/20757.got.cif
#   From: 2010.03.12/outbox.cif.g09.slc.cpg/sg59_11_cif.got.tgz:20757.got - 2010.04.16 16:29:54.
