data_PCOD8240141
_publ_section_title
;
Structure prediction by ZEFSAII (Michael W. Deem and Ramdas Pophale) SiO2 
 PCOD8240141
Probable space group: P M M N
;
_chemical_formula_sum "Si O2"
_cell_formula_units_Z 56
_cell_length_a 19.390389
_cell_length_b 8.972672
_cell_length_c 17.482989
_cell_angle_alpha 90.000000
_cell_angle_beta 90.000000
_cell_angle_gamma 90.000000
_cell_volume 3041.753373
_symmetry_space_group_name_H-M "P M M N"
_symmetry_group_IT_number 59
_space_group.IT_coordinate_system_code '2'
_symmetry_cell_setting 'orthorhombic'
loop_
_space_group_symop_operation_xyz
x,y,z
1/2-x,1/2-y,z
1/2+x,-y,-z
-x,1/2+y,-z
-x,-y,-z
1/2+x,1/2+y,-z
1/2-x,y,z
x,1/2-y,z
loop_
_atom_site_type_symbol
_atom_site_label
_atom_site_fract_x
_atom_site_fract_y
_atom_site_fract_z
Si Si1 0.940313 0.925011 0.598695
Si Si2 0.093419 0.575432 0.552047
Si Si3 0.073357 0.424428 0.818660
Si Si4 0.672868 0.426776 0.892016
Si Si5 0.428656 0.573085 0.976065
Si Si6 0.923656 0.075131 0.756076
Si Si7 0.829286 0.920958 0.318889
O O1 0.929022 0.750000 0.596703
O O2 0.020491 0.969409 0.589980
O O3 0.897109 0.996414 0.529558
O O4 0.911324 0.988441 0.677627
O O5 0.099805 0.750000 0.538893
O O6 0.153671 0.520201 0.607545
O O7 0.079237 0.250000 0.838014
O O8 0.093934 0.519311 0.892567
O O9 0.126105 0.474474 0.753070
O O10 0.996714 0.467584 0.792881
O O11 0.750000 0.494909 0.894552
O O12 0.675953 0.250000 0.893049
O O13 0.635385 0.479099 0.814347
O O14 0.630216 0.482531 0.965453
O O15 0.437350 0.750000 0.978447
O O16 0.500000 0.500000 0.000000
O O17 0.920042 0.250000 0.738784
O O18 0.750000 0.943254 0.296960
O O19 0.846767 0.750000 0.338827
#
# Coordination Sequence:
#
# PCOD8240141 Si02
#       7
#     8   8   8   8   8   8   8
#     4  10  20  33  54  83 111 140 181 231 278 325
#     4  10  20  34  54  81 110 143 185 230 275 324
#     4  10  20  35  55  82 111 142 185 228 272 329
#     4   9  19  36  56  79 108 143 182 224 274 326
#     4  11  21  35  57  84 111 144 184 228 276 327
#     4  10  18  33  57  81 107 142 182 228 275 323
#     4  10  21  37  56  78 112 153 184 223 283 339
#
# _framework density 18.410433000000001
#
# number of rings (size 3 to 8) (size 9 to 14) (size 15 to 20)
#    0.000    2.000    2.857    1.286    0.000    3.143 
#    0.000    0.714    0.000    6.000    0.000    0.000 
#    0.000    0.000    0.000    0.000    0.000    0.000 
#
# Total GULP energy -694620.824474 kJ/mol
# GULP energy per Si atom -12403.943294 kJ/mol
# Density = 1.836853 g / cm^3
# Si number density = 18.410433 Si / 1000 Ang^3
#
#
#
# Elastic Constant Matrix: (Units=GPa)
#
#
# Indices 1 2 3 4 5 6 
#
# 1 122.5618 34.2572 71.5247 0.0000 0.0000 0.0000
# 2 34.2572 60.5351 55.8412 0.0000 0.0000 0.0000
# 3 71.5247 55.8412 168.1775 0.0000 0.0000 0.0000
# 4 0.0000 0.0000 0.0000 39.0198 0.0000 0.0000
# 5 0.0000 0.0000 0.0000 0.0000 27.5421 0.0000
# 6 0.0000 0.0000 0.0000 0.0000 0.0000 18.4249
#
#
#
# Elastic Compliance Matrix: (Units=1/GPa)
#
#
# Indices 1 2 3 4 5 6 
#
# 1 0.011172 -0.002796 -0.003823 0.000000 0.000000 0.000000
# 2 -0.002796 0.024513 -0.006950 0.000000 0.000000 0.000000
# 3 -0.003823 -0.006950 0.009880 0.000000 0.000000 0.000000
# 4 0.000000 0.000000 0.000000 0.025628 0.000000 0.000000
# 5 0.000000 0.000000 0.000000 0.000000 0.036308 0.000000
# 6 0.000000 0.000000 0.000000 0.000000 0.000000 0.054274
#
#
# Mechanical properties :
#
#
# Convention : Reuss Voigt Hill
#
# Bulk Modulus (GPa) = 54.26961 74.94673 64.60817
# Shear Modulus (GPa) = 25.63397 29.64079 27.63738
#
# Velocity S-wave (km/s) = 3.73548 4.01683 3.87871
# Velocity P-wave (km/s) = 6.93879 7.89370 7.43160
#
# Compressibility (1/GPa) = 0.01842652
#
# Stress axis : x y z
#
# Youngs Moduli (GPa) = 89.51325 40.79528 101.21769
#
# Poissons Ratio (x) = 0.11404 0.38695
# Poissons Ratio (y) = 0.25024 0.70348
# Poissons Ratio (z) = 0.34220 0.28354
#
# Static dielectric constant tensor:
#      x y z
#    x 3.388190 0.000000 0.000000 
#    y 0.000000 3.224270 0.000000 
#    z 0.000000 0.000000 3.513080 
# 
# 
# High freq. dielectric constant tensor:
#      x y z
#    x 1.699030 0.000000 0.000000 
#    y 0.000000 1.701050 0.000000 
#    z 0.000000 0.000000 1.727490 
# 
# From -- ./inp_files/24302.got.cif
#   From: 2010.03.12/outbox.cif.g09.slc.cpg/sg59_13_cif.got.tgz:24302.got - 2010.04.16 16:29:54.
