data_PCOD8240457
_publ_section_title
;
Structure prediction by ZEFSAII (Michael W. Deem and Ramdas Pophale) SiO2 
 PCOD8240457
Probable space group: P M M N
;
_chemical_formula_sum "Si O2"
_cell_formula_units_Z 64
_cell_length_a 19.345831
_cell_length_b 9.192291
_cell_length_c 20.938714
_cell_angle_alpha 90.000000
_cell_angle_beta 90.000000
_cell_angle_gamma 90.000000
_cell_volume 3723.584029
_symmetry_space_group_name_H-M "P M M N"
_symmetry_group_IT_number 59
_space_group.IT_coordinate_system_code '2'
_symmetry_cell_setting 'orthorhombic'
loop_
_space_group_symop_operation_xyz
x,y,z
1/2-x,1/2-y,z
1/2+x,-y,-z
-x,1/2+y,-z
-x,-y,-z
1/2+x,1/2+y,-z
1/2-x,y,z
x,1/2-y,z
loop_
_atom_site_type_symbol
_atom_site_label
_atom_site_fract_x
_atom_site_fract_y
_atom_site_fract_z
Si Si1 0.081983 0.577829 0.196042
Si Si2 0.936131 0.916948 0.062860
Si Si3 0.924446 0.917022 0.926244
Si Si4 0.575604 0.917811 0.200861
Si Si5 0.667695 0.412758 0.437168
Si Si6 0.330388 0.419267 0.300786
Si Si7 0.832116 0.588827 0.556365
Si Si8 0.670875 0.577707 0.312062
O O1 0.087904 0.750000 0.192808
O O2 0.111581 0.513124 0.128928
O O3 0.126561 0.520008 0.254086
O O4 0.002975 0.522349 0.204732
O O5 0.965879 0.750000 0.064180
O O6 0.893520 0.942073 0.128955
O O7 0.890557 0.937431 0.997769
O O8 0.996737 0.034800 0.063866
O O9 0.920632 0.750000 0.904271
O O10 0.573076 0.750000 0.218587
O O11 0.625997 0.989172 0.253463
O O12 0.750000 0.413299 0.439955
O O13 0.638394 0.250000 0.431096
O O14 0.637420 0.481453 0.502568
O O15 0.642085 0.505667 0.376751
O O16 0.250000 0.452302 0.289743
O O17 0.346135 0.250000 0.288020
O O18 0.353172 0.463226 0.372653
O O19 0.750000 0.595035 0.552243
O O20 0.861898 0.750000 0.543384
O O21 0.750000 0.532556 0.299162
O O22 0.664113 0.750000 0.319762
#
# Coordination Sequence:
#
# PCOD8240457 Si02
#       8
#     8   8   8   8   8   8   8   8
#     4  10  19  30  45  65  91 120 148 181 221 267
#     4   8  14  25  41  61  86 113 143 185 230 265
#     4   9  15  24  41  63  86 113 147 185 223 263
#     4   8  15  28  44  64  89 115 146 185 224 259
#     4   9  16  25  39  62  90 114 139 177 218 253
#     4   9  18  32  49  69  92 115 142 180 221 261
#     4   8  14  26  44  64  85 110 140 174 213 256
#     4   9  16  27  45  65  85 114 149 181 216 260
#
# _framework density 17.187742
#
# number of rings (size 3 to 8) (size 9 to 14) (size 15 to 20)
#    0.000    3.250    0.000    2.625    0.000    2.750 
#    0.000    4.375    0.000    1.500    0.000    3.500 
#    0.000    0.000    0.000    0.000    0.000    0.000 
#
# Total GULP energy -792846.739781 kJ/mol
# GULP energy per Si atom -12388.230309 kJ/mol
# Density = 1.714862 g / cm^3
# Si number density = 17.187742 Si / 1000 Ang^3
#
#
#
# Elastic Constant Matrix: (Units=GPa)
#
#
# Indices 1 2 3 4 5 6 
#
# 1 31.5978 24.0709 44.4988 0.0000 0.0000 0.0000
# 2 24.0709 74.3841 66.8644 0.0000 0.0000 0.0000
# 3 44.4988 66.8644 184.2292 0.0000 0.0000 0.0000
# 4 0.0000 0.0000 0.0000 24.8862 0.0000 0.0000
# 5 0.0000 0.0000 0.0000 0.0000 24.4131 0.0000
# 6 0.0000 0.0000 0.0000 0.0000 0.0000 13.5313
#
#
#
# Elastic Compliance Matrix: (Units=1/GPa)
#
#
# Indices 1 2 3 4 5 6 
#
# 1 0.051026 -0.008064 -0.009398 0.000000 0.000000 0.000000
# 2 -0.008064 0.021228 -0.005757 0.000000 0.000000 0.000000
# 3 -0.009398 -0.005757 0.009787 0.000000 0.000000 0.000000
# 4 0.000000 0.000000 0.000000 0.040183 0.000000 0.000000
# 5 0.000000 0.000000 0.000000 0.000000 0.040962 0.000000
# 6 0.000000 0.000000 0.000000 0.000000 0.000000 0.073903
#
#
# Mechanical properties :
#
#
# Convention : Reuss Voigt Hill
#
# Bulk Modulus (GPa) = 28.08698 62.34215 45.21456
# Shear Modulus (GPa) = 16.92649 22.88456 19.90553
#
# Velocity S-wave (km/s) = 3.14156 3.65286 3.40681
# Velocity P-wave (km/s) = 5.43470 7.35807 6.46827
#
# Compressibility (1/GPa) = 0.03560369
#
# Stress axis : x y z
#
# Youngs Moduli (GPa) = 19.59778 47.10742 102.17224
#
# Poissons Ratio (x) = 0.37988 0.96022
# Poissons Ratio (y) = 0.15804 0.58818
# Poissons Ratio (z) = 0.18418 0.27118
#
# Static dielectric constant tensor:
#      x y z
#    x 2.717730 0.000000 0.000000 
#    y 0.000000 3.190010 0.000000 
#    z 0.000000 0.000000 3.743720 
# 
# 
# High freq. dielectric constant tensor:
#      x y z
#    x 1.589680 0.000000 0.000000 
#    y 0.000000 1.656900 0.000000 
#    z 0.000000 0.000000 1.691180 
# 
# From -- ./inp_files/30996.got.cif
#   From: 2010.03.12/outbox.cif.g09.slc.cpg/sg59_16_cif.got.tgz:30996.got - 2010.04.16 16:29:54.
