data_PCOD8240462
_publ_section_title
;
Structure prediction by ZEFSAII (Michael W. Deem and Ramdas Pophale) SiO2 
 PCOD8240462
Probable space group: P M M N
;
_chemical_formula_sum "Si O2"
_cell_formula_units_Z 56
_cell_length_a 9.360654
_cell_length_b 24.059612
_cell_length_c 16.066051
_cell_angle_alpha 90.000000
_cell_angle_beta 90.000000
_cell_angle_gamma 90.000000
_cell_volume 3618.294843
_symmetry_space_group_name_H-M "P M M N"
_symmetry_group_IT_number 59
_space_group.IT_coordinate_system_code '2'
_symmetry_cell_setting 'orthorhombic'
loop_
_space_group_symop_operation_xyz
x,y,z
1/2-x,1/2-y,z
1/2+x,-y,-z
-x,1/2+y,-z
-x,-y,-z
1/2+x,1/2+y,-z
1/2-x,y,z
x,1/2-y,z
loop_
_atom_site_type_symbol
_atom_site_label
_atom_site_fract_x
_atom_site_fract_y
_atom_site_fract_z
Si Si1 0.414953 0.980287 0.382092
Si Si2 0.916651 0.015730 0.810309
Si Si3 0.585060 0.548486 0.044868
Si Si4 0.417575 0.686219 0.590778
Si Si5 0.411637 0.102707 0.119500
Si Si6 0.917075 0.912947 0.513377
Si Si7 0.411022 0.686005 0.779170
O O1 0.250000 0.964952 0.399227
O O2 0.454320 0.975364 0.285595
O O3 0.515359 0.936749 0.428920
O O4 0.445401 0.043232 0.412240
O O5 0.750000 0.025330 0.828955
O O6 0.008594 0.059578 0.865978
O O7 0.964916 0.954046 0.837079
O O8 0.750000 0.531637 0.058833
O O9 0.500000 0.500000 0.000000
O O10 0.574717 0.600625 0.981406
O O11 0.250000 0.672900 0.581284
O O12 0.447633 0.750000 0.564317
O O13 0.508759 0.645595 0.532888
O O14 0.468669 0.676605 0.685663
O O15 0.250000 0.113211 0.146971
O O16 0.500905 0.153869 0.152076
O O17 0.750000 0.902626 0.498940
O O18 0.250000 0.664304 0.783644
O O19 0.420844 0.750000 0.803532
#
# Coordination Sequence:
#
# PCOD8240462 Si02
#       7
#     8   8   8   8   8   8   8
#     4   9  18  31  45  63  91 122 147 178 221 265
#     4   9  17  29  44  63  87 114 145 177 210 251
#     4   9  17  28  41  60  86 112 141 174 207 248
#     4   9  18  32  47  63  87 118 148 180 220 262
#     4   9  17  28  42  62  88 115 141 173 212 250
#     4  10  19  30  45  66  90 116 149 184 217 259
#     4   9  18  30  43  62  86 112 145 179 208 247
#
# _framework density 15.476903
#
# number of rings (size 3 to 8) (size 9 to 14) (size 15 to 20)
#    0.000    2.857    0.000    3.429    0.000    6.286 
#    0.000    1.429    0.000    0.000    0.000    1.000 
#    0.000    5.714    0.000    0.000    0.000    0.000 
#
# Total GULP energy -694184.728572 kJ/mol
# GULP energy per Si atom -12396.155867 kJ/mol
# Density = 1.544168 g / cm^3
# Si number density = 15.476903 Si / 1000 Ang^3
#
#
#
# Elastic Constant Matrix: (Units=GPa)
#
#
# Indices 1 2 3 4 5 6 
#
# 1 82.7007 46.1907 57.3271 0.0000 0.0000 0.0000
# 2 46.1907 68.0760 43.6158 0.0000 0.0000 0.0000
# 3 57.3271 43.6158 108.4217 0.0000 0.0000 0.0000
# 4 0.0000 0.0000 0.0000 23.3604 0.0000 0.0000
# 5 0.0000 0.0000 0.0000 0.0000 28.6900 0.0000
# 6 0.0000 0.0000 0.0000 0.0000 0.0000 27.3955
#
#
#
# Elastic Compliance Matrix: (Units=1/GPa)
#
#
# Indices 1 2 3 4 5 6 
#
# 1 0.023922 -0.010950 -0.008244 0.000000 0.000000 0.000000
# 2 -0.010950 0.024802 -0.004188 0.000000 0.000000 0.000000
# 3 -0.008244 -0.004188 0.015267 0.000000 0.000000 0.000000
# 4 0.000000 0.000000 0.000000 0.042807 0.000000 0.000000
# 5 0.000000 0.000000 0.000000 0.000000 0.034855 0.000000
# 6 0.000000 0.000000 0.000000 0.000000 0.000000 0.036502
#
#
# Mechanical properties :
#
#
# Convention : Reuss Voigt Hill
#
# Bulk Modulus (GPa) = 58.04398 61.49619 59.77008
# Shear Modulus (GPa) = 21.67679 23.36017 22.51848
#
# Velocity S-wave (km/s) = 3.74651 3.88926 3.81855
# Velocity P-wave (km/s) = 7.50334 7.74525 7.62525
#
# Compressibility (1/GPa) = 0.01722831
#
# Stress axis : x y z
#
# Youngs Moduli (GPa) = 41.80248 40.31898 65.50210
#
# Poissons Ratio (x) = 0.44149 0.53998
# Poissons Ratio (y) = 0.45773 0.27431
# Poissons Ratio (z) = 0.34461 0.16885
#
# Static dielectric constant tensor:
#      x y z
#    x 3.028890 0.000000 0.000000 
#    y 0.000000 2.702530 0.000000 
#    z 0.000000 0.000000 3.117510 
# 
# 
# High freq. dielectric constant tensor:
#      x y z
#    x 1.601630 0.000000 0.000000 
#    y 0.000000 1.560010 0.000000 
#    z 0.000000 0.000000 1.588980 
# 
# From -- ./inp_files/26419.got.cif
#   From: 2010.03.12/outbox.cif.g09.slc.cpg/sg59_14_cif.got.tgz:26419.got - 2010.04.16 16:29:54.
