data_PCOD8240749
_publ_section_title
;
Structure prediction by ZEFSAII (Michael W. Deem and Ramdas Pophale) SiO2 
 PCOD8240749
Probable space group: P M M N
;
_chemical_formula_sum "Si O2"
_cell_formula_units_Z 64
_cell_length_a 8.980855
_cell_length_b 28.418427
_cell_length_c 15.337360
_cell_angle_alpha 90.000000
_cell_angle_beta 90.000000
_cell_angle_gamma 90.000000
_cell_volume 3914.428200
_symmetry_space_group_name_H-M "P M M N"
_symmetry_group_IT_number 59
_space_group.IT_coordinate_system_code '2'
_symmetry_cell_setting 'orthorhombic'
loop_
_space_group_symop_operation_xyz
x,y,z
1/2-x,1/2-y,z
1/2+x,-y,-z
-x,1/2+y,-z
-x,-y,-z
1/2+x,1/2+y,-z
1/2-x,y,z
x,1/2-y,z
loop_
_atom_site_type_symbol
_atom_site_label
_atom_site_fract_x
_atom_site_fract_y
_atom_site_fract_z
Si Si1 0.426642 0.199023 0.595989
Si Si2 0.420975 0.102556 0.665576
Si Si3 0.925622 0.391928 0.333350
Si Si4 0.921628 0.950808 0.012134
Si Si5 0.576795 0.449310 0.819820
Si Si6 0.921901 0.549314 0.514756
Si Si7 0.579629 0.940817 0.820460
Si Si8 0.077104 0.196539 0.399220
O O1 0.250000 0.199029 0.589788
O O2 0.482998 0.250000 0.631796
O O3 0.478021 0.156770 0.659097
O O4 0.484876 0.191480 0.497672
O O5 0.250000 0.099498 0.696943
O O6 0.525181 0.076171 0.732730
O O7 0.439798 0.080449 0.570824
O O8 0.750000 0.394490 0.345783
O O9 0.002603 0.424257 0.405335
O O10 0.968451 0.410741 0.238064
O O11 0.981067 0.338179 0.339245
O O12 0.750000 0.959521 0.033250
O O13 0.996318 0.925608 0.095875
O O14 0.940345 0.922875 0.920707
O O15 0.000000 0.000000 0.000000
O O16 0.750000 0.441284 0.832717
O O17 0.536658 0.504255 0.811921
O O18 0.750000 0.540600 0.538028
O O19 0.000000 0.500000 0.500000
O O20 0.750000 0.933250 0.790035
O O21 0.250000 0.181723 0.393821
O O22 0.055276 0.250000 0.365907
#
# Coordination Sequence:
#
# PCOD8240749 Si02
#       8
#     8   8   8   8   8   8   8   8
#     4   8  14  28  50  71  89 116 158 204 246 284
#     4  10  19  31  48  69  93 125 163 201 238 285
#     4  12  23  32  47  72 101 132 163 200 246 293
#     4   9  17  31  51  72  94 123 159 202 244 283
#     4  10  20  32  48  71  99 130 161 199 242 288
#     4  11  22  35  48  65  94 132 171 205 239 284
#     4   9  19  34  50  68  94 129 167 202 236 282
#     4   9  17  33  55  72  91 125 166 207 249 291
#
# _framework density 16.349769999999999
#
# number of rings (size 3 to 8) (size 9 to 14) (size 15 to 20)
#    0.000    2.250    1.250    4.500    0.000    6.250 
#    0.000    0.000    0.000    0.375    0.000    0.875 
#    0.000    3.000    0.000    0.000    0.000    0.000 
#
# Total GULP energy -793378.442122 kJ/mol
# GULP energy per Si atom -12396.538158 kJ/mol
# Density = 1.631256 g / cm^3
# Si number density = 16.349770 Si / 1000 Ang^3
#
#
#
# Elastic Constant Matrix: (Units=GPa)
#
#
# Indices 1 2 3 4 5 6 
#
# 1 91.0948 31.6445 35.1072 0.0000 0.0000 0.0000
# 2 31.6445 68.6362 11.0518 0.0000 0.0000 0.0000
# 3 35.1072 11.0518 58.6616 0.0000 0.0000 0.0000
# 4 0.0000 0.0000 0.0000 4.1527 0.0000 0.0000
# 5 0.0000 0.0000 0.0000 0.0000 26.9747 0.0000
# 6 0.0000 0.0000 0.0000 0.0000 0.0000 21.0905
#
#
#
# Elastic Compliance Matrix: (Units=1/GPa)
#
#
# Indices 1 2 3 4 5 6 
#
# 1 0.016482 -0.006199 -0.008696 0.000000 0.000000 0.000000
# 2 -0.006199 0.017357 0.000440 0.000000 0.000000 0.000000
# 3 -0.008696 0.000440 0.022169 0.000000 0.000000 0.000000
# 4 0.000000 0.000000 0.000000 0.240807 0.000000 0.000000
# 5 0.000000 0.000000 0.000000 0.000000 0.037072 0.000000
# 6 0.000000 0.000000 0.000000 0.000000 0.000000 0.047415
#
#
# Mechanical properties :
#
#
# Convention : Reuss Voigt Hill
#
# Bulk Modulus (GPa) = 36.90455 41.55549 39.23002
# Shear Modulus (GPa) = 11.92621 19.81619 15.87120
#
# Velocity S-wave (km/s) = 2.70375 3.48518 3.11903
# Velocity P-wave (km/s) = 5.68928 6.45500 6.08420
#
# Compressibility (1/GPa) = 0.02709693
#
# Stress axis : x y z
#
# Youngs Moduli (GPa) = 60.67051 57.61454 45.10886
#
# Poissons Ratio (x) = 0.35715 0.39228
# Poissons Ratio (y) = 0.37609 -0.01984
# Poissons Ratio (z) = 0.52761 -0.02534
#
# Static dielectric constant tensor:
#      x y z
#    x 3.111660 0.000000 0.000000 
#    y 0.000000 3.191090 0.000000 
#    z 0.000000 0.000000 3.215970 
# 
# 
# High freq. dielectric constant tensor:
#      x y z
#    x 1.626490 0.000000 0.000000 
#    y 0.000000 1.609840 0.000000 
#    z 0.000000 0.000000 1.619870 
# 
# From -- ./inp_files/21869.got.cif
#   From: 2010.03.12/outbox.cif.g09.slc.cpg/sg59_11_cif.got.tgz:21869.got - 2010.04.16 16:29:54.
