data_PCOD8240826
_publ_section_title
;
Structure prediction by ZEFSAII (Michael W. Deem and Ramdas Pophale) SiO2 
 PCOD8240826
Probable space group: P M M N
;
_chemical_formula_sum "Si O2"
_cell_formula_units_Z 64
_cell_length_a 9.026324
_cell_length_b 14.366514
_cell_length_c 28.251393
_cell_angle_alpha 90.000000
_cell_angle_beta 90.000000
_cell_angle_gamma 90.000000
_cell_volume 3663.550526
_symmetry_space_group_name_H-M "P M M N"
_symmetry_group_IT_number 59
_space_group.IT_coordinate_system_code '2'
_symmetry_cell_setting 'orthorhombic'
loop_
_space_group_symop_operation_xyz
x,y,z
1/2-x,1/2-y,z
1/2+x,-y,-z
-x,1/2+y,-z
-x,-y,-z
1/2+x,1/2+y,-z
1/2-x,y,z
x,1/2-y,z
loop_
_atom_site_type_symbol
_atom_site_label
_atom_site_fract_x
_atom_site_fract_y
_atom_site_fract_z
Si Si1 0.923809 0.856741 0.299097
Si Si2 0.077156 0.036352 0.881536
Si Si3 0.922279 0.353677 0.069557
Si Si4 0.075599 0.960950 0.383656
Si Si5 0.917702 0.641189 0.466228
Si Si6 0.074872 0.351542 0.428169
Si Si7 0.921904 0.642915 0.025460
Si Si8 0.923850 0.356385 0.798818
O O1 0.750000 0.873141 0.294433
O O2 0.960571 0.750000 0.312478
O O3 0.987188 0.923814 0.338924
O O4 0.998403 0.884521 0.249869
O O5 0.250000 0.057487 0.871954
O O6 0.981417 0.073589 0.838418
O O7 0.046125 0.925684 0.887659
O O8 0.021757 0.086035 0.929316
O O9 0.750000 0.350795 0.058249
O O10 0.980693 0.250000 0.083526
O O11 0.997042 0.391634 0.021791
O O12 0.250000 0.948636 0.375027
O O13 0.031096 0.906937 0.430790
O O14 0.029889 0.069497 0.390476
O O15 0.750000 0.602344 0.459319
O O16 0.917495 0.750000 0.455097
O O17 0.980427 0.621920 0.519040
O O18 0.250000 0.343989 0.432259
O O19 0.010888 0.250000 0.412455
O O20 0.750000 0.625442 0.016951
O O21 0.959505 0.750000 0.035515
O O22 0.750000 0.369753 0.792365
O O23 0.963672 0.250000 0.812754
#
# Coordination Sequence:
#
# PCOD8240826 Si02
#       8
#     8   8   8   8   8   8   8   8
#     4  10  21  37  55  73  97 129 157 184 230 293
#     4  10  19  31  49  71  97 131 165 196 237 290
#     4   9  18  31  46  67  97 132 169 206 239 271
#     4  11  20  29  48  75  99 125 160 204 245 278
#     4   9  17  30  47  67  96 134 169 197 232 285
#     4   8  16  31  48  67  95 132 169 201 236 280
#     4   9  17  28  43  66  96 129 165 202 239 283
#     4  10  21  36  54  77 101 121 148 193 242 285
#
# _framework density 17.469391999999999
#
# number of rings (size 3 to 8) (size 9 to 14) (size 15 to 20)
#    0.000    2.500    0.000    3.375    0.000    4.750 
#    0.000    1.875    0.000    3.750    0.000    0.000 
#    0.000    0.000    0.000    0.000    0.000    0.000 
#
# Total GULP energy -793505.317092 kJ/mol
# GULP energy per Si atom -12398.520580 kJ/mol
# Density = 1.742963 g / cm^3
# Si number density = 17.469392 Si / 1000 Ang^3
#
#
#
# Elastic Constant Matrix: (Units=GPa)
#
#
# Indices 1 2 3 4 5 6 
#
# 1 58.0310 39.9909 48.4510 0.0000 0.0000 0.0000
# 2 39.9909 96.0381 76.9104 0.0000 0.0000 0.0000
# 3 48.4510 76.9104 115.8104 0.0000 0.0000 0.0000
# 4 0.0000 0.0000 0.0000 26.3594 0.0000 0.0000
# 5 0.0000 0.0000 0.0000 0.0000 32.3005 0.0000
# 6 0.0000 0.0000 0.0000 0.0000 0.0000 20.9503
#
#
#
# Elastic Compliance Matrix: (Units=1/GPa)
#
#
# Indices 1 2 3 4 5 6 
#
# 1 0.027470 -0.004774 -0.008322 0.000000 0.000000 0.000000
# 2 -0.004774 0.023071 -0.013324 0.000000 0.000000 0.000000
# 3 -0.008322 -0.013324 0.020965 0.000000 0.000000 0.000000
# 4 0.000000 0.000000 0.000000 0.037937 0.000000 0.000000
# 5 0.000000 0.000000 0.000000 0.000000 0.030959 0.000000
# 6 0.000000 0.000000 0.000000 0.000000 0.000000 0.047732
#
#
# Mechanical properties :
#
#
# Convention : Reuss Voigt Hill
#
# Bulk Modulus (GPa) = 53.57473 66.73159 60.15316
# Shear Modulus (GPa) = 20.22671 22.89054 21.55862
#
# Velocity S-wave (km/s) = 3.40639 3.62376 3.51676
# Velocity P-wave (km/s) = 6.79748 7.46934 7.14131
#
# Compressibility (1/GPa) = 0.01866551
#
# Stress axis : x y z
#
# Youngs Moduli (GPa) = 36.40272 43.34433 47.69831
#
# Poissons Ratio (x) = 0.20694 0.39694
# Poissons Ratio (y) = 0.17380 0.63554
# Poissons Ratio (z) = 0.30294 0.57753
#
# Static dielectric constant tensor:
#      x y z
#    x 3.166990 0.000000 0.000000 
#    y 0.000000 3.593030 0.000000 
#    z 0.000000 0.000000 3.161990 
# 
# 
# High freq. dielectric constant tensor:
#      x y z
#    x 1.667410 0.000000 0.000000 
#    y 0.000000 1.677220 0.000000 
#    z 0.000000 0.000000 1.657130 
# 
# From -- ./inp_files/31663.got.cif
#   From: 2010.03.12/outbox.cif.g09.slc.cpg/sg59_16_cif.got.tgz:31663.got - 2010.04.16 16:29:54.
