data_PCOD8240592
_publ_section_title
;
Structure prediction by ZEFSAII (Michael W. Deem and Ramdas Pophale) SiO2 
 PCOD8240592
Probable space group: P M M N
;
_chemical_formula_sum "Si O2"
_cell_formula_units_Z 64
_cell_length_a 22.733972
_cell_length_b 9.389304
_cell_length_c 17.555587
_cell_angle_alpha 90.000000
_cell_angle_beta 90.000000
_cell_angle_gamma 90.000000
_cell_volume 3747.348437
_symmetry_space_group_name_H-M "P M M N"
_symmetry_group_IT_number 59
_space_group.IT_coordinate_system_code '2'
_symmetry_cell_setting 'orthorhombic'
loop_
_space_group_symop_operation_xyz
x,y,z
1/2-x,1/2-y,z
1/2+x,-y,-z
-x,1/2+y,-z
-x,-y,-z
1/2+x,1/2+y,-z
1/2-x,y,z
x,1/2-y,z
loop_
_atom_site_type_symbol
_atom_site_label
_atom_site_fract_x
_atom_site_fract_y
_atom_site_fract_z
Si Si1 0.421616 0.582600 0.347025
Si Si2 0.086615 0.416771 0.813568
Si Si3 0.350691 0.913922 0.082762
Si Si4 0.443379 0.590031 0.510343
Si Si5 0.014375 0.911195 0.073296
Si Si6 0.685569 0.081022 0.753727
Si Si7 0.183097 0.086100 0.934152
Si Si8 0.544048 0.417394 0.324542
O O1 0.433320 0.750000 0.328894
O O2 0.402022 0.561289 0.436462
O O3 0.366961 0.519622 0.298566
O O4 0.480490 0.495038 0.326807
O O5 0.090794 0.250000 0.792830
O O6 0.141425 0.466291 0.865635
O O7 0.086517 0.510706 0.737482
O O8 0.026430 0.456152 0.856644
O O9 0.334919 0.750000 0.066577
O O10 0.419351 0.934922 0.099058
O O11 0.319492 0.971678 0.158947
O O12 0.329011 0.001115 0.010800
O O13 0.500000 0.500000 0.500000
O O14 0.466170 0.750000 0.506906
O O15 0.419220 0.560395 0.595766
O O16 0.000864 0.750000 0.050193
O O17 0.000000 0.000000 0.000000
O O18 0.750000 0.032294 0.723081
O O19 0.680201 0.250000 0.752435
O O20 0.250000 0.062793 0.907575
O O21 0.169314 0.250000 0.952530
O O22 0.534610 0.250000 0.306773
#
# Coordination Sequence:
#
# PCOD8240592 Si02
#       8
#     8   8   8   8   8   8   8   8
#     4   9  16  30  51  71  97 130 159 190 235 286
#     4  10  20  34  50  69  95 126 159 195 238 285
#     4  10  19  31  49  71  95 122 155 194 237 283
#     4   8  15  27  45  70  97 123 150 185 229 281
#     4  10  19  31  48  70  94 121 154 192 237 286
#     4   9  17  29  47  71  96 125 163 200 230 274
#     4  10  21  36  52  68  88 120 163 204 238 278
#     4  10  19  30  47  74 102 124 155 198 243 289
#
# _framework density 17.078741999999998
#
# number of rings (size 3 to 8) (size 9 to 14) (size 15 to 20)
#    0.000    2.500    1.250    1.500    0.000    4.250 
#    0.000    1.875    0.000    1.875    0.000    1.750 
#    0.000    0.000    0.000    0.000    0.000    0.000 
#
# Total GULP energy -793054.192718 kJ/mol
# GULP energy per Si atom -12391.471761 kJ/mol
# Density = 1.703987 g / cm^3
# Si number density = 17.078742 Si / 1000 Ang^3
#
#
#
# Elastic Constant Matrix: (Units=GPa)
#
#
# Indices 1 2 3 4 5 6 
#
# 1 87.6235 25.4031 53.4584 0.0000 0.0000 0.0000
# 2 25.4031 49.3580 46.4903 0.0000 0.0000 0.0000
# 3 53.4584 46.4903 135.9150 0.0000 0.0000 0.0000
# 4 0.0000 0.0000 0.0000 25.9054 0.0000 0.0000
# 5 0.0000 0.0000 0.0000 0.0000 16.6941 0.0000
# 6 0.0000 0.0000 0.0000 0.0000 0.0000 16.1832
#
#
#
# Elastic Compliance Matrix: (Units=1/GPa)
#
#
# Indices 1 2 3 4 5 6 
#
# 1 0.015365 -0.003269 -0.004925 0.000000 0.000000 0.000000
# 2 -0.003269 0.030586 -0.009176 0.000000 0.000000 0.000000
# 3 -0.004925 -0.009176 0.012434 0.000000 0.000000 0.000000
# 4 0.000000 0.000000 0.000000 0.038602 0.000000 0.000000
# 5 0.000000 0.000000 0.000000 0.000000 0.059901 0.000000
# 6 0.000000 0.000000 0.000000 0.000000 0.000000 0.061792
#
#
# Mechanical properties :
#
#
# Convention : Reuss Voigt Hill
#
# Bulk Modulus (GPa) = 42.29495 58.17781 50.23638
# Shear Modulus (GPa) = 19.13495 21.59284 20.36390
#
# Velocity S-wave (km/s) = 3.35086 3.55957 3.45679
# Velocity P-wave (km/s) = 6.30789 7.14370 6.73877
#
# Compressibility (1/GPa) = 0.02364348
#
# Stress axis : x y z
#
# Youngs Moduli (GPa) = 65.08296 32.69511 80.42760
#
# Poissons Ratio (x) = 0.10687 0.39613
# Poissons Ratio (y) = 0.21274 0.73802
# Poissons Ratio (z) = 0.32055 0.30002
#
# Static dielectric constant tensor:
#      x y z
#    x 2.982090 0.000000 0.000000 
#    y 0.000000 3.095620 0.000000 
#    z 0.000000 0.000000 4.839650 
# 
# 
# High freq. dielectric constant tensor:
#      x y z
#    x 1.637930 0.000000 0.000000 
#    y 0.000000 1.645540 0.000000 
#    z 0.000000 0.000000 1.668590 
# 
# From -- ./inp_files/28399.got.cif
#   From: 2010.03.12/outbox.cif.g09.slc.cpg/sg59_15_cif.got.tgz:28399.got - 2010.04.16 16:29:54.
