data_PCOD8240237
_publ_section_title
;
Structure prediction by ZEFSAII (Michael W. Deem and Ramdas Pophale) SiO2 
 PCOD8240237
Probable space group: P M M N
;
_chemical_formula_sum "Si O2"
_cell_formula_units_Z 56
_cell_length_a 20.268876
_cell_length_b 8.680605
_cell_length_c 16.170520
_cell_angle_alpha 90.000000
_cell_angle_beta 90.000000
_cell_angle_gamma 90.000000
_cell_volume 2845.140032
_symmetry_space_group_name_H-M "P M M N"
_symmetry_group_IT_number 59
_space_group.IT_coordinate_system_code '2'
_symmetry_cell_setting 'orthorhombic'
loop_
_space_group_symop_operation_xyz
x,y,z
1/2-x,1/2-y,z
1/2+x,-y,-z
-x,1/2+y,-z
-x,-y,-z
1/2+x,1/2+y,-z
1/2-x,y,z
x,1/2-y,z
loop_
_atom_site_type_symbol
_atom_site_label
_atom_site_fract_x
_atom_site_fract_y
_atom_site_fract_z
Si Si1 0.994046 0.432431 0.590374
Si Si2 0.445718 0.068391 0.114783
Si Si3 0.414785 0.928957 0.950555
Si Si4 0.250000 0.567148 0.341609
Si Si5 0.250000 0.433776 0.523555
Si Si6 0.112554 0.433650 0.288029
Si Si7 0.673674 0.578243 0.176351
Si Si8 0.362480 0.431391 0.645957
O O1 0.983981 0.250000 0.587174
O O2 0.932634 0.508489 0.636804
O O3 0.000000 0.500000 0.500000
O O4 0.061948 0.480118 0.634725
O O5 0.443143 0.250000 0.119027
O O6 0.519861 0.007980 0.096653
O O7 0.418567 0.003710 0.201920
O O8 0.401401 0.011215 0.038283
O O9 0.421484 0.750000 0.968439
O O10 0.353592 0.964325 0.892550
O O11 0.250000 0.750000 0.334926
O O12 0.250000 0.517578 0.436527
O O13 0.185729 0.501013 0.295872
O O14 0.250000 0.250000 0.509530
O O15 0.315015 0.492414 0.572847
O O16 0.116119 0.250000 0.291444
O O17 0.750000 0.591166 0.160139
O O18 0.641816 0.750000 0.169711
O O19 0.659982 0.502072 0.265765
O O20 0.352554 0.250000 0.647515
#
# Coordination Sequence:
#
# PCOD8240237 Si02
#       8
#     8   8   8   4   4   8   8   8
#     4  11  22  36  57  88 123 157 198 250 302 352
#     4   9  20  39  62  86 112 148 193 236 286 349
#     4  10  20  35  58  88 119 148 183 233 288 340
#     4  12  26  42  60  85 116 149 192 245 302 359
#     4  10  18  36  62  85 114 157 204 243 288 349
#     4  11  23  42  64  86 114 154 201 247 298 354
#     4  10  19  34  55  81 114 153 195 232 274 336
#     4   9  18  33  57  85 114 153 199 241 283 338
#
# _framework density 19.682686
#
# number of rings (size 3 to 8) (size 9 to 14) (size 15 to 20)
#    0.000    1.857    0.714    3.643    0.000    3.143 
#    1.286    2.143    0.000    0.000    0.000    0.000 
#    0.000    0.000    0.000    0.000    0.000    0.000 
#
# Total GULP energy -694442.661221 kJ/mol
# GULP energy per Si atom -12400.761808 kJ/mol
# Density = 1.963789 g / cm^3
# Si number density = 19.682686 Si / 1000 Ang^3
#
#
#
# Elastic Constant Matrix: (Units=GPa)
#
#
# Indices 1 2 3 4 5 6 
#
# 1 116.0674 36.0897 58.4466 0.0000 0.0000 0.0000
# 2 36.0897 52.7270 33.5565 0.0000 0.0000 0.0000
# 3 58.4466 33.5565 154.4914 0.0000 0.0000 0.0000
# 4 0.0000 0.0000 0.0000 24.4229 0.0000 0.0000
# 5 0.0000 0.0000 0.0000 0.0000 36.1677 0.0000
# 6 0.0000 0.0000 0.0000 0.0000 0.0000 26.9443
#
#
#
# Elastic Compliance Matrix: (Units=1/GPa)
#
#
# Indices 1 2 3 4 5 6 
#
# 1 0.012208 -0.006286 -0.003253 0.000000 0.000000 0.000000
# 2 -0.006286 0.025244 -0.003105 0.000000 0.000000 0.000000
# 3 -0.003253 -0.003105 0.008378 0.000000 0.000000 0.000000
# 4 0.000000 0.000000 0.000000 0.040945 0.000000 0.000000
# 5 0.000000 0.000000 0.000000 0.000000 0.027649 0.000000
# 6 0.000000 0.000000 0.000000 0.000000 0.000000 0.037114
#
#
# Mechanical properties :
#
#
# Convention : Reuss Voigt Hill
#
# Bulk Modulus (GPa) = 48.68034 64.38571 56.53303
# Shear Modulus (GPa) = 27.22209 30.51984 28.87096
#
# Velocity S-wave (km/s) = 3.72297 3.94203 3.83406
# Velocity P-wave (km/s) = 6.57776 7.31453 6.95591
#
# Compressibility (1/GPa) = 0.02054217
#
# Stress axis : x y z
#
# Youngs Moduli (GPa) = 81.91088 39.61311 119.35860
#
# Poissons Ratio (x) = 0.24900 0.38831
# Poissons Ratio (y) = 0.51487 0.37063
# Poissons Ratio (z) = 0.26648 0.12301
#
# Static dielectric constant tensor:
#      x y z
#    x 3.814500 0.000000 0.000000 
#    y 0.000000 3.433380 0.000000 
#    z 0.000000 0.000000 3.763630 
# 
# 
# High freq. dielectric constant tensor:
#      x y z
#    x 1.769250 0.000000 0.000000 
#    y 0.000000 1.751250 0.000000 
#    z 0.000000 0.000000 1.778690 
# 
# From -- ./inp_files/24338.got.cif
#   From: 2010.03.12/outbox.cif.g09.slc.cpg/sg59_13_cif.got.tgz:24338.got - 2010.04.16 16:29:54.
