data_PCOD8240886
_publ_section_title
;
Structure prediction by ZEFSAII (Michael W. Deem and Ramdas Pophale) SiO2 
 PCOD8240886
Probable space group: P M M N
;
_chemical_formula_sum "Si O2"
_cell_formula_units_Z 64
_cell_length_a 19.742270
_cell_length_b 9.150456
_cell_length_c 19.743425
_cell_angle_alpha 90.000000
_cell_angle_beta 90.000000
_cell_angle_gamma 90.000000
_cell_volume 3566.664987
_symmetry_space_group_name_H-M "P M M N"
_symmetry_group_IT_number 59
_space_group.IT_coordinate_system_code '2'
_symmetry_cell_setting 'orthorhombic'
loop_
_space_group_symop_operation_xyz
x,y,z
1/2-x,1/2-y,z
1/2+x,-y,-z
-x,1/2+y,-z
-x,-y,-z
1/2+x,1/2+y,-z
1/2-x,y,z
x,1/2-y,z
loop_
_atom_site_type_symbol
_atom_site_label
_atom_site_fract_x
_atom_site_fract_y
_atom_site_fract_z
Si Si1 0.420413 0.583480 0.735543
Si Si2 0.827149 0.087462 0.141166
Si Si3 0.927568 0.921825 0.397439
Si Si4 0.582206 0.080749 0.622160
Si Si5 0.328028 0.077926 0.481112
Si Si6 0.919533 0.582367 0.051491
Si Si7 0.552526 0.421280 0.773669
Si Si8 0.448224 0.418716 0.097397
O O1 0.444822 0.750000 0.723490
O O2 0.356853 0.573606 0.784090
O O3 0.397882 0.511559 0.665121
O O4 0.478376 0.489581 0.771097
O O5 0.750000 0.054712 0.152235
O O6 0.841313 0.250000 0.111570
O O7 0.851669 0.964894 0.088884
O O8 0.921838 0.750000 0.382218
O O9 0.880133 0.969653 0.459835
O O10 0.007390 0.963984 0.406358
O O11 0.594641 0.250000 0.607382
O O12 0.589582 0.046102 0.702408
O O13 0.642456 0.991921 0.587159
O O14 0.250000 0.025497 0.494399
O O15 0.328986 0.250000 0.471730
O O16 0.938702 0.750000 0.066538
O O17 0.977438 0.479588 0.081708
O O18 0.905489 0.559616 0.971314
O O19 0.547027 0.250000 0.786501
O O20 0.587722 0.496184 0.839575
O O21 0.455347 0.250000 0.118186
#
# Coordination Sequence:
#
# PCOD8240886 Si02
#       8
#     8   8   8   8   8   8   8   8
#     4  10  19  31  49  74 102 133 171 210 252 303
#     4  10  21  35  49  68 101 141 177 214 253 300
#     4   9  19  35  53  75 106 138 172 217 262 310
#     4   9  19  34  53  78 105 136 173 215 262 312
#     4  10  21  36  54  77 105 137 174 217 265 317
#     4  10  20  32  49  74 102 133 171 211 253 303
#     4  10  19  32  52  78 106 132 164 209 260 310
#     4  10  19  31  50  77 105 131 163 210 261 304
#
# _framework density 17.943933000000001
#
# number of rings (size 3 to 8) (size 9 to 14) (size 15 to 20)
#    0.000    2.250    1.250    2.625    0.000    6.000 
#    0.000    0.000    0.000    0.750    0.000    0.000 
#    0.000    0.000    0.000    0.000    0.000    0.000 
#
# Total GULP energy -793347.889133 kJ/mol
# GULP energy per Si atom -12396.060768 kJ/mol
# Density = 1.790309 g / cm^3
# Si number density = 17.943933 Si / 1000 Ang^3
#
#
#
# Elastic Constant Matrix: (Units=GPa)
#
#
# Indices 1 2 3 4 5 6 
#
# 1 66.6068 27.5038 38.8957 0.0000 0.0000 0.0000
# 2 27.5038 78.0019 53.3130 0.0000 0.0000 0.0000
# 3 38.8957 53.3130 115.8493 0.0000 0.0000 0.0000
# 4 0.0000 0.0000 0.0000 36.8270 0.0000 0.0000
# 5 0.0000 0.0000 0.0000 0.0000 19.3117 0.0000
# 6 0.0000 0.0000 0.0000 0.0000 0.0000 21.6669
#
#
#
# Elastic Compliance Matrix: (Units=1/GPa)
#
#
# Indices 1 2 3 4 5 6 
#
# 1 0.019297 -0.003466 -0.004884 0.000000 0.000000 0.000000
# 2 -0.003466 0.019326 -0.007730 0.000000 0.000000 0.000000
# 3 -0.004884 -0.007730 0.013829 0.000000 0.000000 0.000000
# 4 0.000000 0.000000 0.000000 0.027154 0.000000 0.000000
# 5 0.000000 0.000000 0.000000 0.000000 0.051782 0.000000
# 6 0.000000 0.000000 0.000000 0.000000 0.000000 0.046153
#
#
# Mechanical properties :
#
#
# Convention : Reuss Voigt Hill
#
# Bulk Modulus (GPa) = 49.28096 55.54253 52.41175
# Shear Modulus (GPa) = 23.09860 24.94414 24.02137
#
# Velocity S-wave (km/s) = 3.59174 3.73247 3.66278
# Velocity P-wave (km/s) = 6.68762 7.04242 6.86731
#
# Compressibility (1/GPa) = 0.02029181
#
# Stress axis : x y z
#
# Youngs Moduli (GPa) = 51.82267 51.74502 72.31341
#
# Poissons Ratio (x) = 0.17936 0.35315
# Poissons Ratio (y) = 0.17963 0.55896
# Poissons Ratio (z) = 0.25308 0.39997
#
# Static dielectric constant tensor:
#      x y z
#    x 3.040670 0.000000 0.000000 
#    y 0.000000 3.424340 0.000000 
#    z 0.000000 0.000000 3.667370 
# 
# 
# High freq. dielectric constant tensor:
#      x y z
#    x 1.653700 0.000000 0.000000 
#    y 0.000000 1.703290 0.000000 
#    z 0.000000 0.000000 1.707450 
# 
# From -- ./inp_files/30990.got.cif
#   From: 2010.03.12/outbox.cif.g09.slc.cpg/sg59_16_cif.got.tgz:30990.got - 2010.04.16 16:29:54.
