data_PCOD8240740
_publ_section_title
;
Structure prediction by ZEFSAII (Michael W. Deem and Ramdas Pophale) SiO2 
 PCOD8240740
Probable space group: P M M N
;
_chemical_formula_sum "Si O2"
_cell_formula_units_Z 48
_cell_length_a 16.727064
_cell_length_b 9.373796
_cell_length_c 18.207532
_cell_angle_alpha 90.000000
_cell_angle_beta 90.000000
_cell_angle_gamma 90.000000
_cell_volume 2854.869746
_symmetry_space_group_name_H-M "P M M N"
_symmetry_group_IT_number 59
_space_group.IT_coordinate_system_code '2'
_symmetry_cell_setting 'orthorhombic'
loop_
_space_group_symop_operation_xyz
x,y,z
1/2-x,1/2-y,z
1/2+x,-y,-z
-x,1/2+y,-z
-x,-y,-z
1/2+x,1/2+y,-z
1/2-x,y,z
x,1/2-y,z
loop_
_atom_site_type_symbol
_atom_site_label
_atom_site_fract_x
_atom_site_fract_y
_atom_site_fract_z
Si Si1 0.513418 0.419355 0.575053
Si Si2 0.009693 0.919089 0.924237
Si Si3 0.427611 0.591411 0.193598
Si Si4 0.839336 0.414637 0.170853
Si Si5 0.338158 0.919626 0.332174
Si Si6 0.914273 0.906426 0.289258
O O1 0.500000 0.500000 0.500000
O O2 0.516217 0.250000 0.562082
O O3 0.597111 0.476697 0.609285
O O4 0.440131 0.459999 0.629684
O O5 0.999852 0.750000 0.934913
O O6 0.096558 0.961051 0.890870
O O7 0.939392 0.977430 0.871472
O O8 0.000000 0.000000 0.000000
O O9 0.407188 0.750000 0.161664
O O10 0.358693 0.533588 0.248359
O O11 0.506632 0.604081 0.241374
O O12 0.750000 0.449216 0.141469
O O13 0.850692 0.250000 0.188375
O O14 0.851692 0.490307 0.249451
O O15 0.250000 0.978475 0.352611
O O16 0.340775 0.750000 0.333901
O O17 0.874506 0.750000 0.294917
#
# Coordination Sequence:
#
# PCOD8240740 Si02
#       6
#     8   8   8   8   8   8
#     4   9  17  29  46  68  94 123 154 187 223 268
#     4  10  19  31  48  68  92 121 150 182 220 266
#     4   8  14  27  47  67  86 111 146 184 220 263
#     4   9  18  32  49  69  90 113 148 193 232 263
#     4   8  14  27  48  70  89 114 152 193 228 265
#     4   8  15  28  45  65  88 116 149 181 218 267
#
# _framework density 16.813376000000002
#
# number of rings (size 3 to 8) (size 9 to 14) (size 15 to 20)
#    0.000    3.333    0.000    2.500    0.000    1.667 
#    0.000    4.167    0.000   10.000    0.000    0.000 
#    0.000    0.000    0.000    0.000    0.000    0.000 
#
# Total GULP energy -594781.782844 kJ/mol
# GULP energy per Si atom -12391.287143 kJ/mol
# Density = 1.677511 g / cm^3
# Si number density = 16.813376 Si / 1000 Ang^3
#
#
#
# Elastic Constant Matrix: (Units=GPa)
#
#
# Indices 1 2 3 4 5 6 
#
# 1 89.0621 33.4339 52.2545 0.0000 0.0000 0.0000
# 2 33.4339 61.5746 57.2338 0.0000 0.0000 0.0000
# 3 52.2545 57.2338 135.2784 0.0000 0.0000 0.0000
# 4 0.0000 0.0000 0.0000 33.7427 0.0000 0.0000
# 5 0.0000 0.0000 0.0000 0.0000 18.4576 0.0000
# 6 0.0000 0.0000 0.0000 0.0000 0.0000 17.3885
#
#
#
# Elastic Compliance Matrix: (Units=1/GPa)
#
#
# Indices 1 2 3 4 5 6 
#
# 1 0.015280 -0.004632 -0.003943 0.000000 0.000000 0.000000
# 2 -0.004632 0.028171 -0.010129 0.000000 0.000000 0.000000
# 3 -0.003943 -0.010129 0.013201 0.000000 0.000000 0.000000
# 4 0.000000 0.000000 0.000000 0.029636 0.000000 0.000000
# 5 0.000000 0.000000 0.000000 0.000000 0.054178 0.000000
# 6 0.000000 0.000000 0.000000 0.000000 0.000000 0.057509
#
#
# Mechanical properties :
#
#
# Convention : Reuss Voigt Hill
#
# Bulk Modulus (GPa) = 51.96548 63.52882 57.74715
# Shear Modulus (GPa) = 20.67845 23.45064 22.06454
#
# Velocity S-wave (km/s) = 3.51077 3.73870 3.62653
# Velocity P-wave (km/s) = 6.88537 7.51691 7.20806
#
# Compressibility (1/GPa) = 0.01924354
#
# Stress axis : x y z
#
# Youngs Moduli (GPa) = 65.44406 35.49767 75.75451
#
# Poissons Ratio (x) = 0.16444 0.29866
# Poissons Ratio (y) = 0.30316 0.76733
# Poissons Ratio (z) = 0.25801 0.35956
#
# Static dielectric constant tensor:
#      x y z
#    x 3.375000 0.000000 0.000000 
#    y 0.000000 3.323270 0.000000 
#    z 0.000000 0.000000 3.205470 
# 
# 
# High freq. dielectric constant tensor:
#      x y z
#    x 1.631830 0.000000 0.000000 
#    y 0.000000 1.631100 0.000000 
#    z 0.000000 0.000000 1.639810 
# 
# From -- ./inp_files/25731.got.cif
#   From: 2010.03.12/outbox.cif.g09.slc.cpg/sg59_13_cif.got.tgz:25731.got - 2010.04.16 16:29:54.
