data_PCOD8240276
_publ_section_title
;
Structure prediction by ZEFSAII (Michael W. Deem and Ramdas Pophale) SiO2 
 PCOD8240276
Probable space group: P M M N
;
_chemical_formula_sum "Si O2"
_cell_formula_units_Z 56
_cell_length_a 24.628598
_cell_length_b 9.171485
_cell_length_c 15.860259
_cell_angle_alpha 90.000000
_cell_angle_beta 90.000000
_cell_angle_gamma 90.000000
_cell_volume 3582.528263
_symmetry_space_group_name_H-M "P M M N"
_symmetry_group_IT_number 59
_space_group.IT_coordinate_system_code '2'
_symmetry_cell_setting 'orthorhombic'
loop_
_space_group_symop_operation_xyz
x,y,z
1/2-x,1/2-y,z
1/2+x,-y,-z
-x,1/2+y,-z
-x,-y,-z
1/2+x,1/2+y,-z
1/2-x,y,z
x,1/2-y,z
loop_
_atom_site_type_symbol
_atom_site_label
_atom_site_fract_x
_atom_site_fract_y
_atom_site_fract_z
Si Si1 0.582729 0.921199 0.006553
Si Si2 0.015811 0.579637 0.126539
Si Si3 0.687054 0.914405 0.283877
Si Si4 0.393715 0.919700 0.603374
Si Si5 0.052425 0.081368 0.467282
Si Si6 0.690258 0.923381 0.094362
Si Si7 0.003794 0.084865 0.297066
O O1 0.583265 0.750000 0.987772
O O2 0.541093 0.959254 0.081810
O O3 0.642518 0.979577 0.032914
O O4 0.565549 0.002915 0.921653
O O5 0.027252 0.750000 0.126030
O O6 0.014271 0.525847 0.221893
O O7 0.750000 0.913704 0.306972
O O8 0.663359 0.750000 0.292130
O O9 0.678002 0.975948 0.189390
O O10 0.658454 0.023203 0.347835
O O11 0.387276 0.750000 0.584013
O O12 0.446654 0.953163 0.659397
O O13 0.396652 0.004045 0.513190
O O14 0.049807 0.250000 0.494070
O O15 0.052674 0.067003 0.365386
O O16 0.000000 0.000000 0.500000
O O17 0.750000 0.980691 0.064600
O O18 0.690957 0.750000 0.095701
O O19 0.002706 0.250000 0.262009
#
# Coordination Sequence:
#
# PCOD8240276 Si02
#       7
#     8   8   8   8   8   8   8
#     4   9  17  29  43  61  87 115 143 178 218 258
#     4  10  19  28  42  63  86 116 148 177 214 261
#     4   9  17  29  45  65  89 117 149 182 214 252
#     4  10  19  29  43  64  90 119 147 177 215 256
#     4   9  17  29  44  63  87 113 142 174 210 253
#     4   8  14  26  45  66  85 110 147 184 216 255
#     4   9  18  30  43  62  87 114 143 176 214 254
#
# _framework density 15.631418999999999
#
# number of rings (size 3 to 8) (size 9 to 14) (size 15 to 20)
#    0.000    2.857    0.000    3.857    0.000    5.429 
#    0.000    0.714    0.000    1.286    0.000    1.000 
#    0.000    3.429    0.000    0.000    0.000    0.000 
#
# Total GULP energy -694155.997694 kJ/mol
# GULP energy per Si atom -12395.642816 kJ/mol
# Density = 1.559584 g / cm^3
# Si number density = 15.631419 Si / 1000 Ang^3
#
#
#
# Elastic Constant Matrix: (Units=GPa)
#
#
# Indices 1 2 3 4 5 6 
#
# 1 75.9701 32.1088 37.3106 0.0000 0.0000 0.0000
# 2 32.1088 74.3054 43.8827 0.0000 0.0000 0.0000
# 3 37.3106 43.8827 78.4824 0.0000 0.0000 0.0000
# 4 0.0000 0.0000 0.0000 26.8077 0.0000 0.0000
# 5 0.0000 0.0000 0.0000 0.0000 25.1399 0.0000
# 6 0.0000 0.0000 0.0000 0.0000 0.0000 19.8849
#
#
#
# Elastic Compliance Matrix: (Units=1/GPa)
#
#
# Indices 1 2 3 4 5 6 
#
# 1 0.017956 -0.004058 -0.006268 0.000000 0.000000 0.000000
# 2 -0.004058 0.021010 -0.009818 0.000000 0.000000 0.000000
# 3 -0.006268 -0.009818 0.021211 0.000000 0.000000 0.000000
# 4 0.000000 0.000000 0.000000 0.037303 0.000000 0.000000
# 5 0.000000 0.000000 0.000000 0.000000 0.039777 0.000000
# 6 0.000000 0.000000 0.000000 0.000000 0.000000 0.050289
#
#
# Mechanical properties :
#
#
# Convention : Reuss Voigt Hill
#
# Bulk Modulus (GPa) = 50.27698 50.59581 50.43639
# Shear Modulus (GPa) = 21.32521 22.06354 21.69438
#
# Velocity S-wave (km/s) = 3.69759 3.76105 3.72945
# Velocity P-wave (km/s) = 7.10376 7.16233 7.13310
#
# Compressibility (1/GPa) = 0.01988982
#
# Stress axis : x y z
#
# Youngs Moduli (GPa) = 55.69091 47.59654 47.14495
#
# Poissons Ratio (x) = 0.19314 0.29548
# Poissons Ratio (y) = 0.22598 0.46289
# Poissons Ratio (z) = 0.34904 0.46732
#
# Static dielectric constant tensor:
#      x y z
#    x 3.074330 0.000000 0.000000 
#    y 0.000000 2.960260 0.000000 
#    z 0.000000 0.000000 3.256450 
# 
# 
# High freq. dielectric constant tensor:
#      x y z
#    x 1.575130 0.000000 0.000000 
#    y 0.000000 1.597560 0.000000 
#    z 0.000000 0.000000 1.588630 
# 
# From -- ./inp_files/28025.got.cif
#   From: 2010.03.12/outbox.cif.g09.slc.cpg/sg59_15_cif.got.tgz:28025.got - 2010.04.16 16:29:54.
