data_PCOD8240998
_publ_section_title
;
Structure prediction by ZEFSAII (Michael W. Deem and Ramdas Pophale) SiO2 
 PCOD8240998
Probable space group: P M M N
;
_chemical_formula_sum "Si O2"
_cell_formula_units_Z 64
_cell_length_a 9.133324
_cell_length_b 21.725295
_cell_length_c 16.638795
_cell_angle_alpha 90.000000
_cell_angle_beta 90.000000
_cell_angle_gamma 90.000000
_cell_volume 3301.538892
_symmetry_space_group_name_H-M "P M M N"
_symmetry_group_IT_number 59
_space_group.IT_coordinate_system_code '2'
_symmetry_cell_setting 'orthorhombic'
loop_
_space_group_symop_operation_xyz
x,y,z
1/2-x,1/2-y,z
1/2+x,-y,-z
-x,1/2+y,-z
-x,-y,-z
1/2+x,1/2+y,-z
1/2-x,y,z
x,1/2-y,z
loop_
_atom_site_type_symbol
_atom_site_label
_atom_site_fract_x
_atom_site_fract_y
_atom_site_fract_z
Si Si1 0.577858 0.679438 0.289080
Si Si2 0.920464 0.944054 0.590121
Si Si3 0.417415 0.095375 0.016164
Si Si4 0.912663 0.320157 0.127371
Si Si5 0.913982 0.979119 0.837663
Si Si6 0.078610 0.430332 0.593336
Si Si7 0.584531 0.392271 0.274336
Si Si8 0.415923 0.617116 0.147371
O O1 0.750000 0.673229 0.275839
O O2 0.537406 0.750000 0.314370
O O3 0.525559 0.630610 0.357782
O O4 0.502327 0.664564 0.203913
O O5 0.750000 0.953630 0.602551
O O6 0.958869 0.921642 0.500667
O O7 0.980793 0.890222 0.647686
O O8 0.995396 0.007714 0.619486
O O9 0.250000 0.100821 0.987802
O O10 0.455708 0.146954 0.081820
O O11 0.444806 0.031304 0.065900
O O12 0.517777 0.109159 0.940599
O O13 0.750000 0.345409 0.102976
O O14 0.925293 0.250000 0.104814
O O15 0.931627 0.329287 0.223791
O O16 0.750000 0.953625 0.818537
O O17 0.037802 0.946916 0.785609
O O18 0.922384 0.050131 0.812907
O O19 0.250000 0.441178 0.607163
O O20 0.750000 0.404169 0.303063
O O21 0.250000 0.641221 0.138831
#
# Coordination Sequence:
#
# PCOD8240998 Si02
#       8
#     8   8   8   8   8   8   8   8
#     4  10  22  40  58  75 100 137 181 224 262 304
#     4  10  19  32  54  84 113 136 164 207 258 311
#     4  10  20  34  53  77 104 134 171 216 264 311
#     4   9  19  36  54  71  97 135 175 213 253 298
#     4   9  19  34  52  77 108 138 169 211 261 308
#     4   9  19  36  57  80 105 136 172 211 258 308
#     4  10  19  31  51  78 106 137 170 204 248 303
#     4  11  22  35  53  77 104 135 172 213 259 311
#
# _framework density 19.384899999999998
#
# number of rings (size 3 to 8) (size 9 to 14) (size 15 to 20)
#    0.000    2.250    0.000    2.625    0.000    6.000 
#    0.000    0.625    0.000    0.750    0.000    0.000 
#    0.000    0.000    0.000    0.000    0.000    0.000 
#
# Total GULP energy -793191.004787 kJ/mol
# GULP energy per Si atom -12393.609450 kJ/mol
# Density = 1.934078 g / cm^3
# Si number density = 19.384900 Si / 1000 Ang^3
#
#
#
# Elastic Constant Matrix: (Units=GPa)
#
#
# Indices 1 2 3 4 5 6 
#
# 1 50.0837 16.8248 23.4993 0.0000 0.0000 0.0000
# 2 16.8248 63.3489 18.3538 0.0000 0.0000 0.0000
# 3 23.4993 18.3538 83.0770 0.0000 0.0000 0.0000
# 4 0.0000 0.0000 0.0000 21.4421 0.0000 0.0000
# 5 0.0000 0.0000 0.0000 0.0000 35.1500 0.0000
# 6 0.0000 0.0000 0.0000 0.0000 0.0000 21.6943
#
#
#
# Elastic Compliance Matrix: (Units=1/GPa)
#
#
# Indices 1 2 3 4 5 6 
#
# 1 0.024299 -0.004767 -0.005820 0.000000 0.000000 0.000000
# 2 -0.004767 0.017800 -0.002584 0.000000 0.000000 0.000000
# 3 -0.005820 -0.002584 0.014254 0.000000 0.000000 0.000000
# 4 0.000000 0.000000 0.000000 0.046637 0.000000 0.000000
# 5 0.000000 0.000000 0.000000 0.000000 0.028450 0.000000
# 6 0.000000 0.000000 0.000000 0.000000 0.000000 0.046095
#
#
# Mechanical properties :
#
#
# Convention : Reuss Voigt Hill
#
# Bulk Modulus (GPa) = 33.32149 34.87393 34.09771
# Shear Modulus (GPa) = 23.37746 24.84607 24.11176
#
# Velocity S-wave (km/s) = 3.47646 3.58400 3.53064
# Velocity P-wave (km/s) = 5.77418 5.92925 5.85223
#
# Compressibility (1/GPa) = 0.03001067
#
# Stress axis : x y z
#
# Youngs Moduli (GPa) = 41.15431 56.17848 70.15493
#
# Poissons Ratio (x) = 0.26782 0.40830
# Poissons Ratio (y) = 0.19619 0.18129
# Poissons Ratio (z) = 0.23952 0.14517
#
# Static dielectric constant tensor:
#      x y z
#    x 3.589050 0.000000 0.000000 
#    y 0.000000 3.477690 0.000000 
#    z 0.000000 0.000000 3.587440 
# 
# 
# High freq. dielectric constant tensor:
#      x y z
#    x 1.759840 0.000000 0.000000 
#    y 0.000000 1.731110 0.000000 
#    z 0.000000 0.000000 1.756120 
# 
# From -- ./inp_files/26271.got.cif
#   From: 2010.03.12/outbox.cif.g09.slc.cpg/sg59_14_cif.got.tgz:26271.got - 2010.04.16 16:29:54.
