data_PCOD8240437
_publ_section_title
;
Structure prediction by ZEFSAII (Michael W. Deem and Ramdas Pophale) SiO2 
 PCOD8240437
Probable space group: P M M N
;
_chemical_formula_sum "Si O2"
_cell_formula_units_Z 64
_cell_length_a 20.741718
_cell_length_b 17.349294
_cell_length_c 10.999725
_cell_angle_alpha 90.000000
_cell_angle_beta 90.000000
_cell_angle_gamma 90.000000
_cell_volume 3958.296840
_symmetry_space_group_name_H-M "P M M N"
_symmetry_group_IT_number 59
_space_group.IT_coordinate_system_code '2'
_symmetry_cell_setting 'orthorhombic'
loop_
_space_group_symop_operation_xyz
x,y,z
1/2-x,1/2-y,z
1/2+x,-y,-z
-x,1/2+y,-z
-x,-y,-z
1/2+x,1/2+y,-z
1/2-x,y,z
x,1/2-y,z
loop_
_atom_site_type_symbol
_atom_site_label
_atom_site_fract_x
_atom_site_fract_y
_atom_site_fract_z
Si Si1 0.979571 0.837702 0.437600
Si Si2 0.107158 0.076324 0.383707
Si Si3 0.321447 0.336409 0.195682
Si Si4 0.926037 0.840052 0.997752
Si Si5 0.504732 0.080747 0.199417
Si Si6 0.172550 0.515024 0.589944
Si Si7 0.420241 0.433308 0.765834
Si Si8 0.407661 0.662144 0.616263
O O1 0.969722 0.750000 0.394168
O O2 0.924311 0.856857 0.534997
O O3 0.972128 0.896045 0.325763
O O4 0.050585 0.849621 0.493673
O O5 0.167799 0.111053 0.312947
O O6 0.054162 0.050337 0.283981
O O7 0.136014 0.007141 0.464612
O O8 0.250000 0.347365 0.147465
O O9 0.336871 0.250000 0.237966
O O10 0.364332 0.359124 0.082205
O O11 0.942359 0.750000 0.008055
O O12 0.985034 0.883150 0.930382
O O13 0.907328 0.871476 0.129816
O O14 0.545810 0.145617 0.269731
O O15 0.548937 0.007701 0.170988
O O16 0.250000 0.507219 0.581944
O O17 0.145587 0.458457 0.696214
O O18 0.153049 0.603843 0.615655
O O19 0.382040 0.750000 0.625642
#
# Coordination Sequence:
#
# PCOD8240437 Si02
#       8
#     8   8   8   8   8   8   8   8
#     4   9  16  27  45  68  91 114 140 174 221 270
#     4   9  16  28  46  65  86 110 142 182 218 252
#     4   9  17  28  42  60  82 111 146 179 208 240
#     4  10  19  30  45  64  86 113 144 179 217 257
#     4   9  17  30  48  68  86 109 142 184 227 262
#     4  10  20  31  44  64  90 121 151 176 209 258
#     4  10  19  30  44  63  91 119 143 174 217 266
#     4   9  17  30  48  68  89 112 142 182 223 261
#
# _framework density 16.168569999999999
#
# number of rings (size 3 to 8) (size 9 to 14) (size 15 to 20)
#    0.000    2.625    0.000    2.625    0.000    6.750 
#    0.000    0.000    0.000    7.125    0.000    0.000 
#    0.000    0.000    0.000   17.750    0.000    0.000 
#
# Total GULP energy -793216.399865 kJ/mol
# GULP energy per Si atom -12394.006248 kJ/mol
# Density = 1.613177 g / cm^3
# Si number density = 16.168570 Si / 1000 Ang^3
#
#
#
# Elastic Constant Matrix: (Units=GPa)
#
#
# Indices 1 2 3 4 5 6 
#
# 1 62.5334 24.6598 20.0541 0.0000 0.0000 0.0000
# 2 24.6598 78.6404 28.8941 0.0000 0.0000 0.0000
# 3 20.0541 28.8941 68.4302 0.0000 0.0000 0.0000
# 4 0.0000 0.0000 0.0000 26.2997 0.0000 0.0000
# 5 0.0000 0.0000 0.0000 0.0000 11.0075 0.0000
# 6 0.0000 0.0000 0.0000 0.0000 0.0000 19.9061
#
#
#
# Elastic Compliance Matrix: (Units=1/GPa)
#
#
# Indices 1 2 3 4 5 6 
#
# 1 0.018972 -0.004624 -0.003608 0.000000 0.000000 0.000000
# 2 -0.004624 0.016178 -0.005476 0.000000 0.000000 0.000000
# 3 -0.003608 -0.005476 0.017983 0.000000 0.000000 0.000000
# 4 0.000000 0.000000 0.000000 0.038023 0.000000 0.000000
# 5 0.000000 0.000000 0.000000 0.000000 0.090847 0.000000
# 6 0.000000 0.000000 0.000000 0.000000 0.000000 0.050236
#
#
# Mechanical properties :
#
#
# Convention : Reuss Voigt Hill
#
# Bulk Modulus (GPa) = 38.88302 39.64666 39.26484
# Shear Modulus (GPa) = 18.64101 20.50906 19.57504
#
# Velocity S-wave (km/s) = 3.39915 3.56540 3.48326
# Velocity P-wave (km/s) = 6.28541 6.44387 6.36513
#
# Compressibility (1/GPa) = 0.02571817
#
# Stress axis : x y z
#
# Youngs Moduli (GPa) = 52.71022 61.81250 55.60849
#
# Poissons Ratio (x) = 0.28579 0.20061
# Poissons Ratio (y) = 0.24371 0.30451
# Poissons Ratio (z) = 0.19015 0.33849
#
# Static dielectric constant tensor:
#      x y z
#    x 2.912550 0.000000 0.000000 
#    y 0.000000 3.082140 0.000000 
#    z 0.000000 0.000000 3.006800 
# 
# 
# High freq. dielectric constant tensor:
#      x y z
#    x 1.601700 0.000000 0.000000 
#    y 0.000000 1.623630 0.000000 
#    z 0.000000 0.000000 1.614690 
# 
# From -- ./inp_files/18008.got.cif
#   From: 2010.03.12/outbox.cif.g09.slc.cpg/sg59_10_cif.got.tgz:18008.got - 2010.04.16 16:29:54.
