data_PCOD8240730
_publ_section_title
;
Structure prediction by ZEFSAII (Michael W. Deem and Ramdas Pophale) SiO2 
 PCOD8240730
Probable space group: P M M N
;
_chemical_formula_sum "Si O2"
_cell_formula_units_Z 64
_cell_length_a 9.041217
_cell_length_b 28.323766
_cell_length_c 15.614012
_cell_angle_alpha 90.000000
_cell_angle_beta 90.000000
_cell_angle_gamma 90.000000
_cell_volume 3998.456720
_symmetry_space_group_name_H-M "P M M N"
_symmetry_group_IT_number 59
_space_group.IT_coordinate_system_code '2'
_symmetry_cell_setting 'orthorhombic'
loop_
_space_group_symop_operation_xyz
x,y,z
1/2-x,1/2-y,z
1/2+x,-y,-z
-x,1/2+y,-z
-x,-y,-z
1/2+x,1/2+y,-z
1/2-x,y,z
x,1/2-y,z
loop_
_atom_site_type_symbol
_atom_site_label
_atom_site_fract_x
_atom_site_fract_y
_atom_site_fract_z
Si Si1 0.922139 0.803872 0.905885
Si Si2 0.075583 0.448548 0.311901
Si Si3 0.074820 0.609353 0.835802
Si Si4 0.076926 0.449978 0.683474
Si Si5 0.920502 0.395385 0.828079
Si Si6 0.918567 0.548299 0.502380
Si Si7 0.922955 0.450043 0.999598
Si Si8 0.418204 0.802798 0.081280
O O1 0.750000 0.816040 0.899972
O O2 0.954619 0.750000 0.878274
O O3 0.011879 0.837637 0.841943
O O4 0.973291 0.812565 0.002902
O O5 0.250000 0.450037 0.291277
O O6 0.042293 0.426186 0.407317
O O7 0.993365 0.414472 0.247340
O O8 0.012400 0.501502 0.303599
O O9 0.250000 0.611282 0.826672
O O10 0.023299 0.580323 0.919317
O O11 0.250000 0.460653 0.697815
O O12 0.047871 0.426200 0.588777
O O13 0.023235 0.411351 0.750685
O O14 0.750000 0.405266 0.804929
O O15 0.950619 0.339703 0.842769
O O16 0.967529 0.422793 0.913744
O O17 0.750000 0.533760 0.506392
O O18 0.000000 0.500000 0.500000
O O19 0.750000 0.458905 0.005111
O O20 0.000000 0.500000 0.000000
O O21 0.250000 0.810394 0.047501
O O22 0.440366 0.750000 0.118216
#
# Coordination Sequence:
#
# PCOD8240730 Si02
#       8
#     8   8   8   8   8   8   8   8
#     4  10  20  33  50  72  95 121 157 199 240 281
#     4  10  19  32  49  70  95 126 158 198 241 280
#     4  11  21  34  49  69  95 127 162 196 235 282
#     4  10  19  31  47  70  96 127 161 195 232 280
#     4  10  19  32  46  66  93 124 159 194 233 280
#     4   8  16  30  47  66  92 121 155 195 238 279
#     4  10  21  33  43  60  90 127 160 188 222 268
#     4   9  17  32  52  69  89 120 157 198 241 280
#
# _framework density 16.006174999999999
#
# number of rings (size 3 to 8) (size 9 to 14) (size 15 to 20)
#    0.000    2.250    1.250    2.250    0.000    5.750 
#    0.000    0.000    0.000    0.000    0.000    0.875 
#    0.000    5.000    0.000    0.000    0.000    0.000 
#
# Total GULP energy -793213.096678 kJ/mol
# GULP energy per Si atom -12393.954636 kJ/mol
# Density = 1.596974 g / cm^3
# Si number density = 16.006175 Si / 1000 Ang^3
#
#
#
# Elastic Constant Matrix: (Units=GPa)
#
#
# Indices 1 2 3 4 5 6 
#
# 1 70.5134 43.8730 53.4177 0.0000 0.0000 0.0000
# 2 43.8730 97.7739 56.8184 0.0000 0.0000 0.0000
# 3 53.4177 56.8184 128.8256 0.0000 0.0000 0.0000
# 4 0.0000 0.0000 0.0000 9.4663 0.0000 0.0000
# 5 0.0000 0.0000 0.0000 0.0000 24.2760 0.0000
# 6 0.0000 0.0000 0.0000 0.0000 0.0000 24.9295
#
#
#
# Elastic Compliance Matrix: (Units=1/GPa)
#
#
# Indices 1 2 3 4 5 6 
#
# 1 0.023425 -0.006544 -0.006827 0.000000 0.000000 0.000000
# 2 -0.006544 0.015581 -0.004158 0.000000 0.000000 0.000000
# 3 -0.006827 -0.004158 0.012427 0.000000 0.000000 0.000000
# 4 0.000000 0.000000 0.000000 0.105638 0.000000 0.000000
# 5 0.000000 0.000000 0.000000 0.000000 0.041193 0.000000
# 6 0.000000 0.000000 0.000000 0.000000 0.000000 0.040113
#
#
# Mechanical properties :
#
#
# Convention : Reuss Voigt Hill
#
# Bulk Modulus (GPa) = 61.07122 67.25903 64.16512
# Shear Modulus (GPa) = 17.92799 21.26796 19.59798
#
# Velocity S-wave (km/s) = 3.35037 3.64914 3.50294
# Velocity P-wave (km/s) = 7.29413 7.73737 7.51901
#
# Compressibility (1/GPa) = 0.01637432
#
# Stress axis : x y z
#
# Youngs Moduli (GPa) = 42.68910 64.18249 80.46787
#
# Poissons Ratio (x) = 0.42001 0.54936
# Poissons Ratio (y) = 0.27936 0.33461
# Poissons Ratio (z) = 0.29144 0.26689
#
# Static dielectric constant tensor:
#      x y z
#    x 3.118350 0.000000 0.000000 
#    y 0.000000 3.125130 0.000000 
#    z 0.000000 0.000000 3.567390 
# 
# 
# High freq. dielectric constant tensor:
#      x y z
#    x 1.626830 0.000000 0.000000 
#    y 0.000000 1.593320 0.000000 
#    z 0.000000 0.000000 1.608860 
# 
# From -- ./inp_files/21804.got.cif
#   From: 2010.03.12/outbox.cif.g09.slc.cpg/sg59_11_cif.got.tgz:21804.got - 2010.04.16 16:29:54.
