data_PCOD8240658
_publ_section_title
;
Structure prediction by ZEFSAII (Michael W. Deem and Ramdas Pophale) SiO2 
 PCOD8240658
Probable space group: P M M N
;
_chemical_formula_sum "Si O2"
_cell_formula_units_Z 40
_cell_length_a 9.369506
_cell_length_b 10.197439
_cell_length_c 24.090529
_cell_angle_alpha 90.000000
_cell_angle_beta 90.000000
_cell_angle_gamma 90.000000
_cell_volume 2301.728772
_symmetry_space_group_name_H-M "P M M N"
_symmetry_group_IT_number 59
_space_group.IT_coordinate_system_code '2'
_symmetry_cell_setting 'orthorhombic'
loop_
_space_group_symop_operation_xyz
x,y,z
1/2-x,1/2-y,z
1/2+x,-y,-z
-x,1/2+y,-z
-x,-y,-z
1/2+x,1/2+y,-z
1/2-x,y,z
x,1/2-y,z
loop_
_atom_site_type_symbol
_atom_site_label
_atom_site_fract_x
_atom_site_fract_y
_atom_site_fract_z
Si Si1 0.415167 0.595367 0.232564
Si Si2 0.417256 0.250000 0.949638
Si Si3 0.581635 0.900527 0.460647
Si Si4 0.414069 0.750000 0.937120
Si Si5 0.907405 0.594950 0.336211
Si Si6 0.083858 0.487820 0.872423
O O1 0.250000 0.557629 0.232044
O O2 0.439592 0.750000 0.225114
O O3 0.480736 0.543393 0.290584
O O4 0.493402 0.520025 0.183364
O O5 0.250000 0.250000 0.961291
O O6 0.465799 0.123256 0.915317
O O7 0.493058 0.250000 0.008191
O O8 0.750000 0.914168 0.470173
O O9 0.533921 0.750000 0.472211
O O10 0.540945 0.943322 0.397895
O O11 0.500000 0.000000 0.500000
O O12 0.250000 0.750000 0.955806
O O13 0.451561 0.625405 0.900140
O O14 0.750000 0.535116 0.324089
O O15 0.895806 0.750000 0.332939
O O16 0.250000 0.471172 0.857167
#
# Coordination Sequence:
#
# PCOD8240658 Si02
#       6
#     8   4   8   4   8   8
#     4  10  19  30  49  78 103 125 163 213 255 292
#     4  10  20  34  54  76  98 130 167 200 243 296
#     4   9  18  32  51  77 107 139 175 214 258 306
#     4  10  22  36  52  74 102 132 163 202 245 292
#     4   8  15  29  49  72 100 134 169 208 253 299
#     4  10  20  35  53  74 100 132 166 200 245 298
#
# _framework density 17.378242
#
# number of rings (size 3 to 8) (size 9 to 14) (size 15 to 20)
#    0.000    2.600    1.000    2.400    0.000    3.600 
#    0.000    2.000    2.200    0.000    0.000    0.000 
#    0.000    0.000    0.000    0.000    0.000    0.000 
#
# Total GULP energy -495973.621249 kJ/mol
# GULP energy per Si atom -12399.340531 kJ/mol
# Density = 1.733869 g / cm^3
# Si number density = 17.378242 Si / 1000 Ang^3
#
#
#
# Elastic Constant Matrix: (Units=GPa)
#
#
# Indices 1 2 3 4 5 6 
#
# 1 85.9279 43.5148 86.8091 0.0000 0.0000 0.0000
# 2 43.5148 94.0507 62.6541 0.0000 0.0000 0.0000
# 3 86.8091 62.6541 166.7194 0.0000 0.0000 0.0000
# 4 0.0000 0.0000 0.0000 18.4389 0.0000 0.0000
# 5 0.0000 0.0000 0.0000 0.0000 38.6881 0.0000
# 6 0.0000 0.0000 0.0000 0.0000 0.0000 -74.5633
#
#
#
# Elastic Compliance Matrix: (Units=1/GPa)
#
#
# Indices 1 2 3 4 5 6 
#
# 1 0.025612 -0.003956 -0.011849 0.000000 0.000000 0.000000
# 2 -0.003956 0.014795 -0.003500 0.000000 0.000000 0.000000
# 3 -0.011849 -0.003500 0.013483 0.000000 0.000000 0.000000
# 4 0.000000 0.000000 0.000000 0.054233 0.000000 0.000000
# 5 0.000000 0.000000 0.000000 0.000000 0.025848 0.000000
# 6 0.000000 0.000000 0.000000 0.000000 0.000000 -0.013411
#
#
# Mechanical properties :
#
#
# Convention : Reuss Voigt Hill
#
# Bulk Modulus (GPa) = 65.44966 81.40602 73.42784
# Shear Modulus (GPa) = 30.43923 6.76074 18.59999
#
# Velocity S-wave (km/s) = 4.18972 1.97454 3.27510
# Velocity P-wave (km/s) = 7.81976 7.22106 7.52636
#
# Compressibility (1/GPa) = 0.01527892
#
# Stress axis : x y z
#
# Youngs Moduli (GPa) = 39.04478 67.59227 74.16786
#
# Poissons Ratio (x) = 0.26743 0.87880
# Poissons Ratio (y) = 0.15448 0.25957
# Poissons Ratio (z) = 0.46264 0.23656
#
# Static dielectric constant tensor:
#      x y z
#    x 3.055530 0.000000 0.000000 
#    y 0.000000 3.039090 0.000000 
#    z 0.000000 0.000000 3.392660 
# 
# 
# High freq. dielectric constant tensor:
#      x y z
#    x 1.669760 0.000000 0.000000 
#    y 0.000000 1.643060 0.000000 
#    z 0.000000 0.000000 1.682600 
# 
# From -- ./inp_files/28742.got.cif
#   From: 2010.03.12/outbox.cif.g09.slc.cpg/sg59_15_cif.got.tgz:28742.got - 2010.04.16 16:29:54.
