data_PCOD8240394
_publ_section_title
;
Structure prediction by ZEFSAII (Michael W. Deem and Ramdas Pophale) SiO2 
 PCOD8240394
Probable space group: P M M N
;
_chemical_formula_sum "Si O2"
_cell_formula_units_Z 64
_cell_length_a 23.953436
_cell_length_b 9.194805
_cell_length_c 16.509950
_cell_angle_alpha 90.000000
_cell_angle_beta 90.000000
_cell_angle_gamma 90.000000
_cell_volume 3636.269816
_symmetry_space_group_name_H-M "P M M N"
_symmetry_group_IT_number 59
_space_group.IT_coordinate_system_code '2'
_symmetry_cell_setting 'orthorhombic'
loop_
_space_group_symop_operation_xyz
x,y,z
1/2-x,1/2-y,z
1/2+x,-y,-z
-x,1/2+y,-z
-x,-y,-z
1/2+x,1/2+y,-z
1/2-x,y,z
x,1/2-y,z
loop_
_atom_site_type_symbol
_atom_site_label
_atom_site_fract_x
_atom_site_fract_y
_atom_site_fract_z
Si Si1 0.815889 0.589126 0.079492
Si Si2 0.913134 0.918936 0.366484
Si Si3 0.813895 0.917324 0.617611
Si Si4 0.621953 0.919212 0.780994
Si Si5 0.815100 0.079402 0.922980
Si Si6 0.032035 0.583667 0.309109
Si Si7 0.595676 0.080255 0.528996
Si Si8 0.187630 0.076722 0.742130
O O1 0.750000 0.605393 0.076948
O O2 0.842387 0.750000 0.064973
O O3 0.832007 0.525773 0.168147
O O4 0.835907 0.478134 0.010309
O O5 0.906410 0.750000 0.389266
O O6 0.857321 0.980559 0.323076
O O7 0.965520 0.940754 0.305951
O O8 0.926140 0.006649 0.447544
O O9 0.750000 0.963134 0.616882
O O10 0.822951 0.750000 0.593308
O O11 0.836524 0.948597 0.706962
O O12 0.843857 0.016160 0.551091
O O13 0.615891 0.750000 0.801681
O O14 0.647028 0.001016 0.857299
O O15 0.561036 0.982435 0.758237
O O16 0.750000 0.041873 0.907948
O O17 0.825966 0.250000 0.918977
O O18 0.048216 0.750000 0.289740
O O19 0.052753 0.542222 0.399258
O O20 0.601323 0.250000 0.513580
O O21 0.250000 0.017410 0.720699
O O22 0.188729 0.250000 0.742365
#
# Coordination Sequence:
#
# PCOD8240394 Si02
#       8
#     8   8   8   8   8   8   8   8
#     4   8  14  27  47  69  94 123 154 189 229 275
#     4  10  19  32  52  73  93 123 162 201 241 287
#     4   9  18  32  48  66  91 124 159 193 233 283
#     4  10  19  31  49  71  95 125 162 202 239 278
#     4  10  19  29  45  72 103 131 157 187 228 279
#     4   9  19  34  49  67  94 127 162 201 245 287
#     4  10  20  32  46  67  95 125 159 200 242 283
#     4   8  15  29  50  75  98 120 151 193 239 284
#
# _framework density 17.600453999999999
#
# number of rings (size 3 to 8) (size 9 to 14) (size 15 to 20)
#    0.000    2.750    0.000    2.625    0.000    3.500 
#    0.000    1.875    0.000    1.500    0.000    0.000 
#    0.000    0.000    0.000    0.000    0.000    0.000 
#
# Total GULP energy -793489.054513 kJ/mol
# GULP energy per Si atom -12398.266477 kJ/mol
# Density = 1.756039 g / cm^3
# Si number density = 17.600454 Si / 1000 Ang^3
#
#
#
# Elastic Constant Matrix: (Units=GPa)
#
#
# Indices 1 2 3 4 5 6 
#
# 1 87.2645 29.9135 30.7576 0.0000 0.0000 0.0000
# 2 29.9135 66.8601 37.1124 0.0000 0.0000 0.0000
# 3 30.7576 37.1124 74.0990 0.0000 0.0000 0.0000
# 4 0.0000 0.0000 0.0000 22.1577 0.0000 0.0000
# 5 0.0000 0.0000 0.0000 0.0000 18.6781 0.0000
# 6 0.0000 0.0000 0.0000 0.0000 0.0000 20.5676
#
#
#
# Elastic Compliance Matrix: (Units=1/GPa)
#
#
# Indices 1 2 3 4 5 6 
#
# 1 0.014258 -0.004285 -0.003772 0.000000 0.000000 0.000000
# 2 -0.004285 0.022004 -0.009242 0.000000 0.000000 0.000000
# 3 -0.003772 -0.009242 0.019690 0.000000 0.000000 0.000000
# 4 0.000000 0.000000 0.000000 0.045131 0.000000 0.000000
# 5 0.000000 0.000000 0.000000 0.000000 0.053539 0.000000
# 6 0.000000 0.000000 0.000000 0.000000 0.000000 0.048620
#
#
# Mechanical properties :
#
#
# Convention : Reuss Voigt Hill
#
# Bulk Modulus (GPa) = 46.83095 47.08784 46.95939
# Shear Modulus (GPa) = 20.41174 20.97671 20.69422
#
# Velocity S-wave (km/s) = 3.40917 3.45603 3.43268
# Velocity P-wave (km/s) = 6.49324 6.53738 6.51535
#
# Compressibility (1/GPa) = 0.02135340
#
# Stress axis : x y z
#
# Youngs Moduli (GPa) = 70.13679 45.44676 50.78745
#
# Poissons Ratio (x) = 0.19475 0.19157
# Poissons Ratio (y) = 0.30056 0.46937
# Poissons Ratio (z) = 0.26455 0.42001
#
# Static dielectric constant tensor:
#      x y z
#    x 3.250980 0.000000 0.000000 
#    y 0.000000 3.224780 0.000000 
#    z 0.000000 0.000000 3.334210 
# 
# 
# High freq. dielectric constant tensor:
#      x y z
#    x 1.663470 0.000000 0.000000 
#    y 0.000000 1.669550 0.000000 
#    z 0.000000 0.000000 1.673200 
# 
# From -- ./inp_files/24768.got.cif
#   From: 2010.03.12/outbox.cif.g09.slc.cpg/sg59_13_cif.got.tgz:24768.got - 2010.04.16 16:29:54.
