data_PCOD8240271
_publ_section_title
;
Structure prediction by ZEFSAII (Michael W. Deem and Ramdas Pophale) SiO2 
 PCOD8240271
Probable space group: P M M N
;
_chemical_formula_sum "Si O2"
_cell_formula_units_Z 64
_cell_length_a 9.667120
_cell_length_b 18.830799
_cell_length_c 20.663463
_cell_angle_alpha 90.000000
_cell_angle_beta 90.000000
_cell_angle_gamma 90.000000
_cell_volume 3761.568407
_symmetry_space_group_name_H-M "P M M N"
_symmetry_group_IT_number 59
_space_group.IT_coordinate_system_code '2'
_symmetry_cell_setting 'orthorhombic'
loop_
_space_group_symop_operation_xyz
x,y,z
1/2-x,1/2-y,z
1/2+x,-y,-z
-x,1/2+y,-z
-x,-y,-z
1/2+x,1/2+y,-z
1/2-x,y,z
x,1/2-y,z
loop_
_atom_site_type_symbol
_atom_site_label
_atom_site_fract_x
_atom_site_fract_y
_atom_site_fract_z
Si Si1 0.911390 0.589813 0.683764
Si Si2 0.413807 0.671561 0.433476
Si Si3 0.905435 0.087939 0.198344
Si Si4 0.095062 0.419205 0.799941
Si Si5 0.907773 0.333788 0.421562
Si Si6 0.594633 0.583385 0.057349
Si Si7 0.595000 0.085566 0.055120
Si Si8 0.409811 0.922780 0.316626
O O1 0.750000 0.610336 0.686772
O O2 0.933030 0.506170 0.674539
O O3 0.985056 0.617411 0.749528
O O4 0.983499 0.627568 0.623943
O O5 0.250000 0.675948 0.430296
O O6 0.475533 0.750000 0.418900
O O7 0.455179 0.646550 0.505517
O O8 0.469502 0.615630 0.380694
O O9 0.750000 0.115897 0.214222
O O10 0.951334 0.113154 0.126337
O O11 0.904459 0.003637 0.200035
O O12 0.250000 0.391277 0.785443
O O13 0.045506 0.392076 0.870890
O O14 0.991506 0.391172 0.744983
O O15 0.750000 0.359694 0.408120
O O16 0.916777 0.250000 0.410464
O O17 0.750000 0.609841 0.045032
O O18 0.587191 0.498936 0.053618
O O19 0.500702 0.618357 0.001331
O O20 0.750000 0.111451 0.040917
O O21 0.250000 0.904567 0.304979
#
# Coordination Sequence:
#
# PCOD8240271 Si02
#       8
#     8   8   8   8   8   8   8   8
#     4  10  19  28  41  65  93 115 137 173 219 259
#     4   8  15  30  50  67  84 110 144 179 212 249
#     4   8  14  25  38  52  76 111 146 175 205 249
#     4   8  14  24  36  52  78 112 144 172 208 253
#     4   9  18  33  51  66  81 109 147 178 207 252
#     4   8  13  20  30  46  71 104 139 171 205 249
#     4   8  13  20  31  48  70 100 139 177 208 240
#     4   9  17  28  43  65  89 112 142 178 214 254
#
# _framework density 17.014178000000001
#
# number of rings (size 3 to 8) (size 9 to 14) (size 15 to 20)
#    0.000    3.500    0.000    2.625    0.000    2.250 
#    0.000    5.625    0.000    1.125    0.000    0.000 
#    0.000    1.000    0.000    5.500    0.000    7.500 
#
# Total GULP energy -793053.533688 kJ/mol
# GULP energy per Si atom -12391.461464 kJ/mol
# Density = 1.697545 g / cm^3
# Si number density = 17.014178 Si / 1000 Ang^3
#
#
#
# Elastic Constant Matrix: (Units=GPa)
#
#
# Indices 1 2 3 4 5 6 
#
# 1 98.9997 25.0382 94.8693 0.0000 0.0000 0.0000
# 2 25.0382 19.2255 35.6642 0.0000 0.0000 0.0000
# 3 94.8693 35.6642 182.8797 0.0000 0.0000 0.0000
# 4 0.0000 0.0000 0.0000 -0.4582 0.0000 0.0000
# 5 0.0000 0.0000 0.0000 0.0000 33.8723 0.0000
# 6 0.0000 0.0000 0.0000 0.0000 0.0000 10.2765
#
#
#
# Elastic Compliance Matrix: (Units=1/GPa)
#
#
# Indices 1 2 3 4 5 6 
#
# 1 0.021597 -0.011506 -0.008960 0.000000 0.000000 0.000000
# 2 -0.011506 0.087627 -0.011120 0.000000 0.000000 0.000000
# 3 -0.008960 -0.011120 0.012284 0.000000 0.000000 0.000000
# 4 0.000000 0.000000 0.000000 -2.182648 0.000000 0.000000
# 5 0.000000 0.000000 0.000000 0.000000 0.029523 0.000000
# 6 0.000000 0.000000 0.000000 0.000000 0.000000 0.097309
#
#
# Mechanical properties :
#
#
# Convention : Reuss Voigt Hill
#
# Bulk Modulus (GPa) = 17.14174 68.02760 42.58467
# Shear Modulus (GPa) = -2.70023 18.44034 7.87005
#
# Velocity S-wave (km/s) = -1.26115 3.29572 2.15305
# Velocity P-wave (km/s) = 2.82421 7.38593 5.59143
#
# Compressibility (1/GPa) = 0.05833714
#
# Stress axis : x y z
#
# Youngs Moduli (GPa) = 46.30313 11.41206 81.40448
#
# Poissons Ratio (x) = 0.13131 0.72935
# Poissons Ratio (y) = 0.53277 0.90519
# Poissons Ratio (z) = 0.41485 0.12690
#
# Static dielectric constant tensor:
#      x y z
#    x 3.221030 0.000000 0.000000 
#    y 0.000000 2.712150 0.000000 
#    z 0.000000 0.000000 3.675680 
# 
# 
# High freq. dielectric constant tensor:
#      x y z
#    x 1.644580 0.000000 0.000000 
#    y 0.000000 1.593190 0.000000 
#    z 0.000000 0.000000 1.673890 
# 
# From -- ./inp_files/29793.got.cif
#   From: 2010.03.12/outbox.cif.g09.slc.cpg/sg59_15_cif.got.tgz:29793.got - 2010.04.16 16:29:54.
