data_PCOD8240336
_publ_section_title
;
Structure prediction by ZEFSAII (Michael W. Deem and Ramdas Pophale) SiO2 
 PCOD8240336
Probable space group: P M M N
;
_chemical_formula_sum "Si O2"
_cell_formula_units_Z 56
_cell_length_a 21.965397
_cell_length_b 8.960188
_cell_length_c 16.984744
_cell_angle_alpha 90.000000
_cell_angle_beta 90.000000
_cell_angle_gamma 90.000000
_cell_volume 3342.836877
_symmetry_space_group_name_H-M "P M M N"
_symmetry_group_IT_number 59
_space_group.IT_coordinate_system_code '2'
_symmetry_cell_setting 'orthorhombic'
loop_
_space_group_symop_operation_xyz
x,y,z
1/2-x,1/2-y,z
1/2+x,-y,-z
-x,1/2+y,-z
-x,-y,-z
1/2+x,1/2+y,-z
1/2-x,y,z
x,1/2-y,z
loop_
_atom_site_type_symbol
_atom_site_label
_atom_site_fract_x
_atom_site_fract_y
_atom_site_fract_z
Si Si1 0.511486 0.921524 0.129705
Si Si2 0.161400 0.082688 0.246509
Si Si3 0.046762 0.574590 0.439793
Si Si4 0.317612 0.577443 0.406699
Si Si5 0.317045 0.914156 0.091938
Si Si6 0.582627 0.920531 0.981082
Si Si7 0.976722 0.582105 0.722362
O O1 0.501378 0.750000 0.152882
O O2 0.455239 0.974542 0.077005
O O3 0.520869 0.012991 0.210743
O O4 0.570078 0.945179 0.073798
O O5 0.186952 0.250000 0.235926
O O6 0.089074 0.084173 0.238251
O O7 0.183913 0.023486 0.329985
O O8 0.187178 0.975178 0.180404
O O9 0.036996 0.750000 0.445618
O O10 0.119607 0.535045 0.455224
O O11 0.024908 0.519708 0.354626
O O12 0.000000 0.500000 0.500000
O O13 0.250000 0.553354 0.449053
O O14 0.324134 0.750000 0.382221
O O15 0.250000 0.898761 0.057656
O O16 0.348436 0.750000 0.092349
O O17 0.348483 0.031334 0.033325
O O18 0.570507 0.750000 0.956635
O O19 0.998358 0.750000 0.700586
#
# Coordination Sequence:
#
# PCOD8240336 Si02
#       7
#     8   8   8   8   8   8   8
#     4  10  19  31  49  70  94 122 156 199 243 285
#     4  10  19  29  43  66  95 126 162 199 234 279
#     4  10  20  34  52  74 103 134 165 205 251 298
#     4   9  18  32  49  69  95 130 167 199 237 289
#     4  11  22  32  43  61  89 127 166 202 242 289
#     4  10  20  32  46  67  92 122 160 201 243 283
#     4  10  19  31  49  72  98 128 164 199 239 290
#
# _framework density 16.752237999999998
#
# number of rings (size 3 to 8) (size 9 to 14) (size 15 to 20)
#    0.000    2.000    1.429    3.000    0.000    6.571 
#    0.000    0.000    0.000    0.000    0.000    1.000 
#    0.000    5.714    0.000    0.000    0.000    0.000 
#
# Total GULP energy -693837.682864 kJ/mol
# GULP energy per Si atom -12389.958623 kJ/mol
# Density = 1.671411 g / cm^3
# Si number density = 16.752238 Si / 1000 Ang^3
#
#
#
# Elastic Constant Matrix: (Units=GPa)
#
#
# Indices 1 2 3 4 5 6 
#
# 1 89.7592 37.8568 45.0728 0.0000 0.0000 0.0000
# 2 37.8568 85.2025 30.6902 0.0000 0.0000 0.0000
# 3 45.0728 30.6902 67.3047 0.0000 0.0000 0.0000
# 4 0.0000 0.0000 0.0000 29.5177 0.0000 0.0000
# 5 0.0000 0.0000 0.0000 0.0000 17.8247 0.0000
# 6 0.0000 0.0000 0.0000 0.0000 0.0000 19.6908
#
#
#
# Elastic Compliance Matrix: (Units=1/GPa)
#
#
# Indices 1 2 3 4 5 6 
#
# 1 0.018060 -0.004389 -0.010094 0.000000 0.000000 0.000000
# 2 -0.004389 0.015110 -0.003951 0.000000 0.000000 0.000000
# 3 -0.010094 -0.003951 0.023419 0.000000 0.000000 0.000000
# 4 0.000000 0.000000 0.000000 0.033878 0.000000 0.000000
# 5 0.000000 0.000000 0.000000 0.000000 0.056102 0.000000
# 6 0.000000 0.000000 0.000000 0.000000 0.000000 0.050785
#
#
# Mechanical properties :
#
#
# Convention : Reuss Voigt Hill
#
# Bulk Modulus (GPa) = 50.70276 52.16734 51.43505
# Shear Modulus (GPa) = 20.76456 21.98307 21.37381
#
# Velocity S-wave (km/s) = 3.52449 3.62642 3.57582
# Velocity P-wave (km/s) = 6.84797 6.98160 6.91511
#
# Compressibility (1/GPa) = 0.01972279
#
# Stress axis : x y z
#
# Youngs Moduli (GPa) = 55.36966 66.18202 42.70072
#
# Poissons Ratio (x) = 0.29046 0.43100
# Poissons Ratio (y) = 0.24301 0.16870
# Poissons Ratio (z) = 0.55888 0.26147
#
# Static dielectric constant tensor:
#      x y z
#    x 3.338090 0.000000 0.000000 
#    y 0.000000 3.358850 0.000000 
#    z 0.000000 0.000000 2.923510 
# 
# 
# High freq. dielectric constant tensor:
#      x y z
#    x 1.629630 0.000000 0.000000 
#    y 0.000000 1.666800 0.000000 
#    z 0.000000 0.000000 1.608170 
# 
# From -- ./inp_files/26373.got.cif
#   From: 2010.03.12/outbox.cif.g09.slc.cpg/sg59_14_cif.got.tgz:26373.got - 2010.04.16 16:29:54.
