data_PCOD8240154
_publ_section_title
;
Structure prediction by ZEFSAII (Michael W. Deem and Ramdas Pophale) SiO2 
 PCOD8240154
Probable space group: P M M N
;
_chemical_formula_sum "Si O2"
_cell_formula_units_Z 64
_cell_length_a 8.965062
_cell_length_b 30.628596
_cell_length_c 11.880590
_cell_angle_alpha 90.000000
_cell_angle_beta 90.000000
_cell_angle_gamma 90.000000
_cell_volume 3262.258680
_symmetry_space_group_name_H-M "P M M N"
_symmetry_group_IT_number 59
_space_group.IT_coordinate_system_code '2'
_symmetry_cell_setting 'orthorhombic'
loop_
_space_group_symop_operation_xyz
x,y,z
1/2-x,1/2-y,z
1/2+x,-y,-z
-x,1/2+y,-z
-x,-y,-z
1/2+x,1/2+y,-z
1/2-x,y,z
x,1/2-y,z
loop_
_atom_site_type_symbol
_atom_site_label
_atom_site_fract_x
_atom_site_fract_y
_atom_site_fract_z
Si Si1 0.078404 0.448828 0.240270
Si Si2 0.080177 0.952392 0.230979
Si Si3 0.074095 0.378325 0.633649
Si Si4 0.077966 0.298536 0.782414
Si Si5 0.073021 0.621717 0.607285
Si Si6 0.576570 0.326157 0.002763
Si Si7 0.079032 0.572992 0.984398
Si Si8 0.572849 0.298493 0.245132
O O1 0.250000 0.434320 0.251522
O O2 0.057829 0.498942 0.278740
O O3 0.976445 0.419575 0.319751
O O4 0.029996 0.444395 0.111118
O O5 0.250000 0.936051 0.250827
O O6 0.045962 0.953755 0.097804
O O7 0.966597 0.920494 0.293104
O O8 0.250000 0.377153 0.614104
O O9 0.014833 0.334485 0.695462
O O10 0.994041 0.381772 0.515314
O O11 0.250000 0.308652 0.804279
O O12 0.053398 0.250000 0.731173
O O13 0.998783 0.300156 0.902221
O O14 0.250000 0.621291 0.599194
O O15 0.012693 0.666187 0.665424
O O16 0.750000 0.315419 0.996837
O O17 0.542644 0.376961 0.988848
O O18 0.509258 0.309643 0.121444
O O19 0.250000 0.567680 0.943828
O O20 0.750000 0.301539 0.240675
O O21 0.519682 0.250000 0.281438
#
# Coordination Sequence:
#
# PCOD8240154 Si02
#       8
#     8   8   8   8   8   8   8   8
#     4  11  23  38  60  89 120 154 193 236 289 351
#     4  10  22  40  61  87 119 155 194 239 287 344
#     4  11  24  41  61  85 113 152 198 245 292 345
#     4  10  22  39  58  85 122 157 189 232 290 350
#     4  11  23  41  62  83 113 154 195 245 296 341
#     4  10  18  33  60  89 118 153 193 236 283 339
#     4  10  19  35  60  89 121 154 191 235 288 343
#     4   9  18  34  57  86 116 147 187 234 284 337
#
# _framework density 19.618309
#
# number of rings (size 3 to 8) (size 9 to 14) (size 15 to 20)
#    0.000    1.750    2.500    1.875    0.000    4.250 
#    0.000    0.000    0.000    1.875    0.000    0.000 
#    0.000    0.000    0.000    0.000    0.000    0.000 
#
# Total GULP energy -793771.472099 kJ/mol
# GULP energy per Si atom -12402.679252 kJ/mol
# Density = 1.957366 g / cm^3
# Si number density = 19.618309 Si / 1000 Ang^3
#
#
#
# Elastic Constant Matrix: (Units=GPa)
#
#
# Indices 1 2 3 4 5 6 
#
# 1 58.7918 36.8733 37.2065 0.0000 0.0000 0.0000
# 2 36.8733 107.1917 47.9172 0.0000 0.0000 0.0000
# 3 37.2065 47.9172 110.6029 0.0000 0.0000 0.0000
# 4 0.0000 0.0000 0.0000 9.1253 0.0000 0.0000
# 5 0.0000 0.0000 0.0000 0.0000 31.6559 0.0000
# 6 0.0000 0.0000 0.0000 0.0000 0.0000 25.2656
#
#
#
# Elastic Compliance Matrix: (Units=1/GPa)
#
#
# Indices 1 2 3 4 5 6 
#
# 1 0.024218 -0.005815 -0.005627 0.000000 0.000000 0.000000
# 2 -0.005815 0.012966 -0.003661 0.000000 0.000000 0.000000
# 3 -0.005627 -0.003661 0.012521 0.000000 0.000000 0.000000
# 4 0.000000 0.000000 0.000000 0.109586 0.000000 0.000000
# 5 0.000000 0.000000 0.000000 0.000000 0.031590 0.000000
# 6 0.000000 0.000000 0.000000 0.000000 0.000000 0.039580
#
#
# Mechanical properties :
#
#
# Convention : Reuss Voigt Hill
#
# Bulk Modulus (GPa) = 51.29041 57.84227 54.56634
# Shear Modulus (GPa) = 18.71497 23.51530 21.11513
#
# Velocity S-wave (km/s) = 3.09197 3.46589 3.28426
# Velocity P-wave (km/s) = 6.24083 6.75014 6.50047
#
# Compressibility (1/GPa) = 0.01949682
#
# Stress axis : x y z
#
# Youngs Moduli (GPa) = 41.29210 77.12425 79.86860
#
# Poissons Ratio (x) = 0.44849 0.44945
# Poissons Ratio (y) = 0.24012 0.29241
# Poissons Ratio (z) = 0.23237 0.28237
#
# Static dielectric constant tensor:
#      x y z
#    x 3.406370 0.000000 0.000000 
#    y 0.000000 3.781450 0.000000 
#    z 0.000000 0.000000 3.527310 
# 
# 
# High freq. dielectric constant tensor:
#      x y z
#    x 1.748660 0.000000 0.000000 
#    y 0.000000 1.779470 0.000000 
#    z 0.000000 0.000000 1.761000 
# 
# From -- ./inp_files/15056.got.cif
#   From: 2010.03.12/outbox.cif.g09.slc.cpg/sg59_8_cif.got.tgz:15056.got - 2010.04.16 16:29:54.
