data_PCOD8240157
_publ_section_title
;
Structure prediction by ZEFSAII (Michael W. Deem and Ramdas Pophale) SiO2 
 PCOD8240157
Probable space group: P M M N
;
_chemical_formula_sum "Si O2"
_cell_formula_units_Z 64
_cell_length_a 8.805169
_cell_length_b 30.818376
_cell_length_c 12.039556
_cell_angle_alpha 90.000000
_cell_angle_beta 90.000000
_cell_angle_gamma 90.000000
_cell_volume 3267.066064
_symmetry_space_group_name_H-M "P M M N"
_symmetry_group_IT_number 59
_space_group.IT_coordinate_system_code '2'
_symmetry_cell_setting 'orthorhombic'
loop_
_space_group_symop_operation_xyz
x,y,z
1/2-x,1/2-y,z
1/2+x,-y,-z
-x,1/2+y,-z
-x,-y,-z
1/2+x,1/2+y,-z
1/2-x,y,z
x,1/2-y,z
loop_
_atom_site_type_symbol
_atom_site_label
_atom_site_fract_x
_atom_site_fract_y
_atom_site_fract_z
Si Si1 0.921304 0.086564 0.244924
Si Si2 0.575244 0.453581 0.006795
Si Si3 0.073040 0.299149 0.485784
Si Si4 0.074433 0.954656 0.525845
Si Si5 0.430675 0.121928 0.865166
Si Si6 0.572964 0.824287 0.753322
Si Si7 0.069646 0.297836 0.010036
Si Si8 0.430083 0.625130 0.376978
O O1 0.750000 0.105303 0.256954
O O2 0.959242 0.054632 0.345687
O O3 0.041772 0.124828 0.247507
O O4 0.941188 0.060033 0.133476
O O5 0.750000 0.455596 0.968705
O O6 0.487197 0.420646 0.927703
O O7 0.500000 0.500000 0.000000
O O8 0.250000 0.312550 0.490538
O O9 0.049625 0.250000 0.527337
O O10 0.008689 0.302935 0.359559
O O11 0.978350 0.330109 0.565658
O O12 0.250000 0.959523 0.500032
O O13 0.009884 0.915390 0.450295
O O14 0.000000 0.000000 0.500000
O O15 0.250000 0.121524 0.861657
O O16 0.493861 0.121975 0.742078
O O17 0.493829 0.164920 0.928370
O O18 0.750000 0.815287 0.756782
O O19 0.500937 0.803911 0.865519
O O20 0.250000 0.302089 0.014950
O O21 0.021142 0.250000 0.966331
O O22 0.250000 0.624671 0.364545
#
# Coordination Sequence:
#
# PCOD8240157 Si02
#       8
#     8   8   8   8   8   8   8   8
#     4  10  21  39  61  87 121 155 189 242 299 351
#     4  11  24  41  63  90 122 158 199 247 299 358
#     4  10  21  37  60  91 122 155 198 246 296 352
#     4  10  23  41  61  87 117 153 195 243 297 352
#     4  11  23  40  62  88 120 159 202 250 300 355
#     4  10  18  33  60  91 120 152 193 243 293 349
#     4   9  18  34  58  88 119 152 192 240 293 346
#     4  11  24  42  61  85 119 159 201 248 299 356
#
# _framework density 19.58944
#
# number of rings (size 3 to 8) (size 9 to 14) (size 15 to 20)
#    0.000    1.750    2.500    1.500    1.750    4.250 
#    0.000    1.250    0.000    3.750    0.000    0.000 
#    0.000    0.000    0.000    0.000    0.000    0.000 
#
# Total GULP energy -793613.829762 kJ/mol
# GULP energy per Si atom -12400.216090 kJ/mol
# Density = 1.954485 g / cm^3
# Si number density = 19.589440 Si / 1000 Ang^3
#
#
#
# Elastic Constant Matrix: (Units=GPa)
#
#
# Indices 1 2 3 4 5 6 
#
# 1 50.1612 38.9924 43.7218 0.0000 0.0000 0.0000
# 2 38.9924 148.4509 61.3358 0.0000 0.0000 0.0000
# 3 43.7218 61.3358 149.0265 0.0000 0.0000 0.0000
# 4 0.0000 0.0000 0.0000 28.1576 0.0000 0.0000
# 5 0.0000 0.0000 0.0000 0.0000 28.7153 0.0000
# 6 0.0000 0.0000 0.0000 0.0000 0.0000 31.0182
#
#
#
# Elastic Compliance Matrix: (Units=1/GPa)
#
#
# Indices 1 2 3 4 5 6 
#
# 1 0.029625 -0.005049 -0.006613 0.000000 0.000000 0.000000
# 2 -0.005049 0.008977 -0.002213 0.000000 0.000000 0.000000
# 3 -0.006613 -0.002213 0.009561 0.000000 0.000000 0.000000
# 4 0.000000 0.000000 0.000000 0.035514 0.000000 0.000000
# 5 0.000000 0.000000 0.000000 0.000000 0.034825 0.000000
# 6 0.000000 0.000000 0.000000 0.000000 0.000000 0.032239
#
#
# Mechanical properties :
#
#
# Convention : Reuss Voigt Hill
#
# Bulk Modulus (GPa) = 48.99126 70.63764 59.81445
# Shear Modulus (GPa) = 26.98375 31.15080 29.06727
#
# Velocity S-wave (km/s) = 3.71545 3.99204 3.85622
# Velocity P-wave (km/s) = 6.59313 7.57534 7.10124
#
# Compressibility (1/GPa) = 0.02041180
#
# Stress axis : x y z
#
# Youngs Moduli (GPa) = 33.75545 111.39701 104.58629
#
# Poissons Ratio (x) = 0.56242 0.69168
# Poissons Ratio (y) = 0.17043 0.23150
# Poissons Ratio (z) = 0.22324 0.24657
#
# Static dielectric constant tensor:
#      x y z
#    x 380.693030 0.000000 0.000000 
#    y 0.000000 3.692880 0.000000 
#    z 0.000000 0.000000 3.905330 
# 
# 
# High freq. dielectric constant tensor:
#      x y z
#    x 1.744130 0.000000 0.000000 
#    y 0.000000 1.773050 0.000000 
#    z 0.000000 0.000000 1.776250 
# 
# From -- ./inp_files/14954.got.cif
#   From: 2010.03.12/outbox.cif.g09.slc.cpg/sg59_8_cif.got.tgz:14954.got - 2010.04.16 16:29:54.
