data_PCOD8240526
_publ_section_title
;
Structure prediction by ZEFSAII (Michael W. Deem and Ramdas Pophale) SiO2 
 PCOD8240526
Probable space group: P M M N
;
_chemical_formula_sum "Si O2"
_cell_formula_units_Z 64
_cell_length_a 18.490514
_cell_length_b 9.395161
_cell_length_c 21.254698
_cell_angle_alpha 90.000000
_cell_angle_beta 90.000000
_cell_angle_gamma 90.000000
_cell_volume 3692.394958
_symmetry_space_group_name_H-M "P M M N"
_symmetry_group_IT_number 59
_space_group.IT_coordinate_system_code '2'
_symmetry_cell_setting 'orthorhombic'
loop_
_space_group_symop_operation_xyz
x,y,z
1/2-x,1/2-y,z
1/2+x,-y,-z
-x,1/2+y,-z
-x,-y,-z
1/2+x,1/2+y,-z
1/2-x,y,z
x,1/2-y,z
loop_
_atom_site_type_symbol
_atom_site_label
_atom_site_fract_x
_atom_site_fract_y
_atom_site_fract_z
Si Si1 0.538264 0.416299 0.555551
Si Si2 0.335009 0.912992 0.145251
Si Si3 0.670829 0.918538 0.244816
Si Si4 0.664281 0.593178 0.107221
Si Si5 0.166654 0.414752 0.387557
Si Si6 0.529805 0.913669 0.312033
Si Si7 0.096734 0.084232 0.256401
Si Si8 0.836008 0.407680 0.994691
O O1 0.500000 0.500000 0.500000
O O2 0.548753 0.250000 0.538691
O O3 0.616700 0.484934 0.569243
O O4 0.485218 0.436584 0.614626
O O5 0.250000 0.927261 0.154194
O O6 0.358973 0.750000 0.157632
O O7 0.372452 0.018281 0.193332
O O8 0.358113 0.962015 0.074926
O O9 0.750000 0.980450 0.264158
O O10 0.677447 0.750000 0.238039
O O11 0.646597 0.976110 0.175687
O O12 0.612438 0.960450 0.297796
O O13 0.750000 0.601679 0.099539
O O14 0.629851 0.750000 0.102021
O O15 0.629788 0.503119 0.050104
O O16 0.250000 0.452294 0.401703
O O17 0.149803 0.250000 0.403677
O O18 0.151384 0.445099 0.314167
O O19 0.515904 0.750000 0.292707
O O20 0.479846 0.012969 0.270048
O O21 0.084360 0.250000 0.245556
O O22 0.750000 0.405390 0.999523
O O23 0.866948 0.250000 0.004690
#
# Coordination Sequence:
#
# PCOD8240526 Si02
#       8
#     8   8   8   8   8   8   8   8
#     4  10  20  34  53  76 102 134 168 197 232 281
#     4   9  17  28  42  62  90 124 160 196 234 278
#     4   8  14  27  49  74  95 115 147 194 240 281
#     4   8  13  22  39  63  87 111 142 184 234 281
#     4   9  18  33  52  74 100 129 163 203 244 284
#     4   9  18  33  52  72  94 124 160 192 229 283
#     4  10  19  30  46  69  97 127 158 196 242 286
#     4   8  14  24  37  56  85 119 152 187 229 277
#
# _framework density 17.332923000000001
#
# number of rings (size 3 to 8) (size 9 to 14) (size 15 to 20)
#    0.000    3.125    0.000    2.625    0.000    2.500 
#    0.000    2.500    0.000    4.125    0.000    0.000 
#    0.000    0.000    0.000    0.000    0.000    0.000 
#
# Total GULP energy -793223.683523 kJ/mol
# GULP energy per Si atom -12394.120055 kJ/mol
# Density = 1.729347 g / cm^3
# Si number density = 17.332923 Si / 1000 Ang^3
#
#
#
# Elastic Constant Matrix: (Units=GPa)
#
#
# Indices 1 2 3 4 5 6 
#
# 1 92.2692 52.8927 61.1843 0.0000 0.0000 0.0000
# 2 52.8927 85.1860 57.5496 0.0000 0.0000 0.0000
# 3 61.1843 57.5496 101.3554 0.0000 0.0000 0.0000
# 4 0.0000 0.0000 0.0000 26.4395 0.0000 0.0000
# 5 0.0000 0.0000 0.0000 0.0000 22.4117 0.0000
# 6 0.0000 0.0000 0.0000 0.0000 0.0000 20.4811
#
#
#
# Elastic Compliance Matrix: (Units=1/GPa)
#
#
# Indices 1 2 3 4 5 6 
#
# 1 0.020383 -0.007046 -0.008304 0.000000 0.000000 0.000000
# 2 -0.007046 0.021480 -0.007943 0.000000 0.000000 0.000000
# 3 -0.008304 -0.007943 0.019389 0.000000 0.000000 0.000000
# 4 0.000000 0.000000 0.000000 0.037822 0.000000 0.000000
# 5 0.000000 0.000000 0.000000 0.000000 0.044620 0.000000
# 6 0.000000 0.000000 0.000000 0.000000 0.000000 0.048825
#
#
# Mechanical properties :
#
#
# Convention : Reuss Voigt Hill
#
# Bulk Modulus (GPa) = 68.18244 69.11821 68.65032
# Shear Modulus (GPa) = 20.49230 21.01207 20.75218
#
# Velocity S-wave (km/s) = 3.44215 3.48553 3.46391
# Velocity P-wave (km/s) = 7.43103 7.49413 7.46265
#
# Compressibility (1/GPa) = 0.01466653
#
# Stress axis : x y z
#
# Youngs Moduli (GPa) = 49.05951 46.55463 51.57625
#
# Poissons Ratio (x) = 0.32805 0.42827
# Poissons Ratio (y) = 0.34570 0.40966
# Poissons Ratio (z) = 0.40737 0.36977
#
# Static dielectric constant tensor:
#      x y z
#    x 3.084000 0.000000 0.000000 
#    y 0.000000 3.289790 0.000000 
#    z 0.000000 0.000000 3.310530 
# 
# 
# High freq. dielectric constant tensor:
#      x y z
#    x 1.641450 0.000000 0.000000 
#    y 0.000000 1.658770 0.000000 
#    z 0.000000 0.000000 1.668190 
# 
# From -- ./inp_files/31025.got.cif
#   From: 2010.03.12/outbox.cif.g09.slc.cpg/sg59_16_cif.got.tgz:31025.got - 2010.04.16 16:29:54.
