data_PCOD8240155
_publ_section_title
;
Structure prediction by ZEFSAII (Michael W. Deem and Ramdas Pophale) SiO2 
 PCOD8240155
Probable space group: P M M N
;
_chemical_formula_sum "Si O2"
_cell_formula_units_Z 64
_cell_length_a 15.385088
_cell_length_b 8.912279
_cell_length_c 23.859924
_cell_angle_alpha 90.000000
_cell_angle_beta 90.000000
_cell_angle_gamma 90.000000
_cell_volume 3271.582032
_symmetry_space_group_name_H-M "P M M N"
_symmetry_group_IT_number 59
_space_group.IT_coordinate_system_code '2'
_symmetry_cell_setting 'orthorhombic'
loop_
_space_group_symop_operation_xyz
x,y,z
1/2-x,1/2-y,z
1/2+x,-y,-z
-x,1/2+y,-z
-x,-y,-z
1/2+x,1/2+y,-z
1/2-x,y,z
x,1/2-y,z
loop_
_atom_site_type_symbol
_atom_site_label
_atom_site_fract_x
_atom_site_fract_y
_atom_site_fract_z
Si Si1 0.497082 0.927186 0.439713
Si Si2 0.100192 0.075490 0.247800
Si Si3 0.099334 0.926275 0.746420
Si Si4 0.494471 0.071296 0.060524
Si Si5 0.653583 0.576981 0.364072
Si Si6 0.345586 0.571995 0.866430
Si Si7 0.150568 0.923256 0.134971
Si Si8 0.848264 0.578136 0.628778
O O1 0.500017 0.750000 0.446855
O O2 0.581457 0.988569 0.406322
O O3 0.500000 0.000000 0.500000
O O4 0.409952 0.971527 0.407037
O O5 0.108695 0.250000 0.231312
O O6 0.149173 0.037754 0.305458
O O7 0.000954 0.027725 0.256245
O O8 0.142294 0.978916 0.198634
O O9 0.111928 0.750000 0.742471
O O10 0.138972 0.990843 0.803987
O O11 0.150999 0.996447 0.695338
O O12 0.492912 0.250000 0.056039
O O13 0.579928 0.010528 0.092693
O O14 0.408851 0.018908 0.093166
O O15 0.500000 0.000000 0.000000
O O16 0.750000 0.553155 0.390022
O O17 0.633386 0.750000 0.353200
O O18 0.250000 0.520197 0.887554
O O19 0.352223 0.750000 0.864605
O O20 0.250000 0.943884 0.115411
O O21 0.122423 0.750000 0.131805
O O22 0.750000 0.554546 0.607343
O O23 0.878634 0.750000 0.620139
#
# Coordination Sequence:
#
# PCOD8240155 Si02
#       8
#     8   8   8   8   8   8   8   8
#     4  11  24  41  61  84 114 154 200 250 297 348
#     4  10  19  35  61  91 121 154 193 238 295 358
#     4  10  18  33  60  90 117 148 189 233 283 348
#     4  11  23  41  62  86 116 156 201 249 301 355
#     4  10  22  39  58  84 118 154 189 232 292 351
#     4   9  18  34  57  85 116 149 185 229 285 345
#     4  11  24  40  60  88 121 159 202 248 298 351
#     4  10  21  38  61  88 120 157 194 238 297 360
#
# _framework density 19.562401999999999
#
# number of rings (size 3 to 8) (size 9 to 14) (size 15 to 20)
#    0.000    1.750    2.500    1.875    0.000    5.000 
#    0.000    2.500    0.000    1.875    0.000    0.000 
#    0.000    0.000    0.000    0.000    0.000    0.000 
#
# Total GULP energy -793724.797141 kJ/mol
# GULP energy per Si atom -12401.949955 kJ/mol
# Density = 1.951788 g / cm^3
# Si number density = 19.562402 Si / 1000 Ang^3
#
#
#
# Elastic Constant Matrix: (Units=GPa)
#
#
# Indices 1 2 3 4 5 6 
#
# 1 134.6946 39.7866 63.3361 0.0000 0.0000 0.0000
# 2 39.7866 60.7410 42.9634 0.0000 0.0000 0.0000
# 3 63.3361 42.9634 140.0175 0.0000 0.0000 0.0000
# 4 0.0000 0.0000 0.0000 34.1830 0.0000 0.0000
# 5 0.0000 0.0000 0.0000 0.0000 11.5460 0.0000
# 6 0.0000 0.0000 0.0000 0.0000 0.0000 28.4439
#
#
#
# Elastic Compliance Matrix: (Units=1/GPa)
#
#
# Indices 1 2 3 4 5 6 
#
# 1 0.010274 -0.004397 -0.003298 0.000000 0.000000 0.000000
# 2 -0.004397 0.022908 -0.005041 0.000000 0.000000 0.000000
# 3 -0.003298 -0.005041 0.010181 0.000000 0.000000 0.000000
# 4 0.000000 0.000000 0.000000 0.029254 0.000000 0.000000
# 5 0.000000 0.000000 0.000000 0.000000 0.086610 0.000000
# 6 0.000000 0.000000 0.000000 0.000000 0.000000 0.035157
#
#
# Mechanical properties :
#
#
# Convention : Reuss Voigt Hill
#
# Bulk Modulus (GPa) = 55.89066 69.73615 62.81340
# Shear Modulus (GPa) = 22.14166 27.45906 24.80036
#
# Velocity S-wave (km/s) = 3.36794 3.75062 3.56442
# Velocity P-wave (km/s) = 6.61487 7.38117 7.00850
#
# Compressibility (1/GPa) = 0.01789208
#
# Stress axis : x y z
#
# Youngs Moduli (GPa) = 97.33517 43.65194 98.22671
#
# Poissons Ratio (x) = 0.19192 0.32397
# Poissons Ratio (y) = 0.42795 0.49511
# Poissons Ratio (z) = 0.32103 0.22003
#
# Static dielectric constant tensor:
#      x y z
#    x 3.883110 0.000000 0.000000 
#    y 0.000000 3.429490 0.000000 
#    z 0.000000 0.000000 3.180350 
# 
# 
# High freq. dielectric constant tensor:
#      x y z
#    x 1.779360 0.000000 0.000000 
#    y 0.000000 1.744480 0.000000 
#    z 0.000000 0.000000 1.760720 
# 
# From -- ./inp_files/31439.got.cif
#   From: 2010.03.12/outbox.cif.g09.slc.cpg/sg59_16_cif.got.tgz:31439.got - 2010.04.16 16:29:54.
