data_PCOD8240181
_publ_section_title
;
Structure prediction by ZEFSAII (Michael W. Deem and Ramdas Pophale) SiO2 
 PCOD8240181
Probable space group: P M M N
;
_chemical_formula_sum "Si O2"
_cell_formula_units_Z 40
_cell_length_a 8.646151
_cell_length_b 9.869045
_cell_length_c 24.556461
_cell_angle_alpha 90.000000
_cell_angle_beta 90.000000
_cell_angle_gamma 90.000000
_cell_volume 2095.384481
_symmetry_space_group_name_H-M "P M M N"
_symmetry_group_IT_number 59
_space_group.IT_coordinate_system_code '2'
_symmetry_cell_setting 'orthorhombic'
loop_
_space_group_symop_operation_xyz
x,y,z
1/2-x,1/2-y,z
1/2+x,-y,-z
-x,1/2+y,-z
-x,-y,-z
1/2+x,1/2+y,-z
1/2-x,y,z
x,1/2-y,z
loop_
_atom_site_type_symbol
_atom_site_label
_atom_site_fract_x
_atom_site_fract_y
_atom_site_fract_z
Si Si1 0.566942 0.907768 0.452142
Si Si2 0.434492 0.405054 0.360906
Si Si3 0.566772 0.250000 0.935471
Si Si4 0.565432 0.989494 0.873244
Si Si5 0.575678 0.593219 0.759428
Si Si6 0.067110 0.750000 0.942275
O O1 0.750000 0.909336 0.456703
O O2 0.508638 0.750000 0.454723
O O3 0.500000 0.000000 0.500000
O O4 0.514457 0.979606 0.396678
O O5 0.250000 0.421002 0.363933
O O6 0.477174 0.250000 0.378960
O O7 0.501276 0.431456 0.299749
O O8 0.750000 0.250000 0.939082
O O9 0.505832 0.374826 0.900679
O O10 0.497777 0.250000 0.996373
O O11 0.750000 0.972356 0.872009
O O12 0.499216 0.984308 0.810921
O O13 0.493043 0.878226 0.911075
O O14 0.750000 0.542008 0.753108
O O15 0.569697 0.750000 0.775091
O O16 0.250000 0.750000 0.943969
#
# Coordination Sequence:
#
# PCOD8240181 Si02
#       6
#     8   8   4   8   8   4
#     4  11  24  40  58  83 115 149 185 223 262 310
#     4   9  18  34  57  85 113 139 175 226 274 316
#     4   9  20  33  49  77 107 133 174 229 276 323
#     4  10  18  34  56  76 100 138 181 223 271 324
#     4   8  14  28  53  81 103 130 176 225 263 310
#     4  11  21  33  49  75 107 137 176 225 272 327
#
# _framework density 19.089576000000001
#
# number of rings (size 3 to 8) (size 9 to 14) (size 15 to 20)
#    0.000    2.400    1.000    3.300    0.000    4.400 
#    1.800    2.500    0.000    0.000    0.000    0.000 
#    0.000    0.000    0.000    0.000    0.000    0.000 
#
# Total GULP energy -495598.085063 kJ/mol
# GULP energy per Si atom -12389.952127 kJ/mol
# Density = 1.904613 g / cm^3
# Si number density = 19.089576 Si / 1000 Ang^3
#
#
#
# Elastic Constant Matrix: (Units=GPa)
#
#
# Indices 1 2 3 4 5 6 
#
# 1 32.8608 31.2601 27.2856 0.0000 0.0000 0.0000
# 2 31.2601 161.8480 96.3969 0.0000 0.0000 0.0000
# 3 27.2856 96.3969 177.7011 0.0000 0.0000 0.0000
# 4 0.0000 0.0000 0.0000 30.4335 0.0000 0.0000
# 5 0.0000 0.0000 0.0000 0.0000 24.2106 0.0000
# 6 0.0000 0.0000 0.0000 0.0000 0.0000 26.4454
#
#
#
# Elastic Compliance Matrix: (Units=1/GPa)
#
#
# Indices 1 2 3 4 5 6 
#
# 1 0.038170 -0.005734 -0.002750 0.000000 0.000000 0.000000
# 2 -0.005734 0.009989 -0.004538 0.000000 0.000000 0.000000
# 3 -0.002750 -0.004538 0.008512 0.000000 0.000000 0.000000
# 4 0.000000 0.000000 0.000000 0.032859 0.000000 0.000000
# 5 0.000000 0.000000 0.000000 0.000000 0.041304 0.000000
# 6 0.000000 0.000000 0.000000 0.000000 0.000000 0.037814
#
#
# Mechanical properties :
#
#
# Convention : Reuss Voigt Hill
#
# Bulk Modulus (GPa) = 32.65296 75.81056 54.23176
# Shear Modulus (GPa) = 24.40197 30.71572 27.55884
#
# Velocity S-wave (km/s) = 3.57919 4.01562 3.80367
# Velocity P-wave (km/s) = 5.85005 7.82941 6.91096
#
# Compressibility (1/GPa) = 0.03062509
#
# Stress axis : x y z
#
# Youngs Moduli (GPa) = 26.19859 100.10788 117.48648
#
# Poissons Ratio (x) = 0.57405 0.32312
# Poissons Ratio (y) = 0.15023 0.53319
# Poissons Ratio (z) = 0.07205 0.45432
#
# Static dielectric constant tensor:
#      x y z
#    x 3.176980 0.000000 0.000000 
#    y 0.000000 3.529970 0.000000 
#    z 0.000000 0.000000 4.044950 
# 
# 
# High freq. dielectric constant tensor:
#      x y z
#    x 1.701640 0.000000 0.000000 
#    y 0.000000 1.738420 0.000000 
#    z 0.000000 0.000000 1.768200 
# 
# From -- ./inp_files/32401.got.cif
#   From: 2010.03.12/outbox.cif.g09.slc.cpg/sg59_17_cif.got.tgz:32401.got - 2010.04.16 16:29:54.
