data_PCOD8240935
_publ_section_title
;
Structure prediction by ZEFSAII (Michael W. Deem and Ramdas Pophale) SiO2 
 PCOD8240935
Probable space group: P M M N
;
_chemical_formula_sum "Si O2"
_cell_formula_units_Z 48
_cell_length_a 8.794597
_cell_length_b 18.494074
_cell_length_c 16.247968
_cell_angle_alpha 90.000000
_cell_angle_beta 90.000000
_cell_angle_gamma 90.000000
_cell_volume 2642.698325
_symmetry_space_group_name_H-M "P M M N"
_symmetry_group_IT_number 59
_space_group.IT_coordinate_system_code '2'
_symmetry_cell_setting 'orthorhombic'
loop_
_space_group_symop_operation_xyz
x,y,z
1/2-x,1/2-y,z
1/2+x,-y,-z
-x,1/2+y,-z
-x,-y,-z
1/2+x,1/2+y,-z
1/2-x,y,z
x,1/2-y,z
loop_
_atom_site_type_symbol
_atom_site_label
_atom_site_fract_x
_atom_site_fract_y
_atom_site_fract_z
Si Si1 0.070023 0.026568 0.415807
Si Si2 0.428096 0.408964 0.170813
Si Si3 0.074124 0.666105 0.980086
Si Si4 0.426575 0.037001 0.740662
Si Si5 0.924725 0.668228 0.148767
Si Si6 0.570714 0.829265 0.666463
O O1 0.250000 0.024971 0.422501
O O2 0.010621 0.108183 0.395342
O O3 0.000000 0.000000 0.500000
O O4 0.020117 0.972897 0.343175
O O5 0.250000 0.426383 0.173560
O O6 0.473421 0.380184 0.081960
O O7 0.519026 0.482254 0.188623
O O8 0.472680 0.349938 0.240060
O O9 0.250000 0.648195 0.965782
O O10 0.037494 0.750000 0.965163
O O11 0.028846 0.644058 0.072410
O O12 0.250000 0.024119 0.721735
O O13 0.458938 0.117754 0.773072
O O14 0.750000 0.660697 0.120572
O O15 0.962839 0.750000 0.176146
O O16 0.750000 0.824564 0.657483
O O17 0.499135 0.750000 0.645932
#
# Coordination Sequence:
#
# PCOD8240935 Si02
#       6
#     8   8   8   8   8   8
#     4  10  20  35  56  79 104 134 165 202 251 307
#     4  10  19  31  50  75 104 138 172 207 252 309
#     4  10  20  32  48  73 104 137 174 217 261 299
#     4  10  20  35  55  77 101 129 165 212 260 306
#     4   9  19  36  55  73  96 132 177 218 256 301
#     4   8  15  29  50  75  99 126 164 205 243 288
#
# _framework density 18.163254999999999
#
# number of rings (size 3 to 8) (size 9 to 14) (size 15 to 20)
#    0.000    2.500    0.000    3.500    0.000    3.667 
#    0.000    0.833    0.000   15.000    0.000    0.000 
#    0.000    0.000    0.000    0.000    0.000    0.000 
#
# Total GULP energy -595170.545442 kJ/mol
# GULP energy per Si atom -12399.386363 kJ/mol
# Density = 1.812191 g / cm^3
# Si number density = 18.163255 Si / 1000 Ang^3
#
#
#
# Elastic Constant Matrix: (Units=GPa)
#
#
# Indices 1 2 3 4 5 6 
#
# 1 57.2904 32.0866 33.2935 0.0000 0.0000 0.0000
# 2 32.0866 116.2712 70.1382 0.0000 0.0000 0.0000
# 3 33.2935 70.1382 106.6345 0.0000 0.0000 0.0000
# 4 0.0000 0.0000 0.0000 25.0942 0.0000 0.0000
# 5 0.0000 0.0000 0.0000 0.0000 32.7494 0.0000
# 6 0.0000 0.0000 0.0000 0.0000 0.0000 24.5502
#
#
#
# Elastic Compliance Matrix: (Units=1/GPa)
#
#
# Indices 1 2 3 4 5 6 
#
# 1 0.022019 -0.003198 -0.004771 0.000000 0.000000 0.000000
# 2 -0.003198 0.014722 -0.008685 0.000000 0.000000 0.000000
# 3 -0.004771 -0.008685 0.016580 0.000000 0.000000 0.000000
# 4 0.000000 0.000000 0.000000 0.039850 0.000000 0.000000
# 5 0.000000 0.000000 0.000000 0.000000 0.030535 0.000000
# 6 0.000000 0.000000 0.000000 0.000000 0.000000 0.040733
#
#
# Mechanical properties :
#
#
# Convention : Reuss Voigt Hill
#
# Bulk Modulus (GPa) = 49.96902 61.24807 55.60855
# Shear Modulus (GPa) = 24.45973 26.12394 25.29183
#
# Velocity S-wave (km/s) = 3.67367 3.79659 3.73563
# Velocity P-wave (km/s) = 6.75020 7.28099 7.02061
#
# Compressibility (1/GPa) = 0.02001240
#
# Stress axis : x y z
#
# Youngs Moduli (GPa) = 45.41566 67.92490 60.31436
#
# Poissons Ratio (x) = 0.21725 0.28776
# Poissons Ratio (y) = 0.14526 0.52382
# Poissons Ratio (z) = 0.21668 0.58991
#
# Static dielectric constant tensor:
#      x y z
#    x 3.331030 0.000000 0.000000 
#    y 0.000000 3.657450 0.000000 
#    z 0.000000 0.000000 3.204600 
# 
# 
# High freq. dielectric constant tensor:
#      x y z
#    x 1.699560 0.000000 0.000000 
#    y 0.000000 1.705180 0.000000 
#    z 0.000000 0.000000 1.689870 
# 
# From -- ./inp_files/20399.got.cif
#   From: 2010.03.12/outbox.cif.g09.slc.cpg/sg59_11_cif.got.tgz:20399.got - 2010.04.16 16:29:54.
