data_PCOD8240715
_publ_section_title
;
Structure prediction by ZEFSAII (Michael W. Deem and Ramdas Pophale) SiO2 
 PCOD8240715
Probable space group: P M M N
;
_chemical_formula_sum "Si O2"
_cell_formula_units_Z 40
_cell_length_a 7.861723
_cell_length_b 9.837777
_cell_length_c 29.366837
_cell_angle_alpha 90.000000
_cell_angle_beta 90.000000
_cell_angle_gamma 90.000000
_cell_volume 2271.286316
_symmetry_space_group_name_H-M "P M M N"
_symmetry_group_IT_number 59
_space_group.IT_coordinate_system_code '2'
_symmetry_cell_setting 'orthorhombic'
loop_
_space_group_symop_operation_xyz
x,y,z
1/2-x,1/2-y,z
1/2+x,-y,-z
-x,1/2+y,-z
-x,-y,-z
1/2+x,1/2+y,-z
1/2-x,y,z
x,1/2-y,z
loop_
_atom_site_type_symbol
_atom_site_label
_atom_site_fract_x
_atom_site_fract_y
_atom_site_fract_z
Si Si1 0.750000 0.087750 0.300142
Si Si2 0.250000 0.912459 0.802732
Si Si3 0.059679 0.411863 0.360372
Si Si4 0.550733 0.096471 0.040881
Si Si5 0.062105 0.411256 0.138383
Si Si6 0.449115 0.101287 0.460720
O O1 0.750000 0.250000 0.301426
O O2 0.750000 0.032258 0.248714
O O3 0.579213 0.031546 0.324649
O O4 0.250000 0.750000 0.803234
O O5 0.418422 0.970712 0.827854
O O6 0.250000 0.468711 0.348894
O O7 0.066447 0.250000 0.358805
O O8 0.997836 0.456525 0.411018
O O9 0.750000 0.095421 0.049238
O O10 0.487624 0.250000 0.030229
O O11 0.464882 0.037972 0.086711
O O12 0.500000 0.000000 0.000000
O O13 0.250000 0.457610 0.155062
O O14 0.045676 0.250000 0.138360
O O15 0.250000 0.120298 0.460307
O O16 0.533579 0.250000 0.469404
O O17 0.500000 0.000000 0.500000
#
# Coordination Sequence:
#
# PCOD8240715 Si02
#       6
#     4   4   8   8   8   8
#     4   9  16  24  40  60  81 117 155 185 228 279
#     4   9  16  26  38  60  87 113 155 193 222 279
#     4   8  15  27  39  56  85 115 146 186 228 273
#     4  10  19  31  47  68  96 127 161 198 233 279
#     4   9  16  27  42  59  86 121 150 186 235 276
#     4   9  18  30  44  65  92 122 157 193 230 277
#
# _framework density 17.611165
#
# number of rings (size 3 to 8) (size 9 to 14) (size 15 to 20)
#    0.000    3.000    1.000    1.800    1.400    2.400 
#    0.000    4.000    0.000    0.000    0.000    0.000 
#    0.000    3.200    0.000    5.600    0.000    6.400 
#
# Total GULP energy -495697.922092 kJ/mol
# GULP energy per Si atom -12392.448052 kJ/mol
# Density = 1.757108 g / cm^3
# Si number density = 17.611165 Si / 1000 Ang^3
#
#
#
# Elastic Constant Matrix: (Units=GPa)
#
#
# Indices 1 2 3 4 5 6 
#
# 1 121.7584 15.7383 81.7720 0.0000 0.0000 0.0000
# 2 15.7383 27.5828 32.2420 0.0000 0.0000 0.0000
# 3 81.7720 32.2420 166.0588 0.0000 0.0000 0.0000
# 4 0.0000 0.0000 0.0000 17.5822 0.0000 0.0000
# 5 0.0000 0.0000 0.0000 0.0000 33.2211 0.0000
# 6 0.0000 0.0000 0.0000 0.0000 0.0000 11.7926
#
#
#
# Elastic Compliance Matrix: (Units=1/GPa)
#
#
# Indices 1 2 3 4 5 6 
#
# 1 0.012271 0.000080 -0.006058 0.000000 0.000000 0.000000
# 2 0.000080 0.046899 -0.009145 0.000000 0.000000 0.000000
# 3 -0.006058 -0.009145 0.010781 0.000000 0.000000 0.000000
# 4 0.000000 0.000000 0.000000 0.056876 0.000000 0.000000
# 5 0.000000 0.000000 0.000000 0.000000 0.030101 0.000000
# 6 0.000000 0.000000 0.000000 0.000000 0.000000 0.084799
#
#
# Mechanical properties :
#
#
# Convention : Reuss Voigt Hill
#
# Bulk Modulus (GPa) = 25.18649 63.87830 44.53239
# Shear Modulus (GPa) = 17.53099 24.89570 21.21334
#
# Velocity S-wave (km/s) = 3.15849 3.76391 3.47441
# Velocity P-wave (km/s) = 5.25680 7.43233 6.43714
#
# Compressibility (1/GPa) = 0.03970382
#
# Stress axis : x y z
#
# Youngs Moduli (GPa) = 81.49062 21.32242 92.75706
#
# Poissons Ratio (x) = -0.00170 0.56195
# Poissons Ratio (y) = -0.00650 0.84828
# Poissons Ratio (z) = 0.49369 0.19500
#
# Static dielectric constant tensor:
#      x y z
#    x 3.609870 0.000000 0.000000 
#    y 0.000000 2.526310 0.000000 
#    z 0.000000 0.000000 2.868160 
# 
# 
# High freq. dielectric constant tensor:
#      x y z
#    x 1.697020 0.000000 0.000000 
#    y 0.000000 1.598280 0.000000 
#    z 0.000000 0.000000 1.685590 
# 
# From -- ./inp_files/32386.got.cif
#   From: 2010.03.12/outbox.cif.g09.slc.cpg/sg59_17_cif.got.tgz:32386.got - 2010.04.16 16:29:54.
