data_PCOD8240539
_publ_section_title
;
Structure prediction by ZEFSAII (Michael W. Deem and Ramdas Pophale) SiO2 
 PCOD8240539
Probable space group: P M M N
;
_chemical_formula_sum "Si O2"
_cell_formula_units_Z 64
_cell_length_a 35.248094
_cell_length_b 13.559735
_cell_length_c 8.284759
_cell_angle_alpha 90.000000
_cell_angle_beta 90.000000
_cell_angle_gamma 90.000000
_cell_volume 3959.740446
_symmetry_space_group_name_H-M "P M M N"
_symmetry_group_IT_number 59
_space_group.IT_coordinate_system_code '2'
_symmetry_cell_setting 'orthorhombic'
loop_
_space_group_symop_operation_xyz
x,y,z
1/2-x,1/2-y,z
1/2+x,-y,-z
-x,1/2+y,-z
-x,-y,-z
1/2+x,1/2+y,-z
1/2-x,y,z
x,1/2-y,z
loop_
_atom_site_type_symbol
_atom_site_label
_atom_site_fract_x
_atom_site_fract_y
_atom_site_fract_z
Si Si1 0.451225 0.857924 0.856531
Si Si2 0.490311 0.457037 0.333737
Si Si3 0.665099 0.864423 0.574983
Si Si4 0.161795 0.367589 0.786258
Si Si5 0.911833 0.863848 0.732464
Si Si6 0.992818 0.858737 0.140757
Si Si7 0.293150 0.132791 0.105326
Si Si8 0.087777 0.448310 0.926408
O O1 0.432016 0.750000 0.839652
O O2 0.471574 0.893357 0.694392
O O3 0.488591 0.852534 0.966881
O O4 0.419132 0.934117 0.913820
O O5 0.500000 0.500000 0.500000
O O6 0.452447 0.392449 0.339052
O O7 0.484008 0.552642 0.221724
O O8 0.674640 0.750000 0.580295
O O9 0.676939 0.901844 0.393407
O O10 0.620218 0.884753 0.598126
O O11 0.687630 0.911329 0.729637
O O12 0.157141 0.250000 0.789249
O O13 0.188098 0.404053 0.935875
O O14 0.120976 0.417788 0.805872
O O15 0.912146 0.750000 0.783517
O O16 0.900625 0.925212 0.890681
O O17 0.996237 0.750000 0.225951
O O18 0.948998 0.886174 0.123638
O O19 0.250000 0.095744 0.103922
O O20 0.296166 0.250000 0.108214
#
# Coordination Sequence:
#
# PCOD8240539 Si02
#       8
#     8   8   8   8   8   8   8   8
#     4  10  20  35  49  63  87 120 162 207 253 293
#     4  11  22  32  44  66  92 122 162 205 252 295
#     4   9  19  30  43  66  96 128 162 198 235 275
#     4  10  19  30  46  71  97 127 163 196 230 279
#     4  11  19  31  48  66  92 125 163 206 248 286
#     4  10  19  32  47  63  83 116 162 206 244 283
#     4   9  17  30  47  68  97 132 163 190 228 278
#     4  11  18  31  50  68  85 119 161 202 243 290
#
# _framework density 16.162675
#
# number of rings (size 3 to 8) (size 9 to 14) (size 15 to 20)
#    0.000    1.875    3.750    2.250    3.500    1.500 
#    0.000    2.500    0.000    0.000    0.000    0.000 
#    0.000    0.500    0.000    0.125    0.000    0.000 
#
# Total GULP energy -792902.466159 kJ/mol
# GULP energy per Si atom -12389.101034 kJ/mol
# Density = 1.612589 g / cm^3
# Si number density = 16.162675 Si / 1000 Ang^3
#
#
#
# Elastic Constant Matrix: (Units=GPa)
#
#
# Indices 1 2 3 4 5 6 
#
# 1 73.2219 19.6797 42.8298 0.0000 0.0000 0.0000
# 2 19.6797 75.3795 19.6381 0.0000 0.0000 0.0000
# 3 42.8298 19.6381 122.9830 0.0000 0.0000 0.0000
# 4 0.0000 0.0000 0.0000 13.6766 0.0000 0.0000
# 5 0.0000 0.0000 0.0000 0.0000 16.8473 0.0000
# 6 0.0000 0.0000 0.0000 0.0000 0.0000 12.3525
#
#
#
# Elastic Compliance Matrix: (Units=1/GPa)
#
#
# Indices 1 2 3 4 5 6 
#
# 1 0.017850 -0.003173 -0.005710 0.000000 0.000000 0.000000
# 2 -0.003173 0.014406 -0.001195 0.000000 0.000000 0.000000
# 3 -0.005710 -0.001195 0.010311 0.000000 0.000000 0.000000
# 4 0.000000 0.000000 0.000000 0.073117 0.000000 0.000000
# 5 0.000000 0.000000 0.000000 0.000000 0.059357 0.000000
# 6 0.000000 0.000000 0.000000 0.000000 0.000000 0.080956
#
#
# Mechanical properties :
#
#
# Convention : Reuss Voigt Hill
#
# Bulk Modulus (GPa) = 44.62174 48.43107 46.52641
# Shear Modulus (GPa) = 17.62914 21.20439 19.41677
#
# Velocity S-wave (km/s) = 3.30621 3.62599 3.46979
# Velocity P-wave (km/s) = 6.49942 6.89640 6.70085
#
# Compressibility (1/GPa) = 0.02241060
#
# Stress axis : x y z
#
# Youngs Moduli (GPa) = 56.02381 69.41576 96.98819
#
# Poissons Ratio (x) = 0.22023 0.55377
# Poissons Ratio (y) = 0.17774 0.11595
# Poissons Ratio (z) = 0.31988 0.08299
#
# Static dielectric constant tensor:
#      x y z
#    x 3.130340 0.000000 0.000000 
#    y 0.000000 3.050420 0.000000 
#    z 0.000000 0.000000 3.351580 
# 
# 
# High freq. dielectric constant tensor:
#      x y z
#    x 1.600200 0.000000 0.000000 
#    y 0.000000 1.580230 0.000000 
#    z 0.000000 0.000000 1.632570 
# 
# From -- ./inp_files/13269.got.cif
#   From: 2010.03.12/outbox.cif.g09.slc.cpg/sg59_7_cif.got.tgz:13269.got - 2010.04.16 16:29:54.
