data_PCOD8240345
_publ_section_title
;
Structure prediction by ZEFSAII (Michael W. Deem and Ramdas Pophale) SiO2 
 PCOD8240345
Probable space group: P M M N
;
_chemical_formula_sum "Si O2"
_cell_formula_units_Z 64
_cell_length_a 20.235600
_cell_length_b 27.910541
_cell_length_c 6.599945
_cell_angle_alpha 90.000000
_cell_angle_beta 90.000000
_cell_angle_gamma 90.000000
_cell_volume 3727.560124
_symmetry_space_group_name_H-M "P M M N"
_symmetry_group_IT_number 59
_space_group.IT_coordinate_system_code '2'
_symmetry_cell_setting 'orthorhombic'
loop_
_space_group_symop_operation_xyz
x,y,z
1/2-x,1/2-y,z
1/2+x,-y,-z
-x,1/2+y,-z
-x,-y,-z
1/2+x,1/2+y,-z
1/2-x,y,z
x,1/2-y,z
loop_
_atom_site_type_symbol
_atom_site_label
_atom_site_fract_x
_atom_site_fract_y
_atom_site_fract_z
Si Si1 0.409483 0.663580 0.459123
Si Si2 0.677899 0.195210 0.194876
Si Si3 0.887953 0.466278 0.001936
Si Si4 0.019260 0.611997 0.806265
Si Si5 0.320676 0.915428 0.329655
Si Si6 0.674635 0.501584 0.388861
Si Si7 0.554970 0.524598 0.648555
Si Si8 0.448101 0.804440 0.052682
O O1 0.349185 0.688775 0.576753
O O2 0.462851 0.643674 0.612388
O O3 0.381166 0.620563 0.325202
O O4 0.444953 0.698286 0.296830
O O5 0.750000 0.169004 0.170620
O O6 0.690353 0.250000 0.151544
O O7 0.623165 0.177239 0.034798
O O8 0.826424 0.447988 0.869808
O O9 0.939846 0.491688 0.849444
O O10 0.922566 0.422566 0.118084
O O11 0.856531 0.503007 0.163886
O O12 0.960459 0.577888 0.730328
O O13 0.001225 0.653559 0.974923
O O14 0.250000 0.888940 0.323120
O O15 0.324622 0.946874 0.534072
O O16 0.750000 0.522620 0.392197
O O17 0.625128 0.531062 0.534970
O O18 0.500000 0.500000 0.500000
O O19 0.465657 0.750000 0.975396
#
# Coordination Sequence:
#
# PCOD8240345 Si02
#       8
#     8   8   8   8   8   8   8   8
#     4  11  19  32  47  66  93 122 174 219 275 306
#     4   9  19  33  45  61  85 119 169 223 271 316
#     4  11  19  34  51  74 102 137 175 219 264 312
#     4  11  21  34  53  77  99 131 177 224 263 317
#     4  10  19  29  43  68  96 131 176 218 261 313
#     4  10  21  35  50  74 111 143 177 218 265 319
#     4  11  22  34  57  82 109 139 182 223 264 319
#     4  10  22  36  50  66  94 132 174 224 279 320
#
# _framework density 17.169408000000001
#
# number of rings (size 3 to 8) (size 9 to 14) (size 15 to 20)
#    0.000    1.625    3.750    2.250    0.000    2.000 
#    0.000    1.250    0.000    0.000    0.000    0.000 
#    0.000    0.500    0.000    0.500    0.000    0.000 
#
# Total GULP energy -792839.046602 kJ/mol
# GULP energy per Si atom -12388.110103 kJ/mol
# Density = 1.713033 g / cm^3
# Si number density = 17.169408 Si / 1000 Ang^3
#
#
#
# Elastic Constant Matrix: (Units=GPa)
#
#
# Indices 1 2 3 4 5 6 
#
# 1 62.3097 22.2410 26.4978 0.0000 0.0000 0.0000
# 2 22.2410 57.5407 19.7489 0.0000 0.0000 0.0000
# 3 26.4978 19.7489 100.6816 0.0000 0.0000 0.0000
# 4 0.0000 0.0000 0.0000 25.6652 0.0000 0.0000
# 5 0.0000 0.0000 0.0000 0.0000 16.7787 0.0000
# 6 0.0000 0.0000 0.0000 0.0000 0.0000 19.9212
#
#
#
# Elastic Compliance Matrix: (Units=1/GPa)
#
#
# Indices 1 2 3 4 5 6 
#
# 1 0.020031 -0.006361 -0.004024 0.000000 0.000000 0.000000
# 2 -0.006361 0.020654 -0.002377 0.000000 0.000000 0.000000
# 3 -0.004024 -0.002377 0.011458 0.000000 0.000000 0.000000
# 4 0.000000 0.000000 0.000000 0.038963 0.000000 0.000000
# 5 0.000000 0.000000 0.000000 0.000000 0.059599 0.000000
# 6 0.000000 0.000000 0.000000 0.000000 0.000000 0.050198
#
#
# Mechanical properties :
#
#
# Convention : Reuss Voigt Hill
#
# Bulk Modulus (GPa) = 37.56957 39.72305 38.64631
# Shear Modulus (GPa) = 21.24951 22.60931 21.92941
#
# Velocity S-wave (km/s) = 3.52182 3.63276 3.57772
# Velocity P-wave (km/s) = 6.20217 6.38609 6.29480
#
# Compressibility (1/GPa) = 0.02661729
#
# Stress axis : x y z
#
# Youngs Moduli (GPa) = 49.92335 48.41759 87.27824
#
# Poissons Ratio (x) = 0.30800 0.35121
# Poissons Ratio (y) = 0.31758 0.20747
# Poissons Ratio (z) = 0.20089 0.11509
#
# Static dielectric constant tensor:
#      x y z
#    x 3.394900 0.000000 0.000000 
#    y 0.000000 3.129520 0.000000 
#    z 0.000000 0.000000 3.458690 
# 
# 
# High freq. dielectric constant tensor:
#      x y z
#    x 1.617400 0.000000 0.000000 
#    y 0.000000 1.635660 0.000000 
#    z 0.000000 0.000000 1.685820 
# 
# From -- ./inp_files/3552.got.cif
#   From: 2010.03.12/outbox.cif.g09.slc.cpg/sg59_2_cif.got.tgz:3552.got - 2010.04.16 16:29:54.
