data_PCOD8240016
_publ_section_title
;
Structure prediction by ZEFSAII (Michael W. Deem and Ramdas Pophale) SiO2 
 PCOD8240016
Probable space group: P M M N
;
_chemical_formula_sum "Si O2"
_cell_formula_units_Z 48
_cell_length_a 17.042691
_cell_length_b 14.627133
_cell_length_c 9.981621
_cell_angle_alpha 90.000000
_cell_angle_beta 90.000000
_cell_angle_gamma 90.000000
_cell_volume 2488.275457
_symmetry_space_group_name_H-M "P M M N"
_symmetry_group_IT_number 59
_space_group.IT_coordinate_system_code '2'
_symmetry_cell_setting 'orthorhombic'
loop_
_space_group_symop_operation_xyz
x,y,z
1/2-x,1/2-y,z
1/2+x,-y,-z
-x,1/2+y,-z
-x,-y,-z
1/2+x,1/2+y,-z
1/2-x,y,z
x,1/2-y,z
loop_
_atom_site_type_symbol
_atom_site_label
_atom_site_fract_x
_atom_site_fract_y
_atom_site_fract_z
Si Si1 0.340206 0.438381 0.038763
Si Si2 0.834991 0.553802 0.474697
Si Si3 0.053413 0.061490 0.290653
Si Si4 0.115265 0.250000 0.614561
Si Si5 0.341226 0.250000 0.906605
Si Si6 0.499005 0.250000 0.396783
Si Si7 0.658867 0.250000 0.286990
Si Si8 0.380459 0.550066 0.779265
O O1 0.250000 0.443267 0.081439
O O2 0.391224 0.462568 0.167022
O O3 0.363675 0.337286 0.993199
O O4 0.356639 0.509017 0.920636
O O5 0.750000 0.541523 0.545600
O O6 0.904540 0.521541 0.575225
O O7 0.840024 0.659884 0.434287
O O8 0.830928 0.491160 0.342535
O O9 0.038298 0.167979 0.312590
O O10 0.968984 0.018558 0.257968
O O11 0.105950 0.250000 0.773843
O O12 0.027968 0.250000 0.551136
O O13 0.250000 0.250000 0.863149
O O14 0.594330 0.250000 0.407256
O O15 0.750000 0.250000 0.335519
O O16 0.638466 0.158194 0.203620
#
# Coordination Sequence:
#
# PCOD8240016 Si02
#       8
#     8   8   8   4   4   4   4   8
#     4  11  21  35  56  83 112 144 180 217 267 330
#     4  11  20  34  57  84 111 143 178 218 271 328
#     4  10  21  36  53  80 115 145 176 223 272 322
#     4  10  18  32  53  84 118 142 168 212 266 332
#     4  10  19  31  53  83 115 142 172 210 259 325
#     4   8  19  34  53  78 113 146 176 212 271 326
#     4  10  20  37  57  77 100 136 192 240 266 299
#     4  11  22  37  57  78 105 145 188 228 270 315
#
# _framework density 19.290468000000001
#
# number of rings (size 3 to 8) (size 9 to 14) (size 15 to 20)
#    0.000    1.667    1.667    4.250    0.000    0.000 
#    0.000    2.500    0.000    1.000    0.000    3.500 
#    0.000    0.000    0.000    0.000    0.000    0.000 
#
# Total GULP energy -594910.426999 kJ/mol
# GULP energy per Si atom -12393.967229 kJ/mol
# Density = 1.924656 g / cm^3
# Si number density = 19.290468 Si / 1000 Ang^3
#
#
#
# Elastic Constant Matrix: (Units=GPa)
#
#
# Indices 1 2 3 4 5 6 
#
# 1 116.1214 14.9215 30.5393 0.0000 0.0000 0.0000
# 2 14.9215 90.3356 21.6016 0.0000 0.0000 0.0000
# 3 30.5393 21.6016 92.2284 0.0000 0.0000 0.0000
# 4 0.0000 0.0000 0.0000 11.6132 0.0000 0.0000
# 5 0.0000 0.0000 0.0000 0.0000 32.7684 0.0000
# 6 0.0000 0.0000 0.0000 0.0000 0.0000 73.4365
#
#
#
# Elastic Compliance Matrix: (Units=1/GPa)
#
#
# Indices 1 2 3 4 5 6 
#
# 1 0.009497 -0.000865 -0.002942 0.000000 0.000000 0.000000
# 2 -0.000865 0.011805 -0.002479 0.000000 0.000000 0.000000
# 3 -0.002942 -0.002479 0.012397 0.000000 0.000000 0.000000
# 4 0.000000 0.000000 0.000000 0.086109 0.000000 0.000000
# 5 0.000000 0.000000 0.000000 0.000000 0.030517 0.000000
# 6 0.000000 0.000000 0.000000 0.000000 0.000000 0.013617
#
#
# Mechanical properties :
#
#
# Convention : Reuss Voigt Hill
#
# Bulk Modulus (GPa) = 47.33051 48.09002 47.71027
# Shear Modulus (GPa) = 27.23952 39.00515 33.12234
#
# Velocity S-wave (km/s) = 3.76183 4.50153 4.14820
# Velocity P-wave (km/s) = 6.59223 7.21124 6.90867
#
# Compressibility (1/GPa) = 0.02112802
#
# Stress axis : x y z
#
# Youngs Moduli (GPa) = 105.30132 84.70683 80.66250
#
# Poissons Ratio (x) = 0.07328 0.23730
# Poissons Ratio (y) = 0.09110 0.19993
# Poissons Ratio (z) = 0.30979 0.20995
#
# Static dielectric constant tensor:
#      x y z
#    x 3.745160 0.000000 0.000000 
#    y 0.000000 3.536190 0.000000 
#    z 0.000000 0.000000 3.315460 
# 
# 
# High freq. dielectric constant tensor:
#      x y z
#    x 1.762140 0.000000 0.000000 
#    y 0.000000 1.745030 0.000000 
#    z 0.000000 0.000000 1.734000 
# 
# From -- ./inp_files/10301.got.cif
#   From: 2010.03.12/outbox.cif.g09.slc.cpg/sg59_6_cif.got.tgz:10301.got - 2010.04.16 16:29:54.
