data_PCOD8240602
_publ_section_title
;
Structure prediction by ZEFSAII (Michael W. Deem and Ramdas Pophale) SiO2 
 PCOD8240602
Probable space group: P M M N
;
_chemical_formula_sum "Si O2"
_cell_formula_units_Z 40
_cell_length_a 14.020415
_cell_length_b 18.033285
_cell_length_c 10.190625
_cell_angle_alpha 90.000000
_cell_angle_beta 90.000000
_cell_angle_gamma 90.000000
_cell_volume 2576.537903
_symmetry_space_group_name_H-M "P M M N"
_symmetry_group_IT_number 59
_space_group.IT_coordinate_system_code '2'
_symmetry_cell_setting 'orthorhombic'
loop_
_space_group_symop_operation_xyz
x,y,z
1/2-x,1/2-y,z
1/2+x,-y,-z
-x,1/2+y,-z
-x,-y,-z
1/2+x,1/2+y,-z
1/2-x,y,z
x,1/2-y,z
loop_
_atom_site_type_symbol
_atom_site_label
_atom_site_fract_x
_atom_site_fract_y
_atom_site_fract_z
Si Si1 0.641151 0.837479 0.065567
Si Si2 0.507067 0.833712 0.833605
Si Si3 0.514921 0.833860 0.545394
Si Si4 0.140353 0.412957 0.668596
Si Si5 0.640067 0.412547 0.315741
O O1 0.750000 0.860423 0.035494
O O2 0.631996 0.750000 0.086302
O O3 0.603237 0.877965 0.195653
O O4 0.576995 0.865939 0.944487
O O5 0.475852 0.750000 0.869699
O O6 0.561563 0.834130 0.692044
O O7 0.411335 0.883975 0.818870
O O8 0.503516 0.750000 0.492213
O O9 0.580531 0.880691 0.450323
O O10 0.410113 0.872369 0.558867
O O11 0.250000 0.390631 0.645856
O O12 0.125919 0.500252 0.672651
O O13 0.750000 0.389364 0.311894
#
# Coordination Sequence:
#
# PCOD8240602 Si02
#       5
#     8   8   8   8   8
#     4   9  17  30  46  67  96 124 148 181 231 284
#     4   8  17  30  47  70  90 120 157 191 228 268
#     4   9  18  31  48  71  92 120 157 192 229 272
#     4  10  19  30  48  71  97 125 150 185 235 286
#     4   9  18  32  49  68  92 122 159 194 231 271
#
# _framework density 15.524709
#
# number of rings (size 3 to 8) (size 9 to 14) (size 15 to 20)
#    1.200    1.800    0.000    1.200    0.000    4.400 
#    0.000    2.000    0.000    1.200    0.000    2.800 
#    0.000    0.000    0.000    0.000    0.000    0.000 
#
# Total GULP energy -495603.083040 kJ/mol
# GULP energy per Si atom -12390.077076 kJ/mol
# Density = 1.548937 g / cm^3
# Si number density = 15.524709 Si / 1000 Ang^3
#
#
#
# Elastic Constant Matrix: (Units=GPa)
#
#
# Indices 1 2 3 4 5 6 
#
# 1 92.4419 40.2959 56.1698 0.0000 0.0000 0.0000
# 2 40.2959 55.0303 31.2809 0.0000 0.0000 0.0000
# 3 56.1698 31.2809 84.4622 0.0000 0.0000 0.0000
# 4 0.0000 0.0000 0.0000 23.0988 0.0000 0.0000
# 5 0.0000 0.0000 0.0000 0.0000 13.7809 0.0000
# 6 0.0000 0.0000 0.0000 0.0000 0.0000 15.6498
#
#
#
# Elastic Compliance Matrix: (Units=1/GPa)
#
#
# Indices 1 2 3 4 5 6 
#
# 1 0.021579 -0.009682 -0.010765 0.000000 0.000000 0.000000
# 2 -0.009682 0.027362 -0.003695 0.000000 0.000000 0.000000
# 3 -0.010765 -0.003695 0.020367 0.000000 0.000000 0.000000
# 4 0.000000 0.000000 0.000000 0.043292 0.000000 0.000000
# 5 0.000000 0.000000 0.000000 0.000000 0.072564 0.000000
# 6 0.000000 0.000000 0.000000 0.000000 0.000000 0.063898
#
#
# Mechanical properties :
#
#
# Convention : Reuss Voigt Hill
#
# Bulk Modulus (GPa) = 47.56385 54.15861 50.86123
# Shear Modulus (GPa) = 16.42824 17.45176 16.94000
#
# Velocity S-wave (km/s) = 3.25653 3.35644 3.30686
# Velocity P-wave (km/s) = 6.69657 7.06980 6.88571
#
# Compressibility (1/GPa) = 0.02102437
#
# Stress axis : x y z
#
# Youngs Moduli (GPa) = 46.34107 36.54747 49.09939
#
# Poissons Ratio (x) = 0.35386 0.52855
# Poissons Ratio (y) = 0.44868 0.18140
# Poissons Ratio (z) = 0.49886 0.13503
#
# Static dielectric constant tensor:
#      x y z
#    x 2.848170 0.000000 0.000000 
#    y 0.000000 2.974800 0.000000 
#    z 0.000000 0.000000 2.847700 
# 
# 
# High freq. dielectric constant tensor:
#      x y z
#    x 1.578720 0.000000 0.000000 
#    y 0.000000 1.603160 0.000000 
#    z 0.000000 0.000000 1.581270 
# 
# From -- ./inp_files/8827.got.cif
#   From: 2010.03.12/outbox.cif.g09.slc.cpg/sg59_5_cif.got.tgz:8827.got - 2010.04.16 16:29:54.
