data_PCOD8240022
_publ_section_title
;
Structure prediction by ZEFSAII (Michael W. Deem and Ramdas Pophale) SiO2 
 PCOD8240022
Probable space group: P M M N
;
_chemical_formula_sum "Si O2"
_cell_formula_units_Z 48
_cell_length_a 9.462438
_cell_length_b 19.053784
_cell_length_c 14.918179
_cell_angle_alpha 90.000000
_cell_angle_beta 90.000000
_cell_angle_gamma 90.000000
_cell_volume 2689.676809
_symmetry_space_group_name_H-M "P M M N"
_symmetry_group_IT_number 59
_space_group.IT_coordinate_system_code '2'
_symmetry_cell_setting 'orthorhombic'
loop_
_space_group_symop_operation_xyz
x,y,z
1/2-x,1/2-y,z
1/2+x,-y,-z
-x,1/2+y,-z
-x,-y,-z
1/2+x,1/2+y,-z
1/2-x,y,z
x,1/2-y,z
loop_
_atom_site_type_symbol
_atom_site_label
_atom_site_fract_x
_atom_site_fract_y
_atom_site_fract_z
Si Si1 0.417763 0.085177 0.117127
Si Si2 0.085227 0.831324 0.032616
Si Si3 0.410861 0.559106 0.382508
Si Si4 0.589351 0.903405 0.542195
Si Si5 0.414369 0.562598 0.182934
Si Si6 0.082099 0.172548 0.286202
O O1 0.250000 0.092255 0.101604
O O2 0.470530 0.121352 0.208468
O O3 0.469884 0.004233 0.125003
O O4 0.494602 0.124363 0.036742
O O5 0.250000 0.838023 0.007595
O O6 0.037291 0.750000 0.034579
O O7 0.055881 0.865166 0.130330
O O8 0.250000 0.586377 0.383966
O O9 0.421001 0.479393 0.413382
O O10 0.499666 0.606045 0.451798
O O11 0.479624 0.567086 0.283034
O O12 0.750000 0.885034 0.517156
O O13 0.525219 0.850892 0.616587
O O14 0.250000 0.547700 0.197807
O O15 0.250000 0.170301 0.289481
O O16 0.024364 0.250000 0.264769
#
# Coordination Sequence:
#
# PCOD8240022 Si02
#       6
#     8   8   8   8   8   8
#     4  10  18  32  54  76  94 121 166 210 243 282
#     4  10  21  35  49  69 100 134 162 194 245 299
#     4   9  16  29  49  70  92 121 158 196 230 272
#     4   9  16  28  46  69  95 122 153 191 235 280
#     4   9  17  32  53  73  95 127 166 204 239 286
#     4   9  16  27  46  71  97 125 157 194 240 292
#
# _framework density 17.84601
#
# number of rings (size 3 to 8) (size 9 to 14) (size 15 to 20)
#    0.000    2.667    1.667    1.000    0.000    1.000 
#    0.000    3.333    0.000    2.500    0.000    0.000 
#    0.000    0.000    0.000    0.000    0.000    0.000 
#
# Total GULP energy -594978.082481 kJ/mol
# GULP energy per Si atom -12395.376718 kJ/mol
# Density = 1.780539 g / cm^3
# Si number density = 17.846010 Si / 1000 Ang^3
#
#
#
# Elastic Constant Matrix: (Units=GPa)
#
#
# Indices 1 2 3 4 5 6 
#
# 1 37.8519 15.6756 38.7871 0.0000 0.0000 0.0000
# 2 15.6756 70.3047 39.2921 0.0000 0.0000 0.0000
# 3 38.7871 39.2921 133.5499 0.0000 0.0000 0.0000
# 4 0.0000 0.0000 0.0000 21.7655 0.0000 0.0000
# 5 0.0000 0.0000 0.0000 0.0000 28.3833 0.0000
# 6 0.0000 0.0000 0.0000 0.0000 0.0000 14.5752
#
#
#
# Elastic Compliance Matrix: (Units=1/GPa)
#
#
# Indices 1 2 3 4 5 6 
#
# 1 0.038055 -0.002762 -0.010240 0.000000 0.000000 0.000000
# 2 -0.002762 0.017223 -0.004265 0.000000 0.000000 0.000000
# 3 -0.010240 -0.004265 0.011717 0.000000 0.000000 0.000000
# 4 0.000000 0.000000 0.000000 0.045944 0.000000 0.000000
# 5 0.000000 0.000000 0.000000 0.000000 0.035232 0.000000
# 6 0.000000 0.000000 0.000000 0.000000 0.000000 0.068610
#
#
# Mechanical properties :
#
#
# Convention : Reuss Voigt Hill
#
# Bulk Modulus (GPa) = 30.80600 47.69067 39.24833
# Shear Modulus (GPa) = 19.07406 22.80825 20.94116
#
# Velocity S-wave (km/s) = 3.27282 3.57887 3.42926
# Velocity P-wave (km/s) = 5.61973 6.62263 6.14169
#
# Compressibility (1/GPa) = 0.03246121
#
# Stress axis : x y z
#
# Youngs Moduli (GPa) = 26.27743 58.06066 85.34864
#
# Poissons Ratio (x) = 0.16038 0.87395
# Poissons Ratio (y) = 0.07258 0.36402
# Poissons Ratio (z) = 0.26908 0.24763
#
# Static dielectric constant tensor:
#      x y z
#    x 3.088160 0.000000 0.000000 
#    y 0.000000 3.360550 0.000000 
#    z 0.000000 0.000000 3.477940 
# 
# 
# High freq. dielectric constant tensor:
#      x y z
#    x 1.647290 0.000000 0.000000 
#    y 0.000000 1.682440 0.000000 
#    z 0.000000 0.000000 1.702290 
# 
# From -- ./inp_files/15805.got.cif
#   From: 2010.03.12/outbox.cif.g09.slc.cpg/sg59_8_cif.got.tgz:15805.got - 2010.04.16 16:29:54.
