data_PCOD8240693
_publ_section_title
;
Structure prediction by ZEFSAII (Michael W. Deem and Ramdas Pophale) SiO2 
 PCOD8240693
Probable space group: P M M N
;
_chemical_formula_sum "Si O2"
_cell_formula_units_Z 64
_cell_length_a 30.619667
_cell_length_b 8.850131
_cell_length_c 14.420860
_cell_angle_alpha 90.000000
_cell_angle_beta 90.000000
_cell_angle_gamma 90.000000
_cell_volume 3907.880934
_symmetry_space_group_name_H-M "P M M N"
_symmetry_group_IT_number 59
_space_group.IT_coordinate_system_code '2'
_symmetry_cell_setting 'orthorhombic'
loop_
_space_group_symop_operation_xyz
x,y,z
1/2-x,1/2-y,z
1/2+x,-y,-z
-x,1/2+y,-z
-x,-y,-z
1/2+x,1/2+y,-z
1/2-x,y,z
x,1/2-y,z
loop_
_atom_site_type_symbol
_atom_site_label
_atom_site_fract_x
_atom_site_fract_y
_atom_site_fract_z
Si Si1 0.202096 0.430465 0.846171
Si Si2 0.799499 0.573902 0.365297
Si Si3 0.426018 0.421879 0.736514
Si Si4 0.040328 0.072018 0.054385
Si Si5 0.514983 0.921992 0.741944
Si Si6 0.381625 0.926560 0.571416
Si Si7 0.383961 0.076528 0.932080
Si Si8 0.956781 0.923521 0.541623
O O1 0.250000 0.486110 0.880482
O O2 0.200289 0.250000 0.845990
O O3 0.193882 0.483608 0.740578
O O4 0.164047 0.498105 0.913733
O O5 0.750000 0.541622 0.397489
O O6 0.810660 0.750000 0.371572
O O7 0.831711 0.485173 0.435065
O O8 0.417882 0.250000 0.704077
O O9 0.476402 0.461048 0.725357
O O10 0.397848 0.533459 0.674045
O O11 0.413317 0.445978 0.841950
O O12 0.037888 0.250000 0.034705
O O13 0.040048 0.034147 0.163559
O O14 0.086808 0.006281 0.015340
O O15 0.000000 0.000000 0.000000
O O16 0.496929 0.750000 0.749222
O O17 0.546330 0.938445 0.653151
O O18 0.383106 0.750000 0.553794
O O19 0.412532 0.003178 0.495557
O O20 0.375135 0.250000 0.954835
O O21 0.958535 0.750000 0.510418
O O22 0.000000 0.000000 0.500000
#
# Coordination Sequence:
#
# PCOD8240693 Si02
#       8
#     8   8   8   8   8   8   8   8
#     4   8  13  23  42  68  94 119 151 188 223 269
#     4   9  17  31  51  73  98 129 163 198 238 288
#     4  11  19  29  48  69  94 128 164 199 235 283
#     4  10  19  31  46  68  95 124 157 194 234 284
#     4  10  21  34  47  66  95 125 161 205 247 284
#     4  12  23  33  47  71 101 133 165 202 245 292
#     4   9  16  26  43  68  94 124 158 188 229 276
#     4  11  22  35  50  69  93 127 168 209 251 293
#
# _framework density 16.377161999999998
#
# number of rings (size 3 to 8) (size 9 to 14) (size 15 to 20)
#    0.000    2.000    3.750    2.625    0.000    0.750 
#    0.000    0.000    0.000    0.000    0.000    0.875 
#    0.000    5.000    0.000    0.000    0.000    0.000 
#
# Total GULP energy -793170.730628 kJ/mol
# GULP energy per Si atom -12393.292666 kJ/mol
# Density = 1.633989 g / cm^3
# Si number density = 16.377162 Si / 1000 Ang^3
#
#
#
# Elastic Constant Matrix: (Units=GPa)
#
#
# Indices 1 2 3 4 5 6 
#
# 1 136.1409 39.4628 51.2934 0.0000 0.0000 0.0000
# 2 39.4628 62.4236 31.2496 0.0000 0.0000 0.0000
# 3 51.2934 31.2496 81.7329 0.0000 0.0000 0.0000
# 4 0.0000 0.0000 0.0000 14.1869 0.0000 0.0000
# 5 0.0000 0.0000 0.0000 0.0000 23.5750 0.0000
# 6 0.0000 0.0000 0.0000 0.0000 0.0000 22.0799
#
#
#
# Elastic Compliance Matrix: (Units=1/GPa)
#
#
# Indices 1 2 3 4 5 6 
#
# 1 0.010401 -0.004091 -0.004963 0.000000 0.000000 0.000000
# 2 -0.004091 0.021420 -0.005623 0.000000 0.000000 0.000000
# 3 -0.004963 -0.005623 0.017500 0.000000 0.000000 0.000000
# 4 0.000000 0.000000 0.000000 0.070488 0.000000 0.000000
# 5 0.000000 0.000000 0.000000 0.000000 0.042418 0.000000
# 6 0.000000 0.000000 0.000000 0.000000 0.000000 0.045290
#
#
# Mechanical properties :
#
#
# Convention : Reuss Voigt Hill
#
# Bulk Modulus (GPa) = 50.08102 58.25655 54.16878
# Shear Modulus (GPa) = 20.53170 22.52114 21.52642
#
# Velocity S-wave (km/s) = 3.54457 3.71233 3.62942
# Velocity P-wave (km/s) = 6.88463 7.35012 7.12118
#
# Compressibility (1/GPa) = 0.01996765
#
# Stress axis : x y z
#
# Youngs Moduli (GPa) = 96.14333 46.68463 57.14393
#
# Poissons Ratio (x) = 0.19097 0.28363
# Poissons Ratio (y) = 0.39329 0.32130
# Poissons Ratio (z) = 0.47720 0.26249
#
# Static dielectric constant tensor:
#      x y z
#    x 3.453320 0.000000 0.000000 
#    y 0.000000 2.970670 0.000000 
#    z 0.000000 0.000000 3.090540 
# 
# 
# High freq. dielectric constant tensor:
#      x y z
#    x 1.629930 0.000000 0.000000 
#    y 0.000000 1.611360 0.000000 
#    z 0.000000 0.000000 1.604530 
# 
# From -- ./inp_files/25027.got.cif
#   From: 2010.03.12/outbox.cif.g09.slc.cpg/sg59_13_cif.got.tgz:25027.got - 2010.04.16 16:29:54.
