data_PCOD8240746
_publ_section_title
;
Structure prediction by ZEFSAII (Michael W. Deem and Ramdas Pophale) SiO2 
 PCOD8240746
Probable space group: P M M N
;
_chemical_formula_sum "Si O2"
_cell_formula_units_Z 64
_cell_length_a 9.497399
_cell_length_b 20.988017
_cell_length_c 17.520333
_cell_angle_alpha 90.000000
_cell_angle_beta 90.000000
_cell_angle_gamma 90.000000
_cell_volume 3492.355513
_symmetry_space_group_name_H-M "P M M N"
_symmetry_group_IT_number 59
_space_group.IT_coordinate_system_code '2'
_symmetry_cell_setting 'orthorhombic'
loop_
_space_group_symop_operation_xyz
x,y,z
1/2-x,1/2-y,z
1/2+x,-y,-z
-x,1/2+y,-z
-x,-y,-z
1/2+x,1/2+y,-z
1/2-x,y,z
x,1/2-y,z
loop_
_atom_site_type_symbol
_atom_site_label
_atom_site_fract_x
_atom_site_fract_y
_atom_site_fract_z
Si Si1 0.585510 0.428656 0.076289
Si Si2 0.916970 0.321448 0.192638
Si Si3 0.917497 0.677262 0.200125
Si Si4 0.585189 0.144425 0.360135
Si Si5 0.588227 0.491326 0.423237
Si Si6 0.585911 0.880216 0.355828
Si Si7 0.403915 0.180113 0.494585
Si Si8 0.085702 0.426595 0.923105
O O1 0.750000 0.417952 0.059449
O O2 0.526564 0.376269 0.135922
O O3 0.560093 0.500920 0.107458
O O4 0.501351 0.415906 0.999389
O O5 0.750000 0.324463 0.193606
O O6 0.967570 0.250000 0.168369
O O7 0.973578 0.337369 0.276987
O O8 0.750000 0.675253 0.203317
O O9 0.969369 0.750000 0.183197
O O10 0.981637 0.652819 0.281053
O O11 0.969421 0.626685 0.136606
O O12 0.750000 0.159525 0.366612
O O13 0.547132 0.071953 0.378647
O O14 0.502918 0.185937 0.421451
O O15 0.500000 0.500000 0.500000
O O16 0.750000 0.491872 0.449430
O O17 0.559960 0.544155 0.357677
O O18 0.750000 0.862242 0.356991
O O19 0.519093 0.856769 0.436039
O O20 0.250000 0.149430 0.474257
O O21 0.378998 0.250000 0.526673
O O22 0.250000 0.416348 0.941066
#
# Coordination Sequence:
#
# PCOD8240746 Si02
#       8
#     8   8   8   8   8   8   8   8
#     4   9  18  33  53  74  98 129 162 193 235 292
#     4   9  18  32  50  73  99 127 163 204 241 283
#     4   9  17  29  48  75 102 127 159 200 244 286
#     4  10  20  32  49  72  98 126 162 206 250 289
#     4  10  19  31  49  72  95 125 164 205 249 294
#     4   9  17  29  46  69  98 126 159 202 242 283
#     4  10  19  31  48  68  94 131 168 200 240 289
#     4   9  18  32  52  77 102 125 155 198 242 285
#
# _framework density 18.325741000000001
#
# number of rings (size 3 to 8) (size 9 to 14) (size 15 to 20)
#    0.000    2.625    1.250    0.750    1.750    2.750 
#    0.000    0.625    0.000    2.250    0.000    0.000 
#    0.000    0.000    0.000    0.000    0.000    0.000 
#
# Total GULP energy -793069.405906 kJ/mol
# GULP energy per Si atom -12391.709467 kJ/mol
# Density = 1.828403 g / cm^3
# Si number density = 18.325741 Si / 1000 Ang^3
#
#
#
# Elastic Constant Matrix: (Units=GPa)
#
#
# Indices 1 2 3 4 5 6 
#
# 1 27.4160 22.0759 28.7849 0.0000 0.0000 0.0000
# 2 22.0759 144.1336 72.8230 0.0000 0.0000 0.0000
# 3 28.7849 72.8230 129.8181 0.0000 0.0000 0.0000
# 4 0.0000 0.0000 0.0000 34.3559 0.0000 0.0000
# 5 0.0000 0.0000 0.0000 0.0000 23.9177 0.0000
# 6 0.0000 0.0000 0.0000 0.0000 0.0000 15.0262
#
#
#
# Elastic Compliance Matrix: (Units=1/GPa)
#
#
# Indices 1 2 3 4 5 6 
#
# 1 0.048325 -0.002774 -0.009159 0.000000 0.000000 0.000000
# 2 -0.002774 0.009841 -0.004906 0.000000 0.000000 0.000000
# 3 -0.009159 -0.004906 0.012486 0.000000 0.000000 0.000000
# 4 0.000000 0.000000 0.000000 0.029107 0.000000 0.000000
# 5 0.000000 0.000000 0.000000 0.000000 0.041810 0.000000
# 6 0.000000 0.000000 0.000000 0.000000 0.000000 0.066550
#
#
# Mechanical properties :
#
#
# Convention : Reuss Voigt Hill
#
# Bulk Modulus (GPa) = 27.04534 60.97059 44.00797
# Shear Modulus (GPa) = 19.67558 26.50556 23.09057
#
# Velocity S-wave (km/s) = 3.28023 3.80723 3.55351
# Velocity P-wave (km/s) = 5.39784 7.25736 6.39554
#
# Compressibility (1/GPa) = 0.03697494
#
# Stress axis : x y z
#
# Youngs Moduli (GPa) = 20.69316 101.61165 80.09092
#
# Poissons Ratio (x) = 0.28187 0.73357
# Poissons Ratio (y) = 0.05740 0.39289
# Poissons Ratio (z) = 0.18953 0.49846
#
# Static dielectric constant tensor:
#      x y z
#    x 3.006330 0.000000 0.000000 
#    y 0.000000 3.695630 0.000000 
#    z 0.000000 0.000000 3.514100 
# 
# 
# High freq. dielectric constant tensor:
#      x y z
#    x 1.658870 0.000000 0.000000 
#    y 0.000000 1.732580 0.000000 
#    z 0.000000 0.000000 1.705550 
# 
# From -- ./inp_files/26277.got.cif
#   From: 2010.03.12/outbox.cif.g09.slc.cpg/sg59_14_cif.got.tgz:26277.got - 2010.04.16 16:29:54.
