data_PCOD8240174
_publ_section_title
;
Structure prediction by ZEFSAII (Michael W. Deem and Ramdas Pophale) SiO2 
 PCOD8240174
Probable space group: P M M N
;
_chemical_formula_sum "Si O2"
_cell_formula_units_Z 40
_cell_length_a 8.639754
_cell_length_b 9.539215
_cell_length_c 23.869029
_cell_angle_alpha 90.000000
_cell_angle_beta 90.000000
_cell_angle_gamma 90.000000
_cell_volume 1967.201135
_symmetry_space_group_name_H-M "P M M N"
_symmetry_group_IT_number 59
_space_group.IT_coordinate_system_code '2'
_symmetry_cell_setting 'orthorhombic'
loop_
_space_group_symop_operation_xyz
x,y,z
1/2-x,1/2-y,z
1/2+x,-y,-z
-x,1/2+y,-z
-x,-y,-z
1/2+x,1/2+y,-z
1/2-x,y,z
x,1/2-y,z
loop_
_atom_site_type_symbol
_atom_site_label
_atom_site_fract_x
_atom_site_fract_y
_atom_site_fract_z
Si Si1 0.432758 0.911530 0.449121
Si Si2 0.066600 0.967342 0.130330
Si Si3 0.067109 0.750000 0.041244
Si Si4 0.567021 0.750000 0.918375
Si Si5 0.931604 0.413133 0.348630
Si Si6 0.568748 0.091937 0.746138
O O1 0.250000 0.909054 0.454715
O O2 0.495016 0.750000 0.449345
O O3 0.500000 0.000000 0.500000
O O4 0.478222 0.991343 0.392774
O O5 0.250000 0.954123 0.132228
O O6 0.005248 0.121937 0.118338
O O7 0.005490 0.880643 0.077293
O O8 0.004772 0.914778 0.190235
O O9 0.250000 0.750000 0.033412
O O10 0.992703 0.750000 0.980988
O O11 0.750000 0.750000 0.922740
O O12 0.750000 0.424916 0.360194
O O13 0.984148 0.250000 0.352033
O O14 0.972786 0.477051 0.288302
O O15 0.750000 0.053339 0.742637
O O16 0.540643 0.250000 0.723298
#
# Coordination Sequence:
#
# PCOD8240174 Si02
#       6
#     8   8   4   4   8   8
#     4  11  24  42  66  97 130 165 207 250 291 342
#     4   9  18  33  54  78 105 140 184 232 284 345
#     4  10  18  34  54  74 104 142 179 226 285 344
#     4  10  20  32  50  78 108 138 181 230 279 344
#     4  11  25  42  60  88 125 161 199 246 298 353
#     4  10  20  37  61  86 111 147 198 248 294 353
#
# _framework density 20.333456999999999
#
# number of rings (size 3 to 8) (size 9 to 14) (size 15 to 20)
#    0.000    1.800    1.000    3.000    1.400    8.400 
#    0.000    2.000    0.000    0.000    0.000    0.000 
#    0.000    0.000    0.000    0.000    0.000    0.000 
#
# Total GULP energy -495880.503622 kJ/mol
# GULP energy per Si atom -12397.012591 kJ/mol
# Density = 2.028718 g / cm^3
# Si number density = 20.333457 Si / 1000 Ang^3
#
#
#
# Elastic Constant Matrix: (Units=GPa)
#
#
# Indices 1 2 3 4 5 6 
#
# 1 37.5246 34.9518 14.6021 0.0000 0.0000 0.0000
# 2 34.9518 176.1487 53.2847 0.0000 0.0000 0.0000
# 3 14.6021 53.2847 104.2819 0.0000 0.0000 0.0000
# 4 0.0000 0.0000 0.0000 42.7882 0.0000 0.0000
# 5 0.0000 0.0000 0.0000 0.0000 35.1958 0.0000
# 6 0.0000 0.0000 0.0000 0.0000 0.0000 21.5879
#
#
#
# Elastic Compliance Matrix: (Units=1/GPa)
#
#
# Indices 1 2 3 4 5 6 
#
# 1 0.032889 -0.006071 -0.001503 0.000000 0.000000 0.000000
# 2 -0.006071 0.007836 -0.003154 0.000000 0.000000 0.000000
# 3 -0.001503 -0.003154 0.011411 0.000000 0.000000 0.000000
# 4 0.000000 0.000000 0.000000 0.023371 0.000000 0.000000
# 5 0.000000 0.000000 0.000000 0.000000 0.028412 0.000000
# 6 0.000000 0.000000 0.000000 0.000000 0.000000 0.046322
#
#
# Mechanical properties :
#
#
# Convention : Reuss Voigt Hill
#
# Bulk Modulus (GPa) = 32.59442 58.18136 45.38789
# Shear Modulus (GPa) = 27.48396 34.25549 30.86972
#
# Velocity S-wave (km/s) = 3.68048 4.10895 3.90060
# Velocity P-wave (km/s) = 5.84175 7.15451 6.53119
#
# Compressibility (1/GPa) = 0.03068010
#
# Stress axis : x y z
#
# Youngs Moduli (GPa) = 30.40522 127.62166 87.63257
#
# Poissons Ratio (x) = 0.77482 0.13172
# Poissons Ratio (y) = 0.18460 0.27636
# Poissons Ratio (z) = 0.04570 0.40247
#
# Static dielectric constant tensor:
#      x y z
#    x 3.366050 0.000000 0.000000 
#    y 0.000000 4.164890 0.000000 
#    z 0.000000 0.000000 3.862180 
# 
# 
# High freq. dielectric constant tensor:
#      x y z
#    x 1.762870 0.000000 0.000000 
#    y 0.000000 1.814910 0.000000 
#    z 0.000000 0.000000 1.808480 
# 
# From -- ./inp_files/32423.got.cif
#   From: 2010.03.12/outbox.cif.g09.slc.cpg/sg59_17_cif.got.tgz:32423.got - 2010.04.16 16:29:54.
