data_PCOD8240763
_publ_section_title
;
Structure prediction by ZEFSAII (Michael W. Deem and Ramdas Pophale) SiO2 
 PCOD8240763
Probable space group: P M M N
;
_chemical_formula_sum "Si O2"
_cell_formula_units_Z 56
_cell_length_a 8.981423
_cell_length_b 19.956598
_cell_length_c 19.381224
_cell_angle_alpha 90.000000
_cell_angle_beta 90.000000
_cell_angle_gamma 90.000000
_cell_volume 3473.864392
_symmetry_space_group_name_H-M "P M M N"
_symmetry_group_IT_number 59
_space_group.IT_coordinate_system_code '2'
_symmetry_cell_setting 'orthorhombic'
loop_
_space_group_symop_operation_xyz
x,y,z
1/2-x,1/2-y,z
1/2+x,-y,-z
-x,1/2+y,-z
-x,-y,-z
1/2+x,1/2+y,-z
1/2-x,y,z
x,1/2-y,z
loop_
_atom_site_type_symbol
_atom_site_label
_atom_site_fract_x
_atom_site_fract_y
_atom_site_fract_z
Si Si1 0.580713 0.013778 0.070938
Si Si2 0.917791 0.670230 0.569585
Si Si3 0.073928 0.425406 0.190921
Si Si4 0.082526 0.670305 0.434818
Si Si5 0.421145 0.829146 0.707505
Si Si6 0.081431 0.054417 0.795935
Si Si7 0.925249 0.674596 0.296143
O O1 0.750000 0.036008 0.056151
O O2 0.575850 0.946814 0.119816
O O3 0.495965 0.072859 0.113305
O O4 0.500000 0.000000 0.000000
O O5 0.750000 0.642220 0.574259
O O6 0.917010 0.750000 0.566829
O O7 0.994989 0.640995 0.500773
O O8 0.009736 0.645033 0.635654
O O9 0.250000 0.421242 0.186293
O O10 0.011399 0.360679 0.229396
O O11 0.022529 0.493356 0.231567
O O12 0.250000 0.641956 0.435708
O O13 0.082646 0.750000 0.438330
O O14 0.002161 0.646572 0.365070
O O15 0.250000 0.851808 0.710280
O O16 0.437976 0.750000 0.714562
O O17 0.250000 0.040449 0.770509
O O18 0.026763 0.126002 0.766868
O O19 0.750000 0.674199 0.309116
O O20 0.979614 0.750000 0.278006
#
# Coordination Sequence:
#
# PCOD8240763 Si02
#       7
#     8   8   8   8   8   8   8
#     4   9  17  31  51  74  96 122 156 193 231 273
#     4   9  16  26  41  62  88 120 159 198 232 273
#     4  10  19  31  49  72  96 125 158 193 230 277
#     4   9  16  25  38  60  90 122 156 195 235 274
#     4  10  19  31  48  70  97 126 155 194 241 282
#     4   8  17  31  47  69  96 123 154 193 233 278
#     4   9  16  28  47  69  93 123 157 194 236 279
#
# _framework density 16.120376
#
# number of rings (size 3 to 8) (size 9 to 14) (size 15 to 20)
#    0.857    2.000    0.000    2.571    0.000    4.857 
#    0.000    0.000    0.000    1.714    0.000    2.000 
#    0.000    0.000    0.000    0.000    0.000    0.000 
#
# Total GULP energy -693921.069094 kJ/mol
# GULP energy per Si atom -12391.447662 kJ/mol
# Density = 1.608369 g / cm^3
# Si number density = 16.120376 Si / 1000 Ang^3
#
#
#
# Elastic Constant Matrix: (Units=GPa)
#
#
# Indices 1 2 3 4 5 6 
#
# 1 125.2916 30.2004 57.5433 0.0000 0.0000 0.0000
# 2 30.2004 35.5275 33.7018 0.0000 0.0000 0.0000
# 3 57.5433 33.7018 115.3267 0.0000 0.0000 0.0000
# 4 0.0000 0.0000 0.0000 21.6665 0.0000 0.0000
# 5 0.0000 0.0000 0.0000 0.0000 31.9720 0.0000
# 6 0.0000 0.0000 0.0000 0.0000 0.0000 17.0001
#
#
#
# Elastic Compliance Matrix: (Units=1/GPa)
#
#
# Indices 1 2 3 4 5 6 
#
# 1 0.011160 -0.005817 -0.003869 0.000000 0.000000 0.000000
# 2 -0.005817 0.041975 -0.009364 0.000000 0.000000 0.000000
# 3 -0.003869 -0.009364 0.013338 0.000000 0.000000 0.000000
# 4 0.000000 0.000000 0.000000 0.046154 0.000000 0.000000
# 5 0.000000 0.000000 0.000000 0.000000 0.031277 0.000000
# 6 0.000000 0.000000 0.000000 0.000000 0.000000 0.058823
#
#
# Mechanical properties :
#
#
# Convention : Reuss Voigt Hill
#
# Bulk Modulus (GPa) = 35.24389 57.67075 46.45732
# Shear Modulus (GPa) = 19.97733 24.44108 22.20921
#
# Velocity S-wave (km/s) = 3.52413 3.89802 3.71578
# Velocity P-wave (km/s) = 6.20240 7.49080 6.87684
#
# Compressibility (1/GPa) = 0.02837371
#
# Stress axis : x y z
#
# Youngs Moduli (GPa) = 89.60347 23.82399 74.97580
#
# Poissons Ratio (x) = 0.13859 0.29005
# Poissons Ratio (y) = 0.52123 0.70205
# Poissons Ratio (z) = 0.34664 0.22308
#
# Static dielectric constant tensor:
#      x y z
#    x 3.194240 0.000000 0.000000 
#    y 0.000000 2.704890 0.000000 
#    z 0.000000 0.000000 3.001000 
# 
# 
# High freq. dielectric constant tensor:
#      x y z
#    x 1.634930 0.000000 0.000000 
#    y 0.000000 1.570430 0.000000 
#    z 0.000000 0.000000 1.612670 
# 
# From -- ./inp_files/29636.got.cif
#   From: 2010.03.12/outbox.cif.g09.slc.cpg/sg59_15_cif.got.tgz:29636.got - 2010.04.16 16:29:54.
