data_PCOD8240118
_publ_section_title
;
Structure prediction by ZEFSAII (Michael W. Deem and Ramdas Pophale) SiO2 
 PCOD8240118
Probable space group: P M M N
;
_chemical_formula_sum "Si O2"
_cell_formula_units_Z 64
_cell_length_a 9.117042
_cell_length_b 19.855035
_cell_length_c 19.905546
_cell_angle_alpha 90.000000
_cell_angle_beta 90.000000
_cell_angle_gamma 90.000000
_cell_volume 3603.285774
_symmetry_space_group_name_H-M "P M M N"
_symmetry_group_IT_number 59
_space_group.IT_coordinate_system_code '2'
_symmetry_cell_setting 'orthorhombic'
loop_
_space_group_symop_operation_xyz
x,y,z
1/2-x,1/2-y,z
1/2+x,-y,-z
-x,1/2+y,-z
-x,-y,-z
1/2+x,1/2+y,-z
1/2-x,y,z
x,1/2-y,z
loop_
_atom_site_type_symbol
_atom_site_label
_atom_site_fract_x
_atom_site_fract_y
_atom_site_fract_z
Si Si1 0.919401 0.410090 0.956735
Si Si2 0.580006 0.560434 0.912199
Si Si3 0.420634 0.564655 0.270264
Si Si4 0.076824 0.930762 0.775858
Si Si5 0.576149 0.175496 0.832287
Si Si6 0.078363 0.094371 0.451471
Si Si7 0.580127 0.327323 0.338844
Si Si8 0.917686 0.442661 0.577773
O O1 0.750000 0.403210 0.977830
O O2 0.946784 0.480828 0.919539
O O3 0.970124 0.352539 0.905101
O O4 0.017589 0.401464 0.022682
O O5 0.750000 0.578251 0.904621
O O6 0.494868 0.586862 0.847206
O O7 0.250000 0.548629 0.253970
O O8 0.514505 0.499465 0.253896
O O9 0.481893 0.626775 0.226502
O O10 0.441629 0.585706 0.347606
O O11 0.250000 0.937742 0.785139
O O12 0.033226 0.870557 0.725830
O O13 0.750000 0.178609 0.827650
O O14 0.507946 0.250000 0.823076
O O15 0.250000 0.106826 0.453745
O O16 0.009164 0.150893 0.404379
O O17 0.016022 0.100990 0.527059
O O18 0.035690 0.021063 0.422609
O O19 0.750000 0.338530 0.355454
O O20 0.544031 0.250000 0.322412
O O21 0.750000 0.435638 0.554372
#
# Coordination Sequence:
#
# PCOD8240118 Si02
#       8
#     8   8   8   8   8   8   8   8
#     4   9  17  31  51  76 104 134 171 215 259 308
#     4  10  19  32  52  77 105 134 170 219 266 310
#     4  10  18  33  54  79 109 141 179 223 265 310
#     4  11  21  33  54  81 106 136 177 223 272 322
#     4   9  17  31  53  79 106 138 175 214 259 312
#     4  10  19  32  53  79 107 137 175 220 265 317
#     4  10  22  39  56  76 106 142 180 224 274 329
#     4   9  18  31  51  78 110 140 172 217 266 311
#
# _framework density 17.761566999999999
#
# number of rings (size 3 to 8) (size 9 to 14) (size 15 to 20)
#    0.000    2.250    2.500    1.125    0.000    2.250 
#    0.000    1.250    0.000    7.500    0.000    0.000 
#    0.000    0.000    0.000    0.000    0.000    0.000 
#
# Total GULP energy -793739.126150 kJ/mol
# GULP energy per Si atom -12402.173846 kJ/mol
# Density = 1.772114 g / cm^3
# Si number density = 17.761567 Si / 1000 Ang^3
#
#
#
# Elastic Constant Matrix: (Units=GPa)
#
#
# Indices 1 2 3 4 5 6 
#
# 1 70.3559 44.6224 60.1139 0.0000 0.0000 0.0000
# 2 44.6224 113.1669 71.1111 0.0000 0.0000 0.0000
# 3 60.1139 71.1111 135.8550 0.0000 0.0000 0.0000
# 4 0.0000 0.0000 0.0000 27.1892 0.0000 0.0000
# 5 0.0000 0.0000 0.0000 0.0000 31.4968 0.0000
# 6 0.0000 0.0000 0.0000 0.0000 0.0000 19.9088
#
#
#
# Elastic Compliance Matrix: (Units=1/GPa)
#
#
# Indices 1 2 3 4 5 6 
#
# 1 0.024110 -0.004177 -0.008482 0.000000 0.000000 0.000000
# 2 -0.004177 0.013891 -0.005423 0.000000 0.000000 0.000000
# 3 -0.008482 -0.005423 0.013952 0.000000 0.000000 0.000000
# 4 0.000000 0.000000 0.000000 0.036779 0.000000 0.000000
# 5 0.000000 0.000000 0.000000 0.000000 0.031749 0.000000
# 6 0.000000 0.000000 0.000000 0.000000 0.000000 0.050229
#
#
# Mechanical properties :
#
#
# Convention : Reuss Voigt Hill
#
# Bulk Modulus (GPa) = 63.33119 74.56362 68.94740
# Shear Modulus (GPa) = 23.56966 25.28767 24.42866
#
# Velocity S-wave (km/s) = 3.64676 3.77733 3.71262
# Velocity P-wave (km/s) = 7.31201 7.81638 7.56840
#
# Compressibility (1/GPa) = 0.01579001
#
# Stress axis : x y z
#
# Youngs Moduli (GPa) = 41.47704 71.98899 71.67215
#
# Poissons Ratio (x) = 0.30068 0.60792
# Poissons Ratio (y) = 0.17324 0.38867
# Poissons Ratio (z) = 0.35181 0.39039
#
# Static dielectric constant tensor:
#      x y z
#    x 3.201720 0.000000 0.000000 
#    y 0.000000 3.210020 0.000000 
#    z 0.000000 0.000000 3.426480 
# 
# 
# High freq. dielectric constant tensor:
#      x y z
#    x 1.677300 0.000000 0.000000 
#    y 0.000000 1.660210 0.000000 
#    z 0.000000 0.000000 1.700470 
# 
# From -- ./inp_files/29791.got.cif
#   From: 2010.03.12/outbox.cif.g09.slc.cpg/sg59_15_cif.got.tgz:29791.got - 2010.04.16 16:29:54.
