data_PCOD8240139
_publ_section_title
;
Structure prediction by ZEFSAII (Michael W. Deem and Ramdas Pophale) SiO2 
 PCOD8240139
Probable space group: P M M N
;
_chemical_formula_sum "Si O2"
_cell_formula_units_Z 48
_cell_length_a 8.988029
_cell_length_b 18.399818
_cell_length_c 14.593380
_cell_angle_alpha 90.000000
_cell_angle_beta 90.000000
_cell_angle_gamma 90.000000
_cell_volume 2413.425425
_symmetry_space_group_name_H-M "P M M N"
_symmetry_group_IT_number 59
_space_group.IT_coordinate_system_code '2'
_symmetry_cell_setting 'orthorhombic'
loop_
_space_group_symop_operation_xyz
x,y,z
1/2-x,1/2-y,z
1/2+x,-y,-z
-x,1/2+y,-z
-x,-y,-z
1/2+x,1/2+y,-z
1/2-x,y,z
x,1/2-y,z
loop_
_atom_site_type_symbol
_atom_site_label
_atom_site_fract_x
_atom_site_fract_y
_atom_site_fract_z
Si Si1 0.424661 0.505992 0.902221
Si Si2 0.574558 0.250000 0.008840
Si Si3 0.579938 0.133336 0.863840
Si Si4 0.572356 0.018573 0.595653
Si Si5 0.076886 0.407955 0.247014
Si Si6 0.079715 0.672717 0.337733
Si Si7 0.579884 0.750000 0.796672
O O1 0.250000 0.514726 0.913606
O O2 0.469873 0.433858 0.847519
O O3 0.486395 0.574124 0.845238
O O4 0.500000 0.500000 0.000000
O O5 0.750000 0.250000 0.015321
O O6 0.524006 0.179091 0.951539
O O7 0.510899 0.250000 0.109738
O O8 0.750000 0.106150 0.878563
O O9 0.568498 0.179520 0.771745
O O10 0.750000 0.018714 0.588347
O O11 0.520302 0.956769 0.667989
O O12 0.500000 0.000000 0.500000
O O13 0.507033 0.098097 0.624549
O O14 0.250000 0.423992 0.229247
O O15 0.046352 0.321880 0.264656
O O16 0.250000 0.669986 0.368809
O O17 0.009871 0.750000 0.375163
O O18 0.750000 0.750000 0.828324
#
# Coordination Sequence:
#
# PCOD8240139 Si02
#       7
#     8   4   8   8   8   8   4
#     4  12  24  36  54  82 115 155 200 245 290 350
#     4  10  20  32  54  85 118 156 197 244 291 344
#     4  10  18  33  56  82 113 151 194 239 288 344
#     4  10  21  39  64  89 118 152 191 243 300 358
#     4  10  21  41  63  83 113 156 199 244 298 351
#     4   9  16  32  60  88 113 148 190 232 285 349
#     4  10  22  38  58  81 112 154 201 244 287 350
#
# _framework density 19.888746000000001
#
# number of rings (size 3 to 8) (size 9 to 14) (size 15 to 20)
#    0.000    1.833    2.500    2.500    0.000    4.667 
#    1.500    0.000    0.000    1.000    0.000    0.000 
#    0.000    0.000    0.000    0.000    0.000    0.000 
#
# Total GULP energy -594868.849696 kJ/mol
# GULP energy per Si atom -12393.101035 kJ/mol
# Density = 1.984348 g / cm^3
# Si number density = 19.888746 Si / 1000 Ang^3
#
#
#
# Elastic Constant Matrix: (Units=GPa)
#
#
# Indices 1 2 3 4 5 6 
#
# 1 53.3316 29.2328 23.3172 0.0000 0.0000 0.0000
# 2 29.2328 178.2593 60.7135 0.0000 0.0000 0.0000
# 3 23.3172 60.7135 106.2527 0.0000 0.0000 0.0000
# 4 0.0000 0.0000 0.0000 23.9343 0.0000 0.0000
# 5 0.0000 0.0000 0.0000 0.0000 30.3139 0.0000
# 6 0.0000 0.0000 0.0000 0.0000 0.0000 17.4235
#
#
#
# Elastic Compliance Matrix: (Units=1/GPa)
#
#
# Indices 1 2 3 4 5 6 
#
# 1 0.021528 -0.002386 -0.003361 0.000000 0.000000 0.000000
# 2 -0.002386 0.007230 -0.003608 0.000000 0.000000 0.000000
# 3 -0.003361 -0.003608 0.012211 0.000000 0.000000 0.000000
# 4 0.000000 0.000000 0.000000 0.041781 0.000000 0.000000
# 5 0.000000 0.000000 0.000000 0.000000 0.032988 0.000000
# 6 0.000000 0.000000 0.000000 0.000000 0.000000 0.057394
#
#
# Mechanical properties :
#
#
# Convention : Reuss Voigt Hill
#
# Bulk Modulus (GPa) = 44.92487 62.70785 53.81636
# Shear Modulus (GPa) = 25.09292 29.30635 27.19963
#
# Velocity S-wave (km/s) = 3.55584 3.84280 3.70210
# Velocity P-wave (km/s) = 6.28457 7.16151 6.73733
#
# Compressibility (1/GPa) = 0.02225939
#
# Stress axis : x y z
#
# Youngs Moduli (GPa) = 46.45170 138.31767 81.89654
#
# Poissons Ratio (x) = 0.32997 0.27526
# Poissons Ratio (y) = 0.11081 0.29545
# Poissons Ratio (z) = 0.15613 0.49899
#
# Static dielectric constant tensor:
#      x y z
#    x 3.496990 0.000000 0.000000 
#    y 0.000000 4.242680 0.000000 
#    z 0.000000 0.000000 3.421210 
# 
# 
# High freq. dielectric constant tensor:
#      x y z
#    x 1.738940 0.000000 0.000000 
#    y 0.000000 1.801790 0.000000 
#    z 0.000000 0.000000 1.756480 
# 
# From -- ./inp_files/20497.got.cif
#   From: 2010.03.12/outbox.cif.g09.slc.cpg/sg59_11_cif.got.tgz:20497.got - 2010.04.16 16:29:54.
