data_PCOD8240505
_publ_section_title
;
Structure prediction by ZEFSAII (Michael W. Deem and Ramdas Pophale) SiO2 
 PCOD8240505
Probable space group: P M M N
;
_chemical_formula_sum "Si O2"
_cell_formula_units_Z 64
_cell_length_a 9.174195
_cell_length_b 13.902248
_cell_length_c 31.131220
_cell_angle_alpha 90.000000
_cell_angle_beta 90.000000
_cell_angle_gamma 90.000000
_cell_volume 3970.536009
_symmetry_space_group_name_H-M "P M M N"
_symmetry_group_IT_number 59
_space_group.IT_coordinate_system_code '2'
_symmetry_cell_setting 'orthorhombic'
loop_
_space_group_symop_operation_xyz
x,y,z
1/2-x,1/2-y,z
1/2+x,-y,-z
-x,1/2+y,-z
-x,-y,-z
1/2+x,1/2+y,-z
1/2-x,y,z
x,1/2-y,z
loop_
_atom_site_type_symbol
_atom_site_label
_atom_site_fract_x
_atom_site_fract_y
_atom_site_fract_z
Si Si1 0.585895 0.410280 0.485094
Si Si2 0.579268 0.527741 0.937151
Si Si3 0.079733 0.361222 0.147742
Si Si4 0.079409 0.137642 0.316117
Si Si5 0.414521 0.864276 0.768267
Si Si6 0.421390 0.957851 0.604996
Si Si7 0.078532 0.359701 0.977964
Si Si8 0.582838 0.354478 0.575235
O O1 0.500000 0.500000 0.500000
O O2 0.750000 0.445508 0.481471
O O3 0.541656 0.385562 0.435567
O O4 0.563842 0.334033 0.523386
O O5 0.750000 0.507105 0.937625
O O6 0.529300 0.576504 0.892922
O O7 0.498387 0.425617 0.942067
O O8 0.535166 0.601042 0.975058
O O9 0.250000 0.373611 0.157478
O O10 0.042651 0.250000 0.138225
O O11 0.991682 0.401826 0.188526
O O12 0.250000 0.116110 0.312982
O O13 0.047285 0.250000 0.322879
O O14 0.004348 0.098524 0.272770
O O15 0.011632 0.079620 0.355146
O O16 0.250000 0.904568 0.766146
O O17 0.415712 0.750000 0.768565
O O18 0.250000 0.958764 0.616332
O O19 0.472901 0.066519 0.594009
O O20 0.250000 0.365463 0.970495
O O21 0.022928 0.250000 0.973790
O O22 0.750000 0.386781 0.584449
O O23 0.550417 0.250000 0.596563
#
# Coordination Sequence:
#
# PCOD8240505 Si02
#       8
#     8   8   8   8   8   8   8   8
#     4   8  15  27  42  60  83 112 144 178 216 255
#     4   9  17  28  43  64  88 117 155 192 224 263
#     4   9  16  27  44  65  90 119 148 179 218 265
#     4  10  20  33  48  66  90 120 151 181 217 267
#     4   9  17  29  45  66  91 116 143 178 220 265
#     4  10  19  30  46  68  93 119 148 185 225 264
#     4   9  17  29  43  60  87 122 156 191 230 266
#     4   9  17  30  47  65  88 120 155 188 221 259
#
# _framework density 16.118731
#
# number of rings (size 3 to 8) (size 9 to 14) (size 15 to 20)
#    0.000    2.875    0.000    1.500    0.000    5.750 
#    0.000    1.250    0.000    2.250    0.000    0.875 
#    0.000    3.000    0.000    0.000    0.000    0.000 
#
# Total GULP energy -792952.511526 kJ/mol
# GULP energy per Si atom -12389.882993 kJ/mol
# Density = 1.608204 g / cm^3
# Si number density = 16.118731 Si / 1000 Ang^3
#
#
#
# Elastic Constant Matrix: (Units=GPa)
#
#
# Indices 1 2 3 4 5 6 
#
# 1 66.3726 35.4614 55.3184 0.0000 0.0000 0.0000
# 2 35.4614 76.4873 46.4652 0.0000 0.0000 0.0000
# 3 55.3184 46.4652 131.0352 0.0000 0.0000 0.0000
# 4 0.0000 0.0000 0.0000 20.4390 0.0000 0.0000
# 5 0.0000 0.0000 0.0000 0.0000 29.2714 0.0000
# 6 0.0000 0.0000 0.0000 0.0000 0.0000 21.4423
#
#
#
# Elastic Compliance Matrix: (Units=1/GPa)
#
#
# Indices 1 2 3 4 5 6 
#
# 1 0.025750 -0.006799 -0.008460 0.000000 0.000000 0.000000
# 2 -0.006799 0.018459 -0.003675 0.000000 0.000000 0.000000
# 3 -0.008460 -0.003675 0.012506 0.000000 0.000000 0.000000
# 4 0.000000 0.000000 0.000000 0.048926 0.000000 0.000000
# 5 0.000000 0.000000 0.000000 0.000000 0.034163 0.000000
# 6 0.000000 0.000000 0.000000 0.000000 0.000000 0.046637
#
#
# Mechanical properties :
#
#
# Convention : Reuss Voigt Hill
#
# Bulk Modulus (GPa) = 53.05911 60.93171 56.99541
# Shear Modulus (GPa) = 21.68340 23.34055 22.51197
#
# Velocity S-wave (km/s) = 3.67172 3.80944 3.74121
# Velocity P-wave (km/s) = 7.13894 7.56525 7.35518
#
# Compressibility (1/GPa) = 0.01884690
#
# Stress axis : x y z
#
# Youngs Moduli (GPa) = 38.83526 54.17428 79.96056
#
# Poissons Ratio (x) = 0.36833 0.67644
# Poissons Ratio (y) = 0.26404 0.29387
# Poissons Ratio (z) = 0.32853 0.19910
#
# Static dielectric constant tensor:
#      x y z
#    x 3.115100 0.000000 0.000000 
#    y 0.000000 2.637860 0.000000 
#    z 0.000000 0.000000 3.303910 
# 
# 
# High freq. dielectric constant tensor:
#      x y z
#    x 1.625770 0.000000 0.000000 
#    y 0.000000 1.587200 0.000000 
#    z 0.000000 0.000000 1.614420 
# 
# From -- ./inp_files/33228.got.cif
#   From: 2010.03.12/outbox.cif.g09.slc.cpg/sg59_17_cif.got.tgz:33228.got - 2010.04.16 16:29:54.
