data_PCOD8240403
_publ_section_title
;
Structure prediction by ZEFSAII (Michael W. Deem and Ramdas Pophale) SiO2 
 PCOD8240403
Probable space group: P M M N
;
_chemical_formula_sum "Si O2"
_cell_formula_units_Z 64
_cell_length_a 9.259227
_cell_length_b 14.185669
_cell_length_c 26.216527
_cell_angle_alpha 90.000000
_cell_angle_beta 90.000000
_cell_angle_gamma 90.000000
_cell_volume 3443.497025
_symmetry_space_group_name_H-M "P M M N"
_symmetry_group_IT_number 59
_space_group.IT_coordinate_system_code '2'
_symmetry_cell_setting 'orthorhombic'
loop_
_space_group_symop_operation_xyz
x,y,z
1/2-x,1/2-y,z
1/2+x,-y,-z
-x,1/2+y,-z
-x,-y,-z
1/2+x,1/2+y,-z
1/2-x,y,z
x,1/2-y,z
loop_
_atom_site_type_symbol
_atom_site_label
_atom_site_fract_x
_atom_site_fract_y
_atom_site_fract_z
Si Si1 0.581225 0.645043 0.923458
Si Si2 0.922068 0.143010 0.775245
Si Si3 0.921859 0.357607 0.361054
Si Si4 0.078564 0.526982 0.322673
Si Si5 0.414817 0.860278 0.024140
Si Si6 0.422774 0.644245 0.419111
Si Si7 0.919751 0.458606 0.875068
Si Si8 0.091798 0.861640 0.527831
O O1 0.750000 0.645542 0.935436
O O2 0.527953 0.750000 0.907247
O O3 0.504918 0.609168 0.974773
O O4 0.545435 0.570957 0.878093
O O5 0.750000 0.144513 0.776545
O O6 0.981776 0.250000 0.774581
O O7 0.975422 0.088186 0.725159
O O8 0.987357 0.087717 0.824277
O O9 0.750000 0.372232 0.359377
O O10 0.960502 0.250000 0.346869
O O11 0.985741 0.383231 0.418010
O O12 0.001805 0.424983 0.320648
O O13 0.250000 0.513232 0.321770
O O14 0.022040 0.578717 0.373586
O O15 0.250000 0.892062 0.015069
O O16 0.426741 0.750000 0.033837
O O17 0.482298 0.909779 0.074068
O O18 0.250000 0.644530 0.421231
O O19 0.479409 0.750000 0.408317
O O20 0.484038 0.605104 0.474326
O O21 0.750000 0.439715 0.873425
O O22 0.250000 0.908199 0.530571
O O23 0.108989 0.750000 0.522583
#
# Coordination Sequence:
#
# PCOD8240403 Si02
#       8
#     8   8   8   8   8   8   8   8
#     4   9  17  28  42  63  92 121 147 180 224 269
#     4   9  17  30  48  70  95 120 149 187 228 271
#     4   9  18  33  50  65  86 121 159 188 220 271
#     4  10  19  29  46  73  96 115 146 191 238 272
#     4   9  16  26  43  67  91 116 149 186 221 259
#     4   8  13  23  41  66  95 122 148 182 226 276
#     4   9  16  27  44  65  89 120 156 187 216 257
#     4   7  11  22  41  63  86 116 153 185 214 262
#
# _framework density 18.585757999999998
#
# number of rings (size 3 to 8) (size 9 to 14) (size 15 to 20)
#    0.000    3.250    0.000    2.625    0.000    3.750 
#    0.000    0.625    0.000    5.250    0.000    3.500 
#    0.000    0.000    0.000    0.000    0.000    0.000 
#
# Total GULP energy -792915.488755 kJ/mol
# GULP energy per Si atom -12389.304512 kJ/mol
# Density = 1.854346 g / cm^3
# Si number density = 18.585758 Si / 1000 Ang^3
#
#
#
# Elastic Constant Matrix: (Units=GPa)
#
#
# Indices 1 2 3 4 5 6 
#
# 1 17.3936 22.4187 21.2857 0.0000 0.0000 0.0000
# 2 22.4187 117.2725 84.8827 0.0000 0.0000 0.0000
# 3 21.2857 84.8827 123.2477 0.0000 0.0000 0.0000
# 4 0.0000 0.0000 0.0000 34.3125 0.0000 0.0000
# 5 0.0000 0.0000 0.0000 0.0000 14.0722 0.0000
# 6 0.0000 0.0000 0.0000 0.0000 0.0000 18.3316
#
#
#
# Elastic Compliance Matrix: (Units=1/GPa)
#
#
# Indices 1 2 3 4 5 6 
#
# 1 0.078778 -0.010393 -0.006448 0.000000 0.000000 0.000000
# 2 -0.010393 0.018374 -0.010860 0.000000 0.000000 0.000000
# 3 -0.006448 -0.010860 0.016707 0.000000 0.000000 0.000000
# 4 0.000000 0.000000 0.000000 0.029144 0.000000 0.000000
# 5 0.000000 0.000000 0.000000 0.000000 0.071062 0.000000
# 6 0.000000 0.000000 0.000000 0.000000 0.000000 0.054551
#
#
# Mechanical properties :
#
#
# Convention : Reuss Voigt Hill
#
# Bulk Modulus (GPa) = 17.10621 57.23201 37.16911
# Shear Modulus (GPa) = 14.55592 21.96503 18.26047
#
# Velocity S-wave (km/s) = 2.80156 3.44149 3.13788
# Velocity P-wave (km/s) = 4.43722 6.83024 5.75939
#
# Compressibility (1/GPa) = 0.05845830
#
# Stress axis : x y z
#
# Youngs Moduli (GPa) = 12.69385 54.42385 59.85657
#
# Poissons Ratio (x) = 0.56562 0.38594
# Poissons Ratio (y) = 0.13193 0.65003
# Poissons Ratio (z) = 0.08185 0.59103
#
# Static dielectric constant tensor:
#      x y z
#    x 2.829950 0.000000 0.000000 
#    y 0.000000 3.524590 0.000000 
#    z 0.000000 0.000000 3.600700 
# 
# 
# High freq. dielectric constant tensor:
#      x y z
#    x 1.655250 0.000000 0.000000 
#    y 0.000000 1.729470 0.000000 
#    z 0.000000 0.000000 1.715670 
# 
# From -- ./inp_files/31561.got.cif
#   From: 2010.03.12/outbox.cif.g09.slc.cpg/sg59_16_cif.got.tgz:31561.got - 2010.04.16 16:29:54.
