data_PCOD8240834
_publ_section_title
;
Structure prediction by ZEFSAII (Michael W. Deem and Ramdas Pophale) SiO2 
 PCOD8240834
Probable space group: P M M N
;
_chemical_formula_sum "Si O2"
_cell_formula_units_Z 64
_cell_length_a 18.757447
_cell_length_b 9.273562
_cell_length_c 20.945107
_cell_angle_alpha 90.000000
_cell_angle_beta 90.000000
_cell_angle_gamma 90.000000
_cell_volume 3643.366755
_symmetry_space_group_name_H-M "P M M N"
_symmetry_group_IT_number 59
_space_group.IT_coordinate_system_code '2'
_symmetry_cell_setting 'orthorhombic'
loop_
_space_group_symop_operation_xyz
x,y,z
1/2-x,1/2-y,z
1/2+x,-y,-z
-x,1/2+y,-z
-x,-y,-z
1/2+x,1/2+y,-z
1/2-x,y,z
x,1/2-y,z
loop_
_atom_site_type_symbol
_atom_site_label
_atom_site_fract_x
_atom_site_fract_y
_atom_site_fract_z
Si Si1 0.417770 0.919856 0.862836
Si Si2 0.929125 0.086866 0.999039
Si Si3 0.835005 0.087517 0.366363
Si Si4 0.932511 0.081442 0.860659
Si Si5 0.165424 0.085388 0.756525
Si Si6 0.331196 0.580490 0.252626
Si Si7 0.165338 0.088044 0.373615
Si Si8 0.834863 0.912588 0.485931
O O1 0.420329 0.750000 0.846415
O O2 0.496471 0.986385 0.855137
O O3 0.363329 0.000112 0.817145
O O4 0.386421 0.947403 0.935267
O O5 0.954475 0.250000 0.002702
O O6 0.892398 0.057926 0.929854
O O7 0.000000 0.000000 0.000000
O O8 0.750000 0.087751 0.367306
O O9 0.864599 0.250000 0.360048
O O10 0.863155 0.992534 0.307291
O O11 0.865759 0.018702 0.431771
O O12 0.952212 0.250000 0.851125
O O13 0.877398 0.027494 0.807340
O O14 0.250000 0.080369 0.759493
O O15 0.137699 0.250000 0.756550
O O16 0.250000 0.528747 0.241237
O O17 0.334891 0.750000 0.261131
O O18 0.364469 0.512662 0.317200
O O19 0.250000 0.082311 0.373358
O O20 0.138322 0.250000 0.360941
O O21 0.138575 0.035867 0.443746
O O22 0.750000 0.914653 0.483619
O O23 0.861646 0.750000 0.472354
#
# Coordination Sequence:
#
# PCOD8240834 Si02
#       8
#     8   8   8   8   8   8   8   8
#     4  10  19  31  49  72  93 115 150 194 234 271
#     4   8  15  28  46  67  89 115 148 187 229 269
#     4   9  16  25  39  61  88 116 147 186 227 263
#     4   9  17  31  49  68  92 122 155 189 228 276
#     4  10  20  33  48  66  92 126 156 183 224 277
#     4   9  17  28  43  65  93 123 154 189 227 267
#     4   8  14  24  38  57  84 118 152 186 225 267
#     4   8  13  22  36  55  81 114 150 184 220 265
#
# _framework density 17.56617
#
# number of rings (size 3 to 8) (size 9 to 14) (size 15 to 20)
#    0.000    3.125    0.000    1.875    0.000    3.750 
#    0.000    3.125    0.000    2.250    0.000    2.625 
#    0.000    0.000    0.000    0.000    0.000    0.000 
#
# Total GULP energy -792855.201591 kJ/mol
# GULP energy per Si atom -12388.362525 kJ/mol
# Density = 1.752619 g / cm^3
# Si number density = 17.566170 Si / 1000 Ang^3
#
#
#
# Elastic Constant Matrix: (Units=GPa)
#
#
# Indices 1 2 3 4 5 6 
#
# 1 16.7508 18.0237 25.4702 0.0000 0.0000 0.0000
# 2 18.0237 93.3765 72.8603 0.0000 0.0000 0.0000
# 3 25.4702 72.8603 176.0132 0.0000 0.0000 0.0000
# 4 0.0000 0.0000 0.0000 33.0697 0.0000 0.0000
# 5 0.0000 0.0000 0.0000 0.0000 3.5112 0.0000
# 6 0.0000 0.0000 0.0000 0.0000 0.0000 16.3882
#
#
#
# Elastic Compliance Matrix: (Units=1/GPa)
#
#
# Indices 1 2 3 4 5 6 
#
# 1 0.082102 -0.009715 -0.007859 0.000000 0.000000 0.000000
# 2 -0.009715 0.016968 -0.005618 0.000000 0.000000 0.000000
# 3 -0.007859 -0.005618 0.009144 0.000000 0.000000 0.000000
# 4 0.000000 0.000000 0.000000 0.030239 0.000000 0.000000
# 5 0.000000 0.000000 0.000000 0.000000 0.284799 0.000000
# 6 0.000000 0.000000 0.000000 0.000000 0.000000 0.061020
#
#
# Mechanical properties :
#
#
# Convention : Reuss Voigt Hill
#
# Bulk Modulus (GPa) = 16.17339 57.64986 36.91162
# Shear Modulus (GPa) = 9.07000 21.91291 15.49146
#
# Velocity S-wave (km/s) = 2.27476 3.53576 2.97289
# Velocity P-wave (km/s) = 4.01578 7.03979 5.73085
#
# Compressibility (1/GPa) = 0.06182997
#
# Stress axis : x y z
#
# Youngs Moduli (GPa) = 12.17994 58.93332 109.35801
#
# Poissons Ratio (x) = 0.57255 0.85946
# Poissons Ratio (y) = 0.11833 0.61439
# Poissons Ratio (z) = 0.09572 0.33110
#
# Static dielectric constant tensor:
#      x y z
#    x 2.635520 0.000000 0.000000 
#    y 0.000000 3.379910 0.000000 
#    z 0.000000 0.000000 4.033310 
# 
# 
# High freq. dielectric constant tensor:
#      x y z
#    x 1.605940 0.000000 0.000000 
#    y 0.000000 1.684960 0.000000 
#    z 0.000000 0.000000 1.705650 
# 
# From -- ./inp_files/30943.got.cif
#   From: 2010.03.12/outbox.cif.g09.slc.cpg/sg59_16_cif.got.tgz:30943.got - 2010.04.16 16:29:54.
