data_PCOD8240631
_publ_section_title
;
Structure prediction by ZEFSAII (Michael W. Deem and Ramdas Pophale) SiO2 
 PCOD8240631
Probable space group: P M M N
;
_chemical_formula_sum "Si O2"
_cell_formula_units_Z 64
_cell_length_a 9.104045
_cell_length_b 13.802612
_cell_length_c 28.655463
_cell_angle_alpha 90.000000
_cell_angle_beta 90.000000
_cell_angle_gamma 90.000000
_cell_volume 3600.834040
_symmetry_space_group_name_H-M "P M M N"
_symmetry_group_IT_number 59
_space_group.IT_coordinate_system_code '2'
_symmetry_cell_setting 'orthorhombic'
loop_
_space_group_symop_operation_xyz
x,y,z
1/2-x,1/2-y,z
1/2+x,-y,-z
-x,1/2+y,-z
-x,-y,-z
1/2+x,1/2+y,-z
1/2-x,y,z
x,1/2-y,z
loop_
_atom_site_type_symbol
_atom_site_label
_atom_site_fract_x
_atom_site_fract_y
_atom_site_fract_z
Si Si1 0.918717 0.364027 0.577655
Si Si2 0.423197 0.473037 0.658905
Si Si3 0.913983 0.365252 0.474370
Si Si4 0.920972 0.547050 0.069626
Si Si5 0.578289 0.638902 0.616257
Si Si6 0.918483 0.359460 0.014385
Si Si7 0.419565 0.138272 0.750784
Si Si8 0.077260 0.861630 0.154965
O O1 0.750000 0.392510 0.588367
O O2 0.940241 0.250000 0.580757
O O3 0.963284 0.402263 0.525724
O O4 0.025578 0.410729 0.615009
O O5 0.250000 0.483810 0.657147
O O6 0.497547 0.578855 0.656813
O O7 0.474483 0.423391 0.706784
O O8 0.750000 0.402845 0.462249
O O9 0.912480 0.250000 0.476180
O O10 0.025666 0.401007 0.434335
O O11 0.750000 0.567958 0.076989
O O12 0.951424 0.434769 0.056146
O O13 0.005284 0.568174 0.117173
O O14 0.978420 0.618249 0.029388
O O15 0.750000 0.622046 0.619794
O O16 0.533666 0.750000 0.623436
O O17 0.750000 0.370784 0.997656
O O18 0.949659 0.250000 0.032093
O O19 0.250000 0.117908 0.762753
O O20 0.445271 0.250000 0.737949
O O21 0.516326 0.106884 0.794839
O O22 0.250000 0.877575 0.154434
O O23 0.035538 0.750000 0.144097
#
# Coordination Sequence:
#
# PCOD8240631 Si02
#       8
#     8   8   8   8   8   8   8   8
#     4   9  18  32  50  73 102 133 161 192 234 287
#     4  11  22  34  52  76 100 128 160 197 244 297
#     4   8  15  30  50  70  94 125 160 197 236 280
#     4  10  19  30  48  74 102 135 175 215 253 294
#     4  10  21  36  53  72  94 123 161 204 246 288
#     4   9  18  32  48  69 102 141 177 213 252 294
#     4   9  19  36  55  76 102 128 157 196 241 291
#     4  10  20  33  51  75 102 133 166 201 245 294
#
# _framework density 17.773661000000001
#
# number of rings (size 3 to 8) (size 9 to 14) (size 15 to 20)
#    0.000    2.500    0.000    3.000    0.000    6.500 
#    0.000    2.500    0.000    0.750    0.000    1.750 
#    0.000    0.000    0.000    0.000    0.000    0.000 
#
# Total GULP energy -793618.850296 kJ/mol
# GULP energy per Si atom -12400.294536 kJ/mol
# Density = 1.773321 g / cm^3
# Si number density = 17.773661 Si / 1000 Ang^3
#
#
#
# Elastic Constant Matrix: (Units=GPa)
#
#
# Indices 1 2 3 4 5 6 
#
# 1 85.3681 42.0105 67.4154 0.0000 0.0000 0.0000
# 2 42.0105 86.9945 66.7305 0.0000 0.0000 0.0000
# 3 67.4154 66.7305 133.3964 0.0000 0.0000 0.0000
# 4 0.0000 0.0000 0.0000 29.5785 0.0000 0.0000
# 5 0.0000 0.0000 0.0000 0.0000 33.3598 0.0000
# 6 0.0000 0.0000 0.0000 0.0000 0.0000 26.0209
#
#
#
# Elastic Compliance Matrix: (Units=1/GPa)
#
#
# Indices 1 2 3 4 5 6 
#
# 1 0.019993 -0.003090 -0.008558 0.000000 0.000000 0.000000
# 2 -0.003090 0.019130 -0.008008 0.000000 0.000000 0.000000
# 3 -0.008558 -0.008008 0.015827 0.000000 0.000000 0.000000
# 4 0.000000 0.000000 0.000000 0.033808 0.000000 0.000000
# 5 0.000000 0.000000 0.000000 0.000000 0.029976 0.000000
# 6 0.000000 0.000000 0.000000 0.000000 0.000000 0.038431
#
#
# Mechanical properties :
#
#
# Convention : Reuss Voigt Hill
#
# Bulk Modulus (GPa) = 63.94716 73.11909 68.53313
# Shear Modulus (GPa) = 24.79045 26.43203 25.61124
#
# Velocity S-wave (km/s) = 3.73874 3.86054 3.80012
# Velocity P-wave (km/s) = 7.39556 7.81665 7.60902
#
# Compressibility (1/GPa) = 0.01563791
#
# Stress axis : x y z
#
# Youngs Moduli (GPa) = 50.01716 52.27452 63.18140
#
# Poissons Ratio (x) = 0.16154 0.54072
# Poissons Ratio (y) = 0.15456 0.50595
# Poissons Ratio (z) = 0.42806 0.41861
#
# Static dielectric constant tensor:
#      x y z
#    x 3.355520 0.000000 0.000000 
#    y 0.000000 3.350810 0.000000 
#    z 0.000000 0.000000 3.244230 
# 
# 
# High freq. dielectric constant tensor:
#      x y z
#    x 1.694080 0.000000 0.000000 
#    y 0.000000 1.683700 0.000000 
#    z 0.000000 0.000000 1.671110 
# 
# From -- ./inp_files/33251.got.cif
#   From: 2010.03.12/outbox.cif.g09.slc.cpg/sg59_17_cif.got.tgz:33251.got - 2010.04.16 16:29:54.
