data_PCOD8240003
_publ_section_title
;
Structure prediction by ZEFSAII (Michael W. Deem and Ramdas Pophale) SiO2 
 PCOD8240003
Probable space group: P M M N
;
_chemical_formula_sum "Si O2"
_cell_formula_units_Z 64
_cell_length_a 9.204270
_cell_length_b 19.341564
_cell_length_c 20.766279
_cell_angle_alpha 90.000000
_cell_angle_beta 90.000000
_cell_angle_gamma 90.000000
_cell_volume 3696.916347
_symmetry_space_group_name_H-M "P M M N"
_symmetry_group_IT_number 59
_space_group.IT_coordinate_system_code '2'
_symmetry_cell_setting 'orthorhombic'
loop_
_space_group_symop_operation_xyz
x,y,z
1/2-x,1/2-y,z
1/2+x,-y,-z
-x,1/2+y,-z
-x,-y,-z
1/2+x,1/2+y,-z
1/2-x,y,z
x,1/2-y,z
loop_
_atom_site_type_symbol
_atom_site_label
_atom_site_fract_x
_atom_site_fract_y
_atom_site_fract_z
Si Si1 0.578625 0.468693 0.939157
Si Si2 0.581621 0.329296 0.246909
Si Si3 0.078995 0.447761 0.188210
Si Si4 0.422473 0.535017 0.310366
Si Si5 0.577218 0.175060 0.742092
Si Si6 0.580220 0.533451 0.559597
Si Si7 0.082314 0.327513 0.378591
Si Si8 0.422425 0.674317 0.113198
O O1 0.750000 0.470913 0.950742
O O2 0.534854 0.512915 0.876695
O O3 0.522111 0.389438 0.930366
O O4 0.500000 0.500000 0.000000
O O5 0.750000 0.348680 0.251010
O O6 0.557852 0.250000 0.227073
O O7 0.504190 0.374612 0.191671
O O8 0.512198 0.344760 0.316312
O O9 0.250000 0.434170 0.191056
O O10 0.022882 0.492268 0.248838
O O11 0.250000 0.533075 0.311439
O O12 0.481617 0.613787 0.303589
O O13 0.482797 0.502980 0.376243
O O14 0.750000 0.171382 0.745012
O O15 0.526842 0.250000 0.714790
O O16 0.516560 0.165131 0.814442
O O17 0.500000 0.500000 0.500000
O O18 0.750000 0.519102 0.550811
O O19 0.548044 0.615995 0.565811
O O20 0.250000 0.334636 0.357200
O O21 0.048965 0.250000 0.404957
O O22 0.250000 0.670703 0.116372
O O23 0.471622 0.750000 0.085737
#
# Coordination Sequence:
#
# PCOD8240003 Si02
#       8
#     8   8   8   8   8   8   8   8
#     4  10  20  33  51  75 104 135 168 207 249 297
#     4  10  20  32  49  77 107 130 160 211 266 306
#     4  10  18  32  53  74  97 130 171 210 247 296
#     4   9  15  27  46  69  96 124 161 205 245 287
#     4   8  12  20  40  70  98 120 150 198 246 284
#     4  10  20  33  49  71 101 134 168 207 248 295
#     4   9  17  32  54  75  96 130 174 211 248 303
#     4   8  13  24  45  72  97 122 156 198 243 290
#
# _framework density 17.311724999999999
#
# number of rings (size 3 to 8) (size 9 to 14) (size 15 to 20)
#    0.000    2.750    2.500    1.125    0.000    1.750 
#    0.000    1.250    0.000    3.375    0.000    0.000 
#    0.000    0.500    0.000    0.000    0.000    0.250 
#
# Total GULP energy -793161.444737 kJ/mol
# GULP energy per Si atom -12393.147574 kJ/mol
# Density = 1.727232 g / cm^3
# Si number density = 17.311725 Si / 1000 Ang^3
#
#
#
# Elastic Constant Matrix: (Units=GPa)
#
#
# Indices 1 2 3 4 5 6 
#
# 1 38.6611 41.9783 34.5794 0.0000 0.0000 0.0000
# 2 41.9783 167.2940 79.9151 0.0000 0.0000 0.0000
# 3 34.5794 79.9151 116.2444 0.0000 0.0000 0.0000
# 4 0.0000 0.0000 0.0000 28.9816 0.0000 0.0000
# 5 0.0000 0.0000 0.0000 0.0000 24.4203 0.0000
# 6 0.0000 0.0000 0.0000 0.0000 0.0000 18.1733
#
#
#
# Elastic Compliance Matrix: (Units=1/GPa)
#
#
# Indices 1 2 3 4 5 6 
#
# 1 0.039332 -0.006373 -0.007319 0.000000 0.000000 0.000000
# 2 -0.006373 0.009933 -0.004933 0.000000 0.000000 0.000000
# 3 -0.007319 -0.004933 0.014171 0.000000 0.000000 0.000000
# 4 0.000000 0.000000 0.000000 0.034505 0.000000 0.000000
# 5 0.000000 0.000000 0.000000 0.000000 0.040950 0.000000
# 6 0.000000 0.000000 0.000000 0.000000 0.000000 0.055026
#
#
# Mechanical properties :
#
#
# Convention : Reuss Voigt Hill
#
# Bulk Modulus (GPa) = 38.18802 70.57167 54.37984
# Shear Modulus (GPa) = 20.84253 25.36349 23.10301
#
# Velocity S-wave (km/s) = 3.47357 3.83182 3.65708
# Velocity P-wave (km/s) = 6.18017 7.77373 7.02230
#
# Compressibility (1/GPa) = 0.02618622
#
# Stress axis : x y z
#
# Youngs Moduli (GPa) = 25.42469 100.67305 70.56721
#
# Poissons Ratio (x) = 0.64162 0.51645
# Poissons Ratio (y) = 0.16204 0.34810
# Poissons Ratio (z) = 0.18607 0.49661
#
# Static dielectric constant tensor:
#      x y z
#    x 2.840800 0.000000 0.000000 
#    y 0.000000 3.771430 0.000000 
#    z 0.000000 0.000000 3.040990 
# 
# 
# High freq. dielectric constant tensor:
#      x y z
#    x 1.624720 0.000000 0.000000 
#    y 0.000000 1.692730 0.000000 
#    z 0.000000 0.000000 1.638670 
# 
# From -- ./inp_files/26340.got.cif
#   From: 2010.03.12/outbox.cif.g09.slc.cpg/sg59_14_cif.got.tgz:26340.got - 2010.04.16 16:29:54.
