data_PCOD8240811
_publ_section_title
;
Structure prediction by ZEFSAII (Michael W. Deem and Ramdas Pophale) SiO2 
 PCOD8240811
Probable space group: P M M N
;
_chemical_formula_sum "Si O2"
_cell_formula_units_Z 64
_cell_length_a 23.249003
_cell_length_b 8.955904
_cell_length_c 18.853234
_cell_angle_alpha 90.000000
_cell_angle_beta 90.000000
_cell_angle_gamma 90.000000
_cell_volume 3925.541934
_symmetry_space_group_name_H-M "P M M N"
_symmetry_group_IT_number 59
_space_group.IT_coordinate_system_code '2'
_symmetry_cell_setting 'orthorhombic'
loop_
_space_group_symop_operation_xyz
x,y,z
1/2-x,1/2-y,z
1/2+x,-y,-z
-x,1/2+y,-z
-x,-y,-z
1/2+x,1/2+y,-z
1/2-x,y,z
x,1/2-y,z
loop_
_atom_site_type_symbol
_atom_site_label
_atom_site_fract_x
_atom_site_fract_y
_atom_site_fract_z
Si Si1 0.684749 0.077831 0.384810
Si Si2 0.634940 0.926196 0.249812
Si Si3 0.522000 0.574868 0.892766
Si Si4 0.915225 0.076843 0.485209
Si Si5 0.683114 0.924350 0.099731
Si Si6 0.003899 0.427221 0.749062
Si Si7 0.087578 0.924837 0.985826
Si Si8 0.525714 0.576450 0.607719
O O1 0.750000 0.049372 0.408786
O O2 0.672204 0.250000 0.367655
O O3 0.644644 0.025862 0.449900
O O4 0.672263 0.988212 0.313853
O O5 0.636654 0.750000 0.255146
O O6 0.663954 0.981695 0.177139
O O7 0.569647 0.985162 0.253830
O O8 0.531486 0.750000 0.883607
O O9 0.527138 0.495428 0.817289
O O10 0.572357 0.509716 0.941828
O O11 0.459986 0.537120 0.926394
O O12 0.915799 0.250000 0.506984
O O13 0.964624 0.041526 0.428185
O O14 0.923688 0.979388 0.555819
O O15 0.750000 0.957725 0.088738
O O16 0.668656 0.750000 0.091116
O O17 0.648990 0.016423 0.040468
O O18 0.000530 0.250000 0.752885
O O19 0.970104 0.485418 0.680466
O O20 0.090593 0.750000 0.001718
O O21 0.534257 0.750000 0.623831
#
# Coordination Sequence:
#
# PCOD8240811 Si02
#       8
#     8   8   8   8   8   8   8   8
#     4  10  20  33  49  69  96 131 168 205 244 285
#     4  10  20  32  47  68  99 135 171 204 236 283
#     4  10  20  33  51  72  98 129 163 203 249 298
#     4   9  18  32  47  67  95 126 162 203 243 288
#     4  10  20  34  50  69  98 136 174 208 243 285
#     4  11  20  31  50  74 100 131 164 200 245 294
#     4  10  20  33  50  72  98 128 165 208 249 291
#     4  10  19  31  49  70  95 126 161 201 246 292
#
# _framework density 16.303481000000001
#
# number of rings (size 3 to 8) (size 9 to 14) (size 15 to 20)
#    0.000    2.000    2.500    1.875    0.000    4.000 
#    0.000    0.000    0.000    0.000    0.000    0.875 
#    0.000    5.000    0.000    0.000    0.000    0.000 
#
# Total GULP energy -793878.918167 kJ/mol
# GULP energy per Si atom -12404.358096 kJ/mol
# Density = 1.626637 g / cm^3
# Si number density = 16.303481 Si / 1000 Ang^3
#
#
#
# Elastic Constant Matrix: (Units=GPa)
#
#
# Indices 1 2 3 4 5 6 
#
# 1 83.7675 31.2075 54.8104 0.0000 0.0000 0.0000
# 2 31.2075 64.0414 51.1809 0.0000 0.0000 0.0000
# 3 54.8104 51.1809 119.4057 0.0000 0.0000 0.0000
# 4 0.0000 0.0000 0.0000 32.4568 0.0000 0.0000
# 5 0.0000 0.0000 0.0000 0.0000 24.9077 0.0000
# 6 0.0000 0.0000 0.0000 0.0000 0.0000 21.7764
#
#
#
# Elastic Compliance Matrix: (Units=1/GPa)
#
#
# Indices 1 2 3 4 5 6 
#
# 1 0.017484 -0.003203 -0.006653 0.000000 0.000000 0.000000
# 2 -0.003203 0.024338 -0.008961 0.000000 0.000000 0.000000
# 3 -0.006653 -0.008961 0.015270 0.000000 0.000000 0.000000
# 4 0.000000 0.000000 0.000000 0.030810 0.000000 0.000000
# 5 0.000000 0.000000 0.000000 0.000000 0.040148 0.000000
# 6 0.000000 0.000000 0.000000 0.000000 0.000000 0.045921
#
#
# Mechanical properties :
#
#
# Convention : Reuss Voigt Hill
#
# Bulk Modulus (GPa) = 51.39623 60.17913 55.78768
# Shear Modulus (GPa) = 22.92610 24.49587 23.71098
#
# Velocity S-wave (km/s) = 3.75401 3.88041 3.81773
# Velocity P-wave (km/s) = 7.09812 7.55438 7.32980
#
# Compressibility (1/GPa) = 0.01945668
#
# Stress axis : x y z
#
# Youngs Moduli (GPa) = 57.19469 41.08835 65.48909
#
# Poissons Ratio (x) = 0.13162 0.43567
# Poissons Ratio (y) = 0.18322 0.58688
# Poissons Ratio (z) = 0.38050 0.36821
#
# Static dielectric constant tensor:
#      x y z
#    x 2.951750 0.000000 0.000000 
#    y 0.000000 3.069030 0.000000 
#    z 0.000000 0.000000 3.019470 
# 
# 
# High freq. dielectric constant tensor:
#      x y z
#    x 1.601510 0.000000 0.000000 
#    y 0.000000 1.634340 0.000000 
#    z 0.000000 0.000000 1.622160 
# 
# From -- ./inp_files/26501.got.cif
#   From: 2010.03.12/outbox.cif.g09.slc.cpg/sg59_14_cif.got.tgz:26501.got - 2010.04.16 16:29:54.
