data_PCOD8240131
_publ_section_title
;
Structure prediction by ZEFSAII (Michael W. Deem and Ramdas Pophale) SiO2 
 PCOD8240131
Probable space group: P M M N
;
_chemical_formula_sum "Si O2"
_cell_formula_units_Z 48
_cell_length_a 9.080395
_cell_length_b 16.029528
_cell_length_c 16.932464
_cell_angle_alpha 90.000000
_cell_angle_beta 90.000000
_cell_angle_gamma 90.000000
_cell_volume 2464.595415
_symmetry_space_group_name_H-M "P M M N"
_symmetry_group_IT_number 59
_space_group.IT_coordinate_system_code '2'
_symmetry_cell_setting 'orthorhombic'
loop_
_space_group_symop_operation_xyz
x,y,z
1/2-x,1/2-y,z
1/2+x,-y,-z
-x,1/2+y,-z
-x,-y,-z
1/2+x,1/2+y,-z
1/2-x,y,z
x,1/2-y,z
loop_
_atom_site_type_symbol
_atom_site_label
_atom_site_fract_x
_atom_site_fract_y
_atom_site_fract_z
Si Si1 0.075583 0.590938 0.332493
Si Si2 0.574884 0.342812 0.500269
Si Si3 0.580312 0.657022 0.188041
Si Si4 0.074652 0.499566 0.915827
Si Si5 0.078875 0.659025 0.820298
Si Si6 0.421003 0.577148 0.660359
O O1 0.250000 0.593552 0.328309
O O2 0.018136 0.613542 0.420119
O O3 0.012154 0.655447 0.268920
O O4 0.015349 0.500613 0.310417
O O5 0.750000 0.339459 0.497788
O O6 0.509217 0.250000 0.497817
O O7 0.516325 0.391913 0.423679
O O8 0.750000 0.640059 0.209338
O O9 0.559465 0.750000 0.150899
O O10 0.524393 0.585646 0.127949
O O11 0.250000 0.501971 0.924556
O O12 0.012353 0.580981 0.869089
O O13 0.000000 0.500000 0.000000
O O14 0.250000 0.661425 0.840165
O O15 0.009357 0.750000 0.843426
O O16 0.055305 0.647756 0.726423
O O17 0.250000 0.551193 0.654723
#
# Coordination Sequence:
#
# PCOD8240131 Si02
#       6
#     8   8   8   8   8   8
#     4  11  21  33  52  80 116 150 184 229 279 325
#     4   9  18  31  49  77 109 143 187 235 278 323
#     4  10  21  39  61  83 110 148 191 228 268 325
#     4  10  21  38  58  84 113 141 177 224 275 333
#     4   9  17  32  57  84 107 137 181 229 269 315
#     4  10  18  33  56  78 105 144 190 230 272 328
#
# _framework density 19.475812999999999
#
# number of rings (size 3 to 8) (size 9 to 14) (size 15 to 20)
#    0.000    2.167    1.667    2.000    0.000    4.333 
#    0.000    0.833    0.000    5.000    0.000    0.000 
#    0.000    0.000    0.000    0.000    0.000    0.000 
#
# Total GULP energy -595070.498665 kJ/mol
# GULP energy per Si atom -12397.302056 kJ/mol
# Density = 1.943148 g / cm^3
# Si number density = 19.475813 Si / 1000 Ang^3
#
#
#
# Elastic Constant Matrix: (Units=GPa)
#
#
# Indices 1 2 3 4 5 6 
#
# 1 32.1153 24.3565 28.6461 0.0000 0.0000 0.0000
# 2 24.3565 159.7876 63.3654 0.0000 0.0000 0.0000
# 3 28.6461 63.3654 139.0456 0.0000 0.0000 0.0000
# 4 0.0000 0.0000 0.0000 23.8622 0.0000 0.0000
# 5 0.0000 0.0000 0.0000 0.0000 29.6934 0.0000
# 6 0.0000 0.0000 0.0000 0.0000 0.0000 12.9436
#
#
#
# Elastic Compliance Matrix: (Units=1/GPa)
#
#
# Indices 1 2 3 4 5 6 
#
# 1 0.039623 -0.003421 -0.006604 0.000000 0.000000 0.000000
# 2 -0.003421 0.007934 -0.002911 0.000000 0.000000 0.000000
# 3 -0.006604 -0.002911 0.009879 0.000000 0.000000 0.000000
# 4 0.000000 0.000000 0.000000 0.041907 0.000000 0.000000
# 5 0.000000 0.000000 0.000000 0.000000 0.033678 0.000000
# 6 0.000000 0.000000 0.000000 0.000000 0.000000 0.077258
#
#
# Mechanical properties :
#
#
# Convention : Reuss Voigt Hill
#
# Bulk Modulus (GPa) = 31.68144 62.63159 47.15652
# Shear Modulus (GPa) = 20.26982 27.60522 23.93752
#
# Velocity S-wave (km/s) = 3.22959 3.76894 3.50964
# Velocity P-wave (km/s) = 5.49631 7.15320 6.37878
#
# Compressibility (1/GPa) = 0.03156422
#
# Stress axis : x y z
#
# Youngs Moduli (GPa) = 25.23794 126.03817 101.22435
#
# Poissons Ratio (x) = 0.43115 0.66850
# Poissons Ratio (y) = 0.08633 0.29466
# Poissons Ratio (z) = 0.16668 0.36689
#
# Static dielectric constant tensor:
#      x y z
#    x 3.109780 0.000000 0.000000 
#    y 0.000000 3.863030 0.000000 
#    z 0.000000 0.000000 3.600180 
# 
# 
# High freq. dielectric constant tensor:
#      x y z
#    x 1.711750 0.000000 0.000000 
#    y 0.000000 1.774940 0.000000 
#    z 0.000000 0.000000 1.759560 
# 
# From -- ./inp_files/23669.got.cif
#   From: 2010.03.12/outbox.cif.g09.slc.cpg/sg59_12_cif.got.tgz:23669.got - 2010.04.16 16:29:54.
