data_PCOD8240079
_publ_section_title
;
Structure prediction by ZEFSAII (Michael W. Deem and Ramdas Pophale) SiO2 
 PCOD8240079
Probable space group: P M M N
;
_chemical_formula_sum "Si O2"
_cell_formula_units_Z 64
_cell_length_a 18.197974
_cell_length_b 8.952777
_cell_length_c 22.119135
_cell_angle_alpha 90.000000
_cell_angle_beta 90.000000
_cell_angle_gamma 90.000000
_cell_volume 3603.702628
_symmetry_space_group_name_H-M "P M M N"
_symmetry_group_IT_number 59
_space_group.IT_coordinate_system_code '2'
_symmetry_cell_setting 'orthorhombic'
loop_
_space_group_symop_operation_xyz
x,y,z
1/2-x,1/2-y,z
1/2+x,-y,-z
-x,1/2+y,-z
-x,-y,-z
1/2+x,1/2+y,-z
1/2-x,y,z
x,1/2-y,z
loop_
_atom_site_type_symbol
_atom_site_label
_atom_site_fract_x
_atom_site_fract_y
_atom_site_fract_z
Si Si1 0.164757 0.422141 0.735703
Si Si2 0.998864 0.427276 0.934874
Si Si3 0.585645 0.573071 0.385307
Si Si4 0.334637 0.573745 0.503013
Si Si5 0.835507 0.423095 0.732634
Si Si6 0.081401 0.927477 0.385175
Si Si7 0.418725 0.081103 0.163871
Si Si8 0.920028 0.418621 0.162683
O O1 0.250000 0.448394 0.722691
O O2 0.146353 0.250000 0.748454
O O3 0.120325 0.480579 0.677769
O O4 0.141783 0.514535 0.794291
O O5 0.997606 0.250000 0.939840
O O6 0.072085 0.482990 0.898753
O O7 0.926279 0.486438 0.898666
O O8 0.000000 0.500000 0.000000
O O9 0.590419 0.750000 0.392030
O O10 0.631579 0.501272 0.438532
O O11 0.502091 0.515095 0.387777
O O12 0.250000 0.527586 0.497316
O O13 0.344437 0.750000 0.508976
O O14 0.376225 0.511188 0.443892
O O15 0.750000 0.448341 0.720220
O O16 0.854517 0.250000 0.742556
O O17 0.879373 0.489116 0.675172
O O18 0.858440 0.509582 0.792791
O O19 0.085299 0.750000 0.384088
O O20 0.394497 0.250000 0.148249
O O21 0.499693 0.079673 0.195744
O O22 0.897325 0.250000 0.145232
#
# Coordination Sequence:
#
# PCOD8240079 Si02
#       8
#     8   8   8   8   8   8   8   8
#     4  10  20  33  50  74 104 139 177 220 272 325
#     4  10  18  32  56  84 113 143 178 219 259 304
#     4  10  20  34  53  74  99 133 175 221 269 321
#     4  10  20  34  51  72 100 134 172 218 272 326
#     4  10  19  32  53  78 102 135 178 221 269 325
#     4   9  18  33  53  75 100 132 174 221 269 322
#     4   9  19  33  50  77 109 140 176 216 260 308
#     4   9  19  33  51  78 107 138 177 217 260 309
#
# _framework density 17.759512000000001
#
# number of rings (size 3 to 8) (size 9 to 14) (size 15 to 20)
#    0.750    1.625    0.000    3.375    0.000    4.250 
#    0.000    1.250    0.000    2.250    0.000    0.000 
#    0.000    0.000    0.000    0.000    0.000    0.000 
#
# Total GULP energy -793376.569881 kJ/mol
# GULP energy per Si atom -12396.508904 kJ/mol
# Density = 1.771909 g / cm^3
# Si number density = 17.759512 Si / 1000 Ang^3
#
#
#
# Elastic Constant Matrix: (Units=GPa)
#
#
# Indices 1 2 3 4 5 6 
#
# 1 87.3184 37.6839 53.1837 0.0000 0.0000 0.0000
# 2 37.6839 90.4751 58.3033 0.0000 0.0000 0.0000
# 3 53.1837 58.3033 143.2929 0.0000 0.0000 0.0000
# 4 0.0000 0.0000 0.0000 31.1848 0.0000 0.0000
# 5 0.0000 0.0000 0.0000 0.0000 18.5189 0.0000
# 6 0.0000 0.0000 0.0000 0.0000 0.0000 24.1601
#
#
#
# Elastic Compliance Matrix: (Units=1/GPa)
#
#
# Indices 1 2 3 4 5 6 
#
# 1 0.015693 -0.003772 -0.004290 0.000000 0.000000 0.000000
# 2 -0.003772 0.015887 -0.005064 0.000000 0.000000 0.000000
# 3 -0.004290 -0.005064 0.010631 0.000000 0.000000 0.000000
# 4 0.000000 0.000000 0.000000 0.032067 0.000000 0.000000
# 5 0.000000 0.000000 0.000000 0.000000 0.053999 0.000000
# 6 0.000000 0.000000 0.000000 0.000000 0.000000 0.041391
#
#
# Mechanical properties :
#
#
# Convention : Reuss Voigt Hill
#
# Bulk Modulus (GPa) = 62.65761 68.82535 65.74148
# Shear Modulus (GPa) = 24.84593 26.23378 25.53986
#
# Velocity S-wave (km/s) = 3.74441 3.84756 3.79634
# Velocity P-wave (km/s) = 7.35200 7.65353 7.50428
#
# Compressibility (1/GPa) = 0.01595975
#
# Stress axis : x y z
#
# Youngs Moduli (GPa) = 63.72275 62.94331 94.06046
#
# Poissons Ratio (x) = 0.23742 0.40350
# Poissons Ratio (y) = 0.24036 0.47635
# Poissons Ratio (z) = 0.27336 0.31876
#
# Static dielectric constant tensor:
#      x y z
#    x 3.232900 0.000000 0.000000 
#    y 0.000000 3.200610 0.000000 
#    z 0.000000 0.000000 3.224660 
# 
# 
# High freq. dielectric constant tensor:
#      x y z
#    x 1.676720 0.000000 0.000000 
#    y 0.000000 1.677250 0.000000 
#    z 0.000000 0.000000 1.685190 
# 
# From -- ./inp_files/30938.got.cif
#   From: 2010.03.12/outbox.cif.g09.slc.cpg/sg59_16_cif.got.tgz:30938.got - 2010.04.16 16:29:54.
