data_PCOD8240006
_publ_section_title
;
Structure prediction by ZEFSAII (Michael W. Deem and Ramdas Pophale) SiO2 
 PCOD8240006
Probable space group: P M M N
;
_chemical_formula_sum "Si O2"
_cell_formula_units_Z 64
_cell_length_a 18.989943
_cell_length_b 8.804011
_cell_length_c 20.172938
_cell_angle_alpha 90.000000
_cell_angle_beta 90.000000
_cell_angle_gamma 90.000000
_cell_volume 3372.666442
_symmetry_space_group_name_H-M "P M M N"
_symmetry_group_IT_number 59
_space_group.IT_coordinate_system_code '2'
_symmetry_cell_setting 'orthorhombic'
loop_
_space_group_symop_operation_xyz
x,y,z
1/2-x,1/2-y,z
1/2+x,-y,-z
-x,1/2+y,-z
-x,-y,-z
1/2+x,1/2+y,-z
1/2-x,y,z
x,1/2-y,z
loop_
_atom_site_type_symbol
_atom_site_label
_atom_site_fract_x
_atom_site_fract_y
_atom_site_fract_z
Si Si1 0.419456 0.070129 0.845845
Si Si2 0.171712 0.069675 0.723290
Si Si3 0.434808 0.930001 0.362769
Si Si4 0.912523 0.930242 0.403767
Si Si5 0.330175 0.570036 0.474335
Si Si6 0.066879 0.569430 0.214368
Si Si7 0.828653 0.430728 0.896218
Si Si8 0.574855 0.429831 0.016061
O O1 0.418642 0.250000 0.857724
O O2 0.362918 0.016404 0.791726
O O3 0.495662 0.014274 0.821076
O O4 0.397978 0.986084 0.913041
O O5 0.250000 0.000985 0.718878
O O6 0.173234 0.250000 0.720741
O O7 0.126798 0.008709 0.661623
O O8 0.438756 0.750000 0.356936
O O9 0.506609 0.986378 0.398359
O O10 0.367517 0.981669 0.405892
O O11 0.427533 0.999228 0.288679
O O12 0.907390 0.750000 0.410240
O O13 0.875163 0.002896 0.466349
O O14 0.250000 0.507576 0.474917
O O15 0.330611 0.750000 0.480885
O O16 0.066060 0.750000 0.218597
O O17 0.132135 0.510678 0.170205
O O18 0.750000 0.499206 0.896710
O O19 0.826361 0.250000 0.895791
O O20 0.869551 0.487787 0.961360
O O21 0.567825 0.250000 0.014620
O O22 0.500000 0.500000 0.000000
#
# Coordination Sequence:
#
# PCOD8240006 Si02
#       8
#     8   8   8   8   8   8   8   8
#     4  10  18  32  53  76 101 131 167 208 255 304
#     4   9  17  29  49  77 104 130 166 212 256 301
#     4   9  17  30  51  76 101 130 169 215 258 303
#     4  10  18  32  55  77  97 131 178 217 249 301
#     4  10  21  34  47  71 108 139 164 207 266 315
#     4   9  15  28  51  76  99 128 166 209 253 297
#     4   9  18  31  49  76 105 131 165 210 253 293
#     4  11  21  34  54  78 105 137 172 211 253 302
#
# _framework density 18.976084
#
# number of rings (size 3 to 8) (size 9 to 14) (size 15 to 20)
#    0.000    2.375    2.500    1.125    0.000    1.750 
#    0.000    3.125    0.000    2.625    0.000    0.000 
#    0.000    0.000    0.000    0.000    0.000    0.000 
#
# Total GULP energy -793495.094971 kJ/mol
# GULP energy per Si atom -12398.360859 kJ/mol
# Density = 1.893289 g / cm^3
# Si number density = 18.976084 Si / 1000 Ang^3
#
#
#
# Elastic Constant Matrix: (Units=GPa)
#
#
# Indices 1 2 3 4 5 6 
#
# 1 160.0958 17.2208 84.7803 0.0000 0.0000 0.0000
# 2 17.2208 17.8486 20.1998 0.0000 0.0000 0.0000
# 3 84.7803 20.1998 171.2230 0.0000 0.0000 0.0000
# 4 0.0000 0.0000 0.0000 24.1157 0.0000 0.0000
# 5 0.0000 0.0000 0.0000 0.0000 36.6200 0.0000
# 6 0.0000 0.0000 0.0000 0.0000 0.0000 15.6359
#
#
#
# Elastic Compliance Matrix: (Units=1/GPa)
#
#
# Indices 1 2 3 4 5 6 
#
# 1 0.008715 -0.004068 -0.003835 0.000000 0.000000 0.000000
# 2 -0.004068 0.066558 -0.005838 0.000000 0.000000 0.000000
# 3 -0.003835 -0.005838 0.008428 0.000000 0.000000 0.000000
# 4 0.000000 0.000000 0.000000 0.041467 0.000000 0.000000
# 5 0.000000 0.000000 0.000000 0.000000 0.027307 0.000000
# 6 0.000000 0.000000 0.000000 0.000000 0.000000 0.063955
#
#
# Mechanical properties :
#
#
# Convention : Reuss Voigt Hill
#
# Bulk Modulus (GPa) = 17.78748 65.95213 41.86981
# Shear Modulus (GPa) = 19.03656 30.40543 24.72099
#
# Velocity S-wave (km/s) = 3.17075 4.00722 3.61327
# Velocity P-wave (km/s) = 4.77481 7.49942 6.28650
#
# Compressibility (1/GPa) = 0.05621930
#
# Stress axis : x y z
#
# Youngs Moduli (GPa) = 114.74755 15.02438 118.65158
#
# Poissons Ratio (x) = 0.06112 0.45505
# Poissons Ratio (y) = 0.46678 0.69268
# Poissons Ratio (z) = 0.44008 0.08771
#
# Static dielectric constant tensor:
#      x y z
#    x 3.816090 0.000000 0.000000 
#    y 0.000000 2.972460 0.000000 
#    z 0.000000 0.000000 3.793680 
# 
# 
# High freq. dielectric constant tensor:
#      x y z
#    x 1.746440 0.000000 0.000000 
#    y 0.000000 1.677200 0.000000 
#    z 0.000000 0.000000 1.755360 
# 
# From -- ./inp_files/27941.got.cif
#   From: 2010.03.12/outbox.cif.g09.slc.cpg/sg59_14_cif.got.tgz:27941.got - 2010.04.16 16:29:54.
