data_PCOD8240063
_publ_section_title
;
Structure prediction by ZEFSAII (Michael W. Deem and Ramdas Pophale) SiO2 
 PCOD8240063
Probable space group: P M M N
;
_chemical_formula_sum "Si O2"
_cell_formula_units_Z 64
_cell_length_a 8.640151
_cell_length_b 15.410712
_cell_length_c 23.484137
_cell_angle_alpha 90.000000
_cell_angle_beta 90.000000
_cell_angle_gamma 90.000000
_cell_volume 3126.933477
_symmetry_space_group_name_H-M "P M M N"
_symmetry_group_IT_number 59
_space_group.IT_coordinate_system_code '2'
_symmetry_cell_setting 'orthorhombic'
loop_
_space_group_symop_operation_xyz
x,y,z
1/2-x,1/2-y,z
1/2+x,-y,-z
-x,1/2+y,-z
-x,-y,-z
1/2+x,1/2+y,-z
1/2-x,y,z
x,1/2-y,z
loop_
_atom_site_type_symbol
_atom_site_label
_atom_site_fract_x
_atom_site_fract_y
_atom_site_fract_z
Si Si1 0.928248 0.895633 0.557231
Si Si2 0.432806 0.414851 0.029407
Si Si3 0.569229 0.492783 0.133004
Si Si4 0.571002 0.651431 0.322083
Si Si5 0.427635 0.652536 0.670822
Si Si6 0.928689 0.099898 0.561679
Si Si7 0.926275 0.345996 0.926386
Si Si8 0.430122 0.494793 0.254878
O O1 0.750000 0.867747 0.560746
O O2 0.025520 0.845649 0.604779
O O3 0.995064 0.866766 0.496486
O O4 0.949655 0.997413 0.567783
O O5 0.250000 0.409369 0.026588
O O6 0.487503 0.417334 0.095106
O O7 0.500000 0.500000 0.000000
O O8 0.505226 0.338610 0.990854
O O9 0.750000 0.482311 0.124700
O O10 0.520904 0.589300 0.113812
O O11 0.526071 0.478030 0.198021
O O12 0.750000 0.624538 0.318422
O O13 0.545617 0.750000 0.300368
O O14 0.516350 0.646187 0.387014
O O15 0.474011 0.586583 0.282672
O O16 0.250000 0.622557 0.677003
O O17 0.449828 0.750000 0.695330
O O18 0.536993 0.585143 0.703306
O O19 0.750000 0.127135 0.562780
O O20 0.750000 0.379547 0.929081
O O21 0.936146 0.250000 0.899431
O O22 0.250000 0.497230 0.240095
#
# Coordination Sequence:
#
# PCOD8240063 Si02
#       8
#     8   8   8   8   8   8   8   8
#     4  10  20  35  59  89 119 155 195 243 301 363
#     4  10  18  32  55  83 115 149 188 231 277 334
#     4  11  22  38  61  85 115 156 200 244 291 350
#     4  11  24  41  62  88 120 160 203 248 301 364
#     4  11  24  42  65  91 119 154 197 248 306 367
#     4  10  20  35  58  88 120 157 196 243 301 362
#     4  10  20  35  57  88 125 160 196 241 291 345
#     4  12  25  43  65  89 120 160 204 255 307 357
#
# _framework density 20.467337000000001
#
# number of rings (size 3 to 8) (size 9 to 14) (size 15 to 20)
#    0.000    1.375    1.250    6.750    0.000    5.000 
#    0.000    0.625    0.000    3.750    0.000    0.000 
#    0.000    0.000    0.000    0.000    0.000    0.000 
#
# Total GULP energy -793707.262760 kJ/mol
# GULP energy per Si atom -12401.675981 kJ/mol
# Density = 2.042075 g / cm^3
# Si number density = 20.467337 Si / 1000 Ang^3
#
#
#
# Elastic Constant Matrix: (Units=GPa)
#
#
# Indices 1 2 3 4 5 6 
#
# 1 117.9717 19.0243 12.2796 0.0000 0.0000 0.0000
# 2 19.0243 57.5743 10.3593 0.0000 0.0000 0.0000
# 3 12.2796 10.3593 94.5096 0.0000 0.0000 0.0000
# 4 0.0000 0.0000 0.0000 8.0030 0.0000 0.0000
# 5 0.0000 0.0000 0.0000 0.0000 40.9246 0.0000
# 6 0.0000 0.0000 0.0000 0.0000 0.0000 20.3255
#
#
#
# Elastic Compliance Matrix: (Units=1/GPa)
#
#
# Indices 1 2 3 4 5 6 
#
# 1 0.009022 -0.002826 -0.000862 0.000000 0.000000 0.000000
# 2 -0.002826 0.018603 -0.001672 0.000000 0.000000 0.000000
# 3 -0.000862 -0.001672 0.010876 0.000000 0.000000 0.000000
# 4 0.000000 0.000000 0.000000 0.124953 0.000000 0.000000
# 5 0.000000 0.000000 0.000000 0.000000 0.024435 0.000000
# 6 0.000000 0.000000 0.000000 0.000000 0.000000 0.049199
#
#
# Mechanical properties :
#
#
# Convention : Reuss Voigt Hill
#
# Bulk Modulus (GPa) = 35.99585 39.26467 37.63026
# Shear Modulus (GPa) = 19.44991 29.07679 24.26335
#
# Velocity S-wave (km/s) = 3.08602 3.77323 3.44680
# Velocity P-wave (km/s) = 5.50665 6.18132 5.85371
#
# Compressibility (1/GPa) = 0.02778098
#
# Stress axis : x y z
#
# Youngs Moduli (GPa) = 110.83877 53.75333 91.94335
#
# Poissons Ratio (x) = 0.15191 0.07930
# Poissons Ratio (y) = 0.31323 0.15373
# Poissons Ratio (z) = 0.09560 0.08987
#
# Static dielectric constant tensor:
#      x y z
#    x 3.819730 0.000000 0.000000 
#    y 0.000000 3.720780 0.000000 
#    z 0.000000 0.000000 3.883780 
# 
# 
# High freq. dielectric constant tensor:
#      x y z
#    x 1.817660 0.000000 0.000000 
#    y 0.000000 1.788340 0.000000 
#    z 0.000000 0.000000 1.797170 
# 
# From -- ./inp_files/31641.got.cif
#   From: 2010.03.12/outbox.cif.g09.slc.cpg/sg59_16_cif.got.tgz:31641.got - 2010.04.16 16:29:54.
