data_PCOD8240858
_publ_section_title
;
Structure prediction by ZEFSAII (Michael W. Deem and Ramdas Pophale) SiO2 
 PCOD8240858
Probable space group: P M M N
;
_chemical_formula_sum "Si O2"
_cell_formula_units_Z 64
_cell_length_a 32.991877
_cell_length_b 9.318146
_cell_length_c 11.525028
_cell_angle_alpha 90.000000
_cell_angle_beta 90.000000
_cell_angle_gamma 90.000000
_cell_volume 3543.060143
_symmetry_space_group_name_H-M "P M M N"
_symmetry_group_IT_number 59
_space_group.IT_coordinate_system_code '2'
_symmetry_cell_setting 'orthorhombic'
loop_
_space_group_symop_operation_xyz
x,y,z
1/2-x,1/2-y,z
1/2+x,-y,-z
-x,1/2+y,-z
-x,-y,-z
1/2+x,1/2+y,-z
1/2-x,y,z
x,1/2-y,z
loop_
_atom_site_type_symbol
_atom_site_label
_atom_site_fract_x
_atom_site_fract_y
_atom_site_fract_z
Si Si1 0.868654 0.080293 0.628546
Si Si2 0.968568 0.918165 0.257380
Si Si3 0.296403 0.080445 0.259280
Si Si4 0.599691 0.081094 0.375965
Si Si5 0.702814 0.909746 0.001316
Si Si6 0.938173 0.413734 0.040178
Si Si7 0.942065 0.417203 0.782630
Si Si8 0.853850 0.089963 0.152174
O O1 0.862815 0.250000 0.642788
O O2 0.881205 0.040265 0.498269
O O3 0.904265 0.017750 0.711264
O O4 0.826307 0.003248 0.655077
O O5 0.957844 0.750000 0.254538
O O6 0.016019 0.944003 0.286544
O O7 0.942449 0.996558 0.356743
O O8 0.960722 0.984236 0.130671
O O9 0.250000 0.043023 0.293156
O O10 0.303582 0.250000 0.270064
O O11 0.305350 0.027919 0.127638
O O12 0.589985 0.250000 0.363947
O O13 0.631241 0.031188 0.276873
O O14 0.750000 0.909069 0.027399
O O15 0.684920 0.750000 0.007189
O O16 0.682837 0.998556 0.103756
O O17 0.954683 0.250000 0.052213
O O18 0.890244 0.415765 0.060808
O O19 0.945222 0.481060 0.912526
O O20 0.933498 0.250000 0.797071
O O21 0.837156 0.250000 0.167618
#
# Coordination Sequence:
#
# PCOD8240858 Si02
#       8
#     8   8   8   8   8   8   8   8
#     4  10  20  36  56  74  96 131 174 211 243 288
#     4  10  19  31  49  73 100 131 168 206 247 297
#     4   9  19  36  55  77 107 133 153 192 249 297
#     4   9  20  37  52  68  96 133 169 207 249 287
#     4   9  18  32  50  74 103 130 154 187 239 300
#     4   9  17  31  49  70 100 131 160 201 254 303
#     4   9  18  31  49  75 103 129 162 210 256 291
#     4   9  17  30  49  71  94 125 164 202 241 285
#
# _framework density 18.063482
#
# number of rings (size 3 to 8) (size 9 to 14) (size 15 to 20)
#    0.000    2.750    0.000    3.000    0.000    5.000 
#    0.000    4.375    0.000    3.750    0.000    0.000 
#    0.000    0.000    0.000    0.000    0.000    0.000 
#
# Total GULP energy -793453.494121 kJ/mol
# GULP energy per Si atom -12397.710846 kJ/mol
# Density = 1.802237 g / cm^3
# Si number density = 18.063482 Si / 1000 Ang^3
#
#
#
# Elastic Constant Matrix: (Units=GPa)
#
#
# Indices 1 2 3 4 5 6 
#
# 1 100.6750 42.9123 60.8192 0.0000 0.0000 0.0000
# 2 42.9123 54.5000 34.4392 0.0000 0.0000 0.0000
# 3 60.8192 34.4392 89.6606 0.0000 0.0000 0.0000
# 4 0.0000 0.0000 0.0000 21.9938 0.0000 0.0000
# 5 0.0000 0.0000 0.0000 0.0000 24.6295 0.0000
# 6 0.0000 0.0000 0.0000 0.0000 0.0000 30.1828
#
#
#
# Elastic Compliance Matrix: (Units=1/GPa)
#
#
# Indices 1 2 3 4 5 6 
#
# 1 0.019937 -0.009445 -0.009896 0.000000 0.000000 0.000000
# 2 -0.009445 0.028704 -0.004619 0.000000 0.000000 0.000000
# 3 -0.009896 -0.004619 0.019640 0.000000 0.000000 0.000000
# 4 0.000000 0.000000 0.000000 0.045467 0.000000 0.000000
# 5 0.000000 0.000000 0.000000 0.000000 0.040602 0.000000
# 6 0.000000 0.000000 0.000000 0.000000 0.000000 0.033131
#
#
# Mechanical properties :
#
#
# Convention : Reuss Voigt Hill
#
# Bulk Modulus (GPa) = 49.11124 57.90855 53.50989
# Shear Modulus (GPa) = 20.64513 22.47221 21.55867
#
# Velocity S-wave (km/s) = 3.38438 3.53096 3.45845
# Velocity P-wave (km/s) = 6.52067 6.98223 6.75540
#
# Compressibility (1/GPa) = 0.02036194
#
# Stress axis : x y z
#
# Youngs Moduli (GPa) = 50.15785 34.83855 50.91636
#
# Poissons Ratio (x) = 0.32904 0.50387
# Poissons Ratio (y) = 0.47372 0.23517
# Poissons Ratio (z) = 0.49637 0.16091
#
# Static dielectric constant tensor:
#      x y z
#    x 3.254630 0.000000 0.000000 
#    y 0.000000 3.182590 0.000000 
#    z 0.000000 0.000000 3.331720 
# 
# 
# High freq. dielectric constant tensor:
#      x y z
#    x 1.697970 0.000000 0.000000 
#    y 0.000000 1.682710 0.000000 
#    z 0.000000 0.000000 1.693600 
# 
# From -- ./inp_files/19349.got.cif
#   From: 2010.03.12/outbox.cif.g09.slc.cpg/sg59_10_cif.got.tgz:19349.got - 2010.04.16 16:29:54.
