data_PCOD8240074
_publ_section_title
;
Structure prediction by ZEFSAII (Michael W. Deem and Ramdas Pophale) SiO2 
 PCOD8240074
Probable space group: P M M N
;
_chemical_formula_sum "Si O2"
_cell_formula_units_Z 56
_cell_length_a 21.709340
_cell_length_b 9.100182
_cell_length_c 14.812784
_cell_angle_alpha 90.000000
_cell_angle_beta 90.000000
_cell_angle_gamma 90.000000
_cell_volume 2926.397981
_symmetry_space_group_name_H-M "P M M N"
_symmetry_group_IT_number 59
_space_group.IT_coordinate_system_code '2'
_symmetry_cell_setting 'orthorhombic'
loop_
_space_group_symop_operation_xyz
x,y,z
1/2-x,1/2-y,z
1/2+x,-y,-z
-x,1/2+y,-z
-x,-y,-z
1/2+x,1/2+y,-z
1/2-x,y,z
x,1/2-y,z
loop_
_atom_site_type_symbol
_atom_site_label
_atom_site_fract_x
_atom_site_fract_y
_atom_site_fract_z
Si Si1 0.320459 0.577292 0.726880
Si Si2 0.250000 0.075238 0.267681
Si Si3 0.250000 0.422786 0.068121
Si Si4 0.384182 0.078342 0.043675
Si Si5 0.820740 0.919544 0.454636
Si Si6 0.947282 0.076855 0.788537
Si Si7 0.417343 0.079648 0.847432
Si Si8 0.873639 0.577524 0.642383
O O1 0.250000 0.530838 0.746557
O O2 0.328595 0.750000 0.724276
O O3 0.341767 0.515417 0.630240
O O4 0.362509 0.513849 0.805569
O O5 0.250000 0.250000 0.272734
O O6 0.250000 0.008990 0.167903
O O7 0.189304 0.015613 0.315776
O O8 0.250000 0.250000 0.078054
O O9 0.186467 0.471078 0.019806
O O10 0.387231 0.250000 0.069752
O O11 0.408307 0.989946 0.129435
O O12 0.423384 0.043208 0.954161
O O13 0.750000 0.953926 0.483890
O O14 0.826497 0.750000 0.426916
O O15 0.868418 0.956081 0.535578
O O16 0.936580 0.250000 0.788281
O O17 0.018661 0.036290 0.801323
O O18 0.928724 0.009714 0.691342
O O19 0.401054 0.250000 0.833698
O O20 0.883122 0.750000 0.660304
#
# Coordination Sequence:
#
# PCOD8240074 Si02
#       8
#     8   4   4   8   8   8   8   8
#     4  10  22  39  59  85 116 143 174 226 288 339
#     4   9  14  26  50  79 110 137 177 230 264 312
#     4   9  16  28  52  83 108 131 175 234 272 314
#     4  10  20  36  59  82 106 144 191 234 275 324
#     4   9  17  32  58  87 112 141 182 229 274 327
#     4  11  23  37  52  80 118 151 184 229 278 329
#     4  10  23  40  59  80 106 147 198 236 267 320
#     4  10  18  32  56  83 111 147 187 225 270 328
#
# _framework density 19.136154000000001
#
# number of rings (size 3 to 8) (size 9 to 14) (size 15 to 20)
#    0.000    2.143    2.143    1.286    1.000    3.143 
#    0.000    2.143    0.000    0.000    0.000    0.000 
#    0.000    0.000    0.000    0.000    0.000    0.000 
#
# Total GULP energy -694279.871320 kJ/mol
# GULP energy per Si atom -12397.854845 kJ/mol
# Density = 1.909260 g / cm^3
# Si number density = 19.136154 Si / 1000 Ang^3
#
#
#
# Elastic Constant Matrix: (Units=GPa)
#
#
# Indices 1 2 3 4 5 6 
#
# 1 77.3832 37.9075 34.7527 0.0000 0.0000 0.0000
# 2 37.9075 59.7428 35.6455 0.0000 0.0000 0.0000
# 3 34.7527 35.6455 81.0314 0.0000 0.0000 0.0000
# 4 0.0000 0.0000 0.0000 29.6728 0.0000 0.0000
# 5 0.0000 0.0000 0.0000 0.0000 26.4050 0.0000
# 6 0.0000 0.0000 0.0000 0.0000 0.0000 28.1039
#
#
#
# Elastic Compliance Matrix: (Units=1/GPa)
#
#
# Indices 1 2 3 4 5 6 
#
# 1 0.019659 -0.010092 -0.003992 0.000000 0.000000 0.000000
# 2 -0.010092 0.027876 -0.007934 0.000000 0.000000 0.000000
# 3 -0.003992 -0.007934 0.017543 0.000000 0.000000 0.000000
# 4 0.000000 0.000000 0.000000 0.033701 0.000000 0.000000
# 5 0.000000 0.000000 0.000000 0.000000 0.037872 0.000000
# 6 0.000000 0.000000 0.000000 0.000000 0.000000 0.035582
#
#
# Mechanical properties :
#
#
# Convention : Reuss Voigt Hill
#
# Bulk Modulus (GPa) = 47.52465 48.30763 47.91614
# Shear Modulus (GPa) = 22.39300 24.15980 23.27640
#
# Velocity S-wave (km/s) = 3.42452 3.55705 3.49142
# Velocity P-wave (km/s) = 6.36595 6.49378 6.43018
#
# Compressibility (1/GPa) = 0.02104171
#
# Stress axis : x y z
#
# Youngs Moduli (GPa) = 50.86635 35.87309 57.00222
#
# Poissons Ratio (x) = 0.36204 0.22755
# Poissons Ratio (y) = 0.51336 0.45227
# Poissons Ratio (z) = 0.20305 0.28462
#
# Static dielectric constant tensor:
#      x y z
#    x 3.566020 0.000000 0.000000 
#    y 0.000000 3.274730 0.000000 
#    z 0.000000 0.000000 3.498760 
# 
# 
# High freq. dielectric constant tensor:
#      x y z
#    x 1.737810 0.000000 0.000000 
#    y 0.000000 1.722010 0.000000 
#    z 0.000000 0.000000 1.747250 
# 
# From -- ./inp_files/24375.got.cif
#   From: 2010.03.12/outbox.cif.g09.slc.cpg/sg59_13_cif.got.tgz:24375.got - 2010.04.16 16:29:54.
