data_PCOD8240242
_publ_section_title
;
Structure prediction by ZEFSAII (Michael W. Deem and Ramdas Pophale) SiO2 
 PCOD8240242
Probable space group: P M M N
;
_chemical_formula_sum "Si O2"
_cell_formula_units_Z 56
_cell_length_a 9.081816
_cell_length_b 26.997539
_cell_length_c 14.360098
_cell_angle_alpha 90.000000
_cell_angle_beta 90.000000
_cell_angle_gamma 90.000000
_cell_volume 3520.904777
_symmetry_space_group_name_H-M "P M M N"
_symmetry_group_IT_number 59
_space_group.IT_coordinate_system_code '2'
_symmetry_cell_setting 'orthorhombic'
loop_
_space_group_symop_operation_xyz
x,y,z
1/2-x,1/2-y,z
1/2+x,-y,-z
-x,1/2+y,-z
-x,-y,-z
1/2+x,1/2+y,-z
1/2-x,y,z
x,1/2-y,z
loop_
_atom_site_type_symbol
_atom_site_label
_atom_site_fract_x
_atom_site_fract_y
_atom_site_fract_z
Si Si1 0.576229 0.937921 0.579807
Si Si2 0.920335 0.385595 0.985976
Si Si3 0.579847 0.439288 0.804377
Si Si4 0.422212 0.039431 0.624689
Si Si5 0.925916 0.693421 0.896263
Si Si6 0.914882 0.957673 0.885629
Si Si7 0.587165 0.626886 0.737094
O O1 0.750000 0.945147 0.598561
O O2 0.543696 0.930363 0.470450
O O3 0.516708 0.889230 0.637174
O O4 0.495191 0.985807 0.619552
O O5 0.750000 0.378459 0.011381
O O6 0.008445 0.336522 0.016541
O O7 0.977746 0.434926 0.037088
O O8 0.942722 0.393335 0.875171
O O9 0.750000 0.445570 0.776747
O O10 0.487995 0.429235 0.710471
O O11 0.522668 0.489173 0.854737
O O12 0.250000 0.032091 0.639710
O O13 0.750000 0.687334 0.899882
O O14 0.976755 0.750000 0.903007
O O15 0.990593 0.670014 0.799048
O O16 0.750000 0.962609 0.927666
O O17 0.910741 0.923246 0.795705
O O18 0.750000 0.646976 0.716451
#
# Coordination Sequence:
#
# PCOD8240242 Si02
#       7
#     8   8   8   8   8   8   8
#     4   9  16  29  43  59  88 122 151 184 225 261
#     4  10  20  30  44  66  89 115 148 187 228 266
#     4  10  19  31  43  58  88 127 156 182 220 263
#     4  10  19  26  40  64  88 119 158 192 217 249
#     4   9  18  33  51  69  88 113 145 180 223 279
#     4   9  16  28  44  60  85 123 154 179 215 259
#     4   8  13  25  46  64  83 115 148 176 215 265
#
# _framework density 15.905003000000001
#
# number of rings (size 3 to 8) (size 9 to 14) (size 15 to 20)
#    0.000    2.714    1.429    2.143    0.000    2.571 
#    0.000    0.000    0.000    0.000    0.000    1.000 
#    0.000    3.429    0.000    0.000    0.000    0.000 
#
# Total GULP energy -693918.210526 kJ/mol
# GULP energy per Si atom -12391.396617 kJ/mol
# Density = 1.586880 g / cm^3
# Si number density = 15.905003 Si / 1000 Ang^3
#
#
#
# Elastic Constant Matrix: (Units=GPa)
#
#
# Indices 1 2 3 4 5 6 
#
# 1 48.6688 22.7911 40.8731 0.0000 0.0000 0.0000
# 2 22.7911 78.3017 49.4815 0.0000 0.0000 0.0000
# 3 40.8731 49.4815 115.1461 0.0000 0.0000 0.0000
# 4 0.0000 0.0000 0.0000 14.4785 0.0000 0.0000
# 5 0.0000 0.0000 0.0000 0.0000 25.5433 0.0000
# 6 0.0000 0.0000 0.0000 0.0000 0.0000 15.9848
#
#
#
# Elastic Compliance Matrix: (Units=1/GPa)
#
#
# Indices 1 2 3 4 5 6 
#
# 1 0.029690 -0.002721 -0.009370 0.000000 0.000000 0.000000
# 2 -0.002721 0.017781 -0.006675 0.000000 0.000000 0.000000
# 3 -0.009370 -0.006675 0.014879 0.000000 0.000000 0.000000
# 4 0.000000 0.000000 0.000000 0.069068 0.000000 0.000000
# 5 0.000000 0.000000 0.000000 0.000000 0.039149 0.000000
# 6 0.000000 0.000000 0.000000 0.000000 0.000000 0.062559
#
#
# Mechanical properties :
#
#
# Convention : Reuss Voigt Hill
#
# Bulk Modulus (GPa) = 40.29201 52.04532 46.16867
# Shear Modulus (GPa) = 17.92550 19.79939 18.86244
#
# Velocity S-wave (km/s) = 3.36078 3.53207 3.44749
# Velocity P-wave (km/s) = 6.35985 7.03048 6.70356
#
# Compressibility (1/GPa) = 0.02481881
#
# Stress axis : x y z
#
# Youngs Moduli (GPa) = 33.68127 56.23835 67.20780
#
# Poissons Ratio (x) = 0.15301 0.62973
# Poissons Ratio (y) = 0.09164 0.44864
# Poissons Ratio (z) = 0.31559 0.37541
#
# Static dielectric constant tensor:
#      x y z
#    x 2.933190 0.000000 0.000000 
#    y 0.000000 2.782460 0.000000 
#    z 0.000000 0.000000 3.224180 
# 
# 
# High freq. dielectric constant tensor:
#      x y z
#    x 1.599670 0.000000 0.000000 
#    y 0.000000 1.567690 0.000000 
#    z 0.000000 0.000000 1.613810 
# 
# From -- ./inp_files/21767.got.cif
#   From: 2010.03.12/outbox.cif.g09.slc.cpg/sg59_11_cif.got.tgz:21767.got - 2010.04.16 16:29:54.
