data_PCOD8240085
_publ_section_title
;
Structure prediction by ZEFSAII (Michael W. Deem and Ramdas Pophale) SiO2 
 PCOD8240085
Probable space group: P M M N
;
_chemical_formula_sum "Si O2"
_cell_formula_units_Z 56
_cell_length_a 9.270871
_cell_length_b 15.299092
_cell_length_c 21.236045
_cell_angle_alpha 90.000000
_cell_angle_beta 90.000000
_cell_angle_gamma 90.000000
_cell_volume 3012.033732
_symmetry_space_group_name_H-M "P M M N"
_symmetry_group_IT_number 59
_space_group.IT_coordinate_system_code '2'
_symmetry_cell_setting 'orthorhombic'
loop_
_space_group_symop_operation_xyz
x,y,z
1/2-x,1/2-y,z
1/2+x,-y,-z
-x,1/2+y,-z
-x,-y,-z
1/2+x,1/2+y,-z
1/2-x,y,z
x,1/2-y,z
loop_
_atom_site_type_symbol
_atom_site_label
_atom_site_fract_x
_atom_site_fract_y
_atom_site_fract_z
Si Si1 0.078131 0.488625 0.287182
Si Si2 0.421061 0.654912 0.363154
Si Si3 0.414431 0.650853 0.632594
Si Si4 0.582519 0.150610 0.055100
Si Si5 0.581285 0.492215 0.157025
Si Si6 0.582970 0.089300 0.503896
Si Si7 0.082461 0.348871 0.929635
O O1 0.250000 0.485458 0.283599
O O2 0.019711 0.579068 0.317541
O O3 0.025162 0.409035 0.329903
O O4 0.013377 0.479644 0.218382
O O5 0.250000 0.653809 0.360930
O O6 0.479191 0.750000 0.340519
O O7 0.473658 0.641015 0.434888
O O8 0.250000 0.621026 0.646698
O O9 0.438510 0.750000 0.654960
O O10 0.446180 0.646483 0.558092
O O11 0.750000 0.140164 0.039783
O O12 0.543957 0.250000 0.074921
O O13 0.536111 0.086429 0.110922
O O14 0.500005 0.122507 0.992295
O O15 0.750000 0.487342 0.174214
O O16 0.540617 0.585477 0.126365
O O17 0.750000 0.066347 0.511870
O O18 0.500000 0.000000 0.500000
O O19 0.250000 0.356856 0.945749
O O20 0.040817 0.250000 0.909031
#
# Coordination Sequence:
#
# PCOD8240085 Si02
#       7
#     8   8   8   8   8   8   8
#     4  11  23  37  54  79 108 142 183 230 273 311
#     4   9  18  34  55  78 106 140 177 218 268 323
#     4  10  21  37  58  81 106 142 183 220 268 331
#     4   9  18  33  54  79 104 132 170 215 260 309
#     4  10  21  36  53  74 106 145 179 213 259 318
#     4  10  18  32  57  83 108 137 173 220 272 323
#     4   9  18  33  54  80 108 137 170 213 266 316
#
# _framework density 18.592089999999999
#
# number of rings (size 3 to 8) (size 9 to 14) (size 15 to 20)
#    0.000    2.286    1.429    1.286    0.000    4.286 
#    0.000    1.429    0.000    4.286    0.000    0.000 
#    0.000    0.000    0.000    0.000    0.000    0.000 
#
# Total GULP energy -694403.038498 kJ/mol
# GULP energy per Si atom -12400.054259 kJ/mol
# Density = 1.854977 g / cm^3
# Si number density = 18.592090 Si / 1000 Ang^3
#
#
#
# Elastic Constant Matrix: (Units=GPa)
#
#
# Indices 1 2 3 4 5 6 
#
# 1 42.4265 21.4252 26.3801 0.0000 0.0000 0.0000
# 2 21.4252 91.1629 15.9316 0.0000 0.0000 0.0000
# 3 26.3801 15.9316 67.7052 0.0000 0.0000 0.0000
# 4 0.0000 0.0000 0.0000 8.7185 0.0000 0.0000
# 5 0.0000 0.0000 0.0000 0.0000 16.3808 0.0000
# 6 0.0000 0.0000 0.0000 0.0000 0.0000 23.6853
#
#
#
# Elastic Compliance Matrix: (Units=1/GPa)
#
#
# Indices 1 2 3 4 5 6 
#
# 1 0.033900 -0.005902 -0.011820 0.000000 0.000000 0.000000
# 2 -0.005902 0.012467 -0.000634 0.000000 0.000000 0.000000
# 3 -0.011820 -0.000634 0.019525 0.000000 0.000000 0.000000
# 4 0.000000 0.000000 0.000000 0.114699 0.000000 0.000000
# 5 0.000000 0.000000 0.000000 0.000000 0.061047 0.000000
# 6 0.000000 0.000000 0.000000 0.000000 0.000000 0.042220
#
#
# Mechanical properties :
#
#
# Convention : Reuss Voigt Hill
#
# Bulk Modulus (GPa) = 34.26954 36.52985 35.39970
# Shear Modulus (GPa) = 15.13797 18.92744 17.03270
#
# Velocity S-wave (km/s) = 2.85654 3.19413 3.03004
# Velocity P-wave (km/s) = 5.41776 5.77010 5.59670
#
# Compressibility (1/GPa) = 0.02918043
#
# Stress axis : x y z
#
# Youngs Moduli (GPa) = 29.49874 80.21051 51.21762
#
# Poissons Ratio (x) = 0.47337 0.60538
# Poissons Ratio (y) = 0.17409 0.03248
# Poissons Ratio (z) = 0.34867 0.05087
#
# Static dielectric constant tensor:
#      x y z
#    x 3.253430 0.000000 0.000000 
#    y 0.000000 11.555050 0.000000 
#    z 0.000000 0.000000 3.444970 
# 
# 
# High freq. dielectric constant tensor:
#      x y z
#    x 1.702270 0.000000 0.000000 
#    y 0.000000 1.736190 0.000000 
#    z 0.000000 0.000000 1.718030 
# 
# From -- ./inp_files/29013.got.cif
#   From: 2010.03.12/outbox.cif.g09.slc.cpg/sg59_15_cif.got.tgz:29013.got - 2010.04.16 16:29:54.
