data_PCOD8240471
_publ_section_title
;
Structure prediction by ZEFSAII (Michael W. Deem and Ramdas Pophale) SiO2 
 PCOD8240471
Probable space group: P M M N
;
_chemical_formula_sum "Si O2"
_cell_formula_units_Z 64
_cell_length_a 23.249611
_cell_length_b 9.109276
_cell_length_c 18.778116
_cell_angle_alpha 90.000000
_cell_angle_beta 90.000000
_cell_angle_gamma 90.000000
_cell_volume 3976.963172
_symmetry_space_group_name_H-M "P M M N"
_symmetry_group_IT_number 59
_space_group.IT_coordinate_system_code '2'
_symmetry_cell_setting 'orthorhombic'
loop_
_space_group_symop_operation_xyz
x,y,z
1/2-x,1/2-y,z
1/2+x,-y,-z
-x,1/2+y,-z
-x,-y,-z
1/2+x,1/2+y,-z
1/2-x,y,z
x,1/2-y,z
loop_
_atom_site_type_symbol
_atom_site_label
_atom_site_fract_x
_atom_site_fract_y
_atom_site_fract_z
Si Si1 0.481609 0.582822 0.929705
Si Si2 0.859490 0.581010 0.422353
Si Si3 0.186583 0.424120 0.725447
Si Si4 0.908479 0.077681 0.674285
Si Si5 0.529560 0.916883 0.785116
Si Si6 0.684706 0.423204 0.561714
Si Si7 0.079215 0.074673 0.814594
Si Si8 0.009123 0.082650 0.572348
O O1 0.463967 0.750000 0.947985
O O2 0.534218 0.580345 0.871877
O O3 0.427282 0.497653 0.893502
O O4 0.500000 0.500000 0.000000
O O5 0.844160 0.750000 0.438035
O O6 0.824734 0.517702 0.354668
O O7 0.843685 0.490929 0.492039
O O8 0.926012 0.562635 0.400977
O O9 0.250000 0.476750 0.749887
O O10 0.182093 0.250000 0.722290
O O11 0.139627 0.481087 0.781876
O O12 0.908159 0.250000 0.690264
O O13 0.851168 0.029491 0.631788
O O14 0.964439 0.023509 0.630677
O O15 0.913909 0.990708 0.749326
O O16 0.522527 0.750000 0.757977
O O17 0.472483 0.012560 0.764509
O O18 0.750000 0.478750 0.571589
O O19 0.681812 0.250000 0.551873
O O20 0.075000 0.250000 0.819215
O O21 0.993485 0.250000 0.556678
O O22 0.000000 0.000000 0.500000
#
# Coordination Sequence:
#
# PCOD8240471 Si02
#       8
#     8   8   8   8   8   8   8   8
#     4   9  18  31  49  76 105 130 154 184 227 278
#     4  10  19  31  48  67  89 120 163 207 247 291
#     4   9  17  29  46  68  94 129 172 209 239 280
#     4  10  19  32  48  65  89 121 156 191 240 292
#     4   9  19  31  47  72  99 122 151 191 233 281
#     4  10  21  35  48  64  88 120 161 206 249 294
#     4   9  16  29  49  71 100 133 160 195 239 282
#     4  10  19  30  45  67  88 116 155 197 245 295
#
# _framework density 16.092682
#
# number of rings (size 3 to 8) (size 9 to 14) (size 15 to 20)
#    0.750    1.750    1.250    1.875    0.000    3.750 
#    0.000    2.500    0.000    3.000    0.000    0.875 
#    0.000    1.000    0.000    0.000    0.000    0.000 
#
# Total GULP energy -793060.404446 kJ/mol
# GULP energy per Si atom -12391.568819 kJ/mol
# Density = 1.605605 g / cm^3
# Si number density = 16.092682 Si / 1000 Ang^3
#
#
#
# Elastic Constant Matrix: (Units=GPa)
#
#
# Indices 1 2 3 4 5 6 
#
# 1 74.3941 24.9776 34.2433 0.0000 0.0000 0.0000
# 2 24.9776 61.8011 34.4852 0.0000 0.0000 0.0000
# 3 34.2433 34.4852 84.6112 0.0000 0.0000 0.0000
# 4 0.0000 0.0000 0.0000 27.4436 0.0000 0.0000
# 5 0.0000 0.0000 0.0000 0.0000 17.1409 0.0000
# 6 0.0000 0.0000 0.0000 0.0000 0.0000 15.5366
#
#
#
# Elastic Compliance Matrix: (Units=1/GPa)
#
#
# Indices 1 2 3 4 5 6 
#
# 1 0.017244 -0.003980 -0.005357 0.000000 0.000000 0.000000
# 2 -0.003980 0.021863 -0.007300 0.000000 0.000000 0.000000
# 3 -0.005357 -0.007300 0.016962 0.000000 0.000000 0.000000
# 4 0.000000 0.000000 0.000000 0.036438 0.000000 0.000000
# 5 0.000000 0.000000 0.000000 0.000000 0.058340 0.000000
# 6 0.000000 0.000000 0.000000 0.000000 0.000000 0.064364
#
#
# Mechanical properties :
#
#
# Convention : Reuss Voigt Hill
#
# Bulk Modulus (GPa) = 43.86882 45.35763 44.61322
# Shear Modulus (GPa) = 19.52492 20.49758 20.01125
#
# Velocity S-wave (km/s) = 3.48699 3.57279 3.53016
# Velocity P-wave (km/s) = 6.59784 6.72802 6.66325
#
# Compressibility (1/GPa) = 0.02279523
#
# Stress axis : x y z
#
# Youngs Moduli (GPa) = 57.99148 45.73937 58.95578
#
# Poissons Ratio (x) = 0.18206 0.31580
# Poissons Ratio (y) = 0.23083 0.43037
# Poissons Ratio (z) = 0.31063 0.33389
#
# Static dielectric constant tensor:
#      x y z
#    x 3.243990 0.000000 0.000000 
#    y 0.000000 -0.908920 0.000000 
#    z 0.000000 0.000000 2.782070 
# 
# 
# High freq. dielectric constant tensor:
#      x y z
#    x 1.599820 0.000000 0.000000 
#    y 0.000000 1.614390 0.000000 
#    z 0.000000 0.000000 1.602460 
# 
# From -- ./inp_files/31091.got.cif
#   From: 2010.03.12/outbox.cif.g09.slc.cpg/sg59_16_cif.got.tgz:31091.got - 2010.04.16 16:29:54.
