data_PCOD8240963
_publ_section_title
;
Structure prediction by ZEFSAII (Michael W. Deem and Ramdas Pophale) SiO2 
 PCOD8240963
Probable space group: P M M N
;
_chemical_formula_sum "Si O2"
_cell_formula_units_Z 64
_cell_length_a 8.787307
_cell_length_b 19.641584
_cell_length_c 18.983201
_cell_angle_alpha 90.000000
_cell_angle_beta 90.000000
_cell_angle_gamma 90.000000
_cell_volume 3276.436492
_symmetry_space_group_name_H-M "P M M N"
_symmetry_group_IT_number 59
_space_group.IT_coordinate_system_code '2'
_symmetry_cell_setting 'orthorhombic'
loop_
_space_group_symop_operation_xyz
x,y,z
1/2-x,1/2-y,z
1/2+x,-y,-z
-x,1/2+y,-z
-x,-y,-z
1/2+x,1/2+y,-z
1/2-x,y,z
x,1/2-y,z
loop_
_atom_site_type_symbol
_atom_site_label
_atom_site_fract_x
_atom_site_fract_y
_atom_site_fract_z
Si Si1 0.430303 0.477282 0.705960
Si Si2 0.574672 0.919583 0.920618
Si Si3 0.571269 0.441238 0.851843
Si Si4 0.578301 0.175132 0.178280
Si Si5 0.075915 0.625024 0.677010
Si Si6 0.071450 0.823805 0.532748
Si Si7 0.571540 0.172016 0.958890
Si Si8 0.928500 0.050745 0.557424
O O1 0.250000 0.469196 0.707048
O O2 0.493036 0.440423 0.775662
O O3 0.490638 0.554732 0.707589
O O4 0.494281 0.447413 0.633410
O O5 0.750000 0.920584 0.942244
O O6 0.547363 0.876754 0.849717
O O7 0.515557 0.996784 0.904111
O O8 0.484630 0.877890 0.979670
O O9 0.750000 0.450938 0.840400
O O10 0.531653 0.367931 0.886593
O O11 0.750000 0.149040 0.160796
O O12 0.553595 0.250000 0.145200
O O13 0.557880 0.181555 0.262520
O O14 0.250000 0.609790 0.657731
O O15 0.993525 0.648691 0.605245
O O16 0.250000 0.816684 0.546583
O O17 0.001333 0.750000 0.514541
O O18 0.037501 0.873259 0.468621
O O19 0.750000 0.178630 0.968818
O O20 0.502534 0.250000 0.959090
O O21 0.750000 0.034429 0.563363
O O22 0.000000 0.000000 0.500000
#
# Coordination Sequence:
#
# PCOD8240963 Si02
#       8
#     8   8   8   8   8   8   8   8
#     4  11  21  36  59  86 112 148 192 233 283 338
#     4  11  22  35  55  84 117 148 179 225 283 339
#     4  10  22  40  60  85 114 146 186 235 286 332
#     4  10  19  31  50  77 111 151 189 225 267 322
#     4   9  16  29  50  78 108 138 181 229 269 320
#     4   9  17  31  53  81 110 142 185 233 277 325
#     4  10  22  41  63  84 109 146 193 239 281 332
#     4  11  21  35  57  85 115 149 190 235 281 332
#
# _framework density 19.533417
#
# number of rings (size 3 to 8) (size 9 to 14) (size 15 to 20)
#    0.000    1.875    2.500    2.250    0.000    4.500 
#    0.000    0.625    0.000    5.250    0.000    0.000 
#    0.000    0.000    0.000    0.000    0.000    0.000 
#
# Total GULP energy -793021.968279 kJ/mol
# GULP energy per Si atom -12390.968254 kJ/mol
# Density = 1.948896 g / cm^3
# Si number density = 19.533417 Si / 1000 Ang^3
#
#
#
# Elastic Constant Matrix: (Units=GPa)
#
#
# Indices 1 2 3 4 5 6 
#
# 1 39.9811 33.6136 35.3023 0.0000 0.0000 0.0000
# 2 33.6136 120.3991 69.3014 0.0000 0.0000 0.0000
# 3 35.3023 69.3014 134.1896 0.0000 0.0000 0.0000
# 4 0.0000 0.0000 0.0000 21.9585 0.0000 0.0000
# 5 0.0000 0.0000 0.0000 0.0000 32.4079 0.0000
# 6 0.0000 0.0000 0.0000 0.0000 0.0000 20.6078
#
#
#
# Elastic Compliance Matrix: (Units=1/GPa)
#
#
# Indices 1 2 3 4 5 6 
#
# 1 0.035846 -0.006517 -0.006065 0.000000 0.000000 0.000000
# 2 -0.006517 0.013004 -0.005001 0.000000 0.000000 0.000000
# 3 -0.006065 -0.005001 0.011631 0.000000 0.000000 0.000000
# 4 0.000000 0.000000 0.000000 0.045540 0.000000 0.000000
# 5 0.000000 0.000000 0.000000 0.000000 0.030857 0.000000
# 6 0.000000 0.000000 0.000000 0.000000 0.000000 0.048525
#
#
# Mechanical properties :
#
#
# Convention : Reuss Voigt Hill
#
# Bulk Modulus (GPa) = 39.50307 63.44493 51.47400
# Shear Modulus (GPa) = 21.83349 25.41834 23.62592
#
# Velocity S-wave (km/s) = 3.34691 3.61123 3.48158
# Velocity P-wave (km/s) = 5.93321 7.06673 6.52463
#
# Compressibility (1/GPa) = 0.02531449
#
# Stress axis : x y z
#
# Youngs Moduli (GPa) = 27.89743 76.90028 85.98053
#
# Poissons Ratio (x) = 0.50114 0.52144
# Poissons Ratio (y) = 0.18180 0.43002
# Poissons Ratio (z) = 0.16919 0.38461
#
# Static dielectric constant tensor:
#      x y z
#    x 3.280540 0.000000 0.000000 
#    y 0.000000 4.020350 0.000000 
#    z 0.000000 0.000000 3.594010 
# 
# 
# High freq. dielectric constant tensor:
#      x y z
#    x 1.727740 0.000000 0.000000 
#    y 0.000000 1.762970 0.000000 
#    z 0.000000 0.000000 1.765980 
# 
# From -- ./inp_files/26212.got.cif
#   From: 2010.03.12/outbox.cif.g09.slc.cpg/sg59_14_cif.got.tgz:26212.got - 2010.04.16 16:29:54.
