data_PCOD8240474
_publ_section_title
;
Structure prediction by ZEFSAII (Michael W. Deem and Ramdas Pophale) SiO2 
 PCOD8240474
Probable space group: P M M N
;
_chemical_formula_sum "Si O2"
_cell_formula_units_Z 56
_cell_length_a 18.226322
_cell_length_b 8.845971
_cell_length_c 19.127543
_cell_angle_alpha 90.000000
_cell_angle_beta 90.000000
_cell_angle_gamma 90.000000
_cell_volume 3083.924497
_symmetry_space_group_name_H-M "P M M N"
_symmetry_group_IT_number 59
_space_group.IT_coordinate_system_code '2'
_symmetry_cell_setting 'orthorhombic'
loop_
_space_group_symop_operation_xyz
x,y,z
1/2-x,1/2-y,z
1/2+x,-y,-z
-x,1/2+y,-z
-x,-y,-z
1/2+x,1/2+y,-z
1/2-x,y,z
x,1/2-y,z
loop_
_atom_site_type_symbol
_atom_site_label
_atom_site_fract_x
_atom_site_fract_y
_atom_site_fract_z
Si Si1 0.388138 0.073971 0.273442
Si Si2 0.833466 0.074589 0.862460
Si Si3 0.969350 0.930088 0.929856
Si Si4 0.666754 0.070570 0.305946
Si Si5 0.959335 0.074158 0.209712
Si Si6 0.837135 0.421329 0.587894
Si Si7 0.837148 0.580208 0.448708
O O1 0.369970 0.250000 0.263816
O O2 0.473921 0.040344 0.262124
O O3 0.340435 0.983177 0.216964
O O4 0.368813 0.023125 0.350757
O O5 0.750000 0.049240 0.887660
O O6 0.855007 0.250000 0.864612
O O7 0.886330 0.984031 0.915235
O O8 0.969127 0.750000 0.934495
O O9 0.021623 0.991653 0.866993
O O10 0.000000 0.000000 0.000000
O O11 0.750000 0.019745 0.289506
O O12 0.660925 0.250000 0.313669
O O13 0.615351 0.006930 0.243180
O O14 0.636838 0.000167 0.377808
O O15 0.947274 0.250000 0.199728
O O16 0.750000 0.428856 0.590107
O O17 0.865159 0.250000 0.595835
O O18 0.867692 0.487634 0.514993
O O19 0.750000 0.581684 0.451336
O O20 0.868758 0.750000 0.450928
#
# Coordination Sequence:
#
# PCOD8240474 Si02
#       7
#     8   8   8   8   8   8   8
#     4  10  19  31  48  70 100 135 167 204 251 301
#     4  10  20  34  53  78 106 136 173 214 253 299
#     4  10  20  36  57  79 107 141 173 207 251 304
#     4   9  16  30  53  74  92 120 160 204 247 291
#     4   8  17  33  51  73  99 127 161 199 241 295
#     4  10  19  30  45  67  95 127 166 209 248 291
#     4   9  17  29  45  67  95 125 159 201 249 297
#
# _framework density 18.15868
#
# number of rings (size 3 to 8) (size 9 to 14) (size 15 to 20)
#    0.000    2.571    0.000    3.429    0.000    5.429 
#    0.000    5.714    0.000    2.571    0.000    0.000 
#    0.000    0.000    0.000    0.000    0.000    0.000 
#
# Total GULP energy -694280.662743 kJ/mol
# GULP energy per Si atom -12397.868978 kJ/mol
# Density = 1.811735 g / cm^3
# Si number density = 18.158680 Si / 1000 Ang^3
#
#
#
# Elastic Constant Matrix: (Units=GPa)
#
#
# Indices 1 2 3 4 5 6 
#
# 1 77.5000 37.9647 63.2210 0.0000 0.0000 0.0000
# 2 37.9647 80.1038 43.0908 0.0000 0.0000 0.0000
# 3 63.2210 43.0908 135.8520 0.0000 0.0000 0.0000
# 4 0.0000 0.0000 0.0000 30.1829 0.0000 0.0000
# 5 0.0000 0.0000 0.0000 0.0000 25.2867 0.0000
# 6 0.0000 0.0000 0.0000 0.0000 0.0000 20.2369
#
#
#
# Elastic Compliance Matrix: (Units=1/GPa)
#
#
# Indices 1 2 3 4 5 6 
#
# 1 0.023121 -0.006234 -0.008783 0.000000 0.000000 0.000000
# 2 -0.006234 0.016733 -0.002406 0.000000 0.000000 0.000000
# 3 -0.008783 -0.002406 0.012211 0.000000 0.000000 0.000000
# 4 0.000000 0.000000 0.000000 0.033131 0.000000 0.000000
# 5 0.000000 0.000000 0.000000 0.000000 0.039547 0.000000
# 6 0.000000 0.000000 0.000000 0.000000 0.000000 0.049415
#
#
# Mechanical properties :
#
#
# Convention : Reuss Voigt Hill
#
# Bulk Modulus (GPa) = 58.07252 64.66765 61.37008
# Shear Modulus (GPa) = 23.28356 25.08660 24.18508
#
# Velocity S-wave (km/s) = 3.58471 3.72091 3.65344
# Velocity P-wave (km/s) = 7.01309 7.35868 7.18796
#
# Compressibility (1/GPa) = 0.01721985
#
# Stress axis : x y z
#
# Youngs Moduli (GPa) = 43.24993 59.76297 81.89059
#
# Poissons Ratio (x) = 0.37255 0.71922
# Poissons Ratio (y) = 0.26961 0.19707
# Poissons Ratio (z) = 0.37985 0.14382
#
# Static dielectric constant tensor:
#      x y z
#    x 3.329920 0.000000 0.000000 
#    y 0.000000 3.376250 0.000000 
#    z 0.000000 0.000000 3.490260 
# 
# 
# High freq. dielectric constant tensor:
#      x y z
#    x 1.684510 0.000000 0.000000 
#    y 0.000000 1.703360 0.000000 
#    z 0.000000 0.000000 1.700730 
# 
# From -- ./inp_files/30624.got.cif
#   From: 2010.03.12/outbox.cif.g09.slc.cpg/sg59_16_cif.got.tgz:30624.got - 2010.04.16 16:29:54.
