data_PCOD8240910
_publ_section_title
;
Structure prediction by ZEFSAII (Michael W. Deem and Ramdas Pophale) SiO2 
 PCOD8240910
Probable space group: P M M N
;
_chemical_formula_sum "Si O2"
_cell_formula_units_Z 64
_cell_length_a 23.059096
_cell_length_b 8.900022
_cell_length_c 18.875110
_cell_angle_alpha 90.000000
_cell_angle_beta 90.000000
_cell_angle_gamma 90.000000
_cell_volume 3873.672040
_symmetry_space_group_name_H-M "P M M N"
_symmetry_group_IT_number 59
_space_group.IT_coordinate_system_code '2'
_symmetry_cell_setting 'orthorhombic'
loop_
_space_group_symop_operation_xyz
x,y,z
1/2-x,1/2-y,z
1/2+x,-y,-z
-x,1/2+y,-z
-x,-y,-z
1/2+x,1/2+y,-z
1/2-x,y,z
x,1/2-y,z
loop_
_atom_site_type_symbol
_atom_site_label
_atom_site_fract_x
_atom_site_fract_y
_atom_site_fract_z
Si Si1 0.497065 0.073936 0.750797
Si Si2 0.985120 0.425409 0.391864
Si Si3 0.183817 0.427453 0.394340
Si Si4 0.316473 0.077670 0.122558
Si Si5 0.084433 0.423432 0.017719
Si Si6 0.027889 0.575106 0.893174
Si Si7 0.912193 0.424953 0.525920
Si Si8 0.368468 0.925493 0.256142
O O1 0.486936 0.250000 0.743176
O O2 0.564679 0.031001 0.755061
O O3 0.467428 0.991534 0.684017
O O4 0.464744 0.015242 0.820508
O O5 0.999248 0.250000 0.386552
O O6 0.042506 0.508625 0.418157
O O7 0.932089 0.456626 0.445617
O O8 0.250000 0.481432 0.399500
O O9 0.178679 0.250000 0.397493
O O10 0.149786 0.497482 0.461319
O O11 0.156474 0.483117 0.321531
O O12 0.250000 0.051584 0.101407
O O13 0.328274 0.250000 0.145768
O O14 0.354146 0.037600 0.053331
O O15 0.332748 0.969468 0.186723
O O16 0.079439 0.250000 0.995462
O O17 0.034499 0.465283 0.073851
O O18 0.078116 0.523330 0.947294
O O19 0.034663 0.750000 0.877089
O O20 0.907191 0.250000 0.542569
O O21 0.360498 0.750000 0.271087
#
# Coordination Sequence:
#
# PCOD8240910 Si02
#       8
#     8   8   8   8   8   8   8   8
#     4  11  21  32  49  74 102 133 167 202 246 296
#     4  10  20  33  52  74 100 130 164 204 249 300
#     4  11  23  36  51  71  98 136 176 210 246 291
#     4  10  20  34  51  70  96 133 172 205 243 292
#     4   9  18  32  48  69  96 126 161 204 247 289
#     4  10  19  31  50  71  95 128 163 202 249 295
#     4  10  20  34  51  74  99 129 166 207 252 295
#     4  11  22  33  47  70 101 135 172 208 242 286
#
# _framework density 16.521792000000001
#
# number of rings (size 3 to 8) (size 9 to 14) (size 15 to 20)
#    0.000    1.750    2.500    2.625    0.000    6.250 
#    0.000    0.000    0.000    0.000    0.000    0.875 
#    0.000    5.000    0.000    0.000    0.000    0.000 
#
# Total GULP energy -793876.359026 kJ/mol
# GULP energy per Si atom -12404.318110 kJ/mol
# Density = 1.648419 g / cm^3
# Si number density = 16.521792 Si / 1000 Ang^3
#
#
#
# Elastic Constant Matrix: (Units=GPa)
#
#
# Indices 1 2 3 4 5 6 
#
# 1 67.6150 27.9960 42.0761 0.0000 0.0000 0.0000
# 2 27.9960 62.0566 35.8704 0.0000 0.0000 0.0000
# 3 42.0761 35.8704 102.6693 0.0000 0.0000 0.0000
# 4 0.0000 0.0000 0.0000 32.4167 0.0000 0.0000
# 5 0.0000 0.0000 0.0000 0.0000 19.9738 0.0000
# 6 0.0000 0.0000 0.0000 0.0000 0.0000 22.1704
#
#
#
# Elastic Compliance Matrix: (Units=1/GPa)
#
#
# Indices 1 2 3 4 5 6 
#
# 1 0.021367 -0.005736 -0.006752 0.000000 0.000000 0.000000
# 2 -0.005736 0.021732 -0.005242 0.000000 0.000000 0.000000
# 3 -0.006752 -0.005242 0.014339 0.000000 0.000000 0.000000
# 4 0.000000 0.000000 0.000000 0.030848 0.000000 0.000000
# 5 0.000000 0.000000 0.000000 0.000000 0.050066 0.000000
# 6 0.000000 0.000000 0.000000 0.000000 0.000000 0.045105
#
#
# Mechanical properties :
#
#
# Convention : Reuss Voigt Hill
#
# Bulk Modulus (GPa) = 45.50331 49.35844 47.43088
# Shear Modulus (GPa) = 22.10012 23.33873 22.71942
#
# Velocity S-wave (km/s) = 3.66134 3.76254 3.71228
# Velocity P-wave (km/s) = 6.74352 6.98679 6.86623
#
# Compressibility (1/GPa) = 0.02197642
#
# Stress axis : x y z
#
# Youngs Moduli (GPa) = 46.80189 46.01490 69.74134
#
# Poissons Ratio (x) = 0.26395 0.47092
# Poissons Ratio (y) = 0.26847 0.36558
# Poissons Ratio (z) = 0.31603 0.24121
#
# Static dielectric constant tensor:
#      x y z
#    x 3.045670 0.000000 0.000000 
#    y 0.000000 3.194840 0.000000 
#    z 0.000000 0.000000 3.119020 
# 
# 
# High freq. dielectric constant tensor:
#      x y z
#    x 1.606940 0.000000 0.000000 
#    y 0.000000 1.650940 0.000000 
#    z 0.000000 0.000000 1.632430 
# 
# From -- ./inp_files/28409.got.cif
#   From: 2010.03.12/outbox.cif.g09.slc.cpg/sg59_15_cif.got.tgz:28409.got - 2010.04.16 16:29:54.
