data_PCOD8240480
_publ_section_title
;
Structure prediction by ZEFSAII (Michael W. Deem and Ramdas Pophale) SiO2 
 PCOD8240480
Probable space group: P M M N
;
_chemical_formula_sum "Si O2"
_cell_formula_units_Z 64
_cell_length_a 33.093567
_cell_length_b 12.008280
_cell_length_c 9.863429
_cell_angle_alpha 90.000000
_cell_angle_beta 90.000000
_cell_angle_gamma 90.000000
_cell_volume 3919.695306
_symmetry_space_group_name_H-M "P M M N"
_symmetry_group_IT_number 59
_space_group.IT_coordinate_system_code '2'
_symmetry_cell_setting 'orthorhombic'
loop_
_space_group_symop_operation_xyz
x,y,z
1/2-x,1/2-y,z
1/2+x,-y,-z
-x,1/2+y,-z
-x,-y,-z
1/2+x,1/2+y,-z
1/2-x,y,z
x,1/2-y,z
loop_
_atom_site_type_symbol
_atom_site_label
_atom_site_fract_x
_atom_site_fract_y
_atom_site_fract_z
Si Si1 0.052411 0.508058 0.618099
Si Si2 0.945361 0.492155 0.890583
Si Si3 0.295153 0.882263 0.531888
Si Si4 0.025817 0.376028 0.859808
Si Si5 0.635293 0.117918 0.965325
Si Si6 0.133423 0.882209 0.722283
Si Si7 0.530990 0.878804 0.638159
Si Si8 0.794809 0.117776 0.771271
O O1 0.043568 0.401570 0.712186
O O2 0.094484 0.565086 0.652517
O O3 0.053628 0.460182 0.466593
O O4 0.017163 0.599753 0.636712
O O5 0.901685 0.437162 0.885750
O O6 0.950126 0.592479 0.784070
O O7 0.977702 0.395245 0.860156
O O8 0.952052 0.540312 0.039466
O O9 0.250000 0.925761 0.569097
O O10 0.295094 0.750000 0.535624
O O11 0.327335 0.927600 0.641330
O O12 0.307170 0.923086 0.380101
O O13 0.035215 0.250000 0.900063
O O14 0.630820 0.250000 0.955729
O O15 0.674767 0.073238 0.886145
O O16 0.637580 0.079611 0.121685
O O17 0.129571 0.750000 0.711569
O O18 0.539175 0.750000 0.605593
O O19 0.750000 0.073116 0.807134
O O20 0.794789 0.250000 0.772784
#
# Coordination Sequence:
#
# PCOD8240480 Si02
#       8
#     8   8   8   8   8   8   8   8
#     4  10  20  34  49  70  94 123 163 198 237 284
#     4  10  20  32  47  72  93 123 165 197 233 278
#     4   8  15  28  45  66  93 126 159 188 227 280
#     4  10  19  33  50  65  92 128 161 196 236 279
#     4  10  19  30  45  69 101 129 158 195 231 275
#     4  10  19  30  46  69  99 130 158 194 234 275
#     4  10  21  35  50  67  94 127 160 202 242 278
#     4   8  15  28  45  66  94 127 157 187 228 278
#
# _framework density 16.327798000000001
#
# number of rings (size 3 to 8) (size 9 to 14) (size 15 to 20)
#    0.000    2.500    1.250    2.250    1.750    0.500 
#    0.000    3.750    0.000    0.000    0.000    0.000 
#    0.000    6.000    0.000    0.000    0.000    0.000 
#
# Total GULP energy -793467.402949 kJ/mol
# GULP energy per Si atom -12397.928171 kJ/mol
# Density = 1.629064 g / cm^3
# Si number density = 16.327798 Si / 1000 Ang^3
#
#
#
# Elastic Constant Matrix: (Units=GPa)
#
#
# Indices 1 2 3 4 5 6 
#
# 1 123.4843 20.9984 56.3552 0.0000 0.0000 0.0000
# 2 20.9984 37.0277 14.4042 0.0000 0.0000 0.0000
# 3 56.3552 14.4042 85.3171 0.0000 0.0000 0.0000
# 4 0.0000 0.0000 0.0000 6.8315 0.0000 0.0000
# 5 0.0000 0.0000 0.0000 0.0000 26.0343 0.0000
# 6 0.0000 0.0000 0.0000 0.0000 0.0000 16.5030
#
#
#
# Elastic Compliance Matrix: (Units=1/GPa)
#
#
# Indices 1 2 3 4 5 6 
#
# 1 0.012129 -0.004026 -0.007332 0.000000 0.000000 0.000000
# 2 -0.004026 0.030242 -0.002446 0.000000 0.000000 0.000000
# 3 -0.007332 -0.002446 0.016977 0.000000 0.000000 0.000000
# 4 0.000000 0.000000 0.000000 0.146382 0.000000 0.000000
# 5 0.000000 0.000000 0.000000 0.000000 0.038411 0.000000
# 6 0.000000 0.000000 0.000000 0.000000 0.000000 0.060595
#
#
# Mechanical properties :
#
#
# Convention : Reuss Voigt Hill
#
# Bulk Modulus (GPa) = 31.50711 47.70497 39.60604
# Shear Modulus (GPa) = 14.58053 20.14518 17.36285
#
# Velocity S-wave (km/s) = 2.99153 3.51635 3.26451
# Velocity P-wave (km/s) = 5.59203 6.76512 6.20635
#
# Compressibility (1/GPa) = 0.03173887
#
# Stress axis : x y z
#
# Youngs Moduli (GPa) = 82.44761 33.06699 58.90330
#
# Poissons Ratio (x) = 0.13313 0.43187
# Poissons Ratio (y) = 0.33194 0.14410
# Poissons Ratio (z) = 0.60450 0.08089
#
# Static dielectric constant tensor:
#      x y z
#    x 3.176490 0.000000 0.000000 
#    y 0.000000 2.611670 0.000000 
#    z 0.000000 0.000000 3.284160 
# 
# 
# High freq. dielectric constant tensor:
#      x y z
#    x 1.623870 0.000000 0.000000 
#    y 0.000000 1.580350 0.000000 
#    z 0.000000 0.000000 1.644960 
# 
# From -- ./inp_files/19015.got.cif
#   From: 2010.03.12/outbox.cif.g09.slc.cpg/sg59_10_cif.got.tgz:19015.got - 2010.04.16 16:29:54.
