data_PCOD8240662
_publ_section_title
;
Structure prediction by ZEFSAII (Michael W. Deem and Ramdas Pophale) SiO2 
 PCOD8240662
Probable space group: P M M N
;
_chemical_formula_sum "Si O2"
_cell_formula_units_Z 64
_cell_length_a 24.025211
_cell_length_b 9.186133
_cell_length_c 15.918649
_cell_angle_alpha 90.000000
_cell_angle_beta 90.000000
_cell_angle_gamma 90.000000
_cell_volume 3513.226471
_symmetry_space_group_name_H-M "P M M N"
_symmetry_group_IT_number 59
_space_group.IT_coordinate_system_code '2'
_symmetry_cell_setting 'orthorhombic'
loop_
_space_group_symop_operation_xyz
x,y,z
1/2-x,1/2-y,z
1/2+x,-y,-z
-x,1/2+y,-z
-x,-y,-z
1/2+x,1/2+y,-z
1/2-x,y,z
x,1/2-y,z
loop_
_atom_site_type_symbol
_atom_site_label
_atom_site_fract_x
_atom_site_fract_y
_atom_site_fract_z
Si Si1 0.811059 0.079876 0.267370
Si Si2 0.686496 0.916426 0.790044
Si Si3 0.473091 0.418699 0.780558
Si Si4 0.891751 0.912194 0.366159
Si Si5 0.412044 0.578526 0.296285
Si Si6 0.187080 0.418164 0.013029
Si Si7 0.388235 0.578515 0.886313
Si Si8 0.948118 0.916422 0.537538
O O1 0.750000 0.012653 0.257059
O O2 0.808641 0.250000 0.279360
O O3 0.845234 0.034486 0.185848
O O4 0.839335 0.015154 0.350073
O O5 0.750000 0.950697 0.763289
O O6 0.671441 0.750000 0.766877
O O7 0.646157 0.025332 0.741184
O O8 0.679185 0.941941 0.888553
O O9 0.464495 0.250000 0.802191
O O10 0.444462 0.461449 0.691298
O O11 0.538321 0.456457 0.769755
O O12 0.447698 0.509959 0.858949
O O13 0.875416 0.750000 0.338512
O O14 0.902368 0.919786 0.464663
O O15 0.409423 0.750000 0.314974
O O16 0.422772 0.496247 0.382849
O O17 0.250000 0.468608 0.987200
O O18 0.179070 0.250000 0.988412
O O19 0.138232 0.512338 0.970461
O O20 0.396148 0.750000 0.898448
O O21 0.964402 0.750000 0.560207
O O22 0.000000 0.000000 0.500000
#
# Coordination Sequence:
#
# PCOD8240662 Si02
#       8
#     8   8   8   8   8   8   8   8
#     4   9  18  31  46  69 104 141 174 213 262 312
#     4   9  20  40  62  83 108 140 181 227 274 326
#     4   9  18  34  51  73 109 144 175 215 263 321
#     4   9  18  33  50  72 102 135 174 216 257 306
#     4  11  22  37  58  85 112 140 179 225 276 330
#     4   9  18  34  56  79 105 141 183 225 272 325
#     4  10  19  30  49  79 110 139 178 224 268 316
#     4  11  21  35  56  82 110 139 178 224 270 319
#
# _framework density 18.216874000000001
#
# number of rings (size 3 to 8) (size 9 to 14) (size 15 to 20)
#    0.000    2.375    1.250    2.250    0.000    4.250 
#    0.000    2.500    0.000    0.750    0.000    0.000 
#    0.000    0.000    0.000    0.000    0.000    0.000 
#
# Total GULP energy -793478.510551 kJ/mol
# GULP energy per Si atom -12398.101727 kJ/mol
# Density = 1.817541 g / cm^3
# Si number density = 18.216874 Si / 1000 Ang^3
#
#
#
# Elastic Constant Matrix: (Units=GPa)
#
#
# Indices 1 2 3 4 5 6 
#
# 1 102.0007 50.0063 40.5902 0.0000 0.0000 0.0000
# 2 50.0063 83.8658 45.2940 0.0000 0.0000 0.0000
# 3 40.5902 45.2940 67.3396 0.0000 0.0000 0.0000
# 4 0.0000 0.0000 0.0000 30.9827 0.0000 0.0000
# 5 0.0000 0.0000 0.0000 0.0000 22.4585 0.0000
# 6 0.0000 0.0000 0.0000 0.0000 0.0000 32.3877
#
#
#
# Elastic Compliance Matrix: (Units=1/GPa)
#
#
# Indices 1 2 3 4 5 6 
#
# 1 0.014732 -0.006264 -0.004667 0.000000 0.000000 0.000000
# 2 -0.006264 0.021390 -0.010612 0.000000 0.000000 0.000000
# 3 -0.004667 -0.010612 0.024801 0.000000 0.000000 0.000000
# 4 0.000000 0.000000 0.000000 0.032276 0.000000 0.000000
# 5 0.000000 0.000000 0.000000 0.000000 0.044527 0.000000
# 6 0.000000 0.000000 0.000000 0.000000 0.000000 0.030876
#
#
# Mechanical properties :
#
#
# Convention : Reuss Voigt Hill
#
# Bulk Modulus (GPa) = 56.05996 58.33191 57.19594
# Shear Modulus (GPa) = 22.97469 24.98680 23.98074
#
# Velocity S-wave (km/s) = 3.55516 3.70757 3.63216
# Velocity P-wave (km/s) = 6.90599 7.10059 7.00397
#
# Compressibility (1/GPa) = 0.01783804
#
# Stress axis : x y z
#
# Youngs Moduli (GPa) = 67.88073 46.75156 40.32146
#
# Poissons Ratio (x) = 0.29283 0.18817
# Poissons Ratio (y) = 0.42518 0.42788
# Poissons Ratio (z) = 0.31679 0.49611
#
# Static dielectric constant tensor:
#      x y z
#    x 3.557800 0.000000 0.000000 
#    y 0.000000 3.375660 0.000000 
#    z 0.000000 0.000000 3.378610 
# 
# 
# High freq. dielectric constant tensor:
#      x y z
#    x 1.700230 0.000000 0.000000 
#    y 0.000000 1.709530 0.000000 
#    z 0.000000 0.000000 1.692050 
# 
# From -- ./inp_files/24653.got.cif
#   From: 2010.03.12/outbox.cif.g09.slc.cpg/sg59_13_cif.got.tgz:24653.got - 2010.04.16 16:29:54.
