data_PCOD8240936
_publ_section_title
;
Structure prediction by ZEFSAII (Michael W. Deem and Ramdas Pophale) SiO2 
 PCOD8240936
Probable space group: P M M N
;
_chemical_formula_sum "Si O2"
_cell_formula_units_Z 56
_cell_length_a 9.002005
_cell_length_b 21.271163
_cell_length_c 16.703075
_cell_angle_alpha 90.000000
_cell_angle_beta 90.000000
_cell_angle_gamma 90.000000
_cell_volume 3198.356842
_symmetry_space_group_name_H-M "P M M N"
_symmetry_group_IT_number 59
_space_group.IT_coordinate_system_code '2'
_symmetry_cell_setting 'orthorhombic'
loop_
_space_group_symop_operation_xyz
x,y,z
1/2-x,1/2-y,z
1/2+x,-y,-z
-x,1/2+y,-z
-x,-y,-z
1/2+x,1/2+y,-z
1/2-x,y,z
x,1/2-y,z
loop_
_atom_site_type_symbol
_atom_site_label
_atom_site_fract_x
_atom_site_fract_y
_atom_site_fract_z
Si Si1 0.576422 0.059387 0.456877
Si Si2 0.921345 0.487525 0.284070
Si Si3 0.084109 0.176635 0.867379
Si Si4 0.576848 0.090594 0.978648
Si Si5 0.923992 0.531712 0.879065
Si Si6 0.425441 0.128999 0.700865
Si Si7 0.925909 0.678324 0.466574
O O1 0.750000 0.057507 0.479351
O O2 0.507206 0.126762 0.479061
O O3 0.500000 0.000000 0.500000
O O4 0.553088 0.055496 0.361462
O O5 0.750000 0.489360 0.257788
O O6 0.977570 0.557108 0.307264
O O7 0.014382 0.460452 0.210238
O O8 0.250000 0.146969 0.875620
O O9 0.095108 0.250000 0.873141
O O10 0.009090 0.157599 0.782705
O O11 0.979693 0.154581 0.939372
O O12 0.750000 0.093163 0.995497
O O13 0.533306 0.035899 0.915851
O O14 0.496633 0.083810 0.063852
O O15 0.750000 0.543098 0.876855
O O16 0.250000 0.135376 0.703677
O O17 0.482928 0.167893 0.624356
O O18 0.750000 0.666796 0.473466
O O19 0.966649 0.750000 0.492422
#
# Coordination Sequence:
#
# PCOD8240936 Si02
#       7
#     8   8   8   8   8   8   8
#     4  11  22  36  55  80 111 146 186 229 277 327
#     4  10  19  33  54  77 106 142 176 219 271 322
#     4  10  19  31  50  75 104 140 177 212 251 304
#     4  10  20  33  50  73 103 137 170 206 255 309
#     4  10  20  33  52  77 102 131 169 216 262 305
#     4   9  16  30  51  76 107 142 179 214 259 318
#     4  10  20  36  57  80 109 147 189 229 274 330
#
# _framework density 17.508990000000001
#
# number of rings (size 3 to 8) (size 9 to 14) (size 15 to 20)
#    0.000    2.000    2.857    1.714    0.000    4.571 
#    0.000    0.714    0.000    2.571    0.000    4.000 
#    0.000    0.000    0.000    0.000    0.000    0.000 
#
# Total GULP energy -694372.105645 kJ/mol
# GULP energy per Si atom -12399.501887 kJ/mol
# Density = 1.746914 g / cm^3
# Si number density = 17.508990 Si / 1000 Ang^3
#
#
#
# Elastic Constant Matrix: (Units=GPa)
#
#
# Indices 1 2 3 4 5 6 
#
# 1 77.2424 43.3978 56.3262 0.0000 0.0000 0.0000
# 2 43.3978 100.2186 53.9847 0.0000 0.0000 0.0000
# 3 56.3262 53.9847 111.3545 0.0000 0.0000 0.0000
# 4 0.0000 0.0000 0.0000 24.0890 0.0000 0.0000
# 5 0.0000 0.0000 0.0000 0.0000 30.3518 0.0000
# 6 0.0000 0.0000 0.0000 0.0000 0.0000 26.6742
#
#
#
# Elastic Compliance Matrix: (Units=1/GPa)
#
#
# Indices 1 2 3 4 5 6 
#
# 1 0.022097 -0.004802 -0.008849 0.000000 0.000000 0.000000
# 2 -0.004802 0.014548 -0.004624 0.000000 0.000000 0.000000
# 3 -0.008849 -0.004624 0.015698 0.000000 0.000000 0.000000
# 4 0.000000 0.000000 0.000000 0.041513 0.000000 0.000000
# 5 0.000000 0.000000 0.000000 0.000000 0.032947 0.000000
# 6 0.000000 0.000000 0.000000 0.000000 0.000000 0.037489
#
#
# Mechanical properties :
#
#
# Convention : Reuss Voigt Hill
#
# Bulk Modulus (GPa) = 63.31863 66.24810 64.78337
# Shear Modulus (GPa) = 24.25903 25.23011 24.74457
#
# Velocity S-wave (km/s) = 3.72629 3.80014 3.76340
# Velocity P-wave (km/s) = 7.39971 7.56132 7.48095
#
# Compressibility (1/GPa) = 0.01579314
#
# Stress axis : x y z
#
# Youngs Moduli (GPa) = 45.25444 68.73583 63.70057
#
# Poissons Ratio (x) = 0.33006 0.56372
# Poissons Ratio (y) = 0.21731 0.29456
# Poissons Ratio (z) = 0.40048 0.31785
#
# Static dielectric constant tensor:
#      x y z
#    x 3.196510 0.000000 0.000000 
#    y 0.000000 3.105310 0.000000 
#    z 0.000000 0.000000 3.327190 
# 
# 
# High freq. dielectric constant tensor:
#      x y z
#    x 1.666420 0.000000 0.000000 
#    y 0.000000 1.657320 0.000000 
#    z 0.000000 0.000000 1.677940 
# 
# From -- ./inp_files/20927.got.cif
#   From: 2010.03.12/outbox.cif.g09.slc.cpg/sg59_11_cif.got.tgz:20927.got - 2010.04.16 16:29:54.
