data_PCOD8240015
_publ_section_title
;
Structure prediction by ZEFSAII (Michael W. Deem and Ramdas Pophale) SiO2 
 PCOD8240015
Probable space group: P M M N
;
_chemical_formula_sum "Si O2"
_cell_formula_units_Z 48
_cell_length_a 18.722660
_cell_length_b 12.468189
_cell_length_c 11.721126
_cell_angle_alpha 90.000000
_cell_angle_beta 90.000000
_cell_angle_gamma 90.000000
_cell_volume 2736.152267
_symmetry_space_group_name_H-M "P M M N"
_symmetry_group_IT_number 59
_space_group.IT_coordinate_system_code '2'
_symmetry_cell_setting 'orthorhombic'
loop_
_space_group_symop_operation_xyz
x,y,z
1/2-x,1/2-y,z
1/2+x,-y,-z
-x,1/2+y,-z
-x,-y,-z
1/2+x,1/2+y,-z
1/2-x,y,z
x,1/2-y,z
loop_
_atom_site_type_symbol
_atom_site_label
_atom_site_fract_x
_atom_site_fract_y
_atom_site_fract_z
Si Si1 0.912082 0.376810 0.830598
Si Si2 0.594893 0.430275 0.577665
Si Si3 0.334979 0.952749 0.949730
Si Si4 0.167979 0.750000 0.555101
Si Si5 0.423729 0.374116 0.823611
Si Si6 0.334871 0.750000 0.806373
Si Si7 0.566698 0.628740 0.437055
O O1 0.897866 0.250000 0.822099
O O2 0.889900 0.432255 0.711912
O O3 0.994819 0.400543 0.858583
O O4 0.861455 0.431707 0.922686
O O5 0.651786 0.356399 0.515018
O O6 0.603612 0.550092 0.527870
O O7 0.518283 0.378906 0.551293
O O8 0.250000 0.965118 0.949468
O O9 0.362684 0.855084 0.871723
O O10 0.369532 0.060969 0.902204
O O11 0.250000 0.750000 0.584076
O O12 0.130320 0.750000 0.679977
O O13 0.407233 0.250000 0.844900
O O14 0.410465 0.403474 0.691043
O O15 0.250000 0.750000 0.807402
O O16 0.590493 0.750000 0.465519
#
# Coordination Sequence:
#
# PCOD8240015 Si02
#       7
#     8   8   8   4   8   4   8
#     4  10  19  35  54  77 111 144 177 220 268 323
#     4  10  18  32  53  81 110 138 181 216 266 327
#     4  11  21  35  54  76 106 140 182 223 267 324
#     4  11  20  31  49  77 113 138 171 224 276 323
#     4   9  19  35  56  78 104 142 179 223 269 310
#     4   9  20  33  47  73 105 138 173 222 272 313
#     4   9  17  33  57  79 107 140 176 229 267 312
#
# _framework density 17.542884000000001
#
# number of rings (size 3 to 8) (size 9 to 14) (size 15 to 20)
#    0.000    2.167    2.500    2.500    0.000    1.000 
#    0.000    0.833    0.000    1.500    0.000    0.000 
#    0.000    0.000    0.000    0.000    0.000    0.000 
#
# Total GULP energy -595262.713866 kJ/mol
# GULP energy per Si atom -12401.306539 kJ/mol
# Density = 1.750296 g / cm^3
# Si number density = 17.542884 Si / 1000 Ang^3
#
#
#
# Elastic Constant Matrix: (Units=GPa)
#
#
# Indices 1 2 3 4 5 6 
#
# 1 50.3801 28.1263 41.1259 0.0000 0.0000 0.0000
# 2 28.1263 86.8972 48.3037 0.0000 0.0000 0.0000
# 3 41.1259 48.3037 106.1119 0.0000 0.0000 0.0000
# 4 0.0000 0.0000 0.0000 32.3199 0.0000 0.0000
# 5 0.0000 0.0000 0.0000 0.0000 12.8993 0.0000
# 6 0.0000 0.0000 0.0000 0.0000 0.0000 18.3201
#
#
#
# Elastic Compliance Matrix: (Units=1/GPa)
#
#
# Indices 1 2 3 4 5 6 
#
# 1 0.030231 -0.004380 -0.009723 0.000000 0.000000 0.000000
# 2 -0.004380 0.016041 -0.005604 0.000000 0.000000 0.000000
# 3 -0.009723 -0.005604 0.015743 0.000000 0.000000 0.000000
# 4 0.000000 0.000000 0.000000 0.030941 0.000000 0.000000
# 5 0.000000 0.000000 0.000000 0.000000 0.077524 0.000000
# 6 0.000000 0.000000 0.000000 0.000000 0.000000 0.054585
#
#
# Mechanical properties :
#
#
# Convention : Reuss Voigt Hill
#
# Bulk Modulus (GPa) = 44.24645 53.16677 48.70661
# Shear Modulus (GPa) = 18.38143 21.09676 19.73909
#
# Velocity S-wave (km/s) = 3.24049 3.47159 3.35803
# Velocity P-wave (km/s) = 6.26719 6.81482 6.54673
#
# Compressibility (1/GPa) = 0.02260069
#
# Stress axis : x y z
#
# Youngs Moduli (GPa) = 33.07817 62.34028 63.51851
#
# Poissons Ratio (x) = 0.27308 0.61757
# Poissons Ratio (y) = 0.14490 0.35598
# Poissons Ratio (z) = 0.32161 0.34938
#
# Static dielectric constant tensor:
#      x y z
#    x 2.974920 0.000000 0.000000 
#    y 0.000000 3.257490 0.000000 
#    z 0.000000 0.000000 3.397220 
# 
# 
# High freq. dielectric constant tensor:
#      x y z
#    x 1.651540 0.000000 0.000000 
#    y 0.000000 1.677530 0.000000 
#    z 0.000000 0.000000 1.686080 
# 
# From -- ./inp_files/15949.got.cif
#   From: 2010.03.12/outbox.cif.g09.slc.cpg/sg59_8_cif.got.tgz:15949.got - 2010.04.16 16:29:54.
