data_PCOD8240633
_publ_section_title
;
Structure prediction by ZEFSAII (Michael W. Deem and Ramdas Pophale) SiO2 
 PCOD8240633
Probable space group: P M M N
;
_chemical_formula_sum "Si O2"
_cell_formula_units_Z 56
_cell_length_a 24.810178
_cell_length_b 13.487041
_cell_length_c 9.774313
_cell_angle_alpha 90.000000
_cell_angle_beta 90.000000
_cell_angle_gamma 90.000000
_cell_volume 3270.640423
_symmetry_space_group_name_H-M "P M M N"
_symmetry_group_IT_number 59
_space_group.IT_coordinate_system_code '2'
_symmetry_cell_setting 'orthorhombic'
loop_
_space_group_symop_operation_xyz
x,y,z
1/2-x,1/2-y,z
1/2+x,-y,-z
-x,1/2+y,-z
-x,-y,-z
1/2+x,1/2+y,-z
1/2-x,y,z
x,1/2-y,z
loop_
_atom_site_type_symbol
_atom_site_label
_atom_site_fract_x
_atom_site_fract_y
_atom_site_fract_z
Si Si1 0.811607 0.134499 0.656712
Si Si2 0.490453 0.636396 0.135686
Si Si3 0.124239 0.543809 0.107890
Si Si4 0.517632 0.475373 0.346620
Si Si5 0.125882 0.862467 0.611447
Si Si6 0.053668 0.135496 0.140614
Si Si7 0.688654 0.136991 0.121212
O O1 0.750000 0.109572 0.620686
O O2 0.818360 0.250000 0.692223
O O3 0.829170 0.069054 0.784880
O O4 0.849508 0.102696 0.531734
O O5 0.499509 0.750000 0.174766
O O6 0.427316 0.612949 0.133796
O O7 0.519495 0.573964 0.254197
O O8 0.514477 0.611863 0.986699
O O9 0.108042 0.428327 0.120854
O O10 0.148505 0.564539 0.958987
O O11 0.500000 0.500000 0.500000
O O12 0.577267 0.432474 0.346734
O O13 0.476590 0.396178 0.279727
O O14 0.104133 0.750000 0.602367
O O15 0.174005 0.870390 0.719933
O O16 0.070213 0.250000 0.149167
O O17 0.750000 0.101975 0.101616
O O18 0.681461 0.250000 0.068274
#
# Coordination Sequence:
#
# PCOD8240633 Si02
#       7
#     8   8   8   8   8   8   8
#     4  10  20  33  49  71  99 129 160 197 244 296
#     4  10  20  34  51  73 102 135 167 199 241 296
#     4  11  19  31  51  73  97 126 162 200 242 287
#     4  11  21  32  50  77 104 130 165 205 246 296
#     4  10  19  32  49  69  99 134 162 193 240 295
#     4  10  21  36  52  71 100 135 168 202 242 291
#     4  10  19  30  48  75 101 126 160 201 244 291
#
# _framework density 17.122029000000001
#
# number of rings (size 3 to 8) (size 9 to 14) (size 15 to 20)
#    0.000    1.714    0.000    7.714    0.000    7.429 
#    0.000    0.000    0.000    1.714    0.000    0.000 
#    0.000    5.714    0.000    0.000    0.000    0.000 
#
# Total GULP energy -694567.550769 kJ/mol
# GULP energy per Si atom -12402.991978 kJ/mol
# Density = 1.708306 g / cm^3
# Si number density = 17.122029 Si / 1000 Ang^3
#
#
#
# Elastic Constant Matrix: (Units=GPa)
#
#
# Indices 1 2 3 4 5 6 
#
# 1 81.0349 36.4288 17.0853 0.0000 0.0000 0.0000
# 2 36.4288 94.6392 32.3886 0.0000 0.0000 0.0000
# 3 17.0853 32.3886 92.0373 0.0000 0.0000 0.0000
# 4 0.0000 0.0000 0.0000 25.6375 0.0000 0.0000
# 5 0.0000 0.0000 0.0000 0.0000 30.8005 0.0000
# 6 0.0000 0.0000 0.0000 0.0000 0.0000 25.9612
#
#
#
# Elastic Compliance Matrix: (Units=1/GPa)
#
#
# Indices 1 2 3 4 5 6 
#
# 1 0.014981 -0.005474 -0.000855 0.000000 0.000000 0.000000
# 2 -0.005474 0.014014 -0.003915 0.000000 0.000000 0.000000
# 3 -0.000855 -0.003915 0.012402 0.000000 0.000000 0.000000
# 4 0.000000 0.000000 0.000000 0.039005 0.000000 0.000000
# 5 0.000000 0.000000 0.000000 0.000000 0.032467 0.000000
# 6 0.000000 0.000000 0.000000 0.000000 0.000000 0.038519
#
#
# Mechanical properties :
#
#
# Convention : Reuss Voigt Hill
#
# Bulk Modulus (GPa) = 47.82779 48.83519 48.33149
# Shear Modulus (GPa) = 27.95705 28.60041 28.27873
#
# Velocity S-wave (km/s) = 4.04519 4.09147 4.06840
# Velocity P-wave (km/s) = 7.05778 7.13470 7.09634
#
# Compressibility (1/GPa) = 0.02090835
#
# Stress axis : x y z
#
# Youngs Moduli (GPa) = 66.74916 71.35965 80.63462
#
# Poissons Ratio (x) = 0.39064 0.06892
# Poissons Ratio (y) = 0.36540 0.31571
# Poissons Ratio (z) = 0.05705 0.27939
#
# Static dielectric constant tensor:
#      x y z
#    x 3.153530 0.000000 0.000000 
#    y 0.000000 3.134550 0.000000 
#    z 0.000000 0.000000 3.313260 
# 
# 
# High freq. dielectric constant tensor:
#      x y z
#    x 1.656650 0.000000 0.000000 
#    y 0.000000 1.640430 0.000000 
#    z 0.000000 0.000000 1.676410 
# 
# From -- ./inp_files/11450.got.cif
#   From: 2010.03.12/outbox.cif.g09.slc.cpg/sg59_6_cif.got.tgz:11450.got - 2010.04.16 16:29:54.
