data_PCOD8240568
_publ_section_title
;
Structure prediction by ZEFSAII (Michael W. Deem and Ramdas Pophale) SiO2 
 PCOD8240568
Probable space group: P M M N
;
_chemical_formula_sum "Si O2"
_cell_formula_units_Z 64
_cell_length_a 17.384722
_cell_length_b 9.212178
_cell_length_c 22.945210
_cell_angle_alpha 90.000000
_cell_angle_beta 90.000000
_cell_angle_gamma 90.000000
_cell_volume 3674.701850
_symmetry_space_group_name_H-M "P M M N"
_symmetry_group_IT_number 59
_space_group.IT_coordinate_system_code '2'
_symmetry_cell_setting 'orthorhombic'
loop_
_space_group_symop_operation_xyz
x,y,z
1/2-x,1/2-y,z
1/2+x,-y,-z
-x,1/2+y,-z
-x,-y,-z
1/2+x,1/2+y,-z
1/2-x,y,z
x,1/2-y,z
loop_
_atom_site_type_symbol
_atom_site_label
_atom_site_fract_x
_atom_site_fract_y
_atom_site_fract_z
Si Si1 0.602801 0.582179 0.068155
Si Si2 0.982291 0.079529 0.241111
Si Si3 0.662291 0.081347 0.960012
Si Si4 0.473417 0.079367 0.639275
Si Si5 0.334704 0.585485 0.828856
Si Si6 0.049405 0.915407 0.138025
Si Si7 0.337402 0.579575 0.570426
Si Si8 0.435949 0.914450 0.467889
O O1 0.622418 0.750000 0.061160
O O2 0.662098 0.514777 0.114377
O O3 0.516959 0.553950 0.090805
O O4 0.612092 0.507552 0.005897
O O5 0.994911 0.250000 0.250599
O O6 0.896178 0.040257 0.219927
O O7 0.995140 0.995641 0.300656
O O8 0.042910 0.022291 0.193129
O O9 0.750000 0.027374 0.960678
O O10 0.655598 0.250000 0.976543
O O11 0.629400 0.054137 0.895037
O O12 0.457148 0.250000 0.648217
O O13 0.551906 0.052590 0.600860
O O14 0.396820 0.008710 0.610880
O O15 0.250000 0.569694 0.800731
O O16 0.350902 0.750000 0.849365
O O17 0.044158 0.750000 0.160842
O O18 0.250000 0.527153 0.582189
O O19 0.345864 0.750000 0.585455
O O20 0.354993 0.551313 0.500707
O O21 0.457636 0.750000 0.479299
O O22 0.500000 0.000000 0.500000
#
# Coordination Sequence:
#
# PCOD8240568 Si02
#       8
#     8   8   8   8   8   8   8   8
#     4  10  19  30  47  71  96 121 150 187 233 285
#     4  10  20  33  50  70  91 122 164 201 235 277
#     4  10  20  33  50  71  94 121 153 191 238 291
#     4  10  19  31  48  70  97 128 162 198 234 277
#     4   9  18  32  47  63  88 122 156 190 229 276
#     4   9  19  35  51  68  93 124 158 197 239 282
#     4   9  17  30  49  73 101 129 157 193 235 278
#     4   8  15  28  46  68  93 123 156 188 224 266
#
# _framework density 17.41638
#
# number of rings (size 3 to 8) (size 9 to 14) (size 15 to 20)
#    0.000    2.625    0.000    1.875    0.000    4.750 
#    0.000    1.250    0.000    0.750    0.000    3.500 
#    0.000    0.000    0.000    0.000    0.000    0.000 
#
# Total GULP energy -793114.649675 kJ/mol
# GULP energy per Si atom -12392.416401 kJ/mol
# Density = 1.737674 g / cm^3
# Si number density = 17.416380 Si / 1000 Ang^3
#
#
#
# Elastic Constant Matrix: (Units=GPa)
#
#
# Indices 1 2 3 4 5 6 
#
# 1 40.2482 24.5818 32.0667 0.0000 0.0000 0.0000
# 2 24.5818 76.4324 55.6321 0.0000 0.0000 0.0000
# 3 32.0667 55.6321 113.7787 0.0000 0.0000 0.0000
# 4 0.0000 0.0000 0.0000 32.2350 0.0000 0.0000
# 5 0.0000 0.0000 0.0000 0.0000 17.1577 0.0000
# 6 0.0000 0.0000 0.0000 0.0000 0.0000 18.9020
#
#
#
# Elastic Compliance Matrix: (Units=1/GPa)
#
#
# Indices 1 2 3 4 5 6 
#
# 1 0.033783 -0.006109 -0.006534 0.000000 0.000000 0.000000
# 2 -0.006109 0.021417 -0.008750 0.000000 0.000000 0.000000
# 3 -0.006534 -0.008750 0.014909 0.000000 0.000000 0.000000
# 4 0.000000 0.000000 0.000000 0.031022 0.000000 0.000000
# 5 0.000000 0.000000 0.000000 0.000000 0.058283 0.000000
# 6 0.000000 0.000000 0.000000 0.000000 0.000000 0.052905
#
#
# Mechanical properties :
#
#
# Convention : Reuss Voigt Hill
#
# Bulk Modulus (GPa) = 36.60039 50.55786 43.57912
# Shear Modulus (GPa) = 18.92414 21.53750 20.23082
#
# Velocity S-wave (km/s) = 3.29989 3.52038 3.41192
# Velocity P-wave (km/s) = 5.96486 6.75396 6.37164
#
# Compressibility (1/GPa) = 0.02732212
#
# Stress axis : x y z
#
# Youngs Moduli (GPa) = 29.60075 46.69149 67.07398
#
# Poissons Ratio (x) = 0.28525 0.43827
# Poissons Ratio (y) = 0.18084 0.58691
# Poissons Ratio (z) = 0.19341 0.40856
#
# Static dielectric constant tensor:
#      x y z
#    x 2.693900 0.000000 0.000000 
#    y 0.000000 3.313440 0.000000 
#    z 0.000000 0.000000 3.820910 
# 
# 
# High freq. dielectric constant tensor:
#      x y z
#    x 1.651980 0.000000 0.000000 
#    y 0.000000 1.679200 0.000000 
#    z 0.000000 0.000000 1.664850 
# 
# From -- ./inp_files/31765.got.cif
#   From: 2010.03.12/outbox.cif.g09.slc.cpg/sg59_16_cif.got.tgz:31765.got - 2010.04.16 16:29:54.
