data_PCOD8240018
_publ_section_title
;
Structure prediction by ZEFSAII (Michael W. Deem and Ramdas Pophale) SiO2 
 PCOD8240018
Probable space group: P M M N
;
_chemical_formula_sum "Si O2"
_cell_formula_units_Z 48
_cell_length_a 9.834715
_cell_length_b 9.542786
_cell_length_c 27.810796
_cell_angle_alpha 90.000000
_cell_angle_beta 90.000000
_cell_angle_gamma 90.000000
_cell_volume 2610.059352
_symmetry_space_group_name_H-M "P M M N"
_symmetry_group_IT_number 59
_space_group.IT_coordinate_system_code '2'
_symmetry_cell_setting 'orthorhombic'
loop_
_space_group_symop_operation_xyz
x,y,z
1/2-x,1/2-y,z
1/2+x,-y,-z
-x,1/2+y,-z
-x,-y,-z
1/2+x,1/2+y,-z
1/2-x,y,z
x,1/2-y,z
loop_
_atom_site_type_symbol
_atom_site_label
_atom_site_fract_x
_atom_site_fract_y
_atom_site_fract_z
Si Si1 0.402001 0.585297 0.285339
Si Si2 0.405242 0.088701 0.799671
Si Si3 0.595965 0.750000 0.555938
Si Si4 0.463300 0.581364 0.894140
Si Si5 0.912035 0.250000 0.536693
Si Si6 0.250000 0.087246 0.065465
Si Si7 0.906164 0.474018 0.610561
Si Si8 0.750000 0.920951 0.043316
O O1 0.250000 0.519052 0.279456
O O2 0.390983 0.750000 0.282103
O O3 0.499640 0.531117 0.243120
O O4 0.471446 0.545199 0.336648
O O5 0.250000 0.082702 0.781929
O O6 0.441587 0.250000 0.814600
O O7 0.424445 0.979442 0.842593
O O8 0.750000 0.750000 0.534798
O O9 0.487968 0.750000 0.513714
O O10 0.569691 0.871852 0.593066
O O11 0.434830 0.750000 0.896633
O O12 0.619453 0.542283 0.903956
O O13 0.380940 0.493594 0.933475
O O14 0.750000 0.250000 0.526469
O O15 0.966159 0.380170 0.567750
O O16 0.250000 0.250000 0.056859
O O17 0.250000 0.026126 0.011668
O O18 0.750000 0.429086 0.616892
O O19 0.750000 0.750000 0.050500
#
# Coordination Sequence:
#
# PCOD8240018 Si02
#       8
#     8   8   4   8   4   4   8   4
#     4   9  17  33  57  79  99 136 187 229 269 324
#     4  10  21  37  56  80 111 144 181 230 284 334
#     4  10  20  32  48  76 110 136 168 218 265 320
#     4  11  22  39  60  84 119 154 188 233 288 340
#     4  10  18  32  54  74 100 140 178 208 261 320
#     4   9  22  39  59  87 121 149 191 241 280 325
#     4   9  17  32  53  74 102 136 174 221 268 318
#     4  11  21  39  63  87 115 157 195 231 276 337
#
# _framework density 18.390384999999998
#
# number of rings (size 3 to 8) (size 9 to 14) (size 15 to 20)
#    0.000    2.167    1.667    1.750    1.167    0.000 
#    1.500    5.417    0.000    0.000    0.000    0.000 
#    0.000    0.000    0.000    0.000    0.000    0.000 
#
# Total GULP energy -594835.509845 kJ/mol
# GULP energy per Si atom -12392.406455 kJ/mol
# Density = 1.834853 g / cm^3
# Si number density = 18.390385 Si / 1000 Ang^3
#
#
#
# Elastic Constant Matrix: (Units=GPa)
#
#
# Indices 1 2 3 4 5 6 
#
# 1 94.2924 23.4368 41.9612 0.0000 0.0000 0.0000
# 2 23.4368 73.7841 14.7535 0.0000 0.0000 0.0000
# 3 41.9612 14.7535 102.7024 0.0000 0.0000 0.0000
# 4 0.0000 0.0000 0.0000 10.4530 0.0000 0.0000
# 5 0.0000 0.0000 0.0000 0.0000 10.1818 0.0000
# 6 0.0000 0.0000 0.0000 0.0000 0.0000 22.5200
#
#
#
# Elastic Compliance Matrix: (Units=1/GPa)
#
#
# Indices 1 2 3 4 5 6 
#
# 1 0.013714 -0.003331 -0.005125 0.000000 0.000000 0.000000
# 2 -0.003331 0.014763 -0.000760 0.000000 0.000000 0.000000
# 3 -0.005125 -0.000760 0.011940 0.000000 0.000000 0.000000
# 4 0.000000 0.000000 0.000000 0.095666 0.000000 0.000000
# 5 0.000000 0.000000 0.000000 0.000000 0.098214 0.000000
# 6 0.000000 0.000000 0.000000 0.000000 0.000000 0.044405
#
#
# Mechanical properties :
#
#
# Convention : Reuss Voigt Hill
#
# Bulk Modulus (GPa) = 45.48438 47.89799 46.69118
# Shear Modulus (GPa) = 16.42243 21.33945 18.88094
#
# Velocity S-wave (km/s) = 2.99154 3.41010 3.20765
# Velocity P-wave (km/s) = 6.05960 6.45033 6.25801
#
# Compressibility (1/GPa) = 0.02198557
#
# Stress axis : x y z
#
# Youngs Moduli (GPa) = 72.91918 67.73628 83.75401
#
# Poissons Ratio (x) = 0.22566 0.42920
# Poissons Ratio (y) = 0.24292 0.06362
# Poissons Ratio (z) = 0.37367 0.05146
#
# Static dielectric constant tensor:
#      x y z
#    x 3.616620 0.000000 0.000000 
#    y 0.000000 3.332330 0.000000 
#    z 0.000000 0.000000 3.479730 
# 
# 
# High freq. dielectric constant tensor:
#      x y z
#    x 1.699000 0.000000 0.000000 
#    y 0.000000 1.706970 0.000000 
#    z 0.000000 0.000000 1.723450 
# 
# From -- ./inp_files/33116.got.cif
#   From: 2010.03.12/outbox.cif.g09.slc.cpg/sg59_17_cif.got.tgz:33116.got - 2010.04.16 16:29:54.
