data_PCOD8240551
_publ_section_title
;
Structure prediction by ZEFSAII (Michael W. Deem and Ramdas Pophale) SiO2 
 PCOD8240551
Probable space group: P M M N
;
_chemical_formula_sum "Si O2"
_cell_formula_units_Z 48
_cell_length_a 13.646365
_cell_length_b 9.168510
_cell_length_c 23.590193
_cell_angle_alpha 90.000000
_cell_angle_beta 90.000000
_cell_angle_gamma 90.000000
_cell_volume 2951.530261
_symmetry_space_group_name_H-M "P M M N"
_symmetry_group_IT_number 59
_space_group.IT_coordinate_system_code '2'
_symmetry_cell_setting 'orthorhombic'
loop_
_space_group_symop_operation_xyz
x,y,z
1/2-x,1/2-y,z
1/2+x,-y,-z
-x,1/2+y,-z
-x,-y,-z
1/2+x,1/2+y,-z
1/2-x,y,z
x,1/2-y,z
loop_
_atom_site_type_symbol
_atom_site_label
_atom_site_fract_x
_atom_site_fract_y
_atom_site_fract_z
Si Si1 0.139121 0.921450 0.027864
Si Si2 0.363167 0.581727 0.802812
Si Si3 0.048651 0.580307 0.584874
Si Si4 0.136666 0.421081 0.688941
Si Si5 0.860189 0.916496 0.516751
Si Si6 0.027638 0.921183 0.915414
O O1 0.250000 0.976477 0.033768
O O2 0.130825 0.750000 0.036895
O O3 0.101163 0.967253 0.965710
O O4 0.075989 0.999012 0.076659
O O5 0.250000 0.558669 0.818657
O O6 0.384272 0.750000 0.787991
O O7 0.394332 0.483986 0.749679
O O8 0.426097 0.527818 0.856214
O O9 0.071025 0.750000 0.593979
O O10 0.067905 0.495510 0.642635
O O11 0.120075 0.521792 0.535971
O O12 0.935497 0.551301 0.567780
O O13 0.250000 0.457925 0.675672
O O14 0.117071 0.250000 0.688710
O O15 0.750000 0.944144 0.539242
O O16 0.873273 0.750000 0.495440
O O17 0.008876 0.750000 0.915876
#
# Coordination Sequence:
#
# PCOD8240551 Si02
#       6
#     8   8   8   8   8   8
#     4   9  17  29  45  66  93 123 151 181 222 270
#     4   9  17  30  48  68  90 117 149 185 224 266
#     4  10  19  30  47  70  93 119 152 186 220 262
#     4  10  20  32  46  66  93 122 149 181 224 270
#     4   9  18  32  48  67  93 122 149 181 223 266
#     4   9  17  29  46  68  92 118 150 187 225 265
#
# _framework density 16.26275
#
# number of rings (size 3 to 8) (size 9 to 14) (size 15 to 20)
#    0.000    2.667    0.000    2.000    0.000    7.000 
#    0.000    0.000    0.000    4.000    0.000    2.333 
#    0.000    0.000    0.000    0.000    0.000    0.000 
#
# Total GULP energy -595279.238140 kJ/mol
# GULP energy per Si atom -12401.650795 kJ/mol
# Density = 1.622574 g / cm^3
# Si number density = 16.262750 Si / 1000 Ang^3
#
#
#
# Elastic Constant Matrix: (Units=GPa)
#
#
# Indices 1 2 3 4 5 6 
#
# 1 120.5048 47.7772 68.5162 0.0000 0.0000 0.0000
# 2 47.7772 68.8323 60.2325 0.0000 0.0000 0.0000
# 3 68.5162 60.2325 125.0138 0.0000 0.0000 0.0000
# 4 0.0000 0.0000 0.0000 29.9706 0.0000 0.0000
# 5 0.0000 0.0000 0.0000 0.0000 25.8269 0.0000
# 6 0.0000 0.0000 0.0000 0.0000 0.0000 25.6737
#
#
#
# Elastic Compliance Matrix: (Units=1/GPa)
#
#
# Indices 1 2 3 4 5 6 
#
# 1 0.012907 -0.004787 -0.004768 0.000000 0.000000 0.000000
# 2 -0.004787 0.026894 -0.010334 0.000000 0.000000 0.000000
# 3 -0.004768 -0.010334 0.015591 0.000000 0.000000 0.000000
# 4 0.000000 0.000000 0.000000 0.033366 0.000000 0.000000
# 5 0.000000 0.000000 0.000000 0.000000 0.038719 0.000000
# 6 0.000000 0.000000 0.000000 0.000000 0.000000 0.038950
#
#
# Mechanical properties :
#
#
# Convention : Reuss Voigt Hill
#
# Bulk Modulus (GPa) = 64.04213 74.15587 69.09900
# Shear Modulus (GPa) = 23.65080 25.48256 24.56668
#
# Velocity S-wave (km/s) = 3.81766 3.96274 3.89087
# Velocity P-wave (km/s) = 7.67449 8.16305 7.92253
#
# Compressibility (1/GPa) = 0.01561472
#
# Stress axis : x y z
#
# Youngs Moduli (GPa) = 77.47683 37.18359 64.13957
#
# Poissons Ratio (x) = 0.17800 0.30579
# Poissons Ratio (y) = 0.37088 0.66281
# Poissons Ratio (z) = 0.36937 0.38425
#
# Static dielectric constant tensor:
#      x y z
#    x 3.097560 0.000000 0.000000 
#    y 0.000000 3.093760 0.000000 
#    z 0.000000 0.000000 3.000560 
# 
# 
# High freq. dielectric constant tensor:
#      x y z
#    x 1.616340 0.000000 0.000000 
#    y 0.000000 1.630120 0.000000 
#    z 0.000000 0.000000 1.613940 
# 
# From -- ./inp_files/28824.got.cif
#   From: 2010.03.12/outbox.cif.g09.slc.cpg/sg59_15_cif.got.tgz:28824.got - 2010.04.16 16:29:54.
