data_PCOD8240190
_publ_section_title
;
Structure prediction by ZEFSAII (Michael W. Deem and Ramdas Pophale) SiO2 
 PCOD8240190
Probable space group: P M M N
;
_chemical_formula_sum "Si O2"
_cell_formula_units_Z 40
_cell_length_a 18.915615
_cell_length_b 10.953861
_cell_length_c 9.898942
_cell_angle_alpha 90.000000
_cell_angle_beta 90.000000
_cell_angle_gamma 90.000000
_cell_volume 2051.051056
_symmetry_space_group_name_H-M "P M M N"
_symmetry_group_IT_number 59
_space_group.IT_coordinate_system_code '2'
_symmetry_cell_setting 'orthorhombic'
loop_
_space_group_symop_operation_xyz
x,y,z
1/2-x,1/2-y,z
1/2+x,-y,-z
-x,1/2+y,-z
-x,-y,-z
1/2+x,1/2+y,-z
1/2-x,y,z
x,1/2-y,z
loop_
_atom_site_type_symbol
_atom_site_label
_atom_site_fract_x
_atom_site_fract_y
_atom_site_fract_z
Si Si1 0.539142 0.386225 0.160126
Si Si2 0.827391 0.750000 0.956668
Si Si3 0.103350 0.493674 0.076636
Si Si4 0.673245 0.750000 0.638741
Si Si5 0.448795 0.611959 0.536949
Si Si6 0.666585 0.015480 0.643936
O O1 0.508891 0.250000 0.144927
O O2 0.473597 0.477781 0.144192
O O3 0.573707 0.405129 0.307078
O O4 0.598089 0.408512 0.044433
O O5 0.750000 0.750000 0.027105
O O6 0.869879 0.871056 0.997898
O O7 0.816665 0.750000 0.797798
O O8 0.154891 0.540254 0.195981
O O9 0.750000 0.750000 0.568369
O O10 0.635965 0.621079 0.603024
O O11 0.500000 0.500000 0.500000
O O12 0.481561 0.750000 0.516130
O O13 0.377497 0.608506 0.447176
O O14 0.750000 0.028142 0.614548
#
# Coordination Sequence:
#
# PCOD8240190 Si02
#       6
#     8   4   8   4   8   8
#     4  10  21  37  56  82 121 153 187 236 303 354
#     4   9  16  30  55  85 115 149 188 242 298 343
#     4  10  18  34  57  88 114 151 195 243 293 350
#     4   7  14  28  55  85 111 145 186 236 296 345
#     4  11  24  41  60  88 122 161 199 246 302 362
#     4  10  20  37  62  90 118 157 205 252 295 354
#
# _framework density 19.502196999999999
#
# number of rings (size 3 to 8) (size 9 to 14) (size 15 to 20)
#    0.000    2.200    3.000    1.800    1.400    1.200 
#    1.800    2.000    0.000    5.400    0.000    0.000 
#    0.000    0.000    0.000    0.000    0.000    0.000 
#
# Total GULP energy -495589.038734 kJ/mol
# GULP energy per Si atom -12389.725968 kJ/mol
# Density = 1.945781 g / cm^3
# Si number density = 19.502197 Si / 1000 Ang^3
#
#
#
# Elastic Constant Matrix: (Units=GPa)
#
#
# Indices 1 2 3 4 5 6 
#
# 1 69.7222 27.2012 33.2001 0.0000 0.0000 0.0000
# 2 27.2012 90.4749 50.2960 0.0000 0.0000 0.0000
# 3 33.2001 50.2960 102.8564 0.0000 0.0000 0.0000
# 4 0.0000 0.0000 0.0000 29.0399 0.0000 0.0000
# 5 0.0000 0.0000 0.0000 0.0000 20.4671 0.0000
# 6 0.0000 0.0000 0.0000 0.0000 0.0000 24.1594
#
#
#
# Elastic Compliance Matrix: (Units=1/GPa)
#
#
# Indices 1 2 3 4 5 6 
#
# 1 0.017489 -0.002911 -0.004221 0.000000 0.000000 0.000000
# 2 -0.002911 0.015664 -0.006720 0.000000 0.000000 0.000000
# 3 -0.004221 -0.006720 0.014371 0.000000 0.000000 0.000000
# 4 0.000000 0.000000 0.000000 0.034435 0.000000 0.000000
# 5 0.000000 0.000000 0.000000 0.000000 0.048859 0.000000
# 6 0.000000 0.000000 0.000000 0.000000 0.000000 0.041392
#
#
# Mechanical properties :
#
#
# Convention : Reuss Voigt Hill
#
# Bulk Modulus (GPa) = 50.45844 53.82756 52.14300
# Shear Modulus (GPa) = 24.21079 24.89038 24.55058
#
# Velocity S-wave (km/s) = 3.52723 3.57639 3.55189
# Velocity P-wave (km/s) = 6.52057 6.68691 6.60426
#
# Compressibility (1/GPa) = 0.01981829
#
# Stress axis : x y z
#
# Youngs Moduli (GPa) = 57.18031 63.84238 69.58574
#
# Poissons Ratio (x) = 0.18586 0.29375
# Poissons Ratio (y) = 0.16646 0.46759
# Poissons Ratio (z) = 0.24138 0.42900
#
# Static dielectric constant tensor:
#      x y z
#    x 3.432010 0.000000 0.000000 
#    y 0.000000 3.855300 0.000000 
#    z 0.000000 0.000000 3.441920 
# 
# 
# High freq. dielectric constant tensor:
#      x y z
#    x 1.741410 0.000000 0.000000 
#    y 0.000000 1.758320 0.000000 
#    z 0.000000 0.000000 1.734750 
# 
# From -- ./inp_files/7416.got.cif
#   From: 2010.03.12/outbox.cif.g09.slc.cpg/sg59_4_cif.got.tgz:7416.got - 2010.04.16 16:29:54.
