data_PCOD8240481
_publ_section_title
;
Structure prediction by ZEFSAII (Michael W. Deem and Ramdas Pophale) SiO2 
 PCOD8240481
Probable space group: P M M N
;
_chemical_formula_sum "Si O2"
_cell_formula_units_Z 48
_cell_length_a 8.950511
_cell_length_b 19.211832
_cell_length_c 16.086920
_cell_angle_alpha 90.000000
_cell_angle_beta 90.000000
_cell_angle_gamma 90.000000
_cell_volume 2766.237809
_symmetry_space_group_name_H-M "P M M N"
_symmetry_group_IT_number 59
_space_group.IT_coordinate_system_code '2'
_symmetry_cell_setting 'orthorhombic'
loop_
_space_group_symop_operation_xyz
x,y,z
1/2-x,1/2-y,z
1/2+x,-y,-z
-x,1/2+y,-z
-x,-y,-z
1/2+x,1/2+y,-z
1/2-x,y,z
x,1/2-y,z
loop_
_atom_site_type_symbol
_atom_site_label
_atom_site_fract_x
_atom_site_fract_y
_atom_site_fract_z
Si Si1 0.578374 0.068832 0.028045
Si Si2 0.427488 0.250000 0.579370
Si Si3 0.074658 0.608841 0.469119
Si Si4 0.577440 0.012473 0.379953
Si Si5 0.074073 0.250000 0.769089
Si Si6 0.577248 0.486778 0.193805
Si Si7 0.924645 0.125486 0.863014
O O1 0.750000 0.054767 0.011653
O O2 0.546995 0.077316 0.127646
O O3 0.533314 0.130152 0.962895
O O4 0.500000 0.000000 0.000000
O O5 0.250000 0.250000 0.572287
O O6 0.490980 0.317920 0.533940
O O7 0.483498 0.250000 0.674506
O O8 0.250000 0.621198 0.457717
O O9 0.033979 0.574701 0.558020
O O10 0.018263 0.556991 0.396884
O O11 0.750000 0.991538 0.391694
O O12 0.543310 0.039730 0.286856
O O13 0.250000 0.250000 0.770899
O O14 0.017519 0.182345 0.815219
O O15 0.750000 0.511320 0.186684
O O16 0.469385 0.550661 0.173122
O O17 0.750000 0.138901 0.847438
#
# Coordination Sequence:
#
# PCOD8240481 Si02
#       7
#     8   4   8   8   4   8   8
#     4   8  15  27  44  66  91 118 146 179 218 258
#     4  11  23  37  51  68  93 126 162 197 237 289
#     4  10  20  33  50  72  98 126 158 198 242 285
#     4   9  18  32  50  73  99 127 159 195 236 284
#     4  11  23  35  47  64  89 124 158 185 223 277
#     4   9  16  29  49  70  94 123 153 184 223 274
#     4  10  19  30  45  69  97 121 151 190 228 266
#
# _framework density 17.352087000000001
#
# number of rings (size 3 to 8) (size 9 to 14) (size 15 to 20)
#    0.000    2.500    0.000    2.500    0.000    7.333 
#    0.000    0.000    0.000    1.000    0.000    7.000 
#    0.000    0.000    0.000    0.000    0.000    0.000 
#
# Total GULP energy -594711.105199 kJ/mol
# GULP energy per Si atom -12389.814692 kJ/mol
# Density = 1.731259 g / cm^3
# Si number density = 17.352087 Si / 1000 Ang^3
#
#
#
# Elastic Constant Matrix: (Units=GPa)
#
#
# Indices 1 2 3 4 5 6 
#
# 1 45.2380 29.4935 27.6157 0.0000 0.0000 0.0000
# 2 29.4935 83.2354 45.0057 0.0000 0.0000 0.0000
# 3 27.6157 45.0057 132.7156 0.0000 0.0000 0.0000
# 4 0.0000 0.0000 0.0000 7.3092 0.0000 0.0000
# 5 0.0000 0.0000 0.0000 0.0000 22.8888 0.0000
# 6 0.0000 0.0000 0.0000 0.0000 0.0000 -8.6565
#
#
#
# Elastic Compliance Matrix: (Units=1/GPa)
#
#
# Indices 1 2 3 4 5 6 
#
# 1 0.029823 -0.008831 -0.003211 0.000000 0.000000 0.000000
# 2 -0.008831 0.017327 -0.004038 0.000000 0.000000 0.000000
# 3 -0.003211 -0.004038 0.009572 0.000000 0.000000 0.000000
# 4 0.000000 0.000000 0.000000 0.136815 0.000000 0.000000
# 5 0.000000 0.000000 0.000000 0.000000 0.043690 0.000000
# 6 0.000000 0.000000 0.000000 0.000000 0.000000 -0.115520
#
#
# Mechanical properties :
#
#
# Convention : Reuss Voigt Hill
#
# Bulk Modulus (GPa) = 40.71377 51.71320 46.21349
# Shear Modulus (GPa) = 30.85392 14.91323 22.88357
#
# Velocity S-wave (km/s) = 4.22134 2.93482 3.63544
# Velocity P-wave (km/s) = 6.87560 6.43049 6.65677
#
# Compressibility (1/GPa) = 0.02456171
#
# Stress axis : x y z
#
# Youngs Moduli (GPa) = 33.53109 57.71388 104.46700
#
# Poissons Ratio (x) = 0.50969 0.33542
# Poissons Ratio (y) = 0.29613 0.42185
# Poissons Ratio (z) = 0.10766 0.23306
#
# Static dielectric constant tensor:
#      x y z
#    x 3.397480 0.000000 0.000000 
#    y 0.000000 3.031610 0.000000 
#    z 0.000000 0.000000 3.844630 
# 
# 
# High freq. dielectric constant tensor:
#      x y z
#    x 1.678570 0.000000 0.000000 
#    y 0.000000 1.629750 0.000000 
#    z 0.000000 0.000000 1.687150 
# 
# From -- ./inp_files/25979.got.cif
#   From: 2010.03.12/outbox.cif.g09.slc.cpg/sg59_13_cif.got.tgz:25979.got - 2010.04.16 16:29:54.
