data_PCOD8240321
_publ_section_title
;
Structure prediction by ZEFSAII (Michael W. Deem and Ramdas Pophale) SiO2 
 PCOD8240321
Probable space group: P M M N
;
_chemical_formula_sum "Si O2"
_cell_formula_units_Z 64
_cell_length_a 13.785013
_cell_length_b 9.729524
_cell_length_c 31.111074
_cell_angle_alpha 90.000000
_cell_angle_beta 90.000000
_cell_angle_gamma 90.000000
_cell_volume 4172.667484
_symmetry_space_group_name_H-M "P M M N"
_symmetry_group_IT_number 59
_space_group.IT_coordinate_system_code '2'
_symmetry_cell_setting 'orthorhombic'
loop_
_space_group_symop_operation_xyz
x,y,z
1/2-x,1/2-y,z
1/2+x,-y,-z
-x,1/2+y,-z
-x,-y,-z
1/2+x,1/2+y,-z
1/2-x,y,z
x,1/2-y,z
loop_
_atom_site_type_symbol
_atom_site_label
_atom_site_fract_x
_atom_site_fract_y
_atom_site_fract_z
Si Si1 0.365144 0.901788 0.225315
Si Si2 0.141200 0.907207 0.557662
Si Si3 0.040603 0.092393 0.391770
Si Si4 0.862460 0.908785 0.850841
Si Si5 0.859180 0.407678 0.012054
Si Si6 0.135528 0.094493 0.480356
Si Si7 0.050541 0.090856 0.059395
Si Si8 0.638409 0.088795 0.678520
O O1 0.250000 0.897395 0.224340
O O2 0.406389 0.750000 0.214793
O O3 0.396732 0.947332 0.273137
O O4 0.404407 0.007275 0.189691
O O5 0.250000 0.953461 0.570219
O O6 0.138626 0.750000 0.541787
O O7 0.074522 0.925679 0.599800
O O8 0.097741 0.997092 0.518619
O O9 0.067099 0.250000 0.380490
O O10 0.095049 0.043787 0.434824
O O11 0.069719 0.996144 0.352694
O O12 0.750000 0.943538 0.860416
O O13 0.875660 0.750000 0.839363
O O14 0.926589 0.951694 0.891852
O O15 0.750000 0.437996 0.028993
O O16 0.868910 0.250000 0.996899
O O17 0.936695 0.438641 0.049948
O O18 0.880865 0.502573 0.971351
O O19 0.250000 0.084186 0.477634
O O20 0.100404 0.250000 0.489729
O O21 0.077090 0.250000 0.051674
O O22 0.750000 0.044650 0.671415
O O23 0.625968 0.250000 0.669456
#
# Coordination Sequence:
#
# PCOD8240321 Si02
#       8
#     8   8   8   8   8   8   8   8
#     4   8  15  28  43  59  82 109 132 158 197 243
#     4   9  18  31  44  59  81 109 141 174 204 234
#     4  10  19  29  43  63  85 110 138 168 203 240
#     4   9  16  25  39  60  83 107 136 168 202 241
#     4   9  17  28  41  58  82 113 147 179 210 245
#     4   9  17  28  41  59  83 108 135 168 203 238
#     4   9  17  28  41  59  84 112 142 177 213 246
#     4   9  18  31  45  63  87 111 134 162 199 246
#
# _framework density 15.337911999999999
#
# number of rings (size 3 to 8) (size 9 to 14) (size 15 to 20)
#    0.000    3.000    0.000    1.875    0.000    3.500 
#    0.000    3.750    0.000    0.000    0.000    0.875 
#    0.000    5.000    0.000    0.000    0.000    0.000 
#
# Total GULP energy -793402.770137 kJ/mol
# GULP energy per Si atom -12396.918283 kJ/mol
# Density = 1.530300 g / cm^3
# Si number density = 15.337912 Si / 1000 Ang^3
#
#
#
# Elastic Constant Matrix: (Units=GPa)
#
#
# Indices 1 2 3 4 5 6 
#
# 1 61.6129 33.0532 49.2667 0.0000 0.0000 0.0000
# 2 33.0532 65.2856 66.5049 0.0000 0.0000 0.0000
# 3 49.2667 66.5049 124.3841 0.0000 0.0000 0.0000
# 4 0.0000 0.0000 0.0000 30.9607 0.0000 0.0000
# 5 0.0000 0.0000 0.0000 0.0000 20.7528 0.0000
# 6 0.0000 0.0000 0.0000 0.0000 0.0000 17.2250
#
#
#
# Elastic Compliance Matrix: (Units=1/GPa)
#
#
# Indices 1 2 3 4 5 6 
#
# 1 0.024640 -0.005563 -0.006785 0.000000 0.000000 0.000000
# 2 -0.005563 0.034895 -0.016454 0.000000 0.000000 0.000000
# 3 -0.006785 -0.016454 0.019525 0.000000 0.000000 0.000000
# 4 0.000000 0.000000 0.000000 0.032299 0.000000 0.000000
# 5 0.000000 0.000000 0.000000 0.000000 0.048186 0.000000
# 6 0.000000 0.000000 0.000000 0.000000 0.000000 0.058055
#
#
# Mechanical properties :
#
#
# Convention : Reuss Voigt Hill
#
# Bulk Modulus (GPa) = 46.60823 60.99243 53.80033
# Shear Modulus (GPa) = 17.70806 20.61824 19.16315
#
# Velocity S-wave (km/s) = 3.40152 3.67040 3.53852
# Velocity P-wave (km/s) = 6.77353 7.60359 7.20053
#
# Compressibility (1/GPa) = 0.02145544
#
# Stress axis : x y z
#
# Youngs Moduli (GPa) = 40.58381 28.65719 51.21716
#
# Poissons Ratio (x) = 0.15942 0.34752
# Poissons Ratio (y) = 0.22577 0.84273
# Poissons Ratio (z) = 0.27537 0.47153
#
# Static dielectric constant tensor:
#      x y z
#    x 2.907280 0.000000 0.000000 
#    y 0.000000 3.103610 0.000000 
#    z 0.000000 0.000000 2.895050 
# 
# 
# High freq. dielectric constant tensor:
#      x y z
#    x 1.569300 0.000000 0.000000 
#    y 0.000000 1.592440 0.000000 
#    z 0.000000 0.000000 1.571490 
# 
# From -- ./inp_files/33334.got.cif
#   From: 2010.03.12/outbox.cif.g09.slc.cpg/sg59_17_cif.got.tgz:33334.got - 2010.04.16 16:29:54.
