data_PCOD8240672
_publ_section_title
;
Structure prediction by ZEFSAII (Michael W. Deem and Ramdas Pophale) SiO2 
 PCOD8240672
Probable space group: P M M N
;
_chemical_formula_sum "Si O2"
_cell_formula_units_Z 56
_cell_length_a 20.981209
_cell_length_b 8.990924
_cell_length_c 16.664663
_cell_angle_alpha 90.000000
_cell_angle_beta 90.000000
_cell_angle_gamma 90.000000
_cell_volume 3143.629620
_symmetry_space_group_name_H-M "P M M N"
_symmetry_group_IT_number 59
_space_group.IT_coordinate_system_code '2'
_symmetry_cell_setting 'orthorhombic'
loop_
_space_group_symop_operation_xyz
x,y,z
1/2-x,1/2-y,z
1/2+x,-y,-z
-x,1/2+y,-z
-x,-y,-z
1/2+x,1/2+y,-z
1/2-x,y,z
x,1/2-y,z
loop_
_atom_site_type_symbol
_atom_site_label
_atom_site_fract_x
_atom_site_fract_y
_atom_site_fract_z
Si Si1 0.176633 0.423683 0.953051
Si Si2 0.125693 0.580139 0.805172
Si Si3 0.977607 0.578986 0.803620
Si Si4 0.478865 0.422597 0.376028
Si Si5 0.938998 0.073065 0.957242
Si Si6 0.321866 0.920881 0.636830
Si Si7 0.591003 0.578565 0.469391
O O1 0.250000 0.455174 0.978564
O O2 0.160392 0.250000 0.961834
O O3 0.167188 0.472331 0.860889
O O4 0.128076 0.518849 0.006757
O O5 0.148904 0.750000 0.817925
O O6 0.135478 0.532755 0.713058
O O7 0.051684 0.563775 0.826253
O O8 0.955366 0.750000 0.813208
O O9 0.963259 0.519659 0.713415
O O10 0.938305 0.474777 0.863983
O O11 0.497364 0.250000 0.369684
O O12 0.539065 0.501542 0.413776
O O13 0.419047 0.451181 0.435537
O O14 0.943782 0.250000 0.966362
O O15 0.000000 0.000000 0.000000
O O16 0.250000 0.959268 0.659381
O O17 0.331330 0.750000 0.614386
O O18 0.341116 0.014356 0.557929
O O19 0.586896 0.750000 0.449705
#
# Coordination Sequence:
#
# PCOD8240672 Si02
#       7
#     8   8   8   8   8   8   8
#     4  11  24  40  58  81 111 146 184 227 274 328
#     4  10  19  33  55  79 107 146 184 219 263 321
#     4  10  19  34  57  81 109 142 179 225 271 318
#     4   9  18  34  53  74 103 138 173 212 262 315
#     4  12  24  38  58  83 112 145 183 227 275 327
#     4  10  20  34  51  72 105 148 184 214 257 316
#     4  10  19  30  50  77 104 135 173 218 260 304
#
# _framework density 17.813803
#
# number of rings (size 3 to 8) (size 9 to 14) (size 15 to 20)
#    0.000    1.714    2.857    2.571    0.000    3.714 
#    0.000    0.000    0.000    0.857    0.000    2.000 
#    0.000    0.000    0.000    0.000    0.000    0.000 
#
# Total GULP energy -694364.214401 kJ/mol
# GULP energy per Si atom -12399.360971 kJ/mol
# Density = 1.777326 g / cm^3
# Si number density = 17.813803 Si / 1000 Ang^3
#
#
#
# Elastic Constant Matrix: (Units=GPa)
#
#
# Indices 1 2 3 4 5 6 
#
# 1 65.8250 33.6387 41.8263 0.0000 0.0000 0.0000
# 2 33.6387 77.2402 58.7833 0.0000 0.0000 0.0000
# 3 41.8263 58.7833 115.1069 0.0000 0.0000 0.0000
# 4 0.0000 0.0000 0.0000 30.9975 0.0000 0.0000
# 5 0.0000 0.0000 0.0000 0.0000 27.1850 0.0000
# 6 0.0000 0.0000 0.0000 0.0000 0.0000 27.5961
#
#
#
# Elastic Compliance Matrix: (Units=1/GPa)
#
#
# Indices 1 2 3 4 5 6 
#
# 1 0.021082 -0.005482 -0.004861 0.000000 0.000000 0.000000
# 2 -0.005482 0.022603 -0.009551 0.000000 0.000000 0.000000
# 3 -0.004861 -0.009551 0.015331 0.000000 0.000000 0.000000
# 4 0.000000 0.000000 0.000000 0.032261 0.000000 0.000000
# 5 0.000000 0.000000 0.000000 0.000000 0.036785 0.000000
# 6 0.000000 0.000000 0.000000 0.000000 0.000000 0.036237
#
#
# Mechanical properties :
#
#
# Convention : Reuss Voigt Hill
#
# Bulk Modulus (GPa) = 52.00622 58.51873 55.26247
# Shear Modulus (GPa) = 23.75345 25.41732 24.58538
#
# Velocity S-wave (km/s) = 3.65558 3.78144 3.71904
# Velocity P-wave (km/s) = 6.86115 7.21022 7.03785
#
# Compressibility (1/GPa) = 0.01922847
#
# Stress axis : x y z
#
# Youngs Moduli (GPa) = 47.43386 44.24254 65.22563
#
# Poissons Ratio (x) = 0.24253 0.31706
# Poissons Ratio (y) = 0.26003 0.62296
# Poissons Ratio (z) = 0.23058 0.42255
#
# Static dielectric constant tensor:
#      x y z
#    x 3.222360 0.000000 0.000000 
#    y 0.000000 3.595390 0.000000 
#    z 0.000000 0.000000 3.601690 
# 
# 
# High freq. dielectric constant tensor:
#      x y z
#    x 1.666790 0.000000 0.000000 
#    y 0.000000 1.689380 0.000000 
#    z 0.000000 0.000000 1.692470 
# 
# From -- ./inp_files/28048.got.cif
#   From: 2010.03.12/outbox.cif.g09.slc.cpg/sg59_15_cif.got.tgz:28048.got - 2010.04.16 16:29:54.
