data_PCOD8240969
_publ_section_title
;
Structure prediction by ZEFSAII (Michael W. Deem and Ramdas Pophale) SiO2 
 PCOD8240969
Probable space group: P M M N
;
_chemical_formula_sum "Si O2"
_cell_formula_units_Z 64
_cell_length_a 14.296898
_cell_length_b 17.782862
_cell_length_c 13.072243
_cell_angle_alpha 90.000000
_cell_angle_beta 90.000000
_cell_angle_gamma 90.000000
_cell_volume 3323.483977
_symmetry_space_group_name_H-M "P M M N"
_symmetry_group_IT_number 59
_space_group.IT_coordinate_system_code '2'
_symmetry_cell_setting 'orthorhombic'
loop_
_space_group_symop_operation_xyz
x,y,z
1/2-x,1/2-y,z
1/2+x,-y,-z
-x,1/2+y,-z
-x,-y,-z
1/2+x,1/2+y,-z
1/2-x,y,z
x,1/2-y,z
loop_
_atom_site_type_symbol
_atom_site_label
_atom_site_fract_x
_atom_site_fract_y
_atom_site_fract_z
Si Si1 0.646826 0.918399 0.411932
Si Si2 0.034712 0.906378 0.313424
Si Si3 0.511948 0.034097 0.161244
Si Si4 0.148660 0.333020 0.385548
Si Si5 0.858135 0.414230 0.472904
Si Si6 0.860052 0.486615 0.981645
Si Si7 0.542840 0.166054 0.293061
Si Si8 0.857474 0.334762 0.864851
O O1 0.750000 0.897355 0.370201
O O2 0.569269 0.877185 0.342648
O O3 0.633706 0.894499 0.528242
O O4 0.630888 0.007709 0.412625
O O5 0.095010 0.917152 0.415754
O O6 0.081986 0.846966 0.237590
O O7 0.018901 0.986141 0.259127
O O8 0.562085 0.110850 0.198652
O O9 0.416414 0.042309 0.094767
O O10 0.595153 0.997927 0.092981
O O11 0.250000 0.345575 0.332435
O O12 0.143676 0.250000 0.436351
O O13 0.069199 0.341094 0.301572
O O14 0.750000 0.392702 0.488233
O O15 0.906778 0.352755 0.400251
O O16 0.750000 0.506225 0.981138
O O17 0.879728 0.399120 0.948965
O O18 0.574079 0.250000 0.262242
O O19 0.750000 0.341980 0.831415
O O20 0.878472 0.250000 0.907031
#
# Coordination Sequence:
#
# PCOD8240969 Si02
#       8
#     8   8   8   8   8   8   8   8
#     4  10  19  31  51  73 101 147 190 230 273 314
#     4  11  19  33  56  79 113 150 189 235 277 319
#     4  10  21  36  58  86 110 139 189 239 279 347
#     4   9  18  32  49  72 104 144 190 231 269 315
#     4  11  22  35  51  77 116 158 194 229 269 324
#     4   9  20  39  61  83 110 143 177 233 299 348
#     4  11  22  36  55  81 118 156 190 232 277 327
#     4   9  19  35  56  84 112 142 184 228 279 344
#
# _framework density 19.256900000000002
#
# number of rings (size 3 to 8) (size 9 to 14) (size 15 to 20)
#    0.000    2.000    2.500    1.500    0.000    3.750 
#    0.000    0.000    0.000    0.000    0.000    0.000 
#    0.000    0.000    0.000    0.000    0.000    0.000 
#
# Total GULP energy -793118.417397 kJ/mol
# GULP energy per Si atom -12392.475272 kJ/mol
# Density = 1.921307 g / cm^3
# Si number density = 19.256900 Si / 1000 Ang^3
#
#
#
# Elastic Constant Matrix: (Units=GPa)
#
#
# Indices 1 2 3 4 5 6 
#
# 1 111.4719 3.8528 40.7860 0.0000 0.0000 0.0000
# 2 3.8528 61.2059 20.8182 0.0000 0.0000 0.0000
# 3 40.7860 20.8182 84.1567 0.0000 0.0000 0.0000
# 4 0.0000 0.0000 0.0000 21.5163 0.0000 0.0000
# 5 0.0000 0.0000 0.0000 0.0000 19.8168 0.0000
# 6 0.0000 0.0000 0.0000 0.0000 0.0000 22.0630
#
#
#
# Elastic Compliance Matrix: (Units=1/GPa)
#
#
# Indices 1 2 3 4 5 6 
#
# 1 0.010988 0.001222 -0.005627 0.000000 0.000000 0.000000
# 2 0.001222 0.017975 -0.005039 0.000000 0.000000 0.000000
# 3 -0.005627 -0.005039 0.015856 0.000000 0.000000 0.000000
# 4 0.000000 0.000000 0.000000 0.046476 0.000000 0.000000
# 5 0.000000 0.000000 0.000000 0.000000 0.050462 0.000000
# 6 0.000000 0.000000 0.000000 0.000000 0.000000 0.045325
#
#
# Mechanical properties :
#
#
# Convention : Reuss Voigt Hill
#
# Bulk Modulus (GPa) = 38.56366 43.08318 40.82342
# Shear Modulus (GPa) = 23.29757 25.43772 24.36765
#
# Velocity S-wave (km/s) = 3.48203 3.63845 3.56110
# Velocity P-wave (km/s) = 6.01959 6.33029 6.17689
#
# Compressibility (1/GPa) = 0.02593115
#
# Stress axis : x y z
#
# Youngs Moduli (GPa) = 91.01143 55.63185 63.06574
#
# Poissons Ratio (x) = -0.06801 0.35490
# Poissons Ratio (y) = -0.11126 0.31779
# Poissons Ratio (z) = 0.51217 0.28033
#
# Static dielectric constant tensor:
#      x y z
#    x 3.796150 0.000000 0.000000 
#    y 0.000000 3.497720 0.000000 
#    z 0.000000 0.000000 3.311270 
# 
# 
# High freq. dielectric constant tensor:
#      x y z
#    x 1.763790 0.000000 0.000000 
#    y 0.000000 1.731360 0.000000 
#    z 0.000000 0.000000 1.729650 
# 
# From -- ./inp_files/17184.got.cif
#   From: 2010.03.12/outbox.cif.g09.slc.cpg/sg59_9_cif.got.tgz:17184.got - 2010.04.16 16:29:54.
