data_PCOD8240138
_publ_section_title
;
Structure prediction by ZEFSAII (Michael W. Deem and Ramdas Pophale) SiO2 
 PCOD8240138
Probable space group: P M M N
;
_chemical_formula_sum "Si O2"
_cell_formula_units_Z 64
_cell_length_a 8.863695
_cell_length_b 18.939930
_cell_length_c 19.819855
_cell_angle_alpha 90.000000
_cell_angle_beta 90.000000
_cell_angle_gamma 90.000000
_cell_volume 3327.312917
_symmetry_space_group_name_H-M "P M M N"
_symmetry_group_IT_number 59
_space_group.IT_coordinate_system_code '2'
_symmetry_cell_setting 'orthorhombic'
loop_
_space_group_symop_operation_xyz
x,y,z
1/2-x,1/2-y,z
1/2+x,-y,-z
-x,1/2+y,-z
-x,-y,-z
1/2+x,1/2+y,-z
1/2-x,y,z
x,1/2-y,z
loop_
_atom_site_type_symbol
_atom_site_label
_atom_site_fract_x
_atom_site_fract_y
_atom_site_fract_z
Si Si1 0.927996 0.670899 0.039044
Si Si2 0.070582 0.085071 0.090007
Si Si3 0.070444 0.171234 0.219595
Si Si4 0.922226 0.832828 0.376023
Si Si5 0.929703 0.828796 0.526095
Si Si6 0.572237 0.947732 0.139781
Si Si7 0.071069 0.087157 0.347589
Si Si8 0.072822 0.557314 0.285600
O O1 0.750000 0.677473 0.030960
O O2 0.998531 0.750000 0.042938
O O3 0.969936 0.627852 0.106705
O O4 0.990496 0.628504 0.974298
O O5 0.250000 0.075726 0.088211
O O6 0.014406 0.126994 0.155778
O O7 0.995471 0.008117 0.091534
O O8 0.250000 0.173070 0.220858
O O9 0.004214 0.250000 0.214780
O O10 0.006468 0.135236 0.287250
O O11 0.750000 0.858127 0.366705
O O12 0.935193 0.750000 0.363019
O O13 0.982640 0.851615 0.451181
O O14 0.025992 0.870299 0.320944
O O15 0.750000 0.827038 0.526516
O O16 0.989570 0.750000 0.543272
O O17 0.994641 0.884037 0.581193
O O18 0.750000 0.958182 0.143871
O O19 0.504927 0.951455 0.213961
O O20 0.250000 0.093579 0.349055
O O21 0.021456 0.006534 0.334892
O O22 0.250000 0.555529 0.272527
#
# Coordination Sequence:
#
# PCOD8240138 Si02
#       8
#     8   8   8   8   8   8   8   8
#     4   9  19  35  56  82 107 134 178 230 271 313
#     4  10  18  33  56  82 109 137 172 219 268 318
#     4   9  15  24  45  77 107 136 171 211 256 304
#     4   9  19  36  56  78 104 137 177 220 268 324
#     4   8  14  27  49  76 106 138 174 217 264 317
#     4  11  22  36  55  78 108 148 184 219 269 325
#     4   9  16  27  45  75 110 138 171 219 264 309
#     4  11  22  36  54  79 109 140 179 227 273 316
#
# _framework density 19.234739999999999
#
# number of rings (size 3 to 8) (size 9 to 14) (size 15 to 20)
#    0.000    2.500    1.250    2.625    0.000    4.250 
#    0.000    1.875    0.000    4.875    0.000    0.000 
#    0.000    0.000    0.000    0.000    0.000    0.000 
#
# Total GULP energy -793461.100033 kJ/mol
# GULP energy per Si atom -12397.829688 kJ/mol
# Density = 1.919096 g / cm^3
# Si number density = 19.234740 Si / 1000 Ang^3
#
#
#
# Elastic Constant Matrix: (Units=GPa)
#
#
# Indices 1 2 3 4 5 6 
#
# 1 34.1696 32.5634 26.1622 0.0000 0.0000 0.0000
# 2 32.5634 128.2010 59.1834 0.0000 0.0000 0.0000
# 3 26.1622 59.1834 90.7639 0.0000 0.0000 0.0000
# 4 0.0000 0.0000 0.0000 37.7256 0.0000 0.0000
# 5 0.0000 0.0000 0.0000 0.0000 19.3512 0.0000
# 6 0.0000 0.0000 0.0000 0.0000 0.0000 21.4505
#
#
#
# Elastic Compliance Matrix: (Units=1/GPa)
#
#
# Indices 1 2 3 4 5 6 
#
# 1 0.041761 -0.007225 -0.007326 0.000000 0.000000 0.000000
# 2 -0.007225 0.012410 -0.006009 0.000000 0.000000 0.000000
# 3 -0.007326 -0.006009 0.017048 0.000000 0.000000 0.000000
# 4 0.000000 0.000000 0.000000 0.026507 0.000000 0.000000
# 5 0.000000 0.000000 0.000000 0.000000 0.051676 0.000000
# 6 0.000000 0.000000 0.000000 0.000000 0.000000 0.046619
#
#
# Mechanical properties :
#
#
# Convention : Reuss Voigt Hill
#
# Bulk Modulus (GPa) = 33.22592 54.32808 43.77700
# Shear Modulus (GPa) = 20.22871 24.72049 22.47460
#
# Velocity S-wave (km/s) = 3.24647 3.58886 3.42195
# Velocity P-wave (km/s) = 5.60037 6.74383 6.19853
#
# Compressibility (1/GPa) = 0.03009699
#
# Stress axis : x y z
#
# Youngs Moduli (GPa) = 23.94600 80.58291 58.65940
#
# Poissons Ratio (x) = 0.58224 0.42974
# Poissons Ratio (y) = 0.17302 0.35249
# Poissons Ratio (z) = 0.17543 0.48423
#
# Static dielectric constant tensor:
#      x y z
#    x 2.978760 0.000000 0.000000 
#    y 0.000000 3.726190 0.000000 
#    z 0.000000 0.000000 3.699760 
# 
# 
# High freq. dielectric constant tensor:
#      x y z
#    x 1.691500 0.000000 0.000000 
#    y 0.000000 1.757650 0.000000 
#    z 0.000000 0.000000 1.759850 
# 
# From -- ./inp_files/29405.got.cif
#   From: 2010.03.12/outbox.cif.g09.slc.cpg/sg59_15_cif.got.tgz:29405.got - 2010.04.16 16:29:54.
