data_PCOD8240486
_publ_section_title
;
Structure prediction by ZEFSAII (Michael W. Deem and Ramdas Pophale) SiO2 
 PCOD8240486
Probable space group: P M M N
;
_chemical_formula_sum "Si O2"
_cell_formula_units_Z 64
_cell_length_a 8.963618
_cell_length_b 18.635652
_cell_length_c 20.549033
_cell_angle_alpha 90.000000
_cell_angle_beta 90.000000
_cell_angle_gamma 90.000000
_cell_volume 3432.569360
_symmetry_space_group_name_H-M "P M M N"
_symmetry_group_IT_number 59
_space_group.IT_coordinate_system_code '2'
_symmetry_cell_setting 'orthorhombic'
loop_
_space_group_symop_operation_xyz
x,y,z
1/2-x,1/2-y,z
1/2+x,-y,-z
-x,1/2+y,-z
-x,-y,-z
1/2+x,1/2+y,-z
1/2-x,y,z
x,1/2-y,z
loop_
_atom_site_type_symbol
_atom_site_label
_atom_site_fract_x
_atom_site_fract_y
_atom_site_fract_z
Si Si1 0.924660 0.067006 0.761211
Si Si2 0.912044 0.167624 0.140760
Si Si3 0.080446 0.943813 0.089469
Si Si4 0.575536 0.043549 0.322992
Si Si5 0.425830 0.964762 0.437366
Si Si6 0.080730 0.399910 0.034101
Si Si7 0.919885 0.833906 0.734718
Si Si8 0.425858 0.830915 0.355617
O O1 0.750000 0.047724 0.751799
O O2 0.960116 0.080738 0.837181
O O3 0.968020 0.135123 0.715169
O O4 0.028166 0.000066 0.741433
O O5 0.750000 0.128488 0.148084
O O6 0.884254 0.250000 0.153890
O O7 0.977702 0.158411 0.068847
O O8 0.032039 0.140326 0.193278
O O9 0.250000 0.921927 0.073276
O O10 0.058475 0.028116 0.076541
O O11 0.969909 0.903589 0.040623
O O12 0.750000 0.034686 0.338848
O O13 0.532549 0.126964 0.314815
O O14 0.470372 0.017068 0.380081
O O15 0.250000 0.964522 0.448416
O O16 0.479964 0.883992 0.414909
O O17 0.500000 0.000000 0.500000
O O18 0.250000 0.373815 0.034432
O O19 0.750000 0.858775 0.724142
O O20 0.937998 0.750000 0.722560
O O21 0.250000 0.824430 0.360310
O O22 0.495639 0.750000 0.362130
#
# Coordination Sequence:
#
# PCOD8240486 Si02
#       8
#     8   8   8   8   8   8   8   8
#     4   9  17  31  52  75 101 134 173 218 264 313
#     4  10  20  33  49  69  94 126 165 207 252 307
#     4   9  18  31  46  67  95 126 163 209 261 310
#     4  11  21  33  53  79 107 138 172 211 254 304
#     4  10  20  36  58  82 110 142 177 216 257 306
#     4  10  19  30  46  66  92 128 168 211 258 310
#     4  10  20  34  52  74 102 135 171 213 261 311
#     4   8  15  30  54  82 107 133 169 213 260 309
#
# _framework density 18.644926000000002
#
# number of rings (size 3 to 8) (size 9 to 14) (size 15 to 20)
#    0.000    2.375    0.000    4.125    0.000    3.500 
#    0.000    1.250    0.000   13.875    0.000    0.000 
#    0.000    0.000    0.000    0.000    0.000    0.000 
#
# Total GULP energy -793064.365756 kJ/mol
# GULP energy per Si atom -12391.630715 kJ/mol
# Density = 1.860249 g / cm^3
# Si number density = 18.644926 Si / 1000 Ang^3
#
#
#
# Elastic Constant Matrix: (Units=GPa)
#
#
# Indices 1 2 3 4 5 6 
#
# 1 73.9588 32.3746 21.5563 0.0000 0.0000 0.0000
# 2 32.3746 79.0186 55.3028 0.0000 0.0000 0.0000
# 3 21.5563 55.3028 95.4783 0.0000 0.0000 0.0000
# 4 0.0000 0.0000 0.0000 24.4575 0.0000 0.0000
# 5 0.0000 0.0000 0.0000 0.0000 32.9696 0.0000
# 6 0.0000 0.0000 0.0000 0.0000 0.0000 21.2710
#
#
#
# Elastic Compliance Matrix: (Units=1/GPa)
#
#
# Indices 1 2 3 4 5 6 
#
# 1 0.016482 -0.006977 0.000320 0.000000 0.000000 0.000000
# 2 -0.006977 0.024236 -0.012463 0.000000 0.000000 0.000000
# 3 0.000320 -0.012463 0.017620 0.000000 0.000000 0.000000
# 4 0.000000 0.000000 0.000000 0.040887 0.000000 0.000000
# 5 0.000000 0.000000 0.000000 0.000000 0.030331 0.000000
# 6 0.000000 0.000000 0.000000 0.000000 0.000000 0.047012
#
#
# Mechanical properties :
#
#
# Convention : Reuss Voigt Hill
#
# Bulk Modulus (GPa) = 49.75447 51.88036 50.81742
# Shear Modulus (GPa) = 22.57265 25.02107 23.79686
#
# Velocity S-wave (km/s) = 3.48323 3.66728 3.57644
# Velocity P-wave (km/s) = 6.55136 6.76888 6.66101
#
# Compressibility (1/GPa) = 0.02009870
#
# Stress axis : x y z
#
# Youngs Moduli (GPa) = 60.67326 41.26098 56.75345
#
# Poissons Ratio (x) = 0.28786 -0.01815
# Poissons Ratio (y) = 0.42329 0.70731
# Poissons Ratio (z) = -0.01941 0.51423
#
# Static dielectric constant tensor:
#      x y z
#    x 3.562900 0.000000 0.000000 
#    y 0.000000 3.523850 0.000000 
#    z 0.000000 0.000000 4.395540 
# 
# 
# High freq. dielectric constant tensor:
#      x y z
#    x 1.720250 0.000000 0.000000 
#    y 0.000000 1.706530 0.000000 
#    z 0.000000 0.000000 1.715330 
# 
# From -- ./inp_files/29536.got.cif
#   From: 2010.03.12/outbox.cif.g09.slc.cpg/sg59_15_cif.got.tgz:29536.got - 2010.04.16 16:29:54.
