data_PCOD8240556
_publ_section_title
;
Structure prediction by ZEFSAII (Michael W. Deem and Ramdas Pophale) SiO2 
 PCOD8240556
Probable space group: P M M N
;
_chemical_formula_sum "Si O2"
_cell_formula_units_Z 64
_cell_length_a 14.361368
_cell_length_b 9.518350
_cell_length_c 27.616269
_cell_angle_alpha 90.000000
_cell_angle_beta 90.000000
_cell_angle_gamma 90.000000
_cell_volume 3775.048064
_symmetry_space_group_name_H-M "P M M N"
_symmetry_group_IT_number 59
_space_group.IT_coordinate_system_code '2'
_symmetry_cell_setting 'orthorhombic'
loop_
_space_group_symop_operation_xyz
x,y,z
1/2-x,1/2-y,z
1/2+x,-y,-z
-x,1/2+y,-z
-x,-y,-z
1/2+x,1/2+y,-z
1/2-x,y,z
x,1/2-y,z
loop_
_atom_site_type_symbol
_atom_site_label
_atom_site_fract_x
_atom_site_fract_y
_atom_site_fract_z
Si Si1 0.535231 0.087423 0.619967
Si Si2 0.917282 0.406953 0.983974
Si Si3 0.352264 0.588313 0.915947
Si Si4 0.643248 0.910990 0.807750
Si Si5 0.854582 0.912066 0.432317
Si Si6 0.641960 0.411289 0.524673
Si Si7 0.530041 0.415077 0.882502
Si Si8 0.355293 0.088102 0.304842
O O1 0.557389 0.250000 0.629987
O O2 0.424593 0.060734 0.612474
O O3 0.587213 0.035318 0.571664
O O4 0.569642 0.000801 0.665798
O O5 0.955987 0.250000 0.985077
O O6 0.896287 0.441306 0.927285
O O7 0.838937 0.428459 0.025104
O O8 0.000000 0.500000 0.000000
O O9 0.250000 0.552314 0.894152
O O10 0.379707 0.750000 0.903840
O O11 0.429448 0.484810 0.893734
O O12 0.750000 0.949417 0.819641
O O13 0.623117 0.750000 0.822533
O O14 0.622913 0.933863 0.751390
O O15 0.574348 0.014009 0.835749
O O16 0.750000 0.956510 0.416360
O O17 0.858235 0.750000 0.447975
O O18 0.889593 0.998923 0.478539
O O19 0.750000 0.434182 0.535736
O O20 0.618034 0.250000 0.513220
O O21 0.514741 0.250000 0.872273
O O22 0.250000 0.037676 0.316581
O O23 0.366441 0.250000 0.319320
#
# Coordination Sequence:
#
# PCOD8240556 Si02
#       8
#     8   8   8   8   8   8   8   8
#     4  10  19  30  47  70  95 124 156 192 236 280
#     4   8  15  27  42  63  92 124 158 195 232 271
#     4   9  17  30  48  68  95 135 173 200 232 277
#     4   9  19  36  54  71  94 123 154 191 237 290
#     4   9  18  31  45  64  93 128 163 194 223 263
#     4   9  17  28  42  64  94 124 155 193 234 274
#     4  10  19  30  48  74 101 127 158 200 244 285
#     4   9  19  35  53  73  95 118 148 189 235 283
#
# _framework density 16.953426
#
# number of rings (size 3 to 8) (size 9 to 14) (size 15 to 20)
#    0.000    2.875    0.000    1.875    0.000    3.750 
#    0.000    3.750    0.000    0.750    0.000    3.500 
#    0.000    0.000    0.000    0.000    0.000    0.000 
#
# Total GULP energy -792992.618546 kJ/mol
# GULP energy per Si atom -12390.509665 kJ/mol
# Density = 1.691484 g / cm^3
# Si number density = 16.953426 Si / 1000 Ang^3
#
#
#
# Elastic Constant Matrix: (Units=GPa)
#
#
# Indices 1 2 3 4 5 6 
#
# 1 87.1543 48.3199 52.2286 0.0000 0.0000 0.0000
# 2 48.3199 76.8931 50.8001 0.0000 0.0000 0.0000
# 3 52.2286 50.8001 79.3556 0.0000 0.0000 0.0000
# 4 0.0000 0.0000 0.0000 31.0118 0.0000 0.0000
# 5 0.0000 0.0000 0.0000 0.0000 24.6357 0.0000
# 6 0.0000 0.0000 0.0000 0.0000 0.0000 22.9867
#
#
#
# Elastic Compliance Matrix: (Units=1/GPa)
#
#
# Indices 1 2 3 4 5 6 
#
# 1 0.020927 -0.007020 -0.009279 0.000000 0.000000 0.000000
# 2 -0.007020 0.024891 -0.011314 0.000000 0.000000 0.000000
# 3 -0.009279 -0.011314 0.025951 0.000000 0.000000 0.000000
# 4 0.000000 0.000000 0.000000 0.032246 0.000000 0.000000
# 5 0.000000 0.000000 0.000000 0.000000 0.040591 0.000000
# 6 0.000000 0.000000 0.000000 0.000000 0.000000 0.043503
#
#
# Mechanical properties :
#
#
# Convention : Reuss Voigt Hill
#
# Bulk Modulus (GPa) = 60.44887 60.67779 60.56333
# Shear Modulus (GPa) = 20.09239 21.86380 20.97810
#
# Velocity S-wave (km/s) = 3.44634 3.59505 3.52148
# Velocity P-wave (km/s) = 7.18120 7.28705 7.23432
#
# Compressibility (1/GPa) = 0.01654291
#
# Stress axis : x y z
#
# Youngs Moduli (GPa) = 47.78608 40.17485 38.53360
#
# Poissons Ratio (x) = 0.28203 0.35756
# Poissons Ratio (y) = 0.33546 0.43597
# Poissons Ratio (z) = 0.44341 0.45454
#
# Static dielectric constant tensor:
#      x y z
#    x 2.857840 0.000000 0.000000 
#    y 0.000000 3.184410 0.000000 
#    z 0.000000 0.000000 3.176400 
# 
# 
# High freq. dielectric constant tensor:
#      x y z
#    x 1.646270 0.000000 0.000000 
#    y 0.000000 1.656290 0.000000 
#    z 0.000000 0.000000 1.634440 
# 
# From -- ./inp_files/33316.got.cif
#   From: 2010.03.12/outbox.cif.g09.slc.cpg/sg59_17_cif.got.tgz:33316.got - 2010.04.16 16:29:54.
