data_PCOD8240430
_publ_section_title
;
Structure prediction by ZEFSAII (Michael W. Deem and Ramdas Pophale) SiO2 
 PCOD8240430
Probable space group: P M M N
;
_chemical_formula_sum "Si O2"
_cell_formula_units_Z 56
_cell_length_a 9.059563
_cell_length_b 24.456869
_cell_length_c 16.413772
_cell_angle_alpha 90.000000
_cell_angle_beta 90.000000
_cell_angle_gamma 90.000000
_cell_volume 3636.775588
_symmetry_space_group_name_H-M "P M M N"
_symmetry_group_IT_number 59
_space_group.IT_coordinate_system_code '2'
_symmetry_cell_setting 'orthorhombic'
loop_
_space_group_symop_operation_xyz
x,y,z
1/2-x,1/2-y,z
1/2+x,-y,-z
-x,1/2+y,-z
-x,-y,-z
1/2+x,1/2+y,-z
1/2-x,y,z
x,1/2-y,z
loop_
_atom_site_type_symbol
_atom_site_label
_atom_site_fract_x
_atom_site_fract_y
_atom_site_fract_z
Si Si1 0.078456 0.447932 0.464782
Si Si2 0.923082 0.991395 0.697384
Si Si3 0.577629 0.903276 0.373625
Si Si4 0.419774 0.311941 0.746986
Si Si5 0.923463 0.585250 0.024509
Si Si6 0.577356 0.992895 0.879270
Si Si7 0.923980 0.187414 0.913615
O O1 0.250000 0.460163 0.469144
O O2 0.034294 0.442807 0.368407
O O3 0.038652 0.398933 0.528442
O O4 0.000000 0.500000 0.500000
O O5 0.750000 0.001924 0.697498
O O6 0.973044 0.974898 0.788451
O O7 0.996298 0.047717 0.671239
O O8 0.750000 0.914089 0.361901
O O9 0.529689 0.847167 0.330806
O O10 0.250000 0.323089 0.771903
O O11 0.444260 0.250000 0.719614
O O12 0.521466 0.327184 0.823200
O O13 0.750000 0.591650 0.038517
O O14 0.988456 0.547233 0.096030
O O15 0.997777 0.645263 0.024604
O O16 0.961614 0.557852 0.937728
O O17 0.750000 0.007322 0.884773
O O18 0.750000 0.178931 0.918013
O O19 0.967631 0.250000 0.936487
#
# Coordination Sequence:
#
# PCOD8240430 Si02
#       7
#     8   8   8   8   8   8   8
#     4   8  14  24  37  54  76 101 128 156 186 222
#     4   9  16  26  40  57  78 105 133 160 193 233
#     4   9  16  25  38  57  80 105 131 160 193 228
#     4   9  17  28  41  58  80 105 133 162 193 233
#     4  10  19  30  44  62  84 110 139 171 208 248
#     4   9  18  30  43  61  85 112 140 170 205 247
#     4  10  20  32  45  61  82 108 138 172 207 244
#
# _framework density 15.398256
#
# number of rings (size 3 to 8) (size 9 to 14) (size 15 to 20)
#    0.000    2.857    0.000    1.714    0.000    4.857 
#    0.000    0.000    0.000    0.000    0.000    1.000 
#    0.000    5.714    0.000    3.857    0.000    4.143 
#
# Total GULP energy -693756.034409 kJ/mol
# GULP energy per Si atom -12388.500614 kJ/mol
# Density = 1.536321 g / cm^3
# Si number density = 15.398256 Si / 1000 Ang^3
#
#
#
# Elastic Constant Matrix: (Units=GPa)
#
#
# Indices 1 2 3 4 5 6 
#
# 1 40.7012 30.7693 31.0504 0.0000 0.0000 0.0000
# 2 30.7693 84.9959 56.7777 0.0000 0.0000 0.0000
# 3 31.0504 56.7777 124.0244 0.0000 0.0000 0.0000
# 4 0.0000 0.0000 0.0000 25.0355 0.0000 0.0000
# 5 0.0000 0.0000 0.0000 0.0000 16.8227 0.0000
# 6 0.0000 0.0000 0.0000 0.0000 0.0000 21.2689
#
#
#
# Elastic Compliance Matrix: (Units=1/GPa)
#
#
# Indices 1 2 3 4 5 6 
#
# 1 0.035357 -0.009920 -0.004311 0.000000 0.000000 0.000000
# 2 -0.009920 0.019731 -0.006549 0.000000 0.000000 0.000000
# 3 -0.004311 -0.006549 0.012140 0.000000 0.000000 0.000000
# 4 0.000000 0.000000 0.000000 0.039943 0.000000 0.000000
# 5 0.000000 0.000000 0.000000 0.000000 0.059443 0.000000
# 6 0.000000 0.000000 0.000000 0.000000 0.000000 0.047017
#
#
# Mechanical properties :
#
#
# Convention : Reuss Voigt Hill
#
# Bulk Modulus (GPa) = 38.95770 54.10183 46.52977
# Shear Modulus (GPa) = 18.95740 21.36703 20.16221
#
# Velocity S-wave (km/s) = 3.51257 3.72913 3.62247
# Velocity P-wave (km/s) = 6.46574 7.33165 6.91227
#
# Compressibility (1/GPa) = 0.02566886
#
# Stress axis : x y z
#
# Youngs Moduli (GPa) = 28.28280 50.68042 82.36981
#
# Poissons Ratio (x) = 0.50276 0.35506
# Poissons Ratio (y) = 0.28057 0.53947
# Poissons Ratio (z) = 0.12191 0.33193
#
# Static dielectric constant tensor:
#      x y z
#    x 3.072100 0.000000 0.000000 
#    y 0.000000 2.876550 0.000000 
#    z 0.000000 0.000000 3.412270 
# 
# 
# High freq. dielectric constant tensor:
#      x y z
#    x 1.595410 0.000000 0.000000 
#    y 0.000000 1.559570 0.000000 
#    z 0.000000 0.000000 1.590860 
# 
# From -- ./inp_files/26392.got.cif
#   From: 2010.03.12/outbox.cif.g09.slc.cpg/sg59_14_cif.got.tgz:26392.got - 2010.04.16 16:29:54.
