data_PCOD8240541
_publ_section_title
;
Structure prediction by ZEFSAII (Michael W. Deem and Ramdas Pophale) SiO2 
 PCOD8240541
Probable space group: P M M N
;
_chemical_formula_sum "Si O2"
_cell_formula_units_Z 56
_cell_length_a 22.243546
_cell_length_b 10.881161
_cell_length_c 13.258918
_cell_angle_alpha 90.000000
_cell_angle_beta 90.000000
_cell_angle_gamma 90.000000
_cell_volume 3209.130243
_symmetry_space_group_name_H-M "P M M N"
_symmetry_group_IT_number 59
_space_group.IT_coordinate_system_code '2'
_symmetry_cell_setting 'orthorhombic'
loop_
_space_group_symop_operation_xyz
x,y,z
1/2-x,1/2-y,z
1/2+x,-y,-z
-x,1/2+y,-z
-x,-y,-z
1/2+x,1/2+y,-z
1/2-x,y,z
x,1/2-y,z
loop_
_atom_site_type_symbol
_atom_site_label
_atom_site_fract_x
_atom_site_fract_y
_atom_site_fract_z
Si Si1 0.070016 0.387664 0.057548
Si Si2 0.178937 0.750000 0.194302
Si Si3 0.677521 0.250000 0.573744
Si Si4 0.999076 0.889244 0.143390
Si Si5 0.097324 0.970098 0.471046
Si Si6 0.475744 0.390169 0.629412
Si Si7 0.684194 0.887234 0.654418
Si Si8 0.817327 0.994728 0.869753
O O1 0.051915 0.250000 0.096248
O O2 0.044565 0.497116 0.127915
O O3 0.141863 0.403487 0.064302
O O4 0.051837 0.402943 0.941594
O O5 0.250000 0.750000 0.206740
O O6 0.154474 0.750000 0.309749
O O7 0.158399 0.634642 0.126040
O O8 0.750000 0.250000 0.562478
O O9 0.648869 0.132934 0.516565
O O10 0.028425 0.750000 0.137968
O O11 0.967806 0.906912 0.251051
O O12 0.043832 0.921564 0.400706
O O13 0.070858 0.015527 0.577782
O O14 0.130038 0.086563 0.421442
O O15 0.461760 0.250000 0.596754
O O16 0.750000 0.906779 0.602713
O O17 0.676858 0.750000 0.694616
O O18 0.679952 0.973121 0.750603
O O19 0.750000 0.978920 0.912169
#
# Coordination Sequence:
#
# PCOD8240541 Si02
#       8
#     8   4   4   8   8   8   8   8
#     4  10  20  34  53  80 105 132 174 215 265 316
#     4   9  18  30  48  77 107 137 173 207 254 321
#     4  11  20  34  54  79 107 137 178 217 264 323
#     4   9  20  37  56  75 102 141 176 216 259 309
#     4  11  20  32  51  76 103 137 171 217 260 312
#     4  10  21  36  52  74 104 139 180 213 256 315
#     4  10  19  30  46  72 104 136 167 210 270 320
#     4  10  19  30  48  75 106 136 167 211 261 315
#
# _framework density 17.450209999999998
#
# number of rings (size 3 to 8) (size 9 to 14) (size 15 to 20)
#    0.000    2.000    2.143    2.143    1.000    0.857 
#    1.286    0.000    0.000    1.714    0.000    5.000 
#    0.000    0.000    0.000    0.000    0.000    0.000 
#
# Total GULP energy -693994.211409 kJ/mol
# GULP energy per Si atom -12392.753775 kJ/mol
# Density = 1.741049 g / cm^3
# Si number density = 17.450210 Si / 1000 Ang^3
#
#
#
# Elastic Constant Matrix: (Units=GPa)
#
#
# Indices 1 2 3 4 5 6 
#
# 1 83.8393 43.7329 27.7870 0.0000 0.0000 0.0000
# 2 43.7329 107.8294 32.0753 0.0000 0.0000 0.0000
# 3 27.7870 32.0753 57.6982 0.0000 0.0000 0.0000
# 4 0.0000 0.0000 0.0000 24.1695 0.0000 0.0000
# 5 0.0000 0.0000 0.0000 0.0000 21.0200 0.0000
# 6 0.0000 0.0000 0.0000 0.0000 0.0000 34.4985
#
#
#
# Elastic Compliance Matrix: (Units=1/GPa)
#
#
# Indices 1 2 3 4 5 6 
#
# 1 0.016242 -0.005105 -0.004984 0.000000 0.000000 0.000000
# 2 -0.005105 0.012716 -0.004610 0.000000 0.000000 0.000000
# 3 -0.004984 -0.004610 0.022295 0.000000 0.000000 0.000000
# 4 0.000000 0.000000 0.000000 0.041374 0.000000 0.000000
# 5 0.000000 0.000000 0.000000 0.000000 0.047574 0.000000
# 6 0.000000 0.000000 0.000000 0.000000 0.000000 0.028987
#
#
# Mechanical properties :
#
#
# Convention : Reuss Voigt Hill
#
# Bulk Modulus (GPa) = 45.75843 50.72859 48.24351
# Shear Modulus (GPa) = 24.28695 25.65572 24.97134
#
# Velocity S-wave (km/s) = 3.73471 3.83851 3.78697
# Velocity P-wave (km/s) = 6.69900 6.98421 6.84309
#
# Compressibility (1/GPa) = 0.02185390
#
# Stress axis : x y z
#
# Youngs Moduli (GPa) = 61.56733 78.64278 44.85315
#
# Poissons Ratio (x) = 0.40146 0.22356
# Poissons Ratio (y) = 0.31429 0.20679
# Poissons Ratio (z) = 0.30687 0.36257
#
# Static dielectric constant tensor:
#      x y z
#    x 3.257180 0.000000 0.000000 
#    y 0.000000 3.640370 0.000000 
#    z 0.000000 0.000000 2.901550 
# 
# 
# High freq. dielectric constant tensor:
#      x y z
#    x 1.670690 0.000000 0.000000 
#    y 0.000000 1.700610 0.000000 
#    z 0.000000 0.000000 1.631430 
# 
# From -- ./inp_files/18721.got.cif
#   From: 2010.03.12/outbox.cif.g09.slc.cpg/sg59_10_cif.got.tgz:18721.got - 2010.04.16 16:29:54.
