data_PCOD8240463
_publ_section_title
;
Structure prediction by ZEFSAII (Michael W. Deem and Ramdas Pophale) SiO2 
 PCOD8240463
Probable space group: P M M N
;
_chemical_formula_sum "Si O2"
_cell_formula_units_Z 64
_cell_length_a 9.209895
_cell_length_b 25.145208
_cell_length_c 17.351136
_cell_angle_alpha 90.000000
_cell_angle_beta 90.000000
_cell_angle_gamma 90.000000
_cell_volume 4018.258067
_symmetry_space_group_name_H-M "P M M N"
_symmetry_group_IT_number 59
_space_group.IT_coordinate_system_code '2'
_symmetry_cell_setting 'orthorhombic'
loop_
_space_group_symop_operation_xyz
x,y,z
1/2-x,1/2-y,z
1/2+x,-y,-z
-x,1/2+y,-z
-x,-y,-z
1/2+x,1/2+y,-z
1/2-x,y,z
x,1/2-y,z
loop_
_atom_site_type_symbol
_atom_site_label
_atom_site_fract_x
_atom_site_fract_y
_atom_site_fract_z
Si Si1 0.582359 0.554576 0.499281
Si Si2 0.418934 0.811570 0.080938
Si Si3 0.918075 0.907931 0.826729
Si Si4 0.080188 0.056802 0.666293
Si Si5 0.919122 0.604665 0.176669
Si Si6 0.920997 0.001240 0.081399
Si Si7 0.417802 0.446209 0.335472
Si Si8 0.582435 0.690036 0.927460
O O1 0.500000 0.500000 0.500000
O O2 0.750000 0.540063 0.496336
O O3 0.543128 0.584019 0.417955
O O4 0.546055 0.583243 0.581633
O O5 0.250000 0.824383 0.075965
O O6 0.450119 0.750000 0.098442
O O7 0.489120 0.845137 0.149227
O O8 0.489252 0.828856 0.000196
O O9 0.750000 0.922889 0.842576
O O10 0.953884 0.906964 0.735322
O O11 0.953397 0.848779 0.856612
O O12 0.019159 0.950126 0.868891
O O13 0.250000 0.046028 0.676587
O O14 0.029249 0.095146 0.735128
O O15 0.006442 0.999918 0.674888
O O16 0.750000 0.619060 0.171383
O O17 0.955676 0.553223 0.125621
O O18 0.750000 0.009028 0.068777
O O19 0.000000 0.000000 0.000000
O O20 0.250000 0.462737 0.333485
O O21 0.750000 0.686107 0.952216
O O22 0.541521 0.750000 0.901987
#
# Coordination Sequence:
#
# PCOD8240463 Si02
#       8
#     8   8   8   8   8   8   8   8
#     4   8  14  24  40  60  85 117 147 177 214 254
#     4  10  21  35  50  68  87 109 144 191 234 265
#     4  10  19  30  45  66  91 118 150 183 220 266
#     4   9  16  28  43  62  89 119 150 180 213 259
#     4  10  20  32  46  65  89 119 151 180 217 266
#     4  11  22  33  44  62  90 121 151 180 218 266
#     4   9  16  26  41  64  91 118 147 180 219 261
#     4   9  18  33  50  65  84 114 151 188 223 262
#
# _framework density 15.927300000000001
#
# number of rings (size 3 to 8) (size 9 to 14) (size 15 to 20)
#    0.000    2.500    1.250    1.500    0.000    5.750 
#    0.000    0.000    0.000    0.000    0.000    0.875 
#    0.000    5.000    0.000    3.375    0.000    3.125 
#
# Total GULP energy -793034.366756 kJ/mol
# GULP energy per Si atom -12391.161981 kJ/mol
# Density = 1.589105 g / cm^3
# Si number density = 15.927300 Si / 1000 Ang^3
#
#
#
# Elastic Constant Matrix: (Units=GPa)
#
#
# Indices 1 2 3 4 5 6 
#
# 1 49.5670 31.6847 49.2622 0.0000 0.0000 0.0000
# 2 31.6847 65.4767 61.9888 0.0000 0.0000 0.0000
# 3 49.2622 61.9888 180.7230 0.0000 0.0000 0.0000
# 4 0.0000 0.0000 0.0000 17.2043 0.0000 0.0000
# 5 0.0000 0.0000 0.0000 0.0000 18.0434 0.0000
# 6 0.0000 0.0000 0.0000 0.0000 0.0000 20.8409
#
#
#
# Elastic Compliance Matrix: (Units=1/GPa)
#
#
# Indices 1 2 3 4 5 6 
#
# 1 0.032058 -0.010722 -0.005061 0.000000 0.000000 0.000000
# 2 -0.010722 0.026203 -0.006065 0.000000 0.000000 0.000000
# 3 -0.005061 -0.006065 0.008993 0.000000 0.000000 0.000000
# 4 0.000000 0.000000 0.000000 0.058125 0.000000 0.000000
# 5 0.000000 0.000000 0.000000 0.000000 0.055422 0.000000
# 6 0.000000 0.000000 0.000000 0.000000 0.000000 0.047983
#
#
# Mechanical properties :
#
#
# Convention : Reuss Voigt Hill
#
# Bulk Modulus (GPa) = 42.44732 64.62644 53.53688
# Shear Modulus (GPa) = 17.83594 21.40645 19.62119
#
# Velocity S-wave (km/s) = 3.35002 3.67005 3.51368
# Velocity P-wave (km/s) = 6.45539 7.65657 7.08149
#
# Compressibility (1/GPa) = 0.02355861
#
# Stress axis : x y z
#
# Youngs Moduli (GPa) = 31.19326 38.16343 111.19487
#
# Poissons Ratio (x) = 0.40918 0.56274
# Poissons Ratio (y) = 0.33445 0.67441
# Poissons Ratio (z) = 0.15787 0.23147
#
# Static dielectric constant tensor:
#      x y z
#    x 3.225650 0.000000 0.000000 
#    y 0.000000 2.754630 0.000000 
#    z 0.000000 0.000000 3.688630 
# 
# 
# High freq. dielectric constant tensor:
#      x y z
#    x 1.617220 0.000000 0.000000 
#    y 0.000000 1.568800 0.000000 
#    z 0.000000 0.000000 1.629330 
# 
# From -- ./inp_files/26449.got.cif
#   From: 2010.03.12/outbox.cif.g09.slc.cpg/sg59_14_cif.got.tgz:26449.got - 2010.04.16 16:29:54.
