data_PCOD8240390
_publ_section_title
;
Structure prediction by ZEFSAII (Michael W. Deem and Ramdas Pophale) SiO2 
 PCOD8240390
Probable space group: P M M N
;
_chemical_formula_sum "Si O2"
_cell_formula_units_Z 64
_cell_length_a 13.740137
_cell_length_b 8.882967
_cell_length_c 30.611691
_cell_angle_alpha 90.000000
_cell_angle_beta 90.000000
_cell_angle_gamma 90.000000
_cell_volume 3736.254340
_symmetry_space_group_name_H-M "P M M N"
_symmetry_group_IT_number 59
_space_group.IT_coordinate_system_code '2'
_symmetry_cell_setting 'orthorhombic'
loop_
_space_group_symop_operation_xyz
x,y,z
1/2-x,1/2-y,z
1/2+x,-y,-z
-x,1/2+y,-z
-x,-y,-z
1/2+x,1/2+y,-z
1/2-x,y,z
x,1/2-y,z
loop_
_atom_site_type_symbol
_atom_site_label
_atom_site_fract_x
_atom_site_fract_y
_atom_site_fract_z
Si Si1 0.979504 0.069622 0.953273
Si Si2 0.636717 0.574086 0.879381
Si Si3 0.456613 0.073405 0.565738
Si Si4 0.646204 0.922891 0.107120
Si Si5 0.641197 0.074884 0.513216
Si Si6 0.360481 0.926726 0.744221
Si Si7 0.513099 0.923385 0.185342
Si Si8 0.640539 0.425749 0.356120
O O1 0.970557 0.250000 0.955510
O O2 0.071271 0.005777 0.926533
O O3 0.887420 0.005375 0.926160
O O4 0.000000 0.000000 0.000000
O O5 0.750000 0.545984 0.869719
O O6 0.612433 0.750000 0.883479
O O7 0.577244 0.506516 0.838192
O O8 0.446072 0.250000 0.567728
O O9 0.565038 0.023657 0.550529
O O10 0.377342 0.011820 0.531792
O O11 0.437549 0.009818 0.613853
O O12 0.750000 0.006707 0.103198
O O13 0.658175 0.750000 0.094328
O O14 0.608797 0.939466 0.155997
O O15 0.750000 0.038096 0.529943
O O16 0.628064 0.250000 0.502611
O O17 0.250000 0.981639 0.756602
O O18 0.367102 0.750000 0.753037
O O19 0.381193 0.966174 0.693957
O O20 0.450094 0.005439 0.769488
O O21 0.482294 0.750000 0.192095
O O22 0.750000 0.477360 0.368271
O O23 0.629053 0.250000 0.364251
#
# Coordination Sequence:
#
# PCOD8240390 Si02
#       8
#     8   8   8   8   8   8   8   8
#     4  10  20  33  50  73 101 132 165 201 241 286
#     4  10  21  37  56  75  97 131 173 212 249 290
#     4  10  19  29  45  70  94 118 157 206 245 281
#     4   8  15  28  45  66  92 121 151 183 224 275
#     4   9  18  32  47  63  89 126 160 191 238 297
#     4   9  18  32  50  73 101 133 166 197 234 289
#     4  10  19  31  51  77 102 126 155 198 248 294
#     4   9  18  32  48  67  96 133 164 191 234 290
#
# _framework density 17.129455
#
# number of rings (size 3 to 8) (size 9 to 14) (size 15 to 20)
#    0.000    2.625    0.000    3.750    0.000    5.250 
#    0.000    2.500    0.000    7.875    0.000    3.500 
#    0.000    0.000    0.000    0.000    0.000    0.000 
#
# Total GULP energy -793175.394598 kJ/mol
# GULP energy per Si atom -12393.365541 kJ/mol
# Density = 1.709047 g / cm^3
# Si number density = 17.129455 Si / 1000 Ang^3
#
#
#
# Elastic Constant Matrix: (Units=GPa)
#
#
# Indices 1 2 3 4 5 6 
#
# 1 104.4935 43.7348 52.8451 0.0000 0.0000 0.0000
# 2 43.7348 75.8176 46.8931 0.0000 0.0000 0.0000
# 3 52.8451 46.8931 107.7957 0.0000 0.0000 0.0000
# 4 0.0000 0.0000 0.0000 31.8468 0.0000 0.0000
# 5 0.0000 0.0000 0.0000 0.0000 17.5804 0.0000
# 6 0.0000 0.0000 0.0000 0.0000 0.0000 23.6572
#
#
#
# Elastic Compliance Matrix: (Units=1/GPa)
#
#
# Indices 1 2 3 4 5 6 
#
# 1 0.014120 -0.005286 -0.004623 0.000000 0.000000 0.000000
# 2 -0.005286 0.020023 -0.006119 0.000000 0.000000 0.000000
# 3 -0.004623 -0.006119 0.014205 0.000000 0.000000 0.000000
# 4 0.000000 0.000000 0.000000 0.031400 0.000000 0.000000
# 5 0.000000 0.000000 0.000000 0.000000 0.056881 0.000000
# 6 0.000000 0.000000 0.000000 0.000000 0.000000 0.042270
#
#
# Mechanical properties :
#
#
# Convention : Reuss Voigt Hill
#
# Bulk Modulus (GPa) = 61.37660 63.89475 62.63567
# Shear Modulus (GPa) = 23.10670 24.25914 23.68292
#
# Velocity S-wave (km/s) = 3.67678 3.76736 3.72235
# Velocity P-wave (km/s) = 7.34396 7.50374 7.42428
#
# Compressibility (1/GPa) = 0.01629285
#
# Stress axis : x y z
#
# Youngs Moduli (GPa) = 70.82061 49.94140 70.39786
#
# Poissons Ratio (x) = 0.26399 0.32543
# Poissons Ratio (y) = 0.37436 0.43078
# Poissons Ratio (z) = 0.32738 0.30560
#
# Static dielectric constant tensor:
#      x y z
#    x 3.261150 0.000000 0.000000 
#    y 0.000000 3.136400 0.000000 
#    z 0.000000 0.000000 3.181670 
# 
# 
# High freq. dielectric constant tensor:
#      x y z
#    x 1.654930 0.000000 0.000000 
#    y 0.000000 1.658010 0.000000 
#    z 0.000000 0.000000 1.653520 
# 
# From -- ./inp_files/33336.got.cif
#   From: 2010.03.12/outbox.cif.g09.slc.cpg/sg59_17_cif.got.tgz:33336.got - 2010.04.16 16:29:54.
