data_PCOD8240049
_publ_section_title
;
Structure prediction by ZEFSAII (Michael W. Deem and Ramdas Pophale) SiO2 
 PCOD8240049
Probable space group: P M M N
;
_chemical_formula_sum "Si O2"
_cell_formula_units_Z 64
_cell_length_a 8.487509
_cell_length_b 34.101325
_cell_length_c 11.210248
_cell_angle_alpha 90.000000
_cell_angle_beta 90.000000
_cell_angle_gamma 90.000000
_cell_volume 3244.641525
_symmetry_space_group_name_H-M "P M M N"
_symmetry_group_IT_number 59
_space_group.IT_coordinate_system_code '2'
_symmetry_cell_setting 'orthorhombic'
loop_
_space_group_symop_operation_xyz
x,y,z
1/2-x,1/2-y,z
1/2+x,-y,-z
-x,1/2+y,-z
-x,-y,-z
1/2+x,1/2+y,-z
1/2-x,y,z
x,1/2-y,z
loop_
_atom_site_type_symbol
_atom_site_label
_atom_site_fract_x
_atom_site_fract_y
_atom_site_fract_z
Si Si1 0.065991 0.021715 0.726179
Si Si2 0.067578 0.444541 0.210430
Si Si3 0.565509 0.627677 0.624497
Si Si4 0.062927 0.293727 0.253143
Si Si5 0.568325 0.441118 0.954514
Si Si6 0.063157 0.207330 0.986681
Si Si7 0.066512 0.901774 0.381082
Si Si8 0.064591 0.366472 0.847104
O O1 0.250000 0.019323 0.700466
O O2 0.035252 0.032995 0.864106
O O3 0.992657 0.053734 0.636546
O O4 0.987022 0.979361 0.700116
O O5 0.250000 0.448797 0.179607
O O6 0.031860 0.402332 0.267693
O O7 0.969355 0.450771 0.090389
O O8 0.750000 0.627838 0.591526
O O9 0.503390 0.671131 0.661153
O O10 0.465582 0.613271 0.512950
O O11 0.250000 0.295192 0.251096
O O12 0.007707 0.250000 0.296816
O O13 0.997841 0.301761 0.119617
O O14 0.750000 0.450090 0.928052
O O15 0.529558 0.395889 0.931688
O O16 0.250000 0.207023 0.994053
O O17 0.002137 0.250000 0.944857
O O18 0.005601 0.176245 0.888784
O O19 0.250000 0.900265 0.352133
O O20 0.976479 0.872624 0.291054
O O21 0.250000 0.372669 0.867136
#
# Coordination Sequence:
#
# PCOD8240049 Si02
#       8
#     8   8   8   8   8   8   8   8
#     4  11  22  38  58  79 106 140 179 222 270 320
#     4  11  22  36  55  81 111 141 177 220 268 321
#     4  10  21  37  57  80 106 140 182 225 266 311
#     4   8  14  28  53  84 113 137 167 212 263 310
#     4  11  21  34  53  79 111 143 178 219 267 322
#     4   8  14  26  49  83 115 138 166 212 268 322
#     4  11  23  39  56  74 102 141 183 226 269 316
#     4  10  18  32  55  79 105 139 179 222 269 319
#
# _framework density 19.724829
#
# number of rings (size 3 to 8) (size 9 to 14) (size 15 to 20)
#    0.000    2.000    0.000    7.500    0.000    3.500 
#    0.000    0.625    0.000    5.625    0.000    3.500 
#    0.000    0.000    0.000    0.000    0.000    0.000 
#
# Total GULP energy -793496.464798 kJ/mol
# GULP energy per Si atom -12398.382262 kJ/mol
# Density = 1.967993 g / cm^3
# Si number density = 19.724829 Si / 1000 Ang^3
#
#
#
# Elastic Constant Matrix: (Units=GPa)
#
#
# Indices 1 2 3 4 5 6 
#
# 1 55.2340 22.7459 10.8625 0.0000 0.0000 0.0000
# 2 22.7459 137.5146 30.5453 0.0000 0.0000 0.0000
# 3 10.8625 30.5453 46.1699 0.0000 0.0000 0.0000
# 4 0.0000 0.0000 0.0000 23.0538 0.0000 0.0000
# 5 0.0000 0.0000 0.0000 0.0000 20.6634 0.0000
# 6 0.0000 0.0000 0.0000 0.0000 0.0000 18.1856
#
#
#
# Elastic Compliance Matrix: (Units=1/GPa)
#
#
# Indices 1 2 3 4 5 6 
#
# 1 0.019757 -0.002621 -0.002915 0.000000 0.000000 0.000000
# 2 -0.002621 0.008872 -0.005253 0.000000 0.000000 0.000000
# 3 -0.002915 -0.005253 0.025820 0.000000 0.000000 0.000000
# 4 0.000000 0.000000 0.000000 0.043377 0.000000 0.000000
# 5 0.000000 0.000000 0.000000 0.000000 0.048395 0.000000
# 6 0.000000 0.000000 0.000000 0.000000 0.000000 0.054988
#
#
# Mechanical properties :
#
#
# Convention : Reuss Voigt Hill
#
# Bulk Modulus (GPa) = 30.42014 40.80291 35.61153
# Shear Modulus (GPa) = 21.39090 24.03154 22.71122
#
# Velocity S-wave (km/s) = 3.29670 3.49426 3.39691
# Velocity P-wave (km/s) = 5.47236 6.08365 5.78608
#
# Compressibility (1/GPa) = 0.03287296
#
# Stress axis : x y z
#
# Youngs Moduli (GPa) = 50.61454 112.71055 38.72923
#
# Poissons Ratio (x) = 0.29537 0.11288
# Poissons Ratio (y) = 0.13264 0.20345
# Poissons Ratio (z) = 0.14752 0.59209
#
# Static dielectric constant tensor:
#      x y z
#    x 3.363770 0.000000 0.000000 
#    y 0.000000 4.064870 0.000000 
#    z 0.000000 0.000000 3.395710 
# 
# 
# High freq. dielectric constant tensor:
#      x y z
#    x 1.749300 0.000000 0.000000 
#    y 0.000000 1.781200 0.000000 
#    z 0.000000 0.000000 1.751120 
# 
# From -- ./inp_files/14925.got.cif
#   From: 2010.03.12/outbox.cif.g09.slc.cpg/sg59_8_cif.got.tgz:14925.got - 2010.04.16 16:29:54.
