data_PCOD8240191
_publ_section_title
;
Structure prediction by ZEFSAII (Michael W. Deem and Ramdas Pophale) SiO2 
 PCOD8240191
Probable space group: P M M N
;
_chemical_formula_sum "Si O2"
_cell_formula_units_Z 48
_cell_length_a 8.929866
_cell_length_b 16.013238
_cell_length_c 18.149567
_cell_angle_alpha 90.000000
_cell_angle_beta 90.000000
_cell_angle_gamma 90.000000
_cell_volume 2595.316745
_symmetry_space_group_name_H-M "P M M N"
_symmetry_group_IT_number 59
_space_group.IT_coordinate_system_code '2'
_symmetry_cell_setting 'orthorhombic'
loop_
_space_group_symop_operation_xyz
x,y,z
1/2-x,1/2-y,z
1/2+x,-y,-z
-x,1/2+y,-z
-x,-y,-z
1/2+x,1/2+y,-z
1/2-x,y,z
x,1/2-y,z
loop_
_atom_site_type_symbol
_atom_site_label
_atom_site_fract_x
_atom_site_fract_y
_atom_site_fract_z
Si Si1 0.072613 0.516453 0.077902
Si Si2 0.926374 0.083442 0.531050
Si Si3 0.429225 0.250000 0.285988
Si Si4 0.919971 0.654585 0.167624
Si Si5 0.074007 0.418207 0.217260
Si Si6 0.072851 0.750000 0.555104
Si Si7 0.573992 0.418472 0.698864
O O1 0.250000 0.517787 0.069717
O O2 0.018804 0.444926 0.135711
O O3 0.019393 0.605232 0.108636
O O4 0.000000 0.500000 0.000000
O O5 0.750000 0.070738 0.525697
O O6 0.978329 0.166591 0.488171
O O7 0.976865 0.095706 0.615347
O O8 0.000000 0.000000 0.500000
O O9 0.250000 0.250000 0.289495
O O10 0.495298 0.169896 0.242502
O O11 0.489207 0.250000 0.368106
O O12 0.750000 0.620802 0.166417
O O13 0.926136 0.750000 0.143024
O O14 0.985805 0.646421 0.249937
O O15 0.250000 0.408393 0.215197
O O16 0.028216 0.487939 0.276966
O O17 0.250000 0.750000 0.567124
O O18 0.750000 0.402905 0.709939
#
# Coordination Sequence:
#
# PCOD8240191 Si02
#       7
#     8   8   4   8   8   4   8
#     4  10  20  37  58  82 114 147 180 219 269 329
#     4  10  21  36  54  78 110 147 187 231 284 338
#     4  10  18  34  58  78 101 138 187 228 261 316
#     4  10  21  36  55  82 110 140 181 228 276 326
#     4   8  16  31  53  80 103 133 179 222 260 311
#     4  10  22  36  50  78 115 146 179 230 287 330
#     4   9  18  33  54  76 103 142 185 224 271 333
#
# _framework density 18.494852000000002
#
# number of rings (size 3 to 8) (size 9 to 14) (size 15 to 20)
#    0.000    2.500    0.000    3.000    1.167    4.000 
#    1.500    5.833    0.000    0.000    0.000    0.000 
#    0.000    0.000    0.000    0.000    0.000    0.000 
#
# Total GULP energy -595135.465589 kJ/mol
# GULP energy per Si atom -12398.655533 kJ/mol
# Density = 1.845276 g / cm^3
# Si number density = 18.494852 Si / 1000 Ang^3
#
#
#
# Elastic Constant Matrix: (Units=GPa)
#
#
# Indices 1 2 3 4 5 6 
#
# 1 57.2503 36.8947 48.4206 0.0000 0.0000 0.0000
# 2 36.8947 133.2760 76.0433 0.0000 0.0000 0.0000
# 3 48.4206 76.0433 168.3693 0.0000 0.0000 0.0000
# 4 0.0000 0.0000 0.0000 22.1155 0.0000 0.0000
# 5 0.0000 0.0000 0.0000 0.0000 34.2064 0.0000
# 6 0.0000 0.0000 0.0000 0.0000 0.0000 26.1318
#
#
#
# Elastic Compliance Matrix: (Units=1/GPa)
#
#
# Indices 1 2 3 4 5 6 
#
# 1 0.024365 -0.003701 -0.005336 0.000000 0.000000 0.000000
# 2 -0.003701 0.010670 -0.003755 0.000000 0.000000 0.000000
# 3 -0.005336 -0.003755 0.009170 0.000000 0.000000 0.000000
# 4 0.000000 0.000000 0.000000 0.045217 0.000000 0.000000
# 5 0.000000 0.000000 0.000000 0.000000 0.029234 0.000000
# 6 0.000000 0.000000 0.000000 0.000000 0.000000 0.038268
#
#
# Mechanical properties :
#
#
# Convention : Reuss Voigt Hill
#
# Bulk Modulus (GPa) = 53.69889 75.73477 64.71683
# Shear Modulus (GPa) = 26.49528 29.65986 28.07757
#
# Velocity S-wave (km/s) = 3.78904 4.00894 3.90054
# Velocity P-wave (km/s) = 6.94550 7.90360 7.43999
#
# Compressibility (1/GPa) = 0.01862236
#
# Stress axis : x y z
#
# Youngs Moduli (GPa) = 41.04309 93.72024 109.05554
#
# Poissons Ratio (x) = 0.34681 0.58188
# Poissons Ratio (y) = 0.15188 0.40949
# Poissons Ratio (z) = 0.21899 0.35191
#
# Static dielectric constant tensor:
#      x y z
#    x 3.272740 0.000000 0.000000 
#    y 0.000000 3.647760 0.000000 
#    z 0.000000 0.000000 3.547740 
# 
# 
# High freq. dielectric constant tensor:
#      x y z
#    x 1.701630 0.000000 0.000000 
#    y 0.000000 1.722300 0.000000 
#    z 0.000000 0.000000 1.722250 
# 
# From -- ./inp_files/25607.got.cif
#   From: 2010.03.12/outbox.cif.g09.slc.cpg/sg59_13_cif.got.tgz:25607.got - 2010.04.16 16:29:54.
