data_PCOD8240398
_publ_section_title
;
Structure prediction by ZEFSAII (Michael W. Deem and Ramdas Pophale) SiO2 
 PCOD8240398
Probable space group: P M M N
;
_chemical_formula_sum "Si O2"
_cell_formula_units_Z 40
_cell_length_a 35.860264
_cell_length_b 12.449629
_cell_length_c 5.233525
_cell_angle_alpha 90.000000
_cell_angle_beta 90.000000
_cell_angle_gamma 90.000000
_cell_volume 2336.491445
_symmetry_space_group_name_H-M "P M M N"
_symmetry_group_IT_number 59
_space_group.IT_coordinate_system_code '2'
_symmetry_cell_setting 'orthorhombic'
loop_
_space_group_symop_operation_xyz
x,y,z
1/2-x,1/2-y,z
1/2+x,-y,-z
-x,1/2+y,-z
-x,-y,-z
1/2+x,1/2+y,-z
1/2-x,y,z
x,1/2-y,z
loop_
_atom_site_type_symbol
_atom_site_label
_atom_site_fract_x
_atom_site_fract_y
_atom_site_fract_z
Si Si1 0.708299 0.622737 0.789193
Si Si2 0.664247 0.877521 0.289165
Si Si3 0.538276 0.370262 0.074981
Si Si4 0.959125 0.925739 0.788775
Si Si5 0.081224 0.052115 0.719884
O O1 0.750000 0.573709 0.790393
O O2 0.710922 0.750000 0.789835
O O3 0.687032 0.583524 0.536420
O O4 0.686632 0.583382 0.040307
O O5 0.657438 0.750000 0.289616
O O6 0.625368 0.939267 0.292143
O O7 0.550955 0.250000 0.002306
O O8 0.498763 0.366379 0.222968
O O9 0.569549 0.426030 0.256469
O O10 0.533791 0.444732 0.820226
O O11 0.936533 0.897168 0.534583
O O12 0.935008 0.884078 0.033077
#
# Coordination Sequence:
#
# PCOD8240398 Si02
#       5
#     8   8   8   8   8
#     4   9  17  30  47  68  94 127 158 179 214 274
#     4  10  19  29  46  69  98 128 150 185 229 269
#     4   9  20  34  50  66  89 125 163 198 239 274
#     4   9  20  34  47  67  91 122 160 204 230 273
#     4  10  19  34  45  69  96 120 155 197 231 274
#
# _framework density 17.119686999999999
#
# number of rings (size 3 to 8) (size 9 to 14) (size 15 to 20)
#    1.200    1.400    0.000    2.400    0.000    4.800 
#    0.000    0.000    0.000    0.000    0.000    0.000 
#    0.000    4.800    0.000    0.000    0.000    0.000 
#
# Total GULP energy -495685.606666 kJ/mol
# GULP energy per Si atom -12392.140167 kJ/mol
# Density = 1.708072 g / cm^3
# Si number density = 17.119687 Si / 1000 Ang^3
#
#
#
# Elastic Constant Matrix: (Units=GPa)
#
#
# Indices 1 2 3 4 5 6 
#
# 1 160.3995 23.6235 63.6721 0.0000 0.0000 0.0000
# 2 23.6235 42.3426 15.5801 0.0000 0.0000 0.0000
# 3 63.6721 15.5801 138.5750 0.0000 0.0000 0.0000
# 4 0.0000 0.0000 0.0000 3.5150 0.0000 0.0000
# 5 0.0000 0.0000 0.0000 0.0000 30.2607 0.0000
# 6 0.0000 0.0000 0.0000 0.0000 0.0000 13.1247
#
#
#
# Elastic Compliance Matrix: (Units=1/GPa)
#
#
# Indices 1 2 3 4 5 6 
#
# 1 0.008034 -0.003259 -0.003325 0.000000 0.000000 0.000000
# 2 -0.003259 0.025958 -0.001421 0.000000 0.000000 0.000000
# 3 -0.003325 -0.001421 0.008904 0.000000 0.000000 0.000000
# 4 0.000000 0.000000 0.000000 0.284496 0.000000 0.000000
# 5 0.000000 0.000000 0.000000 0.000000 0.033046 0.000000
# 6 0.000000 0.000000 0.000000 0.000000 0.000000 0.076192
#
#
# Mechanical properties :
#
#
# Convention : Reuss Voigt Hill
#
# Bulk Modulus (GPa) = 37.19429 60.78538 48.98984
# Shear Modulus (GPa) = 10.83182 25.27616 18.05399
#
# Velocity S-wave (km/s) = 2.51810 3.84661 3.25094
# Velocity P-wave (km/s) = 5.49797 7.43719 6.53986
#
# Compressibility (1/GPa) = 0.02688584
#
# Stress axis : x y z
#
# Youngs Moduli (GPa) = 124.46507 38.52381 112.30988
#
# Poissons Ratio (x) = 0.12555 0.37345
# Poissons Ratio (y) = 0.40563 0.15960
# Poissons Ratio (z) = 0.41387 0.05474
#
# Static dielectric constant tensor:
#      x y z
#    x 3.180610 0.000000 0.000000 
#    y 0.000000 2.675540 0.000000 
#    z 0.000000 0.000000 3.286520 
# 
# 
# High freq. dielectric constant tensor:
#      x y z
#    x 1.660420 0.000000 0.000000 
#    y 0.000000 1.598010 0.000000 
#    z 0.000000 0.000000 1.670830 
# 
# From -- ./inp_files/4510.got.cif
#   From: 2010.03.12/outbox.cif.g09.slc.cpg/sg59_3_cif.got.tgz:4510.got - 2010.04.16 16:29:54.
