data_PCOD8240047
_publ_section_title
;
Structure prediction by ZEFSAII (Michael W. Deem and Ramdas Pophale) SiO2 
 PCOD8240047
Probable space group: P M M N
;
_chemical_formula_sum "Si O2"
_cell_formula_units_Z 56
_cell_length_a 19.624148
_cell_length_b 16.822630
_cell_length_c 9.403061
_cell_angle_alpha 90.000000
_cell_angle_beta 90.000000
_cell_angle_gamma 90.000000
_cell_volume 3104.230467
_symmetry_space_group_name_H-M "P M M N"
_symmetry_group_IT_number 59
_space_group.IT_coordinate_system_code '2'
_symmetry_cell_setting 'orthorhombic'
loop_
_space_group_symop_operation_xyz
x,y,z
1/2-x,1/2-y,z
1/2+x,-y,-z
-x,1/2+y,-z
-x,-y,-z
1/2+x,1/2+y,-z
1/2-x,y,z
x,1/2-y,z
loop_
_atom_site_type_symbol
_atom_site_label
_atom_site_fract_x
_atom_site_fract_y
_atom_site_fract_z
Si Si1 0.171440 0.436037 0.528977
Si Si2 0.582277 0.947570 0.750421
Si Si3 0.484554 0.575302 0.099078
Si Si4 0.389727 0.339925 0.764946
Si Si5 0.456934 0.657837 0.823056
Si Si6 0.674593 0.571760 0.007971
Si Si7 0.672960 0.064138 0.229021
O O1 0.250000 0.419435 0.487900
O O2 0.126575 0.447188 0.389936
O O3 0.139821 0.360410 0.610173
O O4 0.165380 0.513325 0.627540
O O5 0.513006 0.895388 0.738858
O O6 0.623490 0.909604 0.880956
O O7 0.568805 0.041339 0.784615
O O8 0.548732 0.602655 0.190760
O O9 0.500000 0.500000 0.000000
O O10 0.458709 0.645101 0.994831
O O11 0.415045 0.250000 0.765209
O O12 0.330219 0.355201 0.880628
O O13 0.470555 0.750000 0.789387
O O14 0.381658 0.635101 0.766703
O O15 0.750000 0.567886 0.944203
O O16 0.657061 0.490035 0.091017
O O17 0.750000 0.098607 0.219528
#
# Coordination Sequence:
#
# PCOD8240047 Si02
#       7
#     8   8   8   8   8   8   8
#     4  10  22  38  56  80 112 150 190 231 272 323
#     4  11  20  35  57  83 110 143 185 235 279 321
#     4  10  18  34  57  80 108 139 183 238 277 313
#     4  11  21  35  54  79 112 150 185 221 274 338
#     4  11  21  34  56  86 116 143 178 235 291 333
#     4  10  18  32  55  79 104 142 191 230 267 321
#     4   9  19  37  58  81 107 144 190 229 272 335
#
# _framework density 18.039897
#
# number of rings (size 3 to 8) (size 9 to 14) (size 15 to 20)
#    0.000    1.714    4.286    4.714    0.000    4.286 
#    0.000    0.000    0.000    3.429    0.000    0.000 
#    0.000    0.000    0.000    0.000    0.000    0.000 
#
# Total GULP energy -694102.980270 kJ/mol
# GULP energy per Si atom -12394.696076 kJ/mol
# Density = 1.799884 g / cm^3
# Si number density = 18.039897 Si / 1000 Ang^3
#
#
#
# Elastic Constant Matrix: (Units=GPa)
#
#
# Indices 1 2 3 4 5 6 
#
# 1 125.6151 40.0110 56.5107 0.0000 0.0000 0.0000
# 2 40.0110 73.1982 22.7775 0.0000 0.0000 0.0000
# 3 56.5107 22.7775 82.5528 0.0000 0.0000 0.0000
# 4 0.0000 0.0000 0.0000 14.1586 0.0000 0.0000
# 5 0.0000 0.0000 0.0000 0.0000 36.6915 0.0000
# 6 0.0000 0.0000 0.0000 0.0000 0.0000 17.9787
#
#
#
# Elastic Compliance Matrix: (Units=1/GPa)
#
#
# Indices 1 2 3 4 5 6 
#
# 1 0.012817 -0.004677 -0.007483 0.000000 0.000000 0.000000
# 2 -0.004677 0.016652 -0.001393 0.000000 0.000000 0.000000
# 3 -0.007483 -0.001393 0.017620 0.000000 0.000000 0.000000
# 4 0.000000 0.000000 0.000000 0.070628 0.000000 0.000000
# 5 0.000000 0.000000 0.000000 0.000000 0.027254 0.000000
# 6 0.000000 0.000000 0.000000 0.000000 0.000000 0.055622
#
#
# Mechanical properties :
#
#
# Convention : Reuss Voigt Hill
#
# Bulk Modulus (GPa) = 50.04364 57.77385 53.90875
# Shear Modulus (GPa) = 21.33463 24.57022 22.95242
#
# Velocity S-wave (km/s) = 3.44268 3.69452 3.57082
# Velocity P-wave (km/s) = 6.60329 7.09186 6.85193
#
# Compressibility (1/GPa) = 0.01998256
#
# Stress axis : x y z
#
# Youngs Moduli (GPa) = 78.02006 60.05434 56.75266
#
# Poissons Ratio (x) = 0.28090 0.42470
# Poissons Ratio (y) = 0.36493 0.07903
# Poissons Ratio (z) = 0.58385 0.08363
#
# Static dielectric constant tensor:
#      x y z
#    x 3.566360 0.000000 0.000000 
#    y 0.000000 3.211440 0.000000 
#    z 0.000000 0.000000 3.340240 
# 
# 
# High freq. dielectric constant tensor:
#      x y z
#    x 1.712430 0.000000 0.000000 
#    y 0.000000 1.668360 0.000000 
#    z 0.000000 0.000000 1.686570 
# 
# From -- ./inp_files/11559.got.cif
#   From: 2010.03.12/outbox.cif.g09.slc.cpg/sg59_6_cif.got.tgz:11559.got - 2010.04.16 16:29:54.
