data_PCOD8240726
_publ_section_title
;
Structure prediction by ZEFSAII (Michael W. Deem and Ramdas Pophale) SiO2 
 PCOD8240726
Probable space group: P M M N
;
_chemical_formula_sum "Si O2"
_cell_formula_units_Z 48
_cell_length_a 9.171283
_cell_length_b 7.873281
_cell_length_c 34.567459
_cell_angle_alpha 90.000000
_cell_angle_beta 90.000000
_cell_angle_gamma 90.000000
_cell_volume 2496.050128
_symmetry_space_group_name_H-M "P M M N"
_symmetry_group_IT_number 59
_space_group.IT_coordinate_system_code '2'
_symmetry_cell_setting 'orthorhombic'
loop_
_space_group_symop_operation_xyz
x,y,z
1/2-x,1/2-y,z
1/2+x,-y,-z
-x,1/2+y,-z
-x,-y,-z
1/2+x,1/2+y,-z
1/2-x,y,z
x,1/2-y,z
loop_
_atom_site_type_symbol
_atom_site_label
_atom_site_fract_x
_atom_site_fract_y
_atom_site_fract_z
Si Si1 0.414183 0.948747 0.962274
Si Si2 0.588437 0.052129 0.462537
Si Si3 0.577547 0.250000 0.256537
Si Si4 0.587805 0.050701 0.612556
Si Si5 0.421497 0.445679 0.689133
Si Si6 0.575568 0.250000 0.169869
Si Si7 0.423103 0.438148 0.880495
O O1 0.250000 0.013290 0.968466
O O2 0.419775 0.750000 0.955014
O O3 0.483627 0.035462 0.924067
O O4 0.500000 0.000000 0.000000
O O5 0.750000 0.966509 0.462640
O O6 0.609450 0.250000 0.462960
O O7 0.500000 0.000000 0.500000
O O8 0.501331 0.000671 0.424794
O O9 0.750000 0.250000 0.254376
O O10 0.526269 0.423985 0.277547
O O11 0.511957 0.250000 0.213331
O O12 0.750000 0.968418 0.611617
O O13 0.603024 0.250000 0.613301
O O14 0.502628 0.990684 0.650647
O O15 0.250000 0.461722 0.681269
O O16 0.461440 0.250000 0.700443
O O17 0.750000 0.250000 0.170134
O O18 0.514498 0.418763 0.148478
O O19 0.250000 0.457853 0.882074
O O20 0.469041 0.250000 0.865812
#
# Coordination Sequence:
#
# PCOD8240726 Si02
#       7
#     8   8   4   8   8   4   8
#     4  10  19  31  47  70 101 134 173 221 267 316
#     4  11  24  39  56  80 110 144 182 223 266 315
#     4   9  18  30  49  75 105 137 175 219 263 321
#     4  10  21  37  57  81 108 139 178 223 267 314
#     4   9  18  33  52  76 108 141 171 212 267 320
#     4   9  16  28  44  69 101 133 169 215 265 319
#     4   9  16  27  44  66  97 135 171 211 263 318
#
# _framework density 19.230381999999999
#
# number of rings (size 3 to 8) (size 9 to 14) (size 15 to 20)
#    0.000    2.333    0.833    2.000    1.167    6.000 
#    0.000    3.333    0.000    0.000    0.000    2.333 
#    0.000    2.667    0.000    0.000    0.000    0.000 
#
# Total GULP energy -595015.780359 kJ/mol
# GULP energy per Si atom -12396.162091 kJ/mol
# Density = 1.918661 g / cm^3
# Si number density = 19.230382 Si / 1000 Ang^3
#
#
#
# Elastic Constant Matrix: (Units=GPa)
#
#
# Indices 1 2 3 4 5 6 
#
# 1 76.7110 36.4378 52.1691 0.0000 0.0000 0.0000
# 2 36.4378 140.1536 76.6674 0.0000 0.0000 0.0000
# 3 52.1691 76.6674 189.9886 0.0000 0.0000 0.0000
# 4 0.0000 0.0000 0.0000 36.5264 0.0000 0.0000
# 5 0.0000 0.0000 0.0000 0.0000 21.5534 0.0000
# 6 0.0000 0.0000 0.0000 0.0000 0.0000 14.9626
#
#
#
# Elastic Compliance Matrix: (Units=1/GPa)
#
#
# Indices 1 2 3 4 5 6 
#
# 1 0.016606 -0.002339 -0.003616 0.000000 0.000000 0.000000
# 2 -0.002339 0.009486 -0.003185 0.000000 0.000000 0.000000
# 3 -0.003616 -0.003185 0.007542 0.000000 0.000000 0.000000
# 4 0.000000 0.000000 0.000000 0.027377 0.000000 0.000000
# 5 0.000000 0.000000 0.000000 0.000000 0.046396 0.000000
# 6 0.000000 0.000000 0.000000 0.000000 0.000000 0.066833
#
#
# Mechanical properties :
#
#
# Convention : Reuss Voigt Hill
#
# Bulk Modulus (GPa) = 65.13681 81.93353 73.53517
# Shear Modulus (GPa) = 25.29856 30.71375 28.00615
#
# Velocity S-wave (km/s) = 3.63099 4.00077 3.82035
# Velocity P-wave (km/s) = 7.17803 8.00252 7.60146
#
# Compressibility (1/GPa) = 0.01535230
#
# Stress axis : x y z
#
# Youngs Moduli (GPa) = 60.21837 105.42106 132.59395
#
# Poissons Ratio (x) = 0.24662 0.47944
# Poissons Ratio (y) = 0.14087 0.42238
# Poissons Ratio (z) = 0.21774 0.33582
#
# Static dielectric constant tensor:
#      x y z
#    x 3.558870 0.000000 0.000000 
#    y 0.000000 3.667680 0.000000 
#    z 0.000000 0.000000 3.731720 
# 
# 
# High freq. dielectric constant tensor:
#      x y z
#    x 1.708500 0.000000 0.000000 
#    y 0.000000 1.759390 0.000000 
#    z 0.000000 0.000000 1.751900 
# 
# From -- ./inp_files/32938.got.cif
#   From: 2010.03.12/outbox.cif.g09.slc.cpg/sg59_17_cif.got.tgz:32938.got - 2010.04.16 16:29:54.
