data_PCOD8240543
_publ_section_title
;
Structure prediction by ZEFSAII (Michael W. Deem and Ramdas Pophale) SiO2 
 PCOD8240543
Probable space group: P M M N
;
_chemical_formula_sum "Si O2"
_cell_formula_units_Z 64
_cell_length_a 23.441766
_cell_length_b 9.011383
_cell_length_c 19.085641
_cell_angle_alpha 90.000000
_cell_angle_beta 90.000000
_cell_angle_gamma 90.000000
_cell_volume 4031.702940
_symmetry_space_group_name_H-M "P M M N"
_symmetry_group_IT_number 59
_space_group.IT_coordinate_system_code '2'
_symmetry_cell_setting 'orthorhombic'
loop_
_space_group_symop_operation_xyz
x,y,z
1/2-x,1/2-y,z
1/2+x,-y,-z
-x,1/2+y,-z
-x,-y,-z
1/2+x,1/2+y,-z
1/2-x,y,z
x,1/2-y,z
loop_
_atom_site_type_symbol
_atom_site_label
_atom_site_fract_x
_atom_site_fract_y
_atom_site_fract_z
Si Si1 0.985215 0.922473 0.103877
Si Si2 0.084748 0.424202 0.024459
Si Si3 0.627423 0.925685 0.745438
Si Si4 0.920635 0.079744 0.530950
Si Si5 0.995082 0.423830 0.741411
Si Si6 0.186952 0.425838 0.112295
Si Si7 0.979500 0.077556 0.392135
Si Si8 0.314559 0.920148 0.380956
O O1 0.998348 0.750000 0.093574
O O2 0.973218 0.959766 0.185070
O O3 0.930918 0.970156 0.055561
O O4 0.041034 0.007900 0.079669
O O5 0.079845 0.250000 0.035115
O O6 0.148406 0.477227 0.045656
O O7 0.618466 0.750000 0.744690
O O8 0.657554 0.981640 0.816432
O O9 0.566769 0.003245 0.738237
O O10 0.668166 0.972438 0.682003
O O11 0.939057 0.250000 0.545234
O O12 0.854893 0.051557 0.551428
O O13 0.929873 0.042501 0.448757
O O14 0.959516 0.974534 0.578421
O O15 0.987440 0.250000 0.729799
O O16 0.034437 0.490549 0.679655
O O17 0.250000 0.496982 0.104398
O O18 0.192346 0.250000 0.114699
O O19 0.983683 0.250000 0.374472
O O20 0.250000 0.956549 0.404158
O O21 0.320547 0.750000 0.355565
#
# Coordination Sequence:
#
# PCOD8240543 Si02
#       8
#     8   8   8   8   8   8   8   8
#     4   9  18  29  44  64  88 115 145 183 226 269
#     4   9  16  29  46  64  86 114 148 184 222 264
#     4  11  20  30  44  65  92 123 158 188 217 256
#     4   9  18  32  47  66  92 118 146 185 225 266
#     4  11  20  30  44  65  93 122 151 185 229 272
#     4   9  17  28  43  64  90 118 149 185 221 257
#     4  10  19  30  47  68  89 117 151 184 225 270
#     4  10  20  33  48  66  91 124 154 182 221 266
#
# _framework density 15.874185000000001
#
# number of rings (size 3 to 8) (size 9 to 14) (size 15 to 20)
#    0.000    2.250    2.500    1.500    0.000    1.750 
#    0.000    0.000    0.000    1.125    0.000    0.875 
#    0.000    1.000    0.000    0.000    0.000    0.000 
#
# Total GULP energy -793357.647826 kJ/mol
# GULP energy per Si atom -12396.213247 kJ/mol
# Density = 1.583805 g / cm^3
# Si number density = 15.874185 Si / 1000 Ang^3
#
#
#
# Elastic Constant Matrix: (Units=GPa)
#
#
# Indices 1 2 3 4 5 6 
#
# 1 85.2169 22.2809 63.8777 0.0000 0.0000 0.0000
# 2 22.2809 49.9926 41.4548 0.0000 0.0000 0.0000
# 3 63.8777 41.4548 133.2969 0.0000 0.0000 0.0000
# 4 0.0000 0.0000 0.0000 20.3193 0.0000 0.0000
# 5 0.0000 0.0000 0.0000 0.0000 22.4578 0.0000
# 6 0.0000 0.0000 0.0000 0.0000 0.0000 13.7456
#
#
#
# Elastic Compliance Matrix: (Units=1/GPa)
#
#
# Indices 1 2 3 4 5 6 
#
# 1 0.018366 -0.001196 -0.008429 0.000000 0.000000 0.000000
# 2 -0.001196 0.027032 -0.007834 0.000000 0.000000 0.000000
# 3 -0.008429 -0.007834 0.013978 0.000000 0.000000 0.000000
# 4 0.000000 0.000000 0.000000 0.049214 0.000000 0.000000
# 5 0.000000 0.000000 0.000000 0.000000 0.044528 0.000000
# 6 0.000000 0.000000 0.000000 0.000000 0.000000 0.072751
#
#
# Mechanical properties :
#
#
# Convention : Reuss Voigt Hill
#
# Bulk Modulus (GPa) = 40.88662 58.19260 49.53961
# Shear Modulus (GPa) = 18.59160 20.69740 19.64450
#
# Velocity S-wave (km/s) = 3.42597 3.61479 3.52165
# Velocity P-wave (km/s) = 6.43912 7.35938 6.91458
#
# Compressibility (1/GPa) = 0.02445788
#
# Stress axis : x y z
#
# Youngs Moduli (GPa) = 54.44859 36.99355 71.54197
#
# Poissons Ratio (x) = 0.04423 0.60305
# Poissons Ratio (y) = 0.06510 0.56045
# Poissons Ratio (z) = 0.45897 0.28980
#
# Static dielectric constant tensor:
#      x y z
#    x 3.092770 0.000000 0.000000 
#    y 0.000000 3.008700 0.000000 
#    z 0.000000 0.000000 3.318170 
# 
# 
# High freq. dielectric constant tensor:
#      x y z
#    x 1.581070 0.000000 0.000000 
#    y 0.000000 1.607590 0.000000 
#    z 0.000000 0.000000 1.609710 
# 
# From -- ./inp_files/26636.got.cif
#   From: 2010.03.12/outbox.cif.g09.slc.cpg/sg59_14_cif.got.tgz:26636.got - 2010.04.16 16:29:54.
