data_PCOD8240310
_publ_section_title
;
Structure prediction by ZEFSAII (Michael W. Deem and Ramdas Pophale) SiO2 
 PCOD8240310
Probable space group: P M M N
;
_chemical_formula_sum "Si O2"
_cell_formula_units_Z 64
_cell_length_a 8.943536
_cell_length_b 24.280710
_cell_length_c 18.379141
_cell_angle_alpha 90.000000
_cell_angle_beta 90.000000
_cell_angle_gamma 90.000000
_cell_volume 3991.129789
_symmetry_space_group_name_H-M "P M M N"
_symmetry_group_IT_number 59
_space_group.IT_coordinate_system_code '2'
_symmetry_cell_setting 'orthorhombic'
loop_
_space_group_symop_operation_xyz
x,y,z
1/2-x,1/2-y,z
1/2+x,-y,-z
-x,1/2+y,-z
-x,-y,-z
1/2+x,1/2+y,-z
1/2-x,y,z
x,1/2-y,z
loop_
_atom_site_type_symbol
_atom_site_label
_atom_site_fract_x
_atom_site_fract_y
_atom_site_fract_z
Si Si1 0.080897 0.120550 0.666962
Si Si2 0.918684 0.080368 0.533116
Si Si3 0.574455 0.086248 0.003309
Si Si4 0.426001 0.186627 0.935577
Si Si5 0.080055 0.000457 0.735194
Si Si6 0.425678 0.006869 0.111014
Si Si7 0.581076 0.959471 0.600660
Si Si8 0.917093 0.314596 0.787729
O O1 0.250000 0.142189 0.661129
O O2 0.010458 0.120145 0.586568
O O3 0.984886 0.162073 0.714337
O O4 0.075368 0.061124 0.703097
O O5 0.750000 0.102394 0.524819
O O6 0.997142 0.081739 0.454338
O O7 0.918405 0.019578 0.565891
O O8 0.750000 0.092295 0.014672
O O9 0.504485 0.059652 0.075354
O O10 0.504306 0.146911 0.993896
O O11 0.534485 0.048246 0.933936
O O12 0.250000 0.177875 0.938817
O O13 0.470265 0.250000 0.952723
O O14 0.481325 0.168566 0.855917
O O15 0.250000 0.981687 0.750382
O O16 0.985085 0.000405 0.808219
O O17 0.005632 0.958808 0.677425
O O18 0.250000 0.017671 0.112209
O O19 0.750000 0.938672 0.613252
O O20 0.750000 0.338514 0.800291
O O21 0.911080 0.250000 0.778284
#
# Coordination Sequence:
#
# PCOD8240310 Si02
#       8
#     8   8   8   8   8   8   8   8
#     4  10  19  29  43  62  85 115 149 183 218 260
#     4   9  16  26  40  58  82 111 142 175 210 248
#     4  10  20  33  49  67  89 118 151 187 226 270
#     4  10  20  33  49  68  90 117 149 186 227 269
#     4  10  19  29  42  62  87 115 148 182 218 261
#     4  10  20  32  46  65  90 120 152 186 226 271
#     4   9  16  26  40  58  82 111 142 175 210 248
#     4  10  20  32  45  62  85 113 146 184 223 261
#
# _framework density 16.03556
#
# number of rings (size 3 to 8) (size 9 to 14) (size 15 to 20)
#    0.000    2.250    0.000    3.750    0.000    9.500 
#    0.000    0.000    0.000    0.000    0.000    0.000 
#    0.000    1.000    0.000    3.750    0.000    5.750 
#
# Total GULP energy -793703.757879 kJ/mol
# GULP energy per Si atom -12401.621217 kJ/mol
# Density = 1.599906 g / cm^3
# Si number density = 16.035560 Si / 1000 Ang^3
#
#
#
# Elastic Constant Matrix: (Units=GPa)
#
#
# Indices 1 2 3 4 5 6 
#
# 1 107.2737 30.9161 28.8548 0.0000 0.0000 0.0000
# 2 30.9161 27.7649 8.2013 0.0000 0.0000 0.0000
# 3 28.8548 8.2013 53.4337 0.0000 0.0000 0.0000
# 4 0.0000 0.0000 0.0000 21.9477 0.0000 0.0000
# 5 0.0000 0.0000 0.0000 0.0000 32.8954 0.0000
# 6 0.0000 0.0000 0.0000 0.0000 0.0000 22.5424
#
#
#
# Elastic Compliance Matrix: (Units=1/GPa)
#
#
# Indices 1 2 3 4 5 6 
#
# 1 0.015332 -0.015321 -0.005928 0.000000 0.000000 0.000000
# 2 -0.015321 0.053037 0.000133 0.000000 0.000000 0.000000
# 3 -0.005928 0.000133 0.021895 0.000000 0.000000 0.000000
# 4 0.000000 0.000000 0.000000 0.045563 0.000000 0.000000
# 5 0.000000 0.000000 0.000000 0.000000 0.030399 0.000000
# 6 0.000000 0.000000 0.000000 0.000000 0.000000 0.044361
#
#
# Mechanical properties :
#
#
# Convention : Reuss Voigt Hill
#
# Bulk Modulus (GPa) = 20.81899 36.04628 28.43263
# Shear Modulus (GPa) = 18.59907 23.51043 21.05475
#
# Velocity S-wave (km/s) = 3.40937 3.83318 3.62747
# Velocity P-wave (km/s) = 5.33944 6.48990 5.94258
#
# Compressibility (1/GPa) = 0.04803308
#
# Stress axis : x y z
#
# Youngs Moduli (GPa) = 65.22333 18.85465 45.67152
#
# Poissons Ratio (x) = 0.28887 0.27073
# Poissons Ratio (y) = 0.99929 -0.00608
# Poissons Ratio (z) = 0.38663 -0.00251
#
# Static dielectric constant tensor:
#      x y z
#    x 3.319650 0.000000 0.000000 
#    y 0.000000 2.752940 0.000000 
#    z 0.000000 0.000000 3.110340 
# 
# 
# High freq. dielectric constant tensor:
#      x y z
#    x 1.641320 0.000000 0.000000 
#    y 0.000000 1.569600 0.000000 
#    z 0.000000 0.000000 1.608150 
# 
# From -- ./inp_files/26439.got.cif
#   From: 2010.03.12/outbox.cif.g09.slc.cpg/sg59_14_cif.got.tgz:26439.got - 2010.04.16 16:29:54.
