data_PCOD8240347
_publ_section_title
;
Structure prediction by ZEFSAII (Michael W. Deem and Ramdas Pophale) SiO2 
 PCOD8240347
Probable space group: P M M N
;
_chemical_formula_sum "Si O2"
_cell_formula_units_Z 56
_cell_length_a 21.724355
_cell_length_b 9.283011
_cell_length_c 17.666106
_cell_angle_alpha 90.000000
_cell_angle_beta 90.000000
_cell_angle_gamma 90.000000
_cell_volume 3562.678132
_symmetry_space_group_name_H-M "P M M N"
_symmetry_group_IT_number 59
_space_group.IT_coordinate_system_code '2'
_symmetry_cell_setting 'orthorhombic'
loop_
_space_group_symop_operation_xyz
x,y,z
1/2-x,1/2-y,z
1/2+x,-y,-z
-x,1/2+y,-z
-x,-y,-z
1/2+x,1/2+y,-z
1/2-x,y,z
x,1/2-y,z
loop_
_atom_site_type_symbol
_atom_site_label
_atom_site_fract_x
_atom_site_fract_y
_atom_site_fract_z
Si Si1 0.678141 0.082922 0.147696
Si Si2 0.602459 0.080416 0.289441
Si Si3 0.560415 0.590995 0.585930
Si Si4 0.953678 0.081912 0.898260
Si Si5 0.467839 0.420821 0.249307
Si Si6 0.411453 0.081841 0.959881
Si Si7 0.083433 0.909927 0.549569
O O1 0.750000 0.054099 0.140547
O O2 0.661137 0.250000 0.132272
O O3 0.657589 0.039406 0.232859
O O4 0.644611 0.982015 0.087842
O O5 0.594847 0.250000 0.301087
O O6 0.538368 0.024111 0.254653
O O7 0.614524 0.018863 0.374715
O O8 0.588103 0.750000 0.579117
O O9 0.567407 0.537820 0.672785
O O10 0.489119 0.591734 0.564317
O O11 0.599414 0.495939 0.526911
O O12 0.936667 0.250000 0.897167
O O13 0.025548 0.055984 0.914711
O O14 0.936340 0.009311 0.818372
O O15 0.912693 0.002963 0.961151
O O16 0.464307 0.250000 0.232968
O O17 0.399958 0.250000 0.975511
O O18 0.108896 0.750000 0.535575
#
# Coordination Sequence:
#
# PCOD8240347 Si02
#       7
#     8   8   8   8   8   8   8
#     4  10  19  31  48  66  85 113 149 186 219 254
#     4   8  14  25  40  57  80 110 144 176 210 253
#     4   8  14  22  33  53  78 106 137 167 202 243
#     4  10  19  29  44  65  86 110 145 183 217 264
#     4   9  15  25  41  58  83 115 141 171 214 262
#     4  10  20  32  45  62  85 114 144 178 224 267
#     4   8  13  22  35  50  73 108 140 167 200 240
#
# _framework density 15.718513
#
# number of rings (size 3 to 8) (size 9 to 14) (size 15 to 20)
#    0.000    3.000    1.429    2.571    0.000    2.000 
#    0.000    2.857    0.000    0.000    0.000    0.000 
#    0.000    1.143    0.000   10.571    0.000    3.286 
#
# Total GULP energy -694019.165832 kJ/mol
# GULP energy per Si atom -12393.199390 kJ/mol
# Density = 1.568274 g / cm^3
# Si number density = 15.718513 Si / 1000 Ang^3
#
#
#
# Elastic Constant Matrix: (Units=GPa)
#
#
# Indices 1 2 3 4 5 6 
#
# 1 39.2499 25.1804 33.4854 0.0000 0.0000 0.0000
# 2 25.1804 80.6981 73.0406 0.0000 0.0000 0.0000
# 3 33.4854 73.0406 157.1304 0.0000 0.0000 0.0000
# 4 0.0000 0.0000 0.0000 31.6818 0.0000 0.0000
# 5 0.0000 0.0000 0.0000 0.0000 14.5288 0.0000
# 6 0.0000 0.0000 0.0000 0.0000 0.0000 13.5398
#
#
#
# Elastic Compliance Matrix: (Units=1/GPa)
#
#
# Indices 1 2 3 4 5 6 
#
# 1 0.033183 -0.006825 -0.003899 0.000000 0.000000 0.000000
# 2 -0.006825 0.022796 -0.009142 0.000000 0.000000 0.000000
# 3 -0.003899 -0.009142 0.011445 0.000000 0.000000 0.000000
# 4 0.000000 0.000000 0.000000 0.031564 0.000000 0.000000
# 5 0.000000 0.000000 0.000000 0.000000 0.068829 0.000000
# 6 0.000000 0.000000 0.000000 0.000000 0.000000 0.073856
#
#
# Mechanical properties :
#
#
# Convention : Reuss Voigt Hill
#
# Bulk Modulus (GPa) = 36.11254 60.05458 48.08356
# Shear Modulus (GPa) = 17.20372 21.64155 19.42263
#
# Velocity S-wave (km/s) = 3.31189 3.71458 3.51900
# Velocity P-wave (km/s) = 6.13590 7.52905 6.86789
#
# Compressibility (1/GPa) = 0.02769121
#
# Stress axis : x y z
#
# Youngs Moduli (GPa) = 30.13624 43.86705 87.37749
#
# Poissons Ratio (x) = 0.29940 0.34066
# Poissons Ratio (y) = 0.20569 0.79881
# Poissons Ratio (z) = 0.11749 0.40104
#
# Static dielectric constant tensor:
#      x y z
#    x 2.447540 0.000000 0.000000 
#    y 0.000000 2.969190 0.000000 
#    z 0.000000 0.000000 3.275960 
# 
# 
# High freq. dielectric constant tensor:
#      x y z
#    x 1.531780 0.000000 0.000000 
#    y 0.000000 1.594130 0.000000 
#    z 0.000000 0.000000 1.621310 
# 
# From -- ./inp_files/28366.got.cif
#   From: 2010.03.12/outbox.cif.g09.slc.cpg/sg59_15_cif.got.tgz:28366.got - 2010.04.16 16:29:54.
