data_PCOD8240575
_publ_section_title
;
Structure prediction by ZEFSAII (Michael W. Deem and Ramdas Pophale) SiO2 
 PCOD8240575
Probable space group: P M M N
;
_chemical_formula_sum "Si O2"
_cell_formula_units_Z 64
_cell_length_a 18.705623
_cell_length_b 12.647991
_cell_length_c 14.963082
_cell_angle_alpha 90.000000
_cell_angle_beta 90.000000
_cell_angle_gamma 90.000000
_cell_volume 3540.093894
_symmetry_space_group_name_H-M "P M M N"
_symmetry_group_IT_number 59
_space_group.IT_coordinate_system_code '2'
_symmetry_cell_setting 'orthorhombic'
loop_
_space_group_symop_operation_xyz
x,y,z
1/2-x,1/2-y,z
1/2+x,-y,-z
-x,1/2+y,-z
-x,-y,-z
1/2+x,1/2+y,-z
1/2-x,y,z
x,1/2-y,z
loop_
_atom_site_type_symbol
_atom_site_label
_atom_site_fract_x
_atom_site_fract_y
_atom_site_fract_z
Si Si1 0.915738 0.368603 0.141856
Si Si2 0.170064 0.435301 0.811036
Si Si3 0.064450 0.130182 0.666284
Si Si4 0.569171 0.049023 0.957448
Si Si5 0.670873 0.874549 0.481579
Si Si6 0.667393 0.873164 0.686651
Si Si7 0.958698 0.501017 0.774873
Si Si8 0.169260 0.365928 0.011246
O O1 0.903617 0.250000 0.176291
O O2 0.854030 0.442558 0.182133
O O3 0.991611 0.409273 0.179685
O O4 0.907424 0.365895 0.032254
O O5 0.250000 0.432733 0.772555
O O6 0.119560 0.367547 0.747825
O O7 0.164562 0.378974 0.905502
O O8 0.038164 0.250000 0.647155
O O9 0.107338 0.080053 0.581434
O O10 0.996480 0.056886 0.691000
O O11 0.554919 0.087074 0.854908
O O12 0.626026 0.956227 0.939452
O O13 0.500000 0.000000 0.000000
O O14 0.750000 0.921231 0.457550
O O15 0.673979 0.750000 0.466252
O O16 0.652323 0.901158 0.583532
O O17 0.750000 0.898279 0.711017
O O18 0.651028 0.750000 0.705312
O O19 0.615160 0.946407 0.744248
O O20 0.250000 0.374718 0.045415
O O21 0.138199 0.250000 0.035964
#
# Coordination Sequence:
#
# PCOD8240575 Si02
#       8
#     8   8   8   8   8   8   8   8
#     4   9  18  32  47  63  90 130 165 196 240 284
#     4   9  17  28  44  69  95 120 157 199 236 280
#     4  10  19  30  47  71  99 129 157 190 236 284
#     4   9  19  31  42  62  90 121 157 194 230 277
#     4   8  15  29  49  74 101 126 153 185 228 284
#     4   9  18  33  53  75  98 124 154 193 240 283
#     4  10  20  32  47  71  97 122 161 203 235 278
#     4   9  17  29  45  65  89 115 147 193 243 283
#
# _framework density 18.078616
#
# number of rings (size 3 to 8) (size 9 to 14) (size 15 to 20)
#    0.000    2.875    0.000    2.625    0.000    5.500 
#    0.000    1.250    0.000    0.375    0.000    1.750 
#    0.000    5.000    0.000    0.000    0.000    0.000 
#
# Total GULP energy -792882.640904 kJ/mol
# GULP energy per Si atom -12388.791264 kJ/mol
# Density = 1.803747 g / cm^3
# Si number density = 18.078616 Si / 1000 Ang^3
#
#
#
# Elastic Constant Matrix: (Units=GPa)
#
#
# Indices 1 2 3 4 5 6 
#
# 1 88.8528 23.7260 30.6908 0.0000 0.0000 0.0000
# 2 23.7260 61.3867 10.9332 0.0000 0.0000 0.0000
# 3 30.6908 10.9332 76.6102 0.0000 0.0000 0.0000
# 4 0.0000 0.0000 0.0000 16.2816 0.0000 0.0000
# 5 0.0000 0.0000 0.0000 0.0000 27.4624 0.0000
# 6 0.0000 0.0000 0.0000 0.0000 0.0000 21.5802
#
#
#
# Elastic Compliance Matrix: (Units=1/GPa)
#
#
# Indices 1 2 3 4 5 6 
#
# 1 0.014224 -0.004600 -0.005042 0.000000 0.000000 0.000000
# 2 -0.004600 0.018202 -0.000755 0.000000 0.000000 0.000000
# 3 -0.005042 -0.000755 0.015181 0.000000 0.000000 0.000000
# 4 0.000000 0.000000 0.000000 0.061419 0.000000 0.000000
# 5 0.000000 0.000000 0.000000 0.000000 0.036413 0.000000
# 6 0.000000 0.000000 0.000000 0.000000 0.000000 0.046339
#
#
# Mechanical properties :
#
#
# Convention : Reuss Voigt Hill
#
# Bulk Modulus (GPa) = 37.29388 39.72776 38.51082
# Shear Modulus (GPa) = 22.57232 23.83149 23.20191
#
# Velocity S-wave (km/s) = 3.53734 3.63466 3.58633
# Velocity P-wave (km/s) = 6.11205 6.29580 6.20460
#
# Compressibility (1/GPa) = 0.02681405
#
# Stress axis : x y z
#
# Youngs Moduli (GPa) = 70.30183 54.93770 65.87304
#
# Poissons Ratio (x) = 0.25270 0.33213
# Poissons Ratio (y) = 0.32337 0.04974
# Poissons Ratio (z) = 0.35446 0.04148
#
# Static dielectric constant tensor:
#      x y z
#    x 3.482530 0.000000 0.000000 
#    y 0.000000 2.979020 0.000000 
#    z 0.000000 0.000000 3.487680 
# 
# 
# High freq. dielectric constant tensor:
#      x y z
#    x 1.699870 0.000000 0.000000 
#    y 0.000000 1.659040 0.000000 
#    z 0.000000 0.000000 1.699260 
# 
# From -- ./inp_files/23940.got.cif
#   From: 2010.03.12/outbox.cif.g09.slc.cpg/sg59_12_cif.got.tgz:23940.got - 2010.04.16 16:29:54.
