data_PCOD8240201
_publ_section_title
;
Structure prediction by ZEFSAII (Michael W. Deem and Ramdas Pophale) SiO2 
 PCOD8240201
Probable space group: P M M N
;
_chemical_formula_sum "Si O2"
_cell_formula_units_Z 56
_cell_length_a 20.491018
_cell_length_b 15.394633
_cell_length_c 9.653353
_cell_angle_alpha 90.000000
_cell_angle_beta 90.000000
_cell_angle_gamma 90.000000
_cell_volume 3045.166633
_symmetry_space_group_name_H-M "P M M N"
_symmetry_group_IT_number 59
_space_group.IT_coordinate_system_code '2'
_symmetry_cell_setting 'orthorhombic'
loop_
_space_group_symop_operation_xyz
x,y,z
1/2-x,1/2-y,z
1/2+x,-y,-z
-x,1/2+y,-z
-x,-y,-z
1/2+x,1/2+y,-z
1/2-x,y,z
x,1/2-y,z
loop_
_atom_site_type_symbol
_atom_site_label
_atom_site_fract_x
_atom_site_fract_y
_atom_site_fract_z
Si Si1 0.588108 0.899746 0.142660
Si Si2 0.826438 0.750000 0.217887
Si Si3 0.674037 0.561784 0.609126
Si Si4 0.596196 0.523064 0.854780
Si Si5 0.479582 0.650183 0.774468
Si Si6 0.826957 0.750000 0.523672
Si Si7 0.433723 0.512913 0.585835
Si Si8 0.950074 0.343355 0.920824
O O1 0.650734 0.837984 0.145515
O O2 0.527709 0.840134 0.099646
O O3 0.572601 0.946985 0.286000
O O4 0.603801 0.967007 0.019316
O O5 0.750000 0.750000 0.215504
O O6 0.857529 0.750000 0.370978
O O7 0.750000 0.549276 0.568908
O O8 0.663074 0.537374 0.770150
O O9 0.650353 0.662064 0.598751
O O10 0.629600 0.500432 0.511423
O O11 0.542193 0.586979 0.789646
O O12 0.578348 0.422027 0.831114
O O13 0.499931 0.750000 0.739510
O O14 0.435729 0.610769 0.649174
O O15 0.437129 0.646542 0.914758
O O16 0.750000 0.750000 0.511438
O O17 0.500000 0.500000 0.500000
O O18 0.921460 0.250000 0.870213
#
# Coordination Sequence:
#
# PCOD8240201 Si02
#       8
#     8   4   8   8   8   4   8   8
#     4  11  20  35  57  82 120 156 191 244 292 346
#     4  11  22  35  55  87 119 161 207 238 284 363
#     4  11  24  39  58  84 122 162 193 241 305 361
#     4  11  21  37  59  86 121 156 198 241 300 363
#     4  10  20  34  58  90 120 150 197 249 297 347
#     4   9  20  37  55  79 117 161 197 230 286 361
#     4  12  21  37  59  87 117 154 200 247 293 353
#     4  10  18  34  59  88 117 150 189 251 307 341
#
# _framework density 18.389799
#
# number of rings (size 3 to 8) (size 9 to 14) (size 15 to 20)
#    0.000    1.286    6.429    0.857    2.000    0.571 
#    1.286    1.429    0.000    1.714    0.000    2.000 
#    0.000    0.000    0.000    0.000    0.000    0.000 
#
# Total GULP energy -693981.065093 kJ/mol
# GULP energy per Si atom -12392.519020 kJ/mol
# Density = 1.834794 g / cm^3
# Si number density = 18.389799 Si / 1000 Ang^3
#
#
#
# Elastic Constant Matrix: (Units=GPa)
#
#
# Indices 1 2 3 4 5 6 
#
# 1 77.7623 44.6420 39.6944 0.0000 0.0000 0.0000
# 2 44.6420 153.7767 41.4038 0.0000 0.0000 0.0000
# 3 39.6944 41.4038 89.6829 0.0000 0.0000 0.0000
# 4 0.0000 0.0000 0.0000 22.3750 0.0000 0.0000
# 5 0.0000 0.0000 0.0000 0.0000 25.9014 0.0000
# 6 0.0000 0.0000 0.0000 0.0000 0.0000 24.8661
#
#
#
# Elastic Compliance Matrix: (Units=1/GPa)
#
#
# Indices 1 2 3 4 5 6 
#
# 1 0.018165 -0.003550 -0.006401 0.000000 0.000000 0.000000
# 2 -0.003550 0.008120 -0.002177 0.000000 0.000000 0.000000
# 3 -0.006401 -0.002177 0.014989 0.000000 0.000000 0.000000
# 4 0.000000 0.000000 0.000000 0.044693 0.000000 0.000000
# 5 0.000000 0.000000 0.000000 0.000000 0.038608 0.000000
# 6 0.000000 0.000000 0.000000 0.000000 0.000000 0.040215
#
#
# Mechanical properties :
#
#
# Convention : Reuss Voigt Hill
#
# Bulk Modulus (GPa) = 58.76557 63.63358 61.19958
# Shear Modulus (GPa) = 25.67801 27.66061 26.66931
#
# Velocity S-wave (km/s) = 3.74079 3.88252 3.81231
# Velocity P-wave (km/s) = 7.11919 7.40110 7.26152
#
# Compressibility (1/GPa) = 0.01701677
#
# Stress axis : x y z
#
# Youngs Moduli (GPa) = 55.05039 123.15645 66.71627
#
# Poissons Ratio (x) = 0.43720 0.42706
# Poissons Ratio (y) = 0.19543 0.14527
# Poissons Ratio (z) = 0.35239 0.26816
#
# Static dielectric constant tensor:
#      x y z
#    x 3.060030 0.000000 0.000000 
#    y 0.000000 3.618240 0.000000 
#    z 0.000000 0.000000 3.603540 
# 
# 
# High freq. dielectric constant tensor:
#      x y z
#    x 1.670540 0.000000 0.000000 
#    y 0.000000 1.718170 0.000000 
#    z 0.000000 0.000000 1.721870 
# 
# From -- ./inp_files/11472.got.cif
#   From: 2010.03.12/outbox.cif.g09.slc.cpg/sg59_6_cif.got.tgz:11472.got - 2010.04.16 16:29:54.
