data_PCOD8240673
_publ_section_title
;
Structure prediction by ZEFSAII (Michael W. Deem and Ramdas Pophale) SiO2 
 PCOD8240673
Probable space group: P M M N
;
_chemical_formula_sum "Si O2"
_cell_formula_units_Z 48
_cell_length_a 9.375307
_cell_length_b 19.238127
_cell_length_c 14.748094
_cell_angle_alpha 90.000000
_cell_angle_beta 90.000000
_cell_angle_gamma 90.000000
_cell_volume 2660.015592
_symmetry_space_group_name_H-M "P M M N"
_symmetry_group_IT_number 59
_space_group.IT_coordinate_system_code '2'
_symmetry_cell_setting 'orthorhombic'
loop_
_space_group_symop_operation_xyz
x,y,z
1/2-x,1/2-y,z
1/2+x,-y,-z
-x,1/2+y,-z
-x,-y,-z
1/2+x,1/2+y,-z
1/2-x,y,z
x,1/2-y,z
loop_
_atom_site_type_symbol
_atom_site_label
_atom_site_fract_x
_atom_site_fract_y
_atom_site_fract_z
Si Si1 0.411226 0.327474 0.190113
Si Si2 0.914833 0.461423 0.871427
Si Si3 0.081540 0.561503 0.328375
Si Si4 0.083627 0.091715 0.370424
Si Si5 0.919110 0.330088 0.525627
Si Si6 0.414137 0.592893 0.939499
O O1 0.250000 0.337071 0.155870
O O2 0.436925 0.250000 0.227714
O O3 0.446087 0.381535 0.269336
O O4 0.514153 0.339209 0.104002
O O5 0.750000 0.485769 0.863129
O O6 0.970093 0.429901 0.775913
O O7 0.008624 0.527074 0.896333
O O8 0.931810 0.404374 0.951250
O O9 0.250000 0.561901 0.329616
O O10 0.030458 0.488386 0.372440
O O11 0.024221 0.626173 0.387498
O O12 0.250000 0.099080 0.396145
O O13 0.991608 0.138329 0.437292
O O14 0.750000 0.336795 0.513848
O O15 0.965100 0.250000 0.538669
O O16 0.250000 0.589530 0.911328
#
# Coordination Sequence:
#
# PCOD8240673 Si02
#       6
#     8   8   8   8   8   8
#     4  10  20  34  52  73 102 142 178 209 256 315
#     4   9  17  33  54  74 100 134 172 209 249 303
#     4   9  17  33  56  77  99 133 175 213 248 301
#     4  10  19  34  56  76  96 132 179 217 251 304
#     4  10  21  35  51  75 106 135 164 208 266 312
#     4  10  19  30  50  79 106 132 165 212 263 302
#
# _framework density 18.045006000000001
#
# number of rings (size 3 to 8) (size 9 to 14) (size 15 to 20)
#    0.000    2.333    1.667    1.500    0.000    2.667 
#    0.000    1.667    0.000    3.000    0.000    0.000 
#    0.000    0.000    0.000    0.000    0.000    0.000 
#
# Total GULP energy -595056.752018 kJ/mol
# GULP energy per Si atom -12397.015667 kJ/mol
# Density = 1.800394 g / cm^3
# Si number density = 18.045006 Si / 1000 Ang^3
#
#
#
# Elastic Constant Matrix: (Units=GPa)
#
#
# Indices 1 2 3 4 5 6 
#
# 1 56.8372 32.7768 47.2352 0.0000 0.0000 0.0000
# 2 32.7768 119.2719 61.4265 0.0000 0.0000 0.0000
# 3 47.2352 61.4265 107.5906 0.0000 0.0000 0.0000
# 4 0.0000 0.0000 0.0000 25.2853 0.0000 0.0000
# 5 0.0000 0.0000 0.0000 0.0000 26.9127 0.0000
# 6 0.0000 0.0000 0.0000 0.0000 0.0000 24.3172
#
#
#
# Elastic Compliance Matrix: (Units=1/GPa)
#
#
# Indices 1 2 3 4 5 6 
#
# 1 0.028012 -0.001932 -0.011195 0.000000 0.000000 0.000000
# 2 -0.001932 0.012010 -0.006008 0.000000 0.000000 0.000000
# 3 -0.011195 -0.006008 0.017640 0.000000 0.000000 0.000000
# 4 0.000000 0.000000 0.000000 0.039549 0.000000 0.000000
# 5 0.000000 0.000000 0.000000 0.000000 0.037157 0.000000
# 6 0.000000 0.000000 0.000000 0.000000 0.000000 0.041123
#
#
# Mechanical properties :
#
#
# Convention : Reuss Voigt Hill
#
# Bulk Modulus (GPa) = 51.57212 62.95296 57.26254
# Shear Modulus (GPa) = 22.70411 24.78711 23.74561
#
# Velocity S-wave (km/s) = 3.55095 3.71027 3.63148
# Velocity P-wave (km/s) = 6.74197 7.30186 7.02749
#
# Compressibility (1/GPa) = 0.01939032
#
# Stress axis : x y z
#
# Youngs Moduli (GPa) = 35.69897 83.26698 56.69089
#
# Poissons Ratio (x) = 0.16091 0.63464
# Poissons Ratio (y) = 0.06899 0.34061
# Poissons Ratio (z) = 0.39964 0.50028
#
# Static dielectric constant tensor:
#      x y z
#    x 3.277890 0.000000 0.000000 
#    y 0.000000 3.430150 0.000000 
#    z 0.000000 0.000000 3.645250 
# 
# 
# High freq. dielectric constant tensor:
#      x y z
#    x 1.680370 0.000000 0.000000 
#    y 0.000000 1.688990 0.000000 
#    z 0.000000 0.000000 1.704930 
# 
# From -- ./inp_files/20375.got.cif
#   From: 2010.03.12/outbox.cif.g09.slc.cpg/sg59_11_cif.got.tgz:20375.got - 2010.04.16 16:29:54.
