data_PCOD8240025
_publ_section_title
;
Structure prediction by ZEFSAII (Michael W. Deem and Ramdas Pophale) SiO2 
 PCOD8240025
Probable space group: P M M N
;
_chemical_formula_sum "Si O2"
_cell_formula_units_Z 64
_cell_length_a 8.877890
_cell_length_b 19.954888
_cell_length_c 19.914262
_cell_angle_alpha 90.000000
_cell_angle_beta 90.000000
_cell_angle_gamma 90.000000
_cell_volume 3527.956900
_symmetry_space_group_name_H-M "P M M N"
_symmetry_group_IT_number 59
_space_group.IT_coordinate_system_code '2'
_symmetry_cell_setting 'orthorhombic'
loop_
_space_group_symop_operation_xyz
x,y,z
1/2-x,1/2-y,z
1/2+x,-y,-z
-x,1/2+y,-z
-x,-y,-z
1/2+x,1/2+y,-z
1/2-x,y,z
x,1/2-y,z
loop_
_atom_site_type_symbol
_atom_site_label
_atom_site_fract_x
_atom_site_fract_y
_atom_site_fract_z
Si Si1 0.576577 0.894000 0.699505
Si Si2 0.928550 0.062405 0.818557
Si Si3 0.422967 0.954127 0.327765
Si Si4 0.423203 0.326992 0.061123
Si Si5 0.423330 0.826313 0.579973
Si Si6 0.577228 0.826767 0.094669
Si Si7 0.929293 0.432921 0.527768
Si Si8 0.072877 0.922976 0.836487
O O1 0.750000 0.879525 0.715980
O O2 0.517342 0.839272 0.647242
O O3 0.486055 0.888345 0.768696
O O4 0.552813 0.966291 0.666072
O O5 0.750000 0.051736 0.817103
O O6 0.994322 0.072096 0.742388
O O7 0.968939 0.126922 0.861684
O O8 0.999209 0.995388 0.850043
O O9 0.250000 0.934576 0.324642
O O10 0.491000 0.921215 0.395700
O O11 0.250000 0.343387 0.078584
O O12 0.459358 0.250000 0.078974
O O13 0.533384 0.374815 0.101920
O O14 0.455031 0.340494 0.983091
O O15 0.250000 0.843029 0.595868
O O16 0.446211 0.750000 0.557819
O O17 0.481937 0.870782 0.517711
O O18 0.750000 0.843395 0.111901
O O19 0.540297 0.750000 0.112721
O O20 0.750000 0.441417 0.528561
O O21 0.000000 0.500000 0.500000
O O22 0.250000 0.932462 0.831922
#
# Coordination Sequence:
#
# PCOD8240025 Si02
#       8
#     8   8   8   8   8   8   8   8
#     4  10  19  34  54  74 101 138 177 217 261 316
#     4  10  20  35  55  81 112 144 182 226 268 321
#     4   8  16  31  51  76 103 129 169 219 261 306
#     4   9  19  37  58  78 104 141 183 224 270 327
#     4  10  21  34  49  75 109 140 174 220 270 320
#     4   9  19  37  59  81 107 141 181 226 277 328
#     4  10  18  32  54  77 101 134 177 221 265 315
#     4  11  22  35  54  81 112 143 177 222 272 320
#
# _framework density 18.140809999999998
#
# number of rings (size 3 to 8) (size 9 to 14) (size 15 to 20)
#    0.000    2.375    1.250    3.375    0.000    2.250 
#    0.000    2.500    0.000    2.250    0.000    0.000 
#    0.000    0.000    0.000    0.000    0.000    0.000 
#
# Total GULP energy -793497.822641 kJ/mol
# GULP energy per Si atom -12398.403479 kJ/mol
# Density = 1.809952 g / cm^3
# Si number density = 18.140810 Si / 1000 Ang^3
#
#
#
# Elastic Constant Matrix: (Units=GPa)
#
#
# Indices 1 2 3 4 5 6 
#
# 1 79.1603 43.1852 43.6545 0.0000 0.0000 0.0000
# 2 43.1852 98.7321 66.1269 0.0000 0.0000 0.0000
# 3 43.6545 66.1269 110.0684 0.0000 0.0000 0.0000
# 4 0.0000 0.0000 0.0000 31.4197 0.0000 0.0000
# 5 0.0000 0.0000 0.0000 0.0000 25.2494 0.0000
# 6 0.0000 0.0000 0.0000 0.0000 0.0000 28.4081
#
#
#
# Elastic Compliance Matrix: (Units=1/GPa)
#
#
# Indices 1 2 3 4 5 6 
#
# 1 0.017552 -0.005045 -0.003931 0.000000 0.000000 0.000000
# 2 -0.005045 0.018398 -0.009052 0.000000 0.000000 0.000000
# 3 -0.003931 -0.009052 0.016083 0.000000 0.000000 0.000000
# 4 0.000000 0.000000 0.000000 0.031827 0.000000 0.000000
# 5 0.000000 0.000000 0.000000 0.000000 0.039605 0.000000
# 6 0.000000 0.000000 0.000000 0.000000 0.000000 0.035201
#
#
# Mechanical properties :
#
#
# Convention : Reuss Voigt Hill
#
# Bulk Modulus (GPa) = 62.58819 65.98821 64.28820
# Shear Modulus (GPa) = 24.99409 26.01505 25.50457
#
# Velocity S-wave (km/s) = 3.71588 3.79101 3.75363
# Velocity P-wave (km/s) = 7.27919 7.45767 7.36897
#
# Compressibility (1/GPa) = 0.01597745
#
# Stress axis : x y z
#
# Youngs Moduli (GPa) = 56.97233 54.35434 62.17888
#
# Poissons Ratio (x) = 0.27420 0.24441
# Poissons Ratio (y) = 0.28741 0.56286
# Poissons Ratio (z) = 0.22394 0.49203
#
# Static dielectric constant tensor:
#      x y z
#    x 3.209850 0.000000 0.000000 
#    y 0.000000 3.191070 0.000000 
#    z 0.000000 0.000000 3.622200 
# 
# 
# High freq. dielectric constant tensor:
#      x y z
#    x 1.691040 0.000000 0.000000 
#    y 0.000000 1.688890 0.000000 
#    z 0.000000 0.000000 1.713160 
# 
# From -- ./inp_files/26354.got.cif
#   From: 2010.03.12/outbox.cif.g09.slc.cpg/sg59_14_cif.got.tgz:26354.got - 2010.04.16 16:29:54.
