data_PCOD8240198
_publ_section_title
;
Structure prediction by ZEFSAII (Michael W. Deem and Ramdas Pophale) SiO2 
 PCOD8240198
Probable space group: P M M N
;
_chemical_formula_sum "Si O2"
_cell_formula_units_Z 64
_cell_length_a 18.926845
_cell_length_b 9.195809
_cell_length_c 19.863596
_cell_angle_alpha 90.000000
_cell_angle_beta 90.000000
_cell_angle_gamma 90.000000
_cell_volume 3457.212236
_symmetry_space_group_name_H-M "P M M N"
_symmetry_group_IT_number 59
_space_group.IT_coordinate_system_code '2'
_symmetry_cell_setting 'orthorhombic'
loop_
_space_group_symop_operation_xyz
x,y,z
1/2-x,1/2-y,z
1/2+x,-y,-z
-x,1/2+y,-z
-x,-y,-z
1/2+x,1/2+y,-z
1/2-x,y,z
x,1/2-y,z
loop_
_atom_site_type_symbol
_atom_site_label
_atom_site_fract_x
_atom_site_fract_y
_atom_site_fract_z
Si Si1 0.593213 0.918719 0.096400
Si Si2 0.171455 0.577951 0.393076
Si Si3 0.330529 0.577591 0.023135
Si Si4 0.421748 0.917765 0.663901
Si Si5 0.939044 0.077804 0.866961
Si Si6 0.169162 0.416216 0.764587
Si Si7 0.059037 0.577520 0.284606
Si Si8 0.572185 0.082572 0.489548
O O1 0.600072 0.750000 0.076566
O O2 0.511927 0.971906 0.097635
O O3 0.623423 0.949307 0.169913
O O4 0.636992 0.012101 0.044013
O O5 0.250000 0.508591 0.389767
O O6 0.177868 0.750000 0.397321
O O7 0.128832 0.532692 0.325976
O O8 0.131247 0.519145 0.459528
O O9 0.250000 0.525155 0.031665
O O10 0.335521 0.750000 0.017070
O O11 0.374075 0.520386 0.087934
O O12 0.434605 0.750000 0.682153
O O13 0.400454 0.937679 0.586184
O O14 0.355753 0.978581 0.705407
O O15 0.492132 0.006176 0.680008
O O16 0.937916 0.250000 0.862204
O O17 0.932194 0.015981 0.791235
O O18 0.250000 0.450426 0.781771
O O19 0.158596 0.250000 0.741394
O O20 0.046570 0.750000 0.285008
O O21 0.557263 0.250000 0.506928
O O22 0.500000 0.000000 0.500000
#
# Coordination Sequence:
#
# PCOD8240198 Si02
#       8
#     8   8   8   8   8   8   8   8
#     4  10  19  35  58  79 102 138 184 225 261 316
#     4   9  18  32  54  84 110 138 181 229 273 316
#     4  10  21  35  51  77 113 143 170 216 276 328
#     4  11  22  34  53  82 112 144 180 223 276 327
#     4   9  18  33  55  80 104 136 180 222 264 315
#     4  10  21  37  57  80 107 142 183 223 265 320
#     4  10  18  34  59  80 105 144 185 227 268 321
#     4  10  20  34  55  80 109 145 183 225 267 321
#
# _framework density 18.512025000000001
#
# number of rings (size 3 to 8) (size 9 to 14) (size 15 to 20)
#    0.000    2.125    2.500    1.125    0.000    3.000 
#    0.000    4.375    0.000    1.500    0.000    0.000 
#    0.000    0.000    0.000    0.000    0.000    0.000 
#
# Total GULP energy -793655.318037 kJ/mol
# GULP energy per Si atom -12400.864344 kJ/mol
# Density = 1.846989 g / cm^3
# Si number density = 18.512025 Si / 1000 Ang^3
#
#
#
# Elastic Constant Matrix: (Units=GPa)
#
#
# Indices 1 2 3 4 5 6 
#
# 1 145.7932 26.7205 56.8668 0.0000 0.0000 0.0000
# 2 26.7205 34.3571 32.1493 0.0000 0.0000 0.0000
# 3 56.8668 32.1493 91.7871 0.0000 0.0000 0.0000
# 4 0.0000 0.0000 0.0000 25.5746 0.0000 0.0000
# 5 0.0000 0.0000 0.0000 0.0000 32.5629 0.0000
# 6 0.0000 0.0000 0.0000 0.0000 0.0000 22.7184
#
#
#
# Elastic Compliance Matrix: (Units=1/GPa)
#
#
# Indices 1 2 3 4 5 6 
#
# 1 0.009212 -0.002713 -0.004757 0.000000 0.000000 0.000000
# 2 -0.002713 0.044096 -0.013764 0.000000 0.000000 0.000000
# 3 -0.004757 -0.013764 0.018663 0.000000 0.000000 0.000000
# 4 0.000000 0.000000 0.000000 0.039101 0.000000 0.000000
# 5 0.000000 0.000000 0.000000 0.000000 0.030710 0.000000
# 6 0.000000 0.000000 0.000000 0.000000 0.000000 0.044017
#
#
# Mechanical properties :
#
#
# Convention : Reuss Voigt Hill
#
# Bulk Modulus (GPa) = 33.89561 55.93451 44.91506
# Shear Modulus (GPa) = 20.99956 26.58458 23.79207
#
# Velocity S-wave (km/s) = 3.37170 3.79366 3.58889
# Velocity P-wave (km/s) = 5.78858 7.03349 6.44118
#
# Compressibility (1/GPa) = 0.02950235
#
# Stress axis : x y z
#
# Youngs Moduli (GPa) = 108.55791 22.67801 53.58235
#
# Poissons Ratio (x) = 0.06153 0.25488
# Poissons Ratio (y) = 0.29452 0.73751
# Poissons Ratio (z) = 0.51639 0.31214
#
# Static dielectric constant tensor:
#      x y z
#    x 3.639180 0.000000 0.000000 
#    y 0.000000 3.164740 0.000000 
#    z 0.000000 0.000000 3.692140 
# 
# 
# High freq. dielectric constant tensor:
#      x y z
#    x 1.725890 0.000000 0.000000 
#    y 0.000000 1.684520 0.000000 
#    z 0.000000 0.000000 1.730690 
# 
# From -- ./inp_files/30749.got.cif
#   From: 2010.03.12/outbox.cif.g09.slc.cpg/sg59_16_cif.got.tgz:30749.got - 2010.04.16 16:29:54.
