data_PCOD8240703
_publ_section_title
;
Structure prediction by ZEFSAII (Michael W. Deem and Ramdas Pophale) SiO2 
 PCOD8240703
Probable space group: P M M N
;
_chemical_formula_sum "Si O2"
_cell_formula_units_Z 56
_cell_length_a 19.534484
_cell_length_b 9.129426
_cell_length_c 18.892659
_cell_angle_alpha 90.000000
_cell_angle_beta 90.000000
_cell_angle_gamma 90.000000
_cell_volume 3369.290850
_symmetry_space_group_name_H-M "P M M N"
_symmetry_group_IT_number 59
_space_group.IT_coordinate_system_code '2'
_symmetry_cell_setting 'orthorhombic'
loop_
_space_group_symop_operation_xyz
x,y,z
1/2-x,1/2-y,z
1/2+x,-y,-z
-x,1/2+y,-z
-x,-y,-z
1/2+x,1/2+y,-z
1/2-x,y,z
x,1/2-y,z
loop_
_atom_site_type_symbol
_atom_site_label
_atom_site_fract_x
_atom_site_fract_y
_atom_site_fract_z
Si Si1 0.432646 0.578007 0.472800
Si Si2 0.953547 0.582989 0.661158
Si Si3 0.470006 0.575415 0.931303
Si Si4 0.011445 0.915510 0.206659
Si Si5 0.887638 0.411878 0.380057
Si Si6 0.324132 0.582108 0.880579
Si Si7 0.143763 0.410917 0.746351
O O1 0.500000 0.500000 0.500000
O O2 0.446910 0.750000 0.459472
O O3 0.409235 0.500865 0.399552
O O4 0.376988 0.555688 0.535963
O O5 0.927624 0.750000 0.668629
O O6 0.941545 0.498766 0.735612
O O7 0.032449 0.577964 0.639089
O O8 0.480059 0.750000 0.934593
O O9 0.511668 0.510700 0.864969
O O10 0.389155 0.529629 0.927059
O O11 0.500000 0.500000 0.000000
O O12 0.039085 0.750000 0.192390
O O13 0.936019 0.906683 0.237438
O O14 0.860817 0.250000 0.362406
O O15 0.843917 0.521509 0.331559
O O16 0.250000 0.559402 0.919867
O O17 0.336866 0.750000 0.861554
O O18 0.317795 0.501095 0.806160
O O19 0.175908 0.250000 0.745584
#
# Coordination Sequence:
#
# PCOD8240703 Si02
#       7
#     8   8   8   8   8   8   8
#     4   9  15  21  29  43  64  93 129 167 205 243
#     4   9  15  22  32  47  68  96 130 167 206 246
#     4  10  19  31  47  66  88 113 144 180 220 269
#     4   9  16  26  39  55  76 103 136 171 208 252
#     4   8  14  22  31  44  66  97 131 165 200 240
#     4   9  18  32  48  64  84 113 146 178 214 259
#     4   9  16  24  37  56  76 100 132 171 210 246
#
# _framework density 16.620708
#
# number of rings (size 3 to 8) (size 9 to 14) (size 15 to 20)
#    0.000    3.000    0.000    3.000    0.000    8.286 
#    0.000    0.000    0.000    0.000    0.000    0.000 
#    0.000    0.000    0.000    1.286    0.000   24.286 
#
# Total GULP energy -693792.402584 kJ/mol
# GULP energy per Si atom -12389.150046 kJ/mol
# Density = 1.658288 g / cm^3
# Si number density = 16.620708 Si / 1000 Ang^3
#
#
#
# Elastic Constant Matrix: (Units=GPa)
#
#
# Indices 1 2 3 4 5 6 
#
# 1 33.4650 24.1631 32.8965 0.0000 0.0000 0.0000
# 2 24.1631 115.4339 67.6254 0.0000 0.0000 0.0000
# 3 32.8965 67.6254 136.8076 0.0000 0.0000 0.0000
# 4 0.0000 0.0000 0.0000 35.5734 0.0000 0.0000
# 5 0.0000 0.0000 0.0000 0.0000 8.7442 0.0000
# 6 0.0000 0.0000 0.0000 0.0000 0.0000 6.6969
#
#
#
# Elastic Compliance Matrix: (Units=1/GPa)
#
#
# Indices 1 2 3 4 5 6 
#
# 1 0.040333 -0.003887 -0.007777 0.000000 0.000000 0.000000
# 2 -0.003887 0.012569 -0.005278 0.000000 0.000000 0.000000
# 3 -0.007777 -0.005278 0.011789 0.000000 0.000000 0.000000
# 4 0.000000 0.000000 0.000000 0.028111 0.000000 0.000000
# 5 0.000000 0.000000 0.000000 0.000000 0.114361 0.000000
# 6 0.000000 0.000000 0.000000 0.000000 0.000000 0.149322
#
#
# Mechanical properties :
#
#
# Convention : Reuss Voigt Hill
#
# Bulk Modulus (GPa) = 32.46062 59.45293 45.95678
# Shear Modulus (GPa) = 12.48009 20.93768 16.70889
#
# Velocity S-wave (km/s) = 2.74318 3.55312 3.17409
# Velocity P-wave (km/s) = 5.44114 7.25817 6.41432
#
# Compressibility (1/GPa) = 0.03080656
#
# Stress axis : x y z
#
# Youngs Moduli (GPa) = 24.79338 79.56249 84.82647
#
# Poissons Ratio (x) = 0.30922 0.65972
# Poissons Ratio (y) = 0.09636 0.44774
# Poissons Ratio (z) = 0.19283 0.41996
#
# Static dielectric constant tensor:
#      x y z
#    x 2.643010 0.000000 0.000000 
#    y 0.000000 3.402720 0.000000 
#    z 0.000000 0.000000 3.353400 
# 
# 
# High freq. dielectric constant tensor:
#      x y z
#    x 1.562650 0.000000 0.000000 
#    y 0.000000 1.658990 0.000000 
#    z 0.000000 0.000000 1.637130 
# 
# From -- ./inp_files/26369.got.cif
#   From: 2010.03.12/outbox.cif.g09.slc.cpg/sg59_14_cif.got.tgz:26369.got - 2010.04.16 16:29:54.
