data_PCOD8240123
_publ_section_title
;
Structure prediction by ZEFSAII (Michael W. Deem and Ramdas Pophale) SiO2 
 PCOD8240123
Probable space group: P M M N
;
_chemical_formula_sum "Si O2"
_cell_formula_units_Z 64
_cell_length_a 8.810948
_cell_length_b 18.149194
_cell_length_c 21.672983
_cell_angle_alpha 90.000000
_cell_angle_beta 90.000000
_cell_angle_gamma 90.000000
_cell_volume 3465.761487
_symmetry_space_group_name_H-M "P M M N"
_symmetry_group_IT_number 59
_space_group.IT_coordinate_system_code '2'
_symmetry_cell_setting 'orthorhombic'
loop_
_space_group_symop_operation_xyz
x,y,z
1/2-x,1/2-y,z
1/2+x,-y,-z
-x,1/2+y,-z
-x,-y,-z
1/2+x,1/2+y,-z
1/2-x,y,z
x,1/2-y,z
loop_
_atom_site_type_symbol
_atom_site_label
_atom_site_fract_x
_atom_site_fract_y
_atom_site_fract_z
Si Si1 0.571559 0.915580 0.373439
Si Si2 0.430120 0.977140 0.064268
Si Si3 0.570584 0.168013 0.270888
Si Si4 0.428019 0.956144 0.819722
Si Si5 0.927925 0.169660 0.873385
Si Si6 0.072576 0.911917 0.248057
Si Si7 0.429669 0.917359 0.610413
Si Si8 0.427996 0.334330 0.502588
O O1 0.750000 0.913024 0.359880
O O2 0.482677 0.883378 0.314356
O O3 0.525801 0.864239 0.430396
O O4 0.514584 0.998456 0.386576
O O5 0.250000 0.978618 0.060145
O O6 0.491780 0.895372 0.082556
O O7 0.481954 0.034868 0.116385
O O8 0.500000 0.000000 0.000000
O O9 0.750000 0.172195 0.278658
O O10 0.500318 0.250000 0.265830
O O11 0.530503 0.123623 0.208510
O O12 0.502599 0.127342 0.331178
O O13 0.250000 0.964357 0.832767
O O14 0.477662 0.015474 0.768862
O O15 0.750000 0.174018 0.884260
O O16 0.000825 0.250000 0.889105
O O17 0.963107 0.151202 0.802120
O O18 0.250000 0.931755 0.248092
O O19 0.250000 0.914246 0.610560
O O20 0.487169 0.882145 0.547751
O O21 0.250000 0.342829 0.491628
O O22 0.481024 0.250000 0.497516
#
# Coordination Sequence:
#
# PCOD8240123 Si02
#       8
#     8   8   8   8   8   8   8   8
#     4  10  20  35  53  73 100 136 175 213 261 320
#     4  10  20  35  57  83 109 143 182 219 257 302
#     4   9  17  30  51  78 103 131 172 218 261 307
#     4  10  18  33  55  77 107 141 171 210 257 310
#     4   8  16  32  53  78 107 137 173 216 256 297
#     4  10  19  31  52  80 106 133 169 215 261 308
#     4  10  19  34  55  75  96 131 178 223 259 307
#     4  10  22  37  50  70 103 137 169 215 274 327
#
# _framework density 18.466360000000002
#
# number of rings (size 3 to 8) (size 9 to 14) (size 15 to 20)
#    0.000    2.375    1.250    2.625    0.000    2.250 
#    0.000    0.625    0.000   19.125    0.000    0.000 
#    0.000    0.000    0.000    0.000    0.000    0.000 
#
# Total GULP energy -793522.240804 kJ/mol
# GULP energy per Si atom -12398.785013 kJ/mol
# Density = 1.842433 g / cm^3
# Si number density = 18.466360 Si / 1000 Ang^3
#
#
#
# Elastic Constant Matrix: (Units=GPa)
#
#
# Indices 1 2 3 4 5 6 
#
# 1 39.4728 21.3659 30.0402 0.0000 0.0000 0.0000
# 2 21.3659 91.0189 41.7738 0.0000 0.0000 0.0000
# 3 30.0402 41.7738 126.8758 0.0000 0.0000 0.0000
# 4 0.0000 0.0000 0.0000 22.3728 0.0000 0.0000
# 5 0.0000 0.0000 0.0000 0.0000 33.9069 0.0000
# 6 0.0000 0.0000 0.0000 0.0000 0.0000 17.0935
#
#
#
# Elastic Compliance Matrix: (Units=1/GPa)
#
#
# Indices 1 2 3 4 5 6 
#
# 1 0.032620 -0.004845 -0.006128 0.000000 0.000000 0.000000
# 2 -0.004845 0.013662 -0.003351 0.000000 0.000000 0.000000
# 3 -0.006128 -0.003351 0.010436 0.000000 0.000000 0.000000
# 4 0.000000 0.000000 0.000000 0.044697 0.000000 0.000000
# 5 0.000000 0.000000 0.000000 0.000000 0.029492 0.000000
# 6 0.000000 0.000000 0.000000 0.000000 0.000000 0.058502
#
#
# Mechanical properties :
#
#
# Convention : Reuss Voigt Hill
#
# Bulk Modulus (GPa) = 35.62531 49.30304 42.46417
# Shear Modulus (GPa) = 21.98628 25.62048 23.80338
#
# Velocity S-wave (km/s) = 3.45427 3.72884 3.59418
# Velocity P-wave (km/s) = 5.93660 6.73022 6.34582
#
# Compressibility (1/GPa) = 0.02806993
#
# Stress axis : x y z
#
# Youngs Moduli (GPa) = 30.65598 73.19574 95.82155
#
# Poissons Ratio (x) = 0.35461 0.58722
# Poissons Ratio (y) = 0.14852 0.32111
# Poissons Ratio (z) = 0.18787 0.24529
#
# Static dielectric constant tensor:
#      x y z
#    x 3.163470 0.000000 0.000000 
#    y 0.000000 3.763070 0.000000 
#    z 0.000000 0.000000 3.409230 
# 
# 
# High freq. dielectric constant tensor:
#      x y z
#    x 1.693350 0.000000 0.000000 
#    y 0.000000 1.716890 0.000000 
#    z 0.000000 0.000000 1.718130 
# 
# From -- ./inp_files/29490.got.cif
#   From: 2010.03.12/outbox.cif.g09.slc.cpg/sg59_15_cif.got.tgz:29490.got - 2010.04.16 16:29:54.
