data_PCOD8240719
_publ_section_title
;
Structure prediction by ZEFSAII (Michael W. Deem and Ramdas Pophale) SiO2 
 PCOD8240719
Probable space group: P M M N
;
_chemical_formula_sum "Si O2"
_cell_formula_units_Z 64
_cell_length_a 30.253826
_cell_length_b 8.772850
_cell_length_c 14.483625
_cell_angle_alpha 90.000000
_cell_angle_beta 90.000000
_cell_angle_gamma 90.000000
_cell_volume 3844.131897
_symmetry_space_group_name_H-M "P M M N"
_symmetry_group_IT_number 59
_space_group.IT_coordinate_system_code '2'
_symmetry_cell_setting 'orthorhombic'
loop_
_space_group_symop_operation_xyz
x,y,z
1/2-x,1/2-y,z
1/2+x,-y,-z
-x,1/2+y,-z
-x,-y,-z
1/2+x,1/2+y,-z
1/2-x,y,z
x,1/2-y,z
loop_
_atom_site_type_symbol
_atom_site_label
_atom_site_fract_x
_atom_site_fract_y
_atom_site_fract_z
Si Si1 0.119052 0.571156 0.425148
Si Si2 0.611289 0.571740 0.936230
Si Si3 0.299626 0.072184 0.355506
Si Si4 0.575485 0.078608 0.762371
Si Si5 0.040400 0.569926 0.941751
Si Si6 0.701315 0.568839 0.852115
Si Si7 0.458603 0.568461 0.554474
Si Si8 0.472827 0.077348 0.746501
O O1 0.122478 0.750000 0.431556
O O2 0.168125 0.501759 0.431867
O O3 0.101136 0.517490 0.326171
O O4 0.086347 0.512282 0.504624
O O5 0.609273 0.750000 0.959508
O O6 0.583625 0.540751 0.843626
O O7 0.662114 0.514378 0.920971
O O8 0.588097 0.478732 0.018043
O O9 0.250000 0.033920 0.387379
O O10 0.308565 0.250000 0.354502
O O11 0.307470 0.005963 0.251552
O O12 0.590171 0.250000 0.791926
O O13 0.524875 0.079910 0.734416
O O14 0.035185 0.750000 0.947085
O O15 0.040593 0.514809 0.837126
O O16 0.000000 0.500000 0.000000
O O17 0.750000 0.512745 0.886994
O O18 0.701113 0.750000 0.847039
O O19 0.500000 0.500000 0.500000
O O20 0.463570 0.750000 0.553859
O O21 0.453218 0.507532 0.657902
O O22 0.454348 0.250000 0.752652
#
# Coordination Sequence:
#
# PCOD8240719 Si02
#       8
#     8   8   8   8   8   8   8   8
#     4  10  20  33  48  71 103 137 172 206 250 299
#     4  11  20  31  51  76 100 136 176 208 251 303
#     4   9  17  30  48  72 101 132 168 209 251 298
#     4  10  19  31  47  69 103 137 167 210 250 291
#     4  12  24  37  52  73 102 136 172 213 254 301
#     4   8  15  28  46  71 102 132 165 206 249 297
#     4  11  22  36  52  74 103 138 176 214 254 301
#     4  11  22  38  54  73 101 134 173 218 256 300
#
# _framework density 16.648752999999999
#
# number of rings (size 3 to 8) (size 9 to 14) (size 15 to 20)
#    0.000    1.750    3.750    3.000    0.000    1.750 
#    0.000    0.000    0.000    1.500    0.000    0.875 
#    0.000    5.000    0.000    0.000    0.000    0.000 
#
# Total GULP energy -793402.932174 kJ/mol
# GULP energy per Si atom -12396.920815 kJ/mol
# Density = 1.661086 g / cm^3
# Si number density = 16.648753 Si / 1000 Ang^3
#
#
#
# Elastic Constant Matrix: (Units=GPa)
#
#
# Indices 1 2 3 4 5 6 
#
# 1 110.5910 34.6190 53.2613 0.0000 0.0000 0.0000
# 2 34.6190 71.4556 39.2348 0.0000 0.0000 0.0000
# 3 53.2613 39.2348 97.2449 0.0000 0.0000 0.0000
# 4 0.0000 0.0000 0.0000 26.6147 0.0000 0.0000
# 5 0.0000 0.0000 0.0000 0.0000 24.5875 0.0000
# 6 0.0000 0.0000 0.0000 0.0000 0.0000 23.8429
#
#
#
# Elastic Compliance Matrix: (Units=1/GPa)
#
#
# Indices 1 2 3 4 5 6 
#
# 1 0.012768 -0.003014 -0.005777 0.000000 0.000000 0.000000
# 2 -0.003014 0.018689 -0.005890 0.000000 0.000000 0.000000
# 3 -0.005777 -0.005890 0.015824 0.000000 0.000000 0.000000
# 4 0.000000 0.000000 0.000000 0.037573 0.000000 0.000000
# 5 0.000000 0.000000 0.000000 0.000000 0.040671 0.000000
# 6 0.000000 0.000000 0.000000 0.000000 0.000000 0.041941
#
#
# Mechanical properties :
#
#
# Convention : Reuss Voigt Hill
#
# Bulk Modulus (GPa) = 55.80527 59.28020 57.54274
# Shear Modulus (GPa) = 24.65483 25.15411 24.90447
#
# Velocity S-wave (km/s) = 3.85240 3.89121 3.87185
# Velocity P-wave (km/s) = 7.30616 7.47478 7.39095
#
# Compressibility (1/GPa) = 0.01791945
#
# Stress axis : x y z
#
# Youngs Moduli (GPa) = 78.32046 53.50838 63.19638
#
# Poissons Ratio (x) = 0.16126 0.36509
# Poissons Ratio (y) = 0.23604 0.37220
# Poissons Ratio (z) = 0.45247 0.31514
#
# Static dielectric constant tensor:
#      x y z
#    x 3.491850 0.000000 0.000000 
#    y 0.000000 3.102790 0.000000 
#    z 0.000000 0.000000 3.068280 
# 
# 
# High freq. dielectric constant tensor:
#      x y z
#    x 1.638110 0.000000 0.000000 
#    y 0.000000 1.639880 0.000000 
#    z 0.000000 0.000000 1.615000 
# 
# From -- ./inp_files/25024.got.cif
#   From: 2010.03.12/outbox.cif.g09.slc.cpg/sg59_13_cif.got.tgz:25024.got - 2010.04.16 16:29:54.
