data_PCOD8240432
_publ_section_title
;
Structure prediction by ZEFSAII (Michael W. Deem and Ramdas Pophale) SiO2 
 PCOD8240432
Probable space group: P M M N
;
_chemical_formula_sum "Si O2"
_cell_formula_units_Z 64
_cell_length_a 22.324788
_cell_length_b 9.059885
_cell_length_c 19.801737
_cell_angle_alpha 90.000000
_cell_angle_beta 90.000000
_cell_angle_gamma 90.000000
_cell_volume 4005.099562
_symmetry_space_group_name_H-M "P M M N"
_symmetry_group_IT_number 59
_space_group.IT_coordinate_system_code '2'
_symmetry_cell_setting 'orthorhombic'
loop_
_space_group_symop_operation_xyz
x,y,z
1/2-x,1/2-y,z
1/2+x,-y,-z
-x,1/2+y,-z
-x,-y,-z
1/2+x,1/2+y,-z
1/2-x,y,z
x,1/2-y,z
loop_
_atom_site_type_symbol
_atom_site_label
_atom_site_fract_x
_atom_site_fract_y
_atom_site_fract_z
Si Si1 0.395867 0.423041 0.682090
Si Si2 0.384268 0.925776 0.819875
Si Si3 0.818400 0.921133 0.447950
Si Si4 0.180002 0.420949 0.940924
Si Si5 0.006508 0.916654 0.604089
Si Si6 0.912268 0.084098 0.528101
Si Si7 0.910986 0.085690 0.973144
Si Si8 0.997009 0.086735 0.100999
O O1 0.403839 0.250000 0.695439
O O2 0.369888 0.502751 0.747966
O O3 0.347969 0.456657 0.623908
O O4 0.460059 0.491346 0.662216
O O5 0.375624 0.750000 0.818071
O O6 0.452862 0.968375 0.839451
O O7 0.337622 0.991500 0.873443
O O8 0.750000 0.971560 0.443803
O O9 0.825575 0.750000 0.465574
O O10 0.849278 0.010796 0.508446
O O11 0.250000 0.441336 0.954315
O O12 0.162312 0.250000 0.931951
O O13 0.145588 0.485642 0.006178
O O14 0.995867 0.750000 0.629783
O O15 0.045188 0.917368 0.536525
O O16 0.942722 0.992758 0.588857
O O17 0.900888 0.250000 0.553438
O O18 0.888505 0.250000 0.954846
O O19 0.945476 0.018859 0.907933
O O20 0.957501 0.091481 0.033903
O O21 0.021523 0.250000 0.117191
#
# Coordination Sequence:
#
# PCOD8240432 Si02
#       8
#     8   8   8   8   8   8   8   8
#     4  10  19  30  44  62  86 116 149 184 217 252
#     4  10  20  32  45  62  85 115 149 183 217 253
#     4   9  18  31  44  59  83 116 150 180 212 253
#     4  10  20  32  45  61  84 116 150 181 214 253
#     4   9  16  27  43  61  82 108 138 174 217 262
#     4   9  16  26  42  63  83 104 135 176 220 260
#     4   9  16  26  43  64  83 105 135 174 218 258
#     4   8  15  27  42  60  82 107 136 172 215 260
#
# _framework density 15.979627000000001
#
# number of rings (size 3 to 8) (size 9 to 14) (size 15 to 20)
#    0.000    2.750    0.000    3.000    0.000    8.750 
#    0.000    1.250    0.000    0.000    0.000    0.000 
#    0.000    1.000    0.000    8.750    0.000    5.625 
#
# Total GULP energy -793474.586850 kJ/mol
# GULP energy per Si atom -12398.040420 kJ/mol
# Density = 1.594326 g / cm^3
# Si number density = 15.979627 Si / 1000 Ang^3
#
#
#
# Elastic Constant Matrix: (Units=GPa)
#
#
# Indices 1 2 3 4 5 6 
#
# 1 94.2430 57.6719 32.6034 0.0000 0.0000 0.0000
# 2 57.6719 112.2780 21.5874 0.0000 0.0000 0.0000
# 3 32.6034 21.5874 14.3951 0.0000 0.0000 0.0000
# 4 0.0000 0.0000 0.0000 22.5098 0.0000 0.0000
# 5 0.0000 0.0000 0.0000 0.0000 15.6542 0.0000
# 6 0.0000 0.0000 0.0000 0.0000 0.0000 26.2181
#
#
#
# Elastic Compliance Matrix: (Units=1/GPa)
#
#
# Indices 1 2 3 4 5 6 
#
# 1 0.051452 -0.005653 -0.108056 0.000000 0.000000 0.000000
# 2 -0.005653 0.013136 -0.006896 0.000000 0.000000 0.000000
# 3 -0.108056 -0.006896 0.324545 0.000000 0.000000 0.000000
# 4 0.000000 0.000000 0.000000 0.044425 0.000000 0.000000
# 5 0.000000 0.000000 0.000000 0.000000 0.063881 0.000000
# 6 0.000000 0.000000 0.000000 0.000000 0.000000 0.038142
#
#
# Mechanical properties :
#
#
# Convention : Reuss Voigt Hill
#
# Bulk Modulus (GPa) = 6.76029 49.40462 28.08245
# Shear Modulus (GPa) = 6.05255 20.14665 13.09960
#
# Velocity S-wave (km/s) = 1.94830 3.55459 2.86627
# Velocity P-wave (km/s) = 3.04974 6.91601 5.34472
#
# Compressibility (1/GPa) = 0.14792264
#
# Stress axis : x y z
#
# Youngs Moduli (GPa) = 19.43555 76.12701 3.08124
#
# Poissons Ratio (x) = 0.43033 0.33295
# Poissons Ratio (y) = 0.10987 0.02125
# Poissons Ratio (z) = 2.10013 0.52498
#
# Static dielectric constant tensor:
#      x y z
#    x 2.959840 0.000000 0.000000 
#    y 0.000000 3.268040 0.000000 
#    z 0.000000 0.000000 2.771490 
# 
# 
# High freq. dielectric constant tensor:
#      x y z
#    x 1.594250 0.000000 0.000000 
#    y 0.000000 1.632700 0.000000 
#    z 0.000000 0.000000 1.570110 
# 
# From -- ./inp_files/31032.got.cif
#   From: 2010.03.12/outbox.cif.g09.slc.cpg/sg59_16_cif.got.tgz:31032.got - 2010.04.16 16:29:54.
