data_PCOD8240010
_publ_section_title
;
Structure prediction by ZEFSAII (Michael W. Deem and Ramdas Pophale) SiO2 
 PCOD8240010
Probable space group: P M M N
;
_chemical_formula_sum "Si O2"
_cell_formula_units_Z 56
_cell_length_a 18.449427
_cell_length_b 14.069884
_cell_length_c 12.721461
_cell_angle_alpha 90.000000
_cell_angle_beta 90.000000
_cell_angle_gamma 90.000000
_cell_volume 3302.253356
_symmetry_space_group_name_H-M "P M M N"
_symmetry_group_IT_number 59
_space_group.IT_coordinate_system_code '2'
_symmetry_cell_setting 'orthorhombic'
loop_
_space_group_symop_operation_xyz
x,y,z
1/2-x,1/2-y,z
1/2+x,-y,-z
-x,1/2+y,-z
-x,-y,-z
1/2+x,1/2+y,-z
1/2-x,y,z
x,1/2-y,z
loop_
_atom_site_type_symbol
_atom_site_label
_atom_site_fract_x
_atom_site_fract_y
_atom_site_fract_z
Si Si1 0.665972 0.859890 0.577621
Si Si2 0.094393 0.858456 0.724778
Si Si3 0.166398 0.361624 0.840111
Si Si4 0.665744 0.528352 0.371551
Si Si5 0.417091 0.026414 0.017464
Si Si6 0.571740 0.860188 0.774302
Si Si7 0.665078 0.356503 0.054341
O O1 0.750000 0.876834 0.603566
O O2 0.650213 0.750000 0.552890
O O3 0.619670 0.895281 0.676682
O O4 0.640247 0.919088 0.476896
O O5 0.105124 0.750000 0.686528
O O6 0.121560 0.929566 0.634535
O O7 0.011582 0.880231 0.750230
O O8 0.142199 0.881082 0.827135
O O9 0.250000 0.382940 0.871001
O O10 0.150974 0.250000 0.837406
O O11 0.148066 0.402941 0.725747
O O12 0.112770 0.409441 0.923046
O O13 0.750000 0.503243 0.376504
O O14 0.403560 0.081248 0.125003
O O15 0.373296 0.927777 0.025915
O O16 0.500000 0.000000 0.000000
O O17 0.585899 0.750000 0.798923
O O18 0.750000 0.369481 0.044865
O O19 0.640161 0.250000 0.025151
#
# Coordination Sequence:
#
# PCOD8240010 Si02
#       7
#     8   8   8   8   8   8   8
#     4   9  19  35  54  75 102 139 177 212 257 319
#     4  10  19  33  52  77 105 136 174 219 265 312
#     4  10  20  32  49  76 105 132 167 217 273 319
#     4  10  18  32  53  77 104 134 171 218 268 315
#     4  12  21  33  52  76 108 139 173 215 266 318
#     4  10  21  36  53  76 107 143 179 215 260 318
#     4  10  20  34  52  74 102 137 178 219 260 312
#
# _framework density 16.958119
#
# number of rings (size 3 to 8) (size 9 to 14) (size 15 to 20)
#    0.000    1.857    2.857    1.714    0.000    4.857 
#    0.000    1.429    0.000    0.857    0.000    0.000 
#    0.000    0.000    0.000    0.000    0.000    0.000 
#
# Total GULP energy -694557.509372 kJ/mol
# GULP energy per Si atom -12402.812667 kJ/mol
# Density = 1.691952 g / cm^3
# Si number density = 16.958119 Si / 1000 Ang^3
#
#
#
# Elastic Constant Matrix: (Units=GPa)
#
#
# Indices 1 2 3 4 5 6 
#
# 1 58.7600 44.2802 51.4150 0.0000 0.0000 0.0000
# 2 44.2802 107.2978 65.5595 0.0000 0.0000 0.0000
# 3 51.4150 65.5595 125.4267 0.0000 0.0000 0.0000
# 4 0.0000 0.0000 0.0000 32.3270 0.0000 0.0000
# 5 0.0000 0.0000 0.0000 0.0000 21.2788 0.0000
# 6 0.0000 0.0000 0.0000 0.0000 0.0000 31.3806
#
#
#
# Elastic Compliance Matrix: (Units=1/GPa)
#
#
# Indices 1 2 3 4 5 6 
#
# 1 0.029819 -0.007107 -0.008509 0.000000 0.000000 0.000000
# 2 -0.007107 0.015387 -0.005129 0.000000 0.000000 0.000000
# 3 -0.008509 -0.005129 0.014142 0.000000 0.000000 0.000000
# 4 0.000000 0.000000 0.000000 0.030934 0.000000 0.000000
# 5 0.000000 0.000000 0.000000 0.000000 0.046995 0.000000
# 6 0.000000 0.000000 0.000000 0.000000 0.000000 0.031867
#
#
# Mechanical properties :
#
#
# Convention : Reuss Voigt Hill
#
# Bulk Modulus (GPa) = 55.99827 68.22156 62.10992
# Shear Modulus (GPa) = 23.08551 25.67928 24.38239
#
# Velocity S-wave (km/s) = 3.69362 3.89559 3.79595
# Velocity P-wave (km/s) = 7.16126 7.78145 7.47779
#
# Compressibility (1/GPa) = 0.01785769
#
# Stress axis : x y z
#
# Youngs Moduli (GPa) = 33.53540 64.99067 70.71301
#
# Poissons Ratio (x) = 0.46190 0.60168
# Poissons Ratio (y) = 0.23834 0.36270
# Poissons Ratio (z) = 0.28534 0.33335
#
# Static dielectric constant tensor:
#      x y z
#    x 3.197180 0.000000 0.000000 
#    y 0.000000 3.376730 0.000000 
#    z 0.000000 0.000000 3.090400 
# 
# 
# High freq. dielectric constant tensor:
#      x y z
#    x 1.657750 0.000000 0.000000 
#    y 0.000000 1.664800 0.000000 
#    z 0.000000 0.000000 1.635300 
# 
# From -- ./inp_files/16949.got.cif
#   From: 2010.03.12/outbox.cif.g09.slc.cpg/sg59_9_cif.got.tgz:16949.got - 2010.04.16 16:29:54.
