data_PCOD8240768
_publ_section_title
;
Structure prediction by ZEFSAII (Michael W. Deem and Ramdas Pophale) SiO2 
 PCOD8240768
Probable space group: P M M N
;
_chemical_formula_sum "Si O2"
_cell_formula_units_Z 64
_cell_length_a 13.820410
_cell_length_b 28.977668
_cell_length_c 8.988781
_cell_angle_alpha 90.000000
_cell_angle_beta 90.000000
_cell_angle_gamma 90.000000
_cell_volume 3599.856252
_symmetry_space_group_name_H-M "P M M N"
_symmetry_group_IT_number 59
_space_group.IT_coordinate_system_code '2'
_symmetry_cell_setting 'orthorhombic'
loop_
_space_group_symop_operation_xyz
x,y,z
1/2-x,1/2-y,z
1/2+x,-y,-z
-x,1/2+y,-z
-x,-y,-z
1/2+x,1/2+y,-z
1/2-x,y,z
x,1/2-y,z
loop_
_atom_site_type_symbol
_atom_site_label
_atom_site_fract_x
_atom_site_fract_y
_atom_site_fract_z
Si Si1 0.021133 0.440211 0.627026
Si Si2 0.643829 0.195337 0.905591
Si Si3 0.542235 0.803601 0.272682
Si Si4 0.860774 0.604706 0.794844
Si Si5 0.362902 0.801776 0.763691
Si Si6 0.362330 0.113922 0.868053
Si Si7 0.505537 0.648151 0.563082
Si Si8 0.362350 0.012409 0.378939
O O1 0.073294 0.421232 0.773160
O O2 0.099813 0.471160 0.540078
O O3 0.983272 0.399058 0.522826
O O4 0.926902 0.469302 0.675180
O O5 0.750000 0.175671 0.858470
O O6 0.650929 0.250000 0.913705
O O7 0.563222 0.179926 0.787452
O O8 0.615785 0.177976 0.071310
O O9 0.562898 0.750000 0.240616
O O10 0.623165 0.833536 0.188018
O O11 0.545623 0.813490 0.448489
O O12 0.750000 0.619427 0.783942
O O13 0.876660 0.552359 0.742472
O O14 0.915068 0.641061 0.690551
O O15 0.898259 0.609299 0.962948
O O16 0.250000 0.800806 0.732074
O O17 0.405868 0.750000 0.748022
O O18 0.407968 0.834702 0.639701
O O19 0.250000 0.100663 0.850797
O O20 0.250000 0.997929 0.392387
#
# Coordination Sequence:
#
# PCOD8240768 Si02
#       8
#     8   8   8   8   8   8   8   8
#     4   9  19  32  51  78 101 131 165 198 245 297
#     4   8  15  29  47  66  90 122 161 202 242 286
#     4  10  20  32  49  73  99 131 168 206 250 296
#     4   9  19  35  55  74  94 127 164 203 251 300
#     4   9  17  29  46  67  93 129 167 201 241 288
#     4  10  20  35  53  73  98 129 169 210 249 294
#     4  10  19  31  48  71 100 127 161 203 244 291
#     4   9  17  33  54  76 104 131 159 197 245 300
#
# _framework density 17.778487999999999
#
# number of rings (size 3 to 8) (size 9 to 14) (size 15 to 20)
#    0.000    2.750    0.000    2.250    0.000    4.750 
#    0.000    3.750    0.000    3.375    0.000    0.000 
#    0.000    0.000    0.000    0.000    0.000    0.000 
#
# Total GULP energy -793526.008072 kJ/mol
# GULP energy per Si atom -12398.843876 kJ/mol
# Density = 1.773802 g / cm^3
# Si number density = 17.778488 Si / 1000 Ang^3
#
#
#
# Elastic Constant Matrix: (Units=GPa)
#
#
# Indices 1 2 3 4 5 6 
#
# 1 88.3465 42.7218 57.3495 0.0000 0.0000 0.0000
# 2 42.7218 64.3073 41.7902 0.0000 0.0000 0.0000
# 3 57.3495 41.7902 131.1176 0.0000 0.0000 0.0000
# 4 0.0000 0.0000 0.0000 19.4467 0.0000 0.0000
# 5 0.0000 0.0000 0.0000 0.0000 28.3812 0.0000
# 6 0.0000 0.0000 0.0000 0.0000 0.0000 30.2719
#
#
#
# Elastic Compliance Matrix: (Units=1/GPa)
#
#
# Indices 1 2 3 4 5 6 
#
# 1 0.019401 -0.009301 -0.005521 0.000000 0.000000 0.000000
# 2 -0.009301 0.024071 -0.003604 0.000000 0.000000 0.000000
# 3 -0.005521 -0.003604 0.011190 0.000000 0.000000 0.000000
# 4 0.000000 0.000000 0.000000 0.051423 0.000000 0.000000
# 5 0.000000 0.000000 0.000000 0.000000 0.035235 0.000000
# 6 0.000000 0.000000 0.000000 0.000000 0.000000 0.033034
#
#
# Mechanical properties :
#
#
# Convention : Reuss Voigt Hill
#
# Bulk Modulus (GPa) = 56.14722 63.05492 59.60107
# Shear Modulus (GPa) = 23.02637 25.08059 24.05348
#
# Velocity S-wave (km/s) = 3.60277 3.76004 3.68224
# Velocity P-wave (km/s) = 6.99691 7.37526 7.18857
#
# Compressibility (1/GPa) = 0.01781032
#
# Stress axis : x y z
#
# Youngs Moduli (GPa) = 51.54453 41.54347 89.36200
#
# Poissons Ratio (x) = 0.38638 0.49340
# Poissons Ratio (y) = 0.47939 0.32207
# Poissons Ratio (z) = 0.28460 0.14973
#
# Static dielectric constant tensor:
#      x y z
#    x 3.352440 0.000000 0.000000 
#    y 0.000000 3.166590 0.000000 
#    z 0.000000 0.000000 3.391940 
# 
# 
# High freq. dielectric constant tensor:
#      x y z
#    x 1.685030 0.000000 0.000000 
#    y 0.000000 1.670390 0.000000 
#    z 0.000000 0.000000 1.693040 
# 
# From -- ./inp_files/8014.got.cif
#   From: 2010.03.12/outbox.cif.g09.slc.cpg/sg59_5_cif.got.tgz:8014.got - 2010.04.16 16:29:54.
