data_PCOD8240307
_publ_section_title
;
Structure prediction by ZEFSAII (Michael W. Deem and Ramdas Pophale) SiO2 
 PCOD8240307
Probable space group: P M M N
;
_chemical_formula_sum "Si O2"
_cell_formula_units_Z 64
_cell_length_a 24.717993
_cell_length_b 8.968869
_cell_length_c 18.420477
_cell_angle_alpha 90.000000
_cell_angle_beta 90.000000
_cell_angle_gamma 90.000000
_cell_volume 4083.680513
_symmetry_space_group_name_H-M "P M M N"
_symmetry_group_IT_number 59
_space_group.IT_coordinate_system_code '2'
_symmetry_cell_setting 'orthorhombic'
loop_
_space_group_symop_operation_xyz
x,y,z
1/2-x,1/2-y,z
1/2+x,-y,-z
-x,1/2+y,-z
-x,-y,-z
1/2+x,1/2+y,-z
1/2-x,y,z
x,1/2-y,z
loop_
_atom_site_type_symbol
_atom_site_label
_atom_site_fract_x
_atom_site_fract_y
_atom_site_fract_z
Si Si1 0.988521 0.575837 0.112538
Si Si2 0.188605 0.423836 0.057537
Si Si3 0.311888 0.084124 0.225226
Si Si4 0.502043 0.073511 0.264993
Si Si5 0.924019 0.084303 0.530799
Si Si6 0.042348 0.083124 0.600050
Si Si7 0.416646 0.575941 0.005686
Si Si8 0.394680 0.923776 0.316737
O O1 0.979702 0.750000 0.126693
O O2 0.981166 0.488407 0.187125
O O3 0.048011 0.545576 0.078355
O O4 0.941992 0.517787 0.059484
O O5 0.250000 0.464460 0.032748
O O6 0.177320 0.250000 0.042898
O O7 0.181542 0.461607 0.141887
O O8 0.145154 0.523035 0.014875
O O9 0.250000 0.083146 0.248485
O O10 0.336132 0.250000 0.238149
O O11 0.340246 0.960790 0.274557
O O12 0.505171 0.250000 0.264152
O O13 0.543492 0.013392 0.326373
O O14 0.441587 0.022130 0.281915
O O15 0.911052 0.250000 0.503234
O O16 0.885195 0.037427 0.597839
O O17 0.983523 0.076773 0.564892
O O18 0.916236 0.979107 0.460898
O O19 0.060046 0.250000 0.619885
O O20 0.417500 0.750000 0.985655
O O21 0.410253 0.750000 0.308057
#
# Coordination Sequence:
#
# PCOD8240307 Si02
#       8
#     8   8   8   8   8   8   8   8
#     4  10  20  33  47  64  89 119 150 184 222 268
#     4   9  18  32  48  65  87 117 150 184 224 266
#     4   9  18  31  45  62  85 113 146 183 220 257
#     4  11  20  29  43  62  86 115 146 179 216 258
#     4   8  15  26  38  55  80 109 140 172 206 244
#     4   9  16  26  40  58  81 108 139 173 207 245
#     4  10  20  32  47  67  89 115 148 185 225 267
#     4  10  19  29  42  61  85 114 148 182 216 258
#
# _framework density 15.672136999999999
#
# number of rings (size 3 to 8) (size 9 to 14) (size 15 to 20)
#    0.000    2.500    0.000    4.875    0.000    8.000 
#    0.000    1.250    0.000    0.000    0.000    0.000 
#    0.000    1.000    0.000    7.250    0.000    6.125 
#
# Total GULP energy -793405.489478 kJ/mol
# GULP energy per Si atom -12396.960773 kJ/mol
# Density = 1.563647 g / cm^3
# Si number density = 15.672137 Si / 1000 Ang^3
#
#
#
# Elastic Constant Matrix: (Units=GPa)
#
#
# Indices 1 2 3 4 5 6 
#
# 1 57.6032 30.7844 28.7731 0.0000 0.0000 0.0000
# 2 30.7844 108.6378 56.5877 0.0000 0.0000 0.0000
# 3 28.7731 56.5877 92.7093 0.0000 0.0000 0.0000
# 4 0.0000 0.0000 0.0000 30.9955 0.0000 0.0000
# 5 0.0000 0.0000 0.0000 0.0000 18.9414 0.0000
# 6 0.0000 0.0000 0.0000 0.0000 0.0000 22.6583
#
#
#
# Elastic Compliance Matrix: (Units=1/GPa)
#
#
# Indices 1 2 3 4 5 6 
#
# 1 0.021592 -0.003853 -0.004350 0.000000 0.000000 0.000000
# 2 -0.003853 0.014183 -0.007461 0.000000 0.000000 0.000000
# 3 -0.004350 -0.007461 0.016691 0.000000 0.000000 0.000000
# 4 0.000000 0.000000 0.000000 0.032263 0.000000 0.000000
# 5 0.000000 0.000000 0.000000 0.000000 0.052794 0.000000
# 6 0.000000 0.000000 0.000000 0.000000 0.000000 0.044134
#
#
# Mechanical properties :
#
#
# Convention : Reuss Voigt Hill
#
# Bulk Modulus (GPa) = 47.30784 54.58232 50.94508
# Shear Modulus (GPa) = 22.72419 24.03939 23.38179
#
# Velocity S-wave (km/s) = 3.81198 3.92074 3.86675
# Velocity P-wave (km/s) = 7.04460 7.44309 7.24658
#
# Compressibility (1/GPa) = 0.02113814
#
# Stress axis : x y z
#
# Youngs Moduli (GPa) = 46.31394 70.50624 59.91415
#
# Poissons Ratio (x) = 0.27165 0.26060
# Poissons Ratio (y) = 0.17844 0.44704
# Poissons Ratio (z) = 0.20144 0.52607
#
# Static dielectric constant tensor:
#      x y z
#    x 2.688740 0.000000 0.000000 
#    y 0.000000 3.090850 0.000000 
#    z 0.000000 0.000000 3.068530 
# 
# 
# High freq. dielectric constant tensor:
#      x y z
#    x 1.555020 0.000000 0.000000 
#    y 0.000000 1.614900 0.000000 
#    z 0.000000 0.000000 1.597370 
# 
# From -- ./inp_files/28448.got.cif
#   From: 2010.03.12/outbox.cif.g09.slc.cpg/sg59_15_cif.got.tgz:28448.got - 2010.04.16 16:29:54.
