data_PCOD8240502
_publ_section_title
;
Structure prediction by ZEFSAII (Michael W. Deem and Ramdas Pophale) SiO2 
 PCOD8240502
Probable space group: P M M N
;
_chemical_formula_sum "Si O2"
_cell_formula_units_Z 56
_cell_length_a 9.151172
_cell_length_b 23.873583
_cell_length_c 16.143723
_cell_angle_alpha 90.000000
_cell_angle_beta 90.000000
_cell_angle_gamma 90.000000
_cell_volume 3526.939574
_symmetry_space_group_name_H-M "P M M N"
_symmetry_group_IT_number 59
_space_group.IT_coordinate_system_code '2'
_symmetry_cell_setting 'orthorhombic'
loop_
_space_group_symop_operation_xyz
x,y,z
1/2-x,1/2-y,z
1/2+x,-y,-z
-x,1/2+y,-z
-x,-y,-z
1/2+x,1/2+y,-z
1/2-x,y,z
x,1/2-y,z
loop_
_atom_site_type_symbol
_atom_site_label
_atom_site_fract_x
_atom_site_fract_y
_atom_site_fract_z
Si Si1 0.415652 0.894661 0.378557
Si Si2 0.918649 0.982756 0.689865
Si Si3 0.579664 0.913770 0.026939
Si Si4 0.421762 0.814374 0.097900
Si Si5 0.580667 0.507601 0.876931
Si Si6 0.917393 0.685322 0.266139
Si Si7 0.081992 0.949304 0.542282
O O1 0.250000 0.877639 0.355582
O O2 0.526951 0.848550 0.345430
O O3 0.433614 0.897107 0.478820
O O4 0.454421 0.953822 0.336294
O O5 0.750000 0.968710 0.675655
O O6 0.964840 0.973628 0.784974
O O7 0.010080 0.939092 0.632661
O O8 0.750000 0.904832 0.044261
O O9 0.497784 0.853997 0.029707
O O10 0.516028 0.954628 0.097230
O O11 0.550273 0.939796 0.936597
O O12 0.250000 0.825461 0.099151
O O13 0.458489 0.750000 0.075679
O O14 0.486055 0.831005 0.187011
O O15 0.750000 0.488995 0.880602
O O16 0.750000 0.669899 0.246779
O O17 0.935532 0.750000 0.288667
O O18 0.250000 0.965632 0.554518
O O19 0.000000 0.000000 0.500000
#
# Coordination Sequence:
#
# PCOD8240502 Si02
#       7
#     8   8   8   8   8   8   8
#     4   9  17  28  43  63  88 118 145 172 211 256
#     4   9  17  29  44  63  88 116 145 176 211 254
#     4  10  19  30  46  68  92 119 151 186 223 263
#     4  10  20  33  48  64  86 119 153 185 225 269
#     4   9  18  31  46  66  94 124 150 179 220 270
#     4  10  20  31  44  65  89 112 144 183 217 254
#     4   9  17  28  42  62  86 111 142 175 207 247
#
# _framework density 15.877788000000001
#
# number of rings (size 3 to 8) (size 9 to 14) (size 15 to 20)
#    0.000    2.571    0.000    3.429    0.000    6.857 
#    0.000    0.000    0.000    0.000    0.000    1.000 
#    0.000    1.143    0.000    0.000    0.000    0.000 
#
# Total GULP energy -694324.995825 kJ/mol
# GULP energy per Si atom -12398.660640 kJ/mol
# Density = 1.584165 g / cm^3
# Si number density = 15.877788 Si / 1000 Ang^3
#
#
#
# Elastic Constant Matrix: (Units=GPa)
#
#
# Indices 1 2 3 4 5 6 
#
# 1 96.2865 47.9411 53.6321 0.0000 0.0000 0.0000
# 2 47.9411 67.9004 43.9075 0.0000 0.0000 0.0000
# 3 53.6321 43.9075 114.5998 0.0000 0.0000 0.0000
# 4 0.0000 0.0000 0.0000 21.6464 0.0000 0.0000
# 5 0.0000 0.0000 0.0000 0.0000 28.9292 0.0000
# 6 0.0000 0.0000 0.0000 0.0000 0.0000 26.9541
#
#
#
# Elastic Compliance Matrix: (Units=1/GPa)
#
#
# Indices 1 2 3 4 5 6 
#
# 1 0.017700 -0.009492 -0.004647 0.000000 0.000000 0.000000
# 2 -0.009492 0.024669 -0.005009 0.000000 0.000000 0.000000
# 3 -0.004647 -0.005009 0.012820 0.000000 0.000000 0.000000
# 4 0.000000 0.000000 0.000000 0.046197 0.000000 0.000000
# 5 0.000000 0.000000 0.000000 0.000000 0.034567 0.000000
# 6 0.000000 0.000000 0.000000 0.000000 0.000000 0.037100
#
#
# Mechanical properties :
#
#
# Convention : Reuss Voigt Hill
#
# Bulk Modulus (GPa) = 59.19873 63.30536 61.25204
# Shear Modulus (GPa) = 23.04356 24.39299 23.71827
#
# Velocity S-wave (km/s) = 3.81374 3.92381 3.86917
# Velocity P-wave (km/s) = 7.53377 7.77723 7.65647
#
# Compressibility (1/GPa) = 0.01689225
#
# Stress axis : x y z
#
# Youngs Moduli (GPa) = 56.49652 40.53711 78.00420
#
# Poissons Ratio (x) = 0.38480 0.36246
# Poissons Ratio (y) = 0.53629 0.39073
# Poissons Ratio (z) = 0.26252 0.20305
#
# Static dielectric constant tensor:
#      x y z
#    x 3.177780 0.000000 0.000000 
#    y 0.000000 2.822630 0.000000 
#    z 0.000000 0.000000 3.299690 
# 
# 
# High freq. dielectric constant tensor:
#      x y z
#    x 1.623950 0.000000 0.000000 
#    y 0.000000 1.575600 0.000000 
#    z 0.000000 0.000000 1.604090 
# 
# From -- ./inp_files/26132.got.cif
#   From: 2010.03.12/outbox.cif.g09.slc.cpg/sg59_14_cif.got.tgz:26132.got - 2010.04.16 16:29:54.
