data_PCOD8240162
_publ_section_title
;
Structure prediction by ZEFSAII (Michael W. Deem and Ramdas Pophale) SiO2 
 PCOD8240162
Probable space group: P M M N
;
_chemical_formula_sum "Si O2"
_cell_formula_units_Z 48
_cell_length_a 15.731922
_cell_length_b 34.682303
_cell_length_c 5.141254
_cell_angle_alpha 90.000000
_cell_angle_beta 90.000000
_cell_angle_gamma 90.000000
_cell_volume 2805.167334
_symmetry_space_group_name_H-M "P M M N"
_symmetry_group_IT_number 59
_space_group.IT_coordinate_system_code '2'
_symmetry_cell_setting 'orthorhombic'
loop_
_space_group_symop_operation_xyz
x,y,z
1/2-x,1/2-y,z
1/2+x,-y,-z
-x,1/2+y,-z
-x,-y,-z
1/2+x,1/2+y,-z
1/2-x,y,z
x,1/2-y,z
loop_
_atom_site_type_symbol
_atom_site_label
_atom_site_fract_x
_atom_site_fract_y
_atom_site_fract_z
Si Si1 0.429423 0.922592 0.797008
Si Si2 0.750000 0.022797 0.663583
Si Si3 0.250000 0.927023 0.830991
Si Si4 0.649129 0.706846 0.824479
Si Si5 0.649118 0.839700 0.323547
Si Si6 0.040253 0.085250 0.713030
Si Si7 0.591982 0.503722 0.383294
O O1 0.337466 0.901694 0.847596
O O2 0.469732 0.915071 0.514664
O O3 0.402259 0.968236 0.822360
O O4 0.493386 0.908076 0.014832
O O5 0.750000 0.057916 0.463988
O O6 0.835048 0.997761 0.605111
O O7 0.750000 0.038315 0.956394
O O8 0.750000 0.709457 0.829310
O O9 0.610578 0.750000 0.830286
O O10 0.617637 0.685212 0.567587
O O11 0.616271 0.683036 0.071363
O O12 0.750000 0.845596 0.322604
O O13 0.606913 0.881251 0.338035
O O14 0.095455 0.046122 0.744539
O O15 0.500000 0.500000 0.500000
#
# Coordination Sequence:
#
# PCOD8240162 Si02
#       7
#     8   4   4   8   8   8   8
#     4  10  20  34  50  68  87 129 165 212 248 294
#     4  10  20  30  48  68  82 116 161 216 247 288
#     4  10  18  34  50  66  86 108 169 212 249 274
#     4   9  17  32  52  71  94 131 171 199 226 278
#     4  10  20  32  48  73 104 132 164 198 240 289
#     4  11  21  32  49  68 101 128 157 198 257 292
#     4   9  19  33  48  64  90 124 169 206 249 297
#
# _framework density 17.111279
#
# number of rings (size 3 to 8) (size 9 to 14) (size 15 to 20)
#    0.000    2.167    0.000    5.000    1.167    6.000 
#    0.000    0.000    1.833    0.000    0.000    0.000 
#    0.000    0.000    0.000   52.500    0.000    1.667 
#
# Total GULP energy -594762.635922 kJ/mol
# GULP energy per Si atom -12390.888248 kJ/mol
# Density = 1.707233 g / cm^3
# Si number density = 17.111279 Si / 1000 Ang^3
#
#
#
# Elastic Constant Matrix: (Units=GPa)
#
#
# Indices 1 2 3 4 5 6 
#
# 1 78.3503 19.7675 19.8279 0.0000 0.0000 0.0000
# 2 19.7675 91.7520 22.5276 0.0000 0.0000 0.0000
# 3 19.8279 22.5276 92.7530 0.0000 0.0000 0.0000
# 4 0.0000 0.0000 0.0000 19.4857 0.0000 0.0000
# 5 0.0000 0.0000 0.0000 0.0000 20.0004 0.0000
# 6 0.0000 0.0000 0.0000 0.0000 0.0000 18.3250
#
#
#
# Elastic Compliance Matrix: (Units=1/GPa)
#
#
# Indices 1 2 3 4 5 6 
#
# 1 0.013982 -0.002423 -0.002400 0.000000 0.000000 0.000000
# 2 -0.002423 0.012010 -0.002399 0.000000 0.000000 0.000000
# 3 -0.002400 -0.002399 0.011877 0.000000 0.000000 0.000000
# 4 0.000000 0.000000 0.000000 0.051320 0.000000 0.000000
# 5 0.000000 0.000000 0.000000 0.000000 0.049999 0.000000
# 6 0.000000 0.000000 0.000000 0.000000 0.000000 0.054570
#
#
# Mechanical properties :
#
#
# Convention : Reuss Voigt Hill
#
# Bulk Modulus (GPa) = 42.69078 43.01124 42.85101
# Shear Modulus (GPa) = 23.14696 24.94436 24.04566
#
# Velocity S-wave (km/s) = 3.68194 3.82222 3.75274
# Velocity P-wave (km/s) = 6.56343 6.68356 6.62377
#
# Compressibility (1/GPa) = 0.02342426
#
# Stress axis : x y z
#
# Youngs Moduli (GPa) = 71.52061 83.26407 84.19540
#
# Poissons Ratio (x) = 0.20175 0.20211
# Poissons Ratio (y) = 0.17329 0.20198
# Poissons Ratio (z) = 0.17168 0.19975
#
# Static dielectric constant tensor:
#      x y z
#    x 3.430020 0.000000 0.000000 
#    y 0.000000 3.226760 0.000000 
#    z 0.000000 0.000000 3.262520 
# 
# 
# High freq. dielectric constant tensor:
#      x y z
#    x 1.652660 0.000000 0.000000 
#    y 0.000000 1.617580 0.000000 
#    z 0.000000 0.000000 1.672970 
# 
# From -- ./inp_files/2279.got.cif
#   From: 2010.03.12/outbox.cif.g09.slc.cpg/sg59_2_cif.got.tgz:2279.got - 2010.04.16 16:29:54.
