data_PCOD8240268
_publ_section_title
;
Structure prediction by ZEFSAII (Michael W. Deem and Ramdas Pophale) SiO2 
 PCOD8240268
Probable space group: P M M N
;
_chemical_formula_sum "Si O2"
_cell_formula_units_Z 56
_cell_length_a 24.725347
_cell_length_b 8.946030
_cell_length_c 16.276975
_cell_angle_alpha 90.000000
_cell_angle_beta 90.000000
_cell_angle_gamma 90.000000
_cell_volume 3600.364260
_symmetry_space_group_name_H-M "P M M N"
_symmetry_group_IT_number 59
_space_group.IT_coordinate_system_code '2'
_symmetry_cell_setting 'orthorhombic'
loop_
_space_group_symop_operation_xyz
x,y,z
1/2-x,1/2-y,z
1/2+x,-y,-z
-x,1/2+y,-z
-x,-y,-z
1/2+x,1/2+y,-z
1/2-x,y,z
x,1/2-y,z
loop_
_atom_site_type_symbol
_atom_site_label
_atom_site_fract_x
_atom_site_fract_y
_atom_site_fract_z
Si Si1 0.400439 0.927665 0.614696
Si Si2 0.809364 0.427533 0.265155
Si Si3 0.584099 0.925969 0.023297
Si Si4 0.992660 0.926447 0.876798
Si Si5 0.188301 0.573884 0.920151
Si Si6 0.054840 0.426174 0.469740
Si Si7 0.010954 0.425135 0.304993
O O1 0.398857 0.750000 0.605189
O O2 0.351054 0.991665 0.668377
O O3 0.454165 0.986814 0.660348
O O4 0.396869 0.000005 0.523011
O O5 0.750000 0.485662 0.290323
O O6 0.810925 0.250000 0.265516
O O7 0.823201 0.480679 0.172997
O O8 0.586172 0.750000 0.036180
O O9 0.548641 0.996991 0.096233
O O10 0.645063 0.990063 0.022275
O O11 0.556676 0.970046 0.936538
O O12 0.003179 0.750000 0.877689
O O13 0.976886 0.988848 0.785976
O O14 0.250000 0.531716 0.945603
O O15 0.179562 0.750000 0.929112
O O16 0.052933 0.250000 0.485314
O O17 0.058869 0.461260 0.371202
O O18 0.000000 0.500000 0.500000
O O19 0.003963 0.250000 0.295698
#
# Coordination Sequence:
#
# PCOD8240268 Si02
#       7
#     8   8   8   8   8   8   8
#     4   9  15  24  40  60  81 104 130 163 200 232
#     4   8  14  25  42  62  80 104 141 171 188 225
#     4  10  19  28  41  64  89 109 133 172 216 246
#     4   9  17  30  45  59  81 114 145 168 197 247
#     4   9  17  30  47  62  79 110 146 172 198 241
#     4   9  16  26  39  56  78 102 130 161 192 229
#     4   8  14  25  41  57  74 104 140 166 189 227
#
# _framework density 15.553981
#
# number of rings (size 3 to 8) (size 9 to 14) (size 15 to 20)
#    0.000    3.143    0.000    3.429    0.000    3.143 
#    0.000    7.143    0.000    1.286    0.000    1.000 
#    0.000    5.714    0.000    0.000    0.000    0.000 
#
# Total GULP energy -693844.262318 kJ/mol
# GULP energy per Si atom -12390.076113 kJ/mol
# Density = 1.551858 g / cm^3
# Si number density = 15.553981 Si / 1000 Ang^3
#
#
#
# Elastic Constant Matrix: (Units=GPa)
#
#
# Indices 1 2 3 4 5 6 
#
# 1 93.3320 25.5210 50.8531 0.0000 0.0000 0.0000
# 2 25.5210 37.0141 24.9732 0.0000 0.0000 0.0000
# 3 50.8531 24.9732 112.7495 0.0000 0.0000 0.0000
# 4 0.0000 0.0000 0.0000 20.1697 0.0000 0.0000
# 5 0.0000 0.0000 0.0000 0.0000 27.1303 0.0000
# 6 0.0000 0.0000 0.0000 0.0000 0.0000 20.5735
#
#
#
# Elastic Compliance Matrix: (Units=1/GPa)
#
#
# Indices 1 2 3 4 5 6 
#
# 1 0.015640 -0.007083 -0.005485 0.000000 0.000000 0.000000
# 2 -0.007083 0.034971 -0.004551 0.000000 0.000000 0.000000
# 3 -0.005485 -0.004551 0.012351 0.000000 0.000000 0.000000
# 4 0.000000 0.000000 0.000000 0.049579 0.000000 0.000000
# 5 0.000000 0.000000 0.000000 0.000000 0.036859 0.000000
# 6 0.000000 0.000000 0.000000 0.000000 0.000000 0.048606
#
#
# Mechanical properties :
#
#
# Convention : Reuss Voigt Hill
#
# Bulk Modulus (GPa) = 34.81459 49.53226 42.17343
# Shear Modulus (GPa) = 20.67654 23.02459 21.85057
#
# Velocity S-wave (km/s) = 3.64997 3.85164 3.75216
# Velocity P-wave (km/s) = 6.33993 7.18991 6.77825
#
# Compressibility (1/GPa) = 0.02872359
#
# Stress axis : x y z
#
# Youngs Moduli (GPa) = 63.93918 28.59508 80.96320
#
# Poissons Ratio (x) = 0.20253 0.44410
# Poissons Ratio (y) = 0.45287 0.36849
# Poissons Ratio (z) = 0.35072 0.13015
#
# Static dielectric constant tensor:
#      x y z
#    x 2.964860 0.000000 0.000000 
#    y 0.000000 2.787340 0.000000 
#    z 0.000000 0.000000 3.383480 
# 
# 
# High freq. dielectric constant tensor:
#      x y z
#    x 1.570110 0.000000 0.000000 
#    y 0.000000 1.576420 0.000000 
#    z 0.000000 0.000000 1.594200 
# 
# From -- ./inp_files/28361.got.cif
#   From: 2010.03.12/outbox.cif.g09.slc.cpg/sg59_15_cif.got.tgz:28361.got - 2010.04.16 16:29:54.
