data_PCOD8240831
_publ_section_title
;
Structure prediction by ZEFSAII (Michael W. Deem and Ramdas Pophale) SiO2 
 PCOD8240831
Probable space group: P M M N
;
_chemical_formula_sum "Si O2"
_cell_formula_units_Z 64
_cell_length_a 23.691143
_cell_length_b 9.349413
_cell_length_c 15.494611
_cell_angle_alpha 90.000000
_cell_angle_beta 90.000000
_cell_angle_gamma 90.000000
_cell_volume 3432.029691
_symmetry_space_group_name_H-M "P M M N"
_symmetry_group_IT_number 59
_space_group.IT_coordinate_system_code '2'
_symmetry_cell_setting 'orthorhombic'
loop_
_space_group_symop_operation_xyz
x,y,z
1/2-x,1/2-y,z
1/2+x,-y,-z
-x,1/2+y,-z
-x,-y,-z
1/2+x,1/2+y,-z
1/2-x,y,z
x,1/2-y,z
loop_
_atom_site_type_symbol
_atom_site_label
_atom_site_fract_x
_atom_site_fract_y
_atom_site_fract_z
Si Si1 0.979225 0.909449 0.874611
Si Si2 0.880086 0.416726 0.944303
Si Si3 0.686665 0.580489 0.455326
Si Si4 0.390813 0.914550 0.869016
Si Si5 0.685485 0.081256 0.777698
Si Si6 0.892958 0.919872 0.301158
Si Si7 0.495034 0.412024 0.320469
Si Si8 0.875389 0.582309 0.625996
O O1 0.963522 0.750000 0.903952
O O2 0.044281 0.943247 0.892187
O O3 0.967315 0.930181 0.773377
O O4 0.940966 0.014715 0.929263
O O5 0.891277 0.250000 0.937022
O O6 0.834676 0.467277 0.873340
O O7 0.857642 0.452158 0.041809
O O8 0.750000 0.516543 0.453039
O O9 0.688754 0.750000 0.459094
O O10 0.653717 0.531155 0.370064
O O11 0.654437 0.522871 0.539879
O O12 0.381303 0.750000 0.840373
O O13 0.372422 0.015893 0.790304
O O14 0.750000 0.033521 0.767734
O O15 0.677977 0.250000 0.765253
O O16 0.648748 0.002385 0.706795
O O17 0.898081 0.750000 0.293006
O O18 0.953183 0.979921 0.333463
O O19 0.517990 0.250000 0.332573
O O20 0.442893 0.445382 0.384961
O O21 0.863511 0.750000 0.640530
#
# Coordination Sequence:
#
# PCOD8240831 Si02
#       8
#     8   8   8   8   8   8   8   8
#     4   9  16  28  46  72 105 134 164 210 256 297
#     4  10  19  31  49  71  99 138 177 209 252 308
#     4   9  19  36  57  80 104 133 175 223 264 305
#     4   9  19  34  50  72 104 138 172 213 260 305
#     4  10  21  35  50  74 110 143 172 216 266 309
#     4  10  20  34  54  79 105 137 177 218 263 315
#     4   9  18  32  51  79 113 141 166 208 264 315
#     4  10  19  35  59  81 103 137 177 212 256 318
#
# _framework density 18.647856999999998
#
# number of rings (size 3 to 8) (size 9 to 14) (size 15 to 20)
#    0.000    2.500    1.250    1.875    0.000    4.250 
#    0.000    1.875    0.000    3.750    0.000    0.000 
#    0.000    0.000    0.000    0.000    0.000    0.000 
#
# Total GULP energy -793377.894286 kJ/mol
# GULP energy per Si atom -12396.529598 kJ/mol
# Density = 1.860541 g / cm^3
# Si number density = 18.647857 Si / 1000 Ang^3
#
#
#
# Elastic Constant Matrix: (Units=GPa)
#
#
# Indices 1 2 3 4 5 6 
#
# 1 70.8702 30.0289 58.6653 0.0000 0.0000 0.0000
# 2 30.0289 51.1470 43.2100 0.0000 0.0000 0.0000
# 3 58.6653 43.2100 119.2858 0.0000 0.0000 0.0000
# 4 0.0000 0.0000 0.0000 21.7516 0.0000 0.0000
# 5 0.0000 0.0000 0.0000 0.0000 23.1548 0.0000
# 6 0.0000 0.0000 0.0000 0.0000 0.0000 17.3784
#
#
#
# Elastic Compliance Matrix: (Units=1/GPa)
#
#
# Indices 1 2 3 4 5 6 
#
# 1 0.025096 -0.006206 -0.010094 0.000000 0.000000 0.000000
# 2 -0.006206 0.029708 -0.007709 0.000000 0.000000 0.000000
# 3 -0.010094 -0.007709 0.016140 0.000000 0.000000 0.000000
# 4 0.000000 0.000000 0.000000 0.045974 0.000000 0.000000
# 5 0.000000 0.000000 0.000000 0.000000 0.043188 0.000000
# 6 0.000000 0.000000 0.000000 0.000000 0.000000 0.057543
#
#
# Mechanical properties :
#
#
# Convention : Reuss Voigt Hill
#
# Bulk Modulus (GPa) = 43.62061 56.12349 49.87205
# Shear Modulus (GPa) = 18.29435 19.75021 19.02228
#
# Velocity S-wave (km/s) = 3.13556 3.25793 3.19733
# Velocity P-wave (km/s) = 6.04578 6.65688 6.35868
#
# Compressibility (1/GPa) = 0.02292494
#
# Stress axis : x y z
#
# Youngs Moduli (GPa) = 39.84745 33.66085 61.95758
#
# Poissons Ratio (x) = 0.20891 0.62540
# Poissons Ratio (y) = 0.24730 0.47764
# Poissons Ratio (z) = 0.40222 0.25950
#
# Static dielectric constant tensor:
#      x y z
#    x 3.419870 0.000000 0.000000 
#    y 0.000000 3.229900 0.000000 
#    z 0.000000 0.000000 3.689500 
# 
# 
# High freq. dielectric constant tensor:
#      x y z
#    x 1.708410 0.000000 0.000000 
#    y 0.000000 1.705990 0.000000 
#    z 0.000000 0.000000 1.730430 
# 
# From -- ./inp_files/24741.got.cif
#   From: 2010.03.12/outbox.cif.g09.slc.cpg/sg59_13_cif.got.tgz:24741.got - 2010.04.16 16:29:54.
