data_PCOD8240681
_publ_section_title
;
Structure prediction by ZEFSAII (Michael W. Deem and Ramdas Pophale) SiO2 
 PCOD8240681
Probable space group: P M M N
;
_chemical_formula_sum "Si O2"
_cell_formula_units_Z 56
_cell_length_a 8.954128
_cell_length_b 24.028149
_cell_length_c 14.779182
_cell_angle_alpha 90.000000
_cell_angle_beta 90.000000
_cell_angle_gamma 90.000000
_cell_volume 3179.757586
_symmetry_space_group_name_H-M "P M M N"
_symmetry_group_IT_number 59
_space_group.IT_coordinate_system_code '2'
_symmetry_cell_setting 'orthorhombic'
loop_
_space_group_symop_operation_xyz
x,y,z
1/2-x,1/2-y,z
1/2+x,-y,-z
-x,1/2+y,-z
-x,-y,-z
1/2+x,1/2+y,-z
1/2-x,y,z
x,1/2-y,z
loop_
_atom_site_type_symbol
_atom_site_label
_atom_site_fract_x
_atom_site_fract_y
_atom_site_fract_z
Si Si1 0.579587 0.931266 0.874110
Si Si2 0.422911 0.750000 0.793896
Si Si3 0.416731 0.349283 0.288026
Si Si4 0.574546 0.363414 0.970086
Si Si5 0.420990 0.430651 0.437481
Si Si6 0.927613 0.750000 0.986850
Si Si7 0.922933 0.537265 0.367849
Si Si8 0.424750 0.948615 0.184215
O O1 0.750000 0.930801 0.910543
O O2 0.568706 0.902160 0.777218
O O3 0.517631 0.994040 0.861859
O O4 0.475274 0.898714 0.943446
O O5 0.250000 0.750000 0.821553
O O6 0.459171 0.803834 0.734316
O O7 0.523676 0.750000 0.882770
O O8 0.250000 0.323392 0.279500
O O9 0.445534 0.370936 0.390031
O O10 0.750000 0.352056 0.978857
O O11 0.533521 0.397176 0.879897
O O12 0.489790 0.304733 0.963849
O O13 0.250000 0.450954 0.425300
O O14 0.459423 0.424852 0.543950
O O15 0.526180 0.474776 0.388277
O O16 0.750000 0.750000 0.991516
O O17 0.750000 0.536105 0.344634
O O18 0.003845 0.563395 0.281386
O O19 0.250000 0.954705 0.199208
#
# Coordination Sequence:
#
# PCOD8240681 Si02
#       8
#     8   4   8   8   8   4   8   8
#     4  10  19  33  54  78 109 148 179 209 260 324
#     4  12  24  36  54  79 108 135 178 229 266 312
#     4  10  19  34  56  77 106 145 180 212 261 324
#     4  11  23  37  56  79 106 140 181 228 271 312
#     4   9  18  34  53  76 108 142 174 213 262 315
#     4  12  24  40  58  75 102 141 182 223 270 320
#     4  10  19  30  52  82 108 138 177 218 258 309
#     4  10  21  37  54  77 112 149 178 215 270 323
#
# _framework density 17.611405000000001
#
# number of rings (size 3 to 8) (size 9 to 14) (size 15 to 20)
#    0.000    1.714    2.857    2.571    0.000    2.857 
#    0.000    0.000    0.000    0.857    0.000    1.000 
#    0.000    0.000    0.000    0.000    0.000    0.000 
#
# Total GULP energy -694503.212006 kJ/mol
# GULP energy per Si atom -12401.843072 kJ/mol
# Density = 1.757132 g / cm^3
# Si number density = 17.611405 Si / 1000 Ang^3
#
#
#
# Elastic Constant Matrix: (Units=GPa)
#
#
# Indices 1 2 3 4 5 6 
#
# 1 71.3897 51.9259 40.1365 0.0000 0.0000 0.0000
# 2 51.9259 115.8771 59.2764 0.0000 0.0000 0.0000
# 3 40.1365 59.2764 104.7898 0.0000 0.0000 0.0000
# 4 0.0000 0.0000 0.0000 13.6967 0.0000 0.0000
# 5 0.0000 0.0000 0.0000 0.0000 29.7690 0.0000
# 6 0.0000 0.0000 0.0000 0.0000 0.0000 27.3030
#
#
#
# Elastic Compliance Matrix: (Units=1/GPa)
#
#
# Indices 1 2 3 4 5 6 
#
# 1 0.021907 -0.007774 -0.003993 0.000000 0.000000 0.000000
# 2 -0.007774 0.014903 -0.005452 0.000000 0.000000 0.000000
# 3 -0.003993 -0.005452 0.014157 0.000000 0.000000 0.000000
# 4 0.000000 0.000000 0.000000 0.073010 0.000000 0.000000
# 5 0.000000 0.000000 0.000000 0.000000 0.033592 0.000000
# 6 0.000000 0.000000 0.000000 0.000000 0.000000 0.036626
#
#
# Mechanical properties :
#
#
# Convention : Reuss Voigt Hill
#
# Bulk Modulus (GPa) = 60.50701 66.08156 63.29428
# Shear Modulus (GPa) = 21.35442 23.53492 22.44467
#
# Velocity S-wave (km/s) = 3.48592 3.65957 3.57380
# Velocity P-wave (km/s) = 7.11572 7.44715 7.28332
#
# Compressibility (1/GPa) = 0.01652701
#
# Stress axis : x y z
#
# Youngs Moduli (GPa) = 45.64679 67.10226 70.63826
#
# Poissons Ratio (x) = 0.52166 0.28208
# Poissons Ratio (y) = 0.35487 0.38514
# Poissons Ratio (z) = 0.18228 0.36586
#
# Static dielectric constant tensor:
#      x y z
#    x 3.306620 0.000000 0.000000 
#    y 0.000000 3.225960 0.000000 
#    z 0.000000 0.000000 3.336440 
# 
# 
# High freq. dielectric constant tensor:
#      x y z
#    x 1.684940 0.000000 0.000000 
#    y 0.000000 1.664020 0.000000 
#    z 0.000000 0.000000 1.677740 
# 
# From -- ./inp_files/21119.got.cif
#   From: 2010.03.12/outbox.cif.g09.slc.cpg/sg59_11_cif.got.tgz:21119.got - 2010.04.16 16:29:54.
