data_PCOD8240329
_publ_section_title
;
Structure prediction by ZEFSAII (Michael W. Deem and Ramdas Pophale) SiO2 
 PCOD8240329
Probable space group: P M M N
;
_chemical_formula_sum "Si O2"
_cell_formula_units_Z 48
_cell_length_a 9.024745
_cell_length_b 24.147111
_cell_length_c 13.626566
_cell_angle_alpha 90.000000
_cell_angle_beta 90.000000
_cell_angle_gamma 90.000000
_cell_volume 2969.521965
_symmetry_space_group_name_H-M "P M M N"
_symmetry_group_IT_number 59
_space_group.IT_coordinate_system_code '2'
_symmetry_cell_setting 'orthorhombic'
loop_
_space_group_symop_operation_xyz
x,y,z
1/2-x,1/2-y,z
1/2+x,-y,-z
-x,1/2+y,-z
-x,-y,-z
1/2+x,1/2+y,-z
1/2-x,y,z
x,1/2-y,z
loop_
_atom_site_type_symbol
_atom_site_label
_atom_site_fract_x
_atom_site_fract_y
_atom_site_fract_z
Si Si1 0.577081 0.527225 0.645270
Si Si2 0.923662 0.417082 0.529894
Si Si3 0.074235 0.810225 0.135169
Si Si4 0.577123 0.482385 0.152605
Si Si5 0.925723 0.311469 0.645154
Si Si6 0.077192 0.921231 0.042721
O O1 0.750000 0.538271 0.655697
O O2 0.511053 0.571775 0.569971
O O3 0.542948 0.465048 0.609033
O O4 0.501875 0.537791 0.749435
O O5 0.750000 0.414523 0.505434
O O6 0.986530 0.359254 0.573226
O O7 0.250000 0.808867 0.140181
O O8 0.015933 0.750000 0.098124
O O9 0.012847 0.821759 0.244887
O O10 0.022301 0.858307 0.060919
O O11 0.750000 0.489519 0.172985
O O12 0.513235 0.540700 0.117181
O O13 0.544530 0.436040 0.069974
O O14 0.750000 0.316002 0.647126
O O15 0.974466 0.250000 0.608377
O O16 0.250000 0.929115 0.068153
#
# Coordination Sequence:
#
# PCOD8240329 Si02
#       6
#     8   8   8   8   8   8
#     4  10  19  30  45  64  87 116 147 180 219 261
#     4   9  17  29  45  65  88 112 141 178 217 260
#     4   8  13  23  42  67  91 113 139 174 216 259
#     4  10  19  29  43  64  90 119 148 180 218 259
#     4   8  13  22  40  66  90 110 134 169 215 261
#     4   9  17  29  45  66  90 115 145 180 217 258
#
# _framework density 16.164217000000001
#
# number of rings (size 3 to 8) (size 9 to 14) (size 15 to 20)
#    0.000    3.000    0.000    3.000    0.000    4.000 
#    0.000    0.000    0.000    2.000    0.000    7.000 
#    0.000    0.000    0.000    0.000    0.000    0.000 
#
# Total GULP energy -595002.323208 kJ/mol
# GULP energy per Si atom -12395.881734 kJ/mol
# Density = 1.612743 g / cm^3
# Si number density = 16.164217 Si / 1000 Ang^3
#
#
#
# Elastic Constant Matrix: (Units=GPa)
#
#
# Indices 1 2 3 4 5 6 
#
# 1 44.9923 33.2180 43.1458 0.0000 0.0000 0.0000
# 2 33.2180 147.7016 75.3516 0.0000 0.0000 0.0000
# 3 43.1458 75.3516 116.5813 0.0000 0.0000 0.0000
# 4 0.0000 0.0000 0.0000 26.3856 0.0000 0.0000
# 5 0.0000 0.0000 0.0000 0.0000 22.8728 0.0000
# 6 0.0000 0.0000 0.0000 0.0000 0.0000 16.6433
#
#
#
# Elastic Compliance Matrix: (Units=1/GPa)
#
#
# Indices 1 2 3 4 5 6 
#
# 1 0.034798 -0.001874 -0.011667 0.000000 0.000000 0.000000
# 2 -0.001874 0.010202 -0.005901 0.000000 0.000000 0.000000
# 3 -0.011667 -0.005901 0.016709 0.000000 0.000000 0.000000
# 4 0.000000 0.000000 0.000000 0.037899 0.000000 0.000000
# 5 0.000000 0.000000 0.000000 0.000000 0.043720 0.000000
# 6 0.000000 0.000000 0.000000 0.000000 0.000000 0.060084
#
#
# Mechanical properties :
#
#
# Convention : Reuss Voigt Hill
#
# Bulk Modulus (GPa) = 43.80951 68.07844 55.94397
# Shear Modulus (GPa) = 20.00760 23.68434 21.84597
#
# Velocity S-wave (km/s) = 3.52201 3.83199 3.68027
# Velocity P-wave (km/s) = 6.61068 7.86047 7.26251
#
# Compressibility (1/GPa) = 0.02282610
#
# Stress axis : x y z
#
# Youngs Moduli (GPa) = 28.73736 98.01942 59.84644
#
# Poissons Ratio (x) = 0.18367 0.69824
# Poissons Ratio (y) = 0.05385 0.35313
# Poissons Ratio (z) = 0.33529 0.57837
#
# Static dielectric constant tensor:
#      x y z
#    x 2.825660 0.000000 0.000000 
#    y 0.000000 3.335050 0.000000 
#    z 0.000000 0.000000 3.025950 
# 
# 
# High freq. dielectric constant tensor:
#      x y z
#    x 1.596240 0.000000 0.000000 
#    y 0.000000 1.617830 0.000000 
#    z 0.000000 0.000000 1.611940 
# 
# From -- ./inp_files/14511.got.cif
#   From: 2010.03.12/outbox.cif.g09.slc.cpg/sg59_8_cif.got.tgz:14511.got - 2010.04.16 16:29:54.
