data_PCOD8240130
_publ_section_title
;
Structure prediction by ZEFSAII (Michael W. Deem and Ramdas Pophale) SiO2 
 PCOD8240130
Probable space group: P M M N
;
_chemical_formula_sum "Si O2"
_cell_formula_units_Z 64
_cell_length_a 8.861594
_cell_length_b 19.881328
_cell_length_c 19.992291
_cell_angle_alpha 90.000000
_cell_angle_beta 90.000000
_cell_angle_gamma 90.000000
_cell_volume 3522.246965
_symmetry_space_group_name_H-M "P M M N"
_symmetry_group_IT_number 59
_space_group.IT_coordinate_system_code '2'
_symmetry_cell_setting 'orthorhombic'
loop_
_space_group_symop_operation_xyz
x,y,z
1/2-x,1/2-y,z
1/2+x,-y,-z
-x,1/2+y,-z
-x,-y,-z
1/2+x,1/2+y,-z
1/2-x,y,z
x,1/2-y,z
loop_
_atom_site_type_symbol
_atom_site_label
_atom_site_fract_x
_atom_site_fract_y
_atom_site_fract_z
Si Si1 0.925341 0.671616 0.831937
Si Si2 0.424302 0.564753 0.231758
Si Si3 0.428309 0.926293 0.726771
Si Si4 0.574632 0.939975 0.588782
Si Si5 0.574658 0.410898 0.544433
Si Si6 0.571101 0.175617 0.667875
Si Si7 0.424581 0.907570 0.943031
Si Si8 0.421844 0.544359 0.083906
O O1 0.750000 0.654474 0.824280
O O2 0.958591 0.750000 0.823143
O O3 0.015864 0.632298 0.775311
O O4 0.978929 0.649279 0.905815
O O5 0.250000 0.551660 0.251506
O O6 0.514173 0.497680 0.247617
O O7 0.492109 0.626803 0.274087
O O8 0.441578 0.583875 0.153612
O O9 0.250000 0.926571 0.726531
O O10 0.486816 0.910978 0.652343
O O11 0.750000 0.926694 0.599806
O O12 0.520902 0.900577 0.522739
O O13 0.537036 0.018753 0.580647
O O14 0.750000 0.407698 0.525288
O O15 0.525447 0.352318 0.595123
O O16 0.750000 0.178885 0.673965
O O17 0.500643 0.250000 0.676589
O O18 0.250000 0.894433 0.927330
O O19 0.467011 0.981089 0.915513
O O20 0.459607 0.905067 0.022718
O O21 0.250000 0.517626 0.075962
#
# Coordination Sequence:
#
# PCOD8240130 Si02
#       8
#     8   8   8   8   8   8   8   8
#     4  11  24  41  59  79 108 149 189 229 286 348
#     4  10  18  33  55  81 112 148 187 229 274 324
#     4  12  23  35  56  85 112 142 183 232 283 332
#     4  10  19  33  54  79 107 141 179 226 279 327
#     4   9  17  31  51  79 108 139 181 228 273 322
#     4   9  17  31  53  80 110 145 184 225 273 326
#     4  10  19  32  52  82 111 142 182 228 275 322
#     4   9  18  31  52  80 113 146 180 225 273 319
#
# _framework density 18.17022
#
# number of rings (size 3 to 8) (size 9 to 14) (size 15 to 20)
#    0.000    2.000    2.500    2.250    0.000    2.000 
#    0.000    1.250    0.000    6.000    0.000    0.000 
#    0.000    0.000    0.000    0.000    0.000    0.000 
#
# Total GULP energy -793661.139300 kJ/mol
# GULP energy per Si atom -12400.955302 kJ/mol
# Density = 1.812886 g / cm^3
# Si number density = 18.170220 Si / 1000 Ang^3
#
#
#
# Elastic Constant Matrix: (Units=GPa)
#
#
# Indices 1 2 3 4 5 6 
#
# 1 85.0405 42.9651 54.1450 0.0000 0.0000 0.0000
# 2 42.9651 101.5056 67.5155 0.0000 0.0000 0.0000
# 3 54.1450 67.5155 142.1957 0.0000 0.0000 0.0000
# 4 0.0000 0.0000 0.0000 26.6026 0.0000 0.0000
# 5 0.0000 0.0000 0.0000 0.0000 29.1166 0.0000
# 6 0.0000 0.0000 0.0000 0.0000 0.0000 15.5603
#
#
#
# Elastic Compliance Matrix: (Units=1/GPa)
#
#
# Indices 1 2 3 4 5 6 
#
# 1 0.016629 -0.004132 -0.004370 0.000000 0.000000 0.000000
# 2 -0.004132 0.015426 -0.005751 0.000000 0.000000 0.000000
# 3 -0.004370 -0.005751 0.011427 0.000000 0.000000 0.000000
# 4 0.000000 0.000000 0.000000 0.037590 0.000000 0.000000
# 5 0.000000 0.000000 0.000000 0.000000 0.034345 0.000000
# 6 0.000000 0.000000 0.000000 0.000000 0.000000 0.064266
#
#
# Mechanical properties :
#
#
# Convention : Reuss Voigt Hill
#
# Bulk Modulus (GPa) = 66.77311 73.11033 69.94172
# Shear Modulus (GPa) = 23.45421 25.19698 24.32559
#
# Velocity S-wave (km/s) = 3.59667 3.72791 3.66288
# Velocity P-wave (km/s) = 7.35367 7.67160 7.51432
#
# Compressibility (1/GPa) = 0.01497609
#
# Stress axis : x y z
#
# Youngs Moduli (GPa) = 60.13533 64.82630 87.51070
#
# Poissons Ratio (x) = 0.26786 0.38243
# Poissons Ratio (y) = 0.24848 0.50327
# Poissons Ratio (z) = 0.26280 0.37281
#
# Static dielectric constant tensor:
#      x y z
#    x 3.294670 0.000000 0.000000 
#    y 0.000000 3.216940 0.000000 
#    z 0.000000 0.000000 3.666090 
# 
# 
# High freq. dielectric constant tensor:
#      x y z
#    x 1.695760 0.000000 0.000000 
#    y 0.000000 1.671710 0.000000 
#    z 0.000000 0.000000 1.722540 
# 
# From -- ./inp_files/29572.got.cif
#   From: 2010.03.12/outbox.cif.g09.slc.cpg/sg59_15_cif.got.tgz:29572.got - 2010.04.16 16:29:54.
