data_PCOD8240485
_publ_section_title
;
Structure prediction by ZEFSAII (Michael W. Deem and Ramdas Pophale) SiO2 
 PCOD8240485
Probable space group: P M M N
;
_chemical_formula_sum "Si O2"
_cell_formula_units_Z 40
_cell_length_a 9.162146
_cell_length_b 18.790229
_cell_length_c 13.807802
_cell_angle_alpha 90.000000
_cell_angle_beta 90.000000
_cell_angle_gamma 90.000000
_cell_volume 2377.134919
_symmetry_space_group_name_H-M "P M M N"
_symmetry_group_IT_number 59
_space_group.IT_coordinate_system_code '2'
_symmetry_cell_setting 'orthorhombic'
loop_
_space_group_symop_operation_xyz
x,y,z
1/2-x,1/2-y,z
1/2+x,-y,-z
-x,1/2+y,-z
-x,-y,-z
1/2+x,1/2+y,-z
1/2-x,y,z
x,1/2-y,z
loop_
_atom_site_type_symbol
_atom_site_label
_atom_site_fract_x
_atom_site_fract_y
_atom_site_fract_z
Si Si1 0.083141 0.172261 0.314014
Si Si2 0.913487 0.129195 0.135109
Si Si3 0.578836 0.525758 0.595445
Si Si4 0.421517 0.428185 0.970080
Si Si5 0.911020 0.524944 0.229553
O O1 0.250000 0.157149 0.284241
O O2 0.067165 0.250000 0.365758
O O3 0.032298 0.108144 0.384690
O O4 0.989841 0.177109 0.216226
O O5 0.750000 0.157613 0.116673
O O6 0.911366 0.049231 0.173551
O O7 0.004214 0.134332 0.034053
O O8 0.500000 0.500000 0.500000
O O9 0.750000 0.516834 0.581289
O O10 0.528908 0.475328 0.684514
O O11 0.250000 0.433118 0.994245
O O12 0.446079 0.416001 0.853855
O O13 0.500000 0.500000 0.000000
O O14 0.750000 0.538861 0.274459
#
# Coordination Sequence:
#
# PCOD8240485 Si02
#       5
#     8   8   8   8   8
#     4   9  18  32  48  66  89 119 154 189 228 278
#     4   9  16  25  39  61  88 116 144 176 216 263
#     4  10  19  30  46  66  90 119 151 193 241 284
#     4   9  15  23  37  58  85 115 143 173 209 252
#     4   8  15  26  39  58  85 114 145 180 217 260
#
# _framework density 16.826979999999999
#
# number of rings (size 3 to 8) (size 9 to 14) (size 15 to 20)
#    0.000    3.000    0.000    3.000    0.000    6.800 
#    0.000    0.000    0.000    0.000    0.000    1.400 
#    0.000    4.800    0.000    0.000    0.000    0.000 
#
# Total GULP energy -495554.049211 kJ/mol
# GULP energy per Si atom -12388.851230 kJ/mol
# Density = 1.678868 g / cm^3
# Si number density = 16.826980 Si / 1000 Ang^3
#
#
#
# Elastic Constant Matrix: (Units=GPa)
#
#
# Indices 1 2 3 4 5 6 
#
# 1 109.1594 29.8469 64.5876 0.0000 0.0000 0.0000
# 2 29.8469 50.2515 41.0492 0.0000 0.0000 0.0000
# 3 64.5876 41.0492 118.2265 0.0000 0.0000 0.0000
# 4 0.0000 0.0000 0.0000 14.2143 0.0000 0.0000
# 5 0.0000 0.0000 0.0000 0.0000 34.5347 0.0000
# 6 0.0000 0.0000 0.0000 0.0000 0.0000 12.1868
#
#
#
# Elastic Compliance Matrix: (Units=1/GPa)
#
#
# Indices 1 2 3 4 5 6 
#
# 1 0.013823 -0.002850 -0.006562 0.000000 0.000000 0.000000
# 2 -0.002850 0.028366 -0.008292 0.000000 0.000000 0.000000
# 3 -0.006562 -0.008292 0.014922 0.000000 0.000000 0.000000
# 4 0.000000 0.000000 0.000000 0.070352 0.000000 0.000000
# 5 0.000000 0.000000 0.000000 0.000000 0.028956 0.000000
# 6 0.000000 0.000000 0.000000 0.000000 0.000000 0.082056
#
#
# Mechanical properties :
#
#
# Convention : Reuss Voigt Hill
#
# Bulk Modulus (GPa) = 46.07554 60.95608 53.51581
# Shear Modulus (GPa) = 17.78619 21.66408 19.72514
#
# Velocity S-wave (km/s) = 3.25469 3.59201 3.42750
# Velocity P-wave (km/s) = 6.44712 7.31487 6.89466
#
# Compressibility (1/GPa) = 0.02170349
#
# Stress axis : x y z
#
# Youngs Moduli (GPa) = 72.34499 35.25330 67.01394
#
# Poissons Ratio (x) = 0.10046 0.43974
# Poissons Ratio (y) = 0.20616 0.55569
# Poissons Ratio (z) = 0.47472 0.29233
#
# Static dielectric constant tensor:
#      x y z
#    x 3.376020 0.000000 0.000000 
#    y 0.000000 2.952160 0.000000 
#    z 0.000000 0.000000 3.458620 
# 
# 
# High freq. dielectric constant tensor:
#      x y z
#    x 1.662980 0.000000 0.000000 
#    y 0.000000 1.595070 0.000000 
#    z 0.000000 0.000000 1.637050 
# 
# From -- ./inp_files/14084.got.cif
#   From: 2010.03.12/outbox.cif.g09.slc.cpg/sg59_8_cif.got.tgz:14084.got - 2010.04.16 16:29:54.
