data_PCOD8240659
_publ_section_title
;
Structure prediction by ZEFSAII (Michael W. Deem and Ramdas Pophale) SiO2 
 PCOD8240659
Probable space group: P M M N
;
_chemical_formula_sum "Si O2"
_cell_formula_units_Z 64
_cell_length_a 33.234053
_cell_length_b 9.001102
_cell_length_c 11.490067
_cell_angle_alpha 90.000000
_cell_angle_beta 90.000000
_cell_angle_gamma 90.000000
_cell_volume 3437.174272
_symmetry_space_group_name_H-M "P M M N"
_symmetry_group_IT_number 59
_space_group.IT_coordinate_system_code '2'
_symmetry_cell_setting 'orthorhombic'
loop_
_space_group_symop_operation_xyz
x,y,z
1/2-x,1/2-y,z
1/2+x,-y,-z
-x,1/2+y,-z
-x,-y,-z
1/2+x,1/2+y,-z
1/2-x,y,z
x,1/2-y,z
loop_
_atom_site_type_symbol
_atom_site_label
_atom_site_fract_x
_atom_site_fract_y
_atom_site_fract_z
Si Si1 0.704066 0.918599 0.183676
Si Si2 0.872142 0.578191 0.872255
Si Si3 0.861441 0.081493 0.306276
Si Si4 0.416795 0.919888 0.918140
Si Si5 0.441501 0.079184 0.299197
Si Si6 0.018447 0.423651 0.776454
Si Si7 0.295531 0.925024 0.059681
Si Si8 0.573339 0.923004 0.440182
O O1 0.750000 0.924915 0.223433
O O2 0.690388 0.750000 0.157645
O O3 0.679037 0.986514 0.290347
O O4 0.696466 0.015976 0.069445
O O5 0.864968 0.750000 0.901256
O O6 0.896906 0.556829 0.753079
O O7 0.897681 0.506878 0.975387
O O8 0.828512 0.500086 0.855933
O O9 0.850063 0.250000 0.336208
O O10 0.886665 0.068111 0.188863
O O11 0.886366 0.014261 0.413077
O O12 0.424681 0.750000 0.954393
O O13 0.458993 0.994275 0.882075
O O14 0.455266 0.250000 0.288726
O O15 0.441608 0.027170 0.433018
O O16 0.472709 0.979520 0.227099
O O17 0.019428 0.250000 0.802980
O O18 0.038769 0.462559 0.652529
O O19 0.250000 0.964892 0.100809
O O20 0.302591 0.750000 0.058378
O O21 0.584422 0.750000 0.436984
#
# Coordination Sequence:
#
# PCOD8240659 Si02
#       8
#     8   8   8   8   8   8   8   8
#     4  10  19  30  49  78 109 139 170 208 257 314
#     4  11  22  35  54  78 108 142 178 217 259 315
#     4  10  19  31  51  78 106 136 171 214 264 313
#     4  10  20  34  52  75 106 142 174 212 265 317
#     4  10  22  38  54  76 105 140 179 222 267 311
#     4  10  20  34  56  81 103 134 175 223 271 319
#     4  10  20  34  53  78 108 140 173 212 259 308
#     4   9  19  36  56  76 102 135 176 223 268 315
#
# _framework density 18.619947
#
# number of rings (size 3 to 8) (size 9 to 14) (size 15 to 20)
#    0.000    2.000    1.250    2.625    0.000    5.000 
#    0.000    0.000    0.000    0.750    0.000    1.750 
#    0.000    0.000    0.000    0.000    0.000    0.000 
#
# Total GULP energy -793786.672113 kJ/mol
# GULP energy per Si atom -12402.916752 kJ/mol
# Density = 1.857757 g / cm^3
# Si number density = 18.619947 Si / 1000 Ang^3
#
#
#
# Elastic Constant Matrix: (Units=GPa)
#
#
# Indices 1 2 3 4 5 6 
#
# 1 109.8502 53.6013 21.2489 0.0000 0.0000 0.0000
# 2 53.6013 106.9766 22.3570 0.0000 0.0000 0.0000
# 3 21.2489 22.3570 33.9897 0.0000 0.0000 0.0000
# 4 0.0000 0.0000 0.0000 19.7681 0.0000 0.0000
# 5 0.0000 0.0000 0.0000 0.0000 22.9168 0.0000
# 6 0.0000 0.0000 0.0000 0.0000 0.0000 36.2960
#
#
#
# Elastic Compliance Matrix: (Units=1/GPa)
#
#
# Indices 1 2 3 4 5 6 
#
# 1 0.012571 -0.005398 -0.004308 0.000000 0.000000 0.000000
# 2 -0.005398 0.013156 -0.005279 0.000000 0.000000 0.000000
# 3 -0.004308 -0.005279 0.035586 0.000000 0.000000 0.000000
# 4 0.000000 0.000000 0.000000 0.050587 0.000000 0.000000
# 5 0.000000 0.000000 0.000000 0.000000 0.043636 0.000000
# 6 0.000000 0.000000 0.000000 0.000000 0.000000 0.027551
#
#
# Mechanical properties :
#
#
# Convention : Reuss Voigt Hill
#
# Bulk Modulus (GPa) = 31.90525 49.47010 40.68767
# Shear Modulus (GPa) = 22.37102 26.03680 24.20391
#
# Velocity S-wave (km/s) = 3.46996 3.74348 3.60931
# Velocity P-wave (km/s) = 5.76423 6.73133 6.26647
#
# Compressibility (1/GPa) = 0.03134280
#
# Stress axis : x y z
#
# Youngs Moduli (GPa) = 79.55000 76.01167 28.10111
#
# Poissons Ratio (x) = 0.41034 0.12106
# Poissons Ratio (y) = 0.42944 0.14833
# Poissons Ratio (z) = 0.34269 0.40123
#
# Static dielectric constant tensor:
#      x y z
#    x 3.553190 0.000000 0.000000 
#    y 0.000000 3.543460 0.000000 
#    z 0.000000 0.000000 3.200670 
# 
# 
# High freq. dielectric constant tensor:
#      x y z
#    x 1.726550 0.000000 0.000000 
#    y 0.000000 1.736330 0.000000 
#    z 0.000000 0.000000 1.688330 
# 
# From -- ./inp_files/19394.got.cif
#   From: 2010.03.12/outbox.cif.g09.slc.cpg/sg59_10_cif.got.tgz:19394.got - 2010.04.16 16:29:54.
