data_PCOD8240667
_publ_section_title
;
Structure prediction by ZEFSAII (Michael W. Deem and Ramdas Pophale) SiO2 
 PCOD8240667
Probable space group: P M M N
;
_chemical_formula_sum "Si O2"
_cell_formula_units_Z 48
_cell_length_a 9.199811
_cell_length_b 15.425257
_cell_length_c 19.145660
_cell_angle_alpha 90.000000
_cell_angle_beta 90.000000
_cell_angle_gamma 90.000000
_cell_volume 2716.950062
_symmetry_space_group_name_H-M "P M M N"
_symmetry_group_IT_number 59
_space_group.IT_coordinate_system_code '2'
_symmetry_cell_setting 'orthorhombic'
loop_
_space_group_symop_operation_xyz
x,y,z
1/2-x,1/2-y,z
1/2+x,-y,-z
-x,1/2+y,-z
-x,-y,-z
1/2+x,1/2+y,-z
1/2-x,y,z
x,1/2-y,z
loop_
_atom_site_type_symbol
_atom_site_label
_atom_site_fract_x
_atom_site_fract_y
_atom_site_fract_z
Si Si1 0.582341 0.505246 0.837698
Si Si2 0.415354 0.585610 0.298973
Si Si3 0.422864 0.576101 0.458679
Si Si4 0.584329 0.750000 0.459916
Si Si5 0.588819 0.750000 0.294189
Si Si6 0.581872 0.150763 0.085467
Si Si7 0.577064 0.154254 0.928200
O O1 0.750000 0.515689 0.857874
O O2 0.561701 0.494375 0.754098
O O3 0.501754 0.591932 0.859439
O O4 0.517004 0.420598 0.877278
O O5 0.250000 0.618422 0.298354
O O6 0.459172 0.558539 0.377198
O O7 0.508257 0.664459 0.267974
O O8 0.500000 0.500000 0.500000
O O9 0.250000 0.578046 0.472901
O O10 0.495041 0.665667 0.485168
O O11 0.750000 0.750000 0.490208
O O12 0.589867 0.750000 0.377301
O O13 0.750000 0.750000 0.262901
O O14 0.750000 0.126826 0.090586
O O15 0.554074 0.250000 0.106791
O O16 0.524244 0.133452 0.006990
O O17 0.750000 0.157467 0.926753
O O18 0.518241 0.250000 0.905462
#
# Coordination Sequence:
#
# PCOD8240667 Si02
#       7
#     8   8   8   4   4   8   8
#     4  10  19  30  50  75  97 126 165 204 245 289
#     4   9  19  32  48  73 103 132 164 202 248 297
#     4  10  19  33  53  76 104 135 170 209 251 299
#     4   9  17  31  51  77 103 131 164 199 246 299
#     4   9  17  29  47  71 101 133 162 191 236 297
#     4   9  18  33  50  67  93 130 167 204 249 292
#     4   8  15  28  47  72  99 128 161 195 238 296
#
# _framework density 17.666869999999999
#
# number of rings (size 3 to 8) (size 9 to 14) (size 15 to 20)
#    0.000    2.833    0.000    2.500    1.167    3.667 
#    0.000    0.000    1.833    1.000    0.000    0.000 
#    0.000    0.000    0.000    0.000    0.000    0.000 
#
# Total GULP energy -595028.409196 kJ/mol
# GULP energy per Si atom -12396.425192 kJ/mol
# Density = 1.762666 g / cm^3
# Si number density = 17.666870 Si / 1000 Ang^3
#
#
#
# Elastic Constant Matrix: (Units=GPa)
#
#
# Indices 1 2 3 4 5 6 
#
# 1 77.6005 55.4989 38.6963 0.0000 0.0000 0.0000
# 2 55.4989 118.6887 57.1651 0.0000 0.0000 0.0000
# 3 38.6963 57.1651 74.1080 0.0000 0.0000 0.0000
# 4 0.0000 0.0000 0.0000 26.6648 0.0000 0.0000
# 5 0.0000 0.0000 0.0000 0.0000 20.8949 0.0000
# 6 0.0000 0.0000 0.0000 0.0000 0.0000 35.3939
#
#
#
# Elastic Compliance Matrix: (Units=1/GPa)
#
#
# Indices 1 2 3 4 5 6 
#
# 1 0.020587 -0.007079 -0.005289 0.000000 0.000000 0.000000
# 2 -0.007079 0.015840 -0.008522 0.000000 0.000000 0.000000
# 3 -0.005289 -0.008522 0.022830 0.000000 0.000000 0.000000
# 4 0.000000 0.000000 0.000000 0.037503 0.000000 0.000000
# 5 0.000000 0.000000 0.000000 0.000000 0.047859 0.000000
# 6 0.000000 0.000000 0.000000 0.000000 0.000000 0.028253
#
#
# Mechanical properties :
#
#
# Convention : Reuss Voigt Hill
#
# Bulk Modulus (GPa) = 57.22247 63.67977 60.45112
# Shear Modulus (GPa) = 22.67808 24.52652 23.60230
#
# Velocity S-wave (km/s) = 3.58669 3.73000 3.65905
# Velocity P-wave (km/s) = 7.04361 7.39416 7.22101
#
# Compressibility (1/GPa) = 0.01747565
#
# Stress axis : x y z
#
# Youngs Moduli (GPa) = 48.57496 63.13031 43.80294
#
# Poissons Ratio (x) = 0.44690 0.23168
# Poissons Ratio (y) = 0.34386 0.37331
# Poissons Ratio (z) = 0.25692 0.53802
#
# Static dielectric constant tensor:
#      x y z
#    x 3.200640 0.000000 0.000000 
#    y 0.000000 3.289390 0.000000 
#    z 0.000000 0.000000 3.175770 
# 
# 
# High freq. dielectric constant tensor:
#      x y z
#    x 1.670260 0.000000 0.000000 
#    y 0.000000 1.679140 0.000000 
#    z 0.000000 0.000000 1.665180 
# 
# From -- ./inp_files/25582.got.cif
#   From: 2010.03.12/outbox.cif.g09.slc.cpg/sg59_13_cif.got.tgz:25582.got - 2010.04.16 16:29:54.
