data_PCOD8240799
_publ_section_title
;
Structure prediction by ZEFSAII (Michael W. Deem and Ramdas Pophale) SiO2 
 PCOD8240799
Probable space group: P M M N
;
_chemical_formula_sum "Si O2"
_cell_formula_units_Z 64
_cell_length_a 9.582371
_cell_length_b 19.613816
_cell_length_c 19.135570
_cell_angle_alpha 90.000000
_cell_angle_beta 90.000000
_cell_angle_gamma 90.000000
_cell_volume 3596.470327
_symmetry_space_group_name_H-M "P M M N"
_symmetry_group_IT_number 59
_space_group.IT_coordinate_system_code '2'
_symmetry_cell_setting 'orthorhombic'
loop_
_space_group_symop_operation_xyz
x,y,z
1/2-x,1/2-y,z
1/2+x,-y,-z
-x,1/2+y,-z
-x,-y,-z
1/2+x,1/2+y,-z
1/2-x,y,z
x,1/2-y,z
loop_
_atom_site_type_symbol
_atom_site_label
_atom_site_fract_x
_atom_site_fract_y
_atom_site_fract_z
Si Si1 0.413185 0.954811 0.553808
Si Si2 0.087321 0.563600 0.712253
Si Si3 0.093156 0.052258 0.922879
Si Si4 0.091484 0.829402 0.323648
Si Si5 0.585798 0.176555 0.523310
Si Si6 0.914811 0.829542 0.797567
Si Si7 0.411149 0.079830 0.073937
Si Si8 0.406347 0.419956 0.772362
O O1 0.250000 0.970989 0.542082
O O2 0.456838 0.962245 0.634550
O O3 0.452085 0.876945 0.535952
O O4 0.500000 0.000000 0.500000
O O5 0.250000 0.585406 0.712600
O O6 0.056169 0.499817 0.762486
O O7 0.996712 0.628257 0.737719
O O8 0.250000 0.022395 0.928915
O O9 0.080116 0.099138 0.854225
O O10 0.059717 0.097924 0.991940
O O11 0.991161 0.989478 0.911184
O O12 0.250000 0.854470 0.318557
O O13 0.078205 0.750000 0.306454
O O14 0.027351 0.845288 0.400468
O O15 0.008088 0.870842 0.267178
O O16 0.750000 0.184048 0.533886
O O17 0.523193 0.250000 0.500617
O O18 0.750000 0.837517 0.784009
O O19 0.958959 0.750000 0.794693
O O20 0.957963 0.859105 0.874236
O O21 0.250000 0.064281 0.087688
O O22 0.250000 0.407225 0.744447
#
# Coordination Sequence:
#
# PCOD8240799 Si02
#       8
#     8   8   8   8   8   8   8   8
#     4  10  20  33  52  77 103 132 166 210 259 305
#     4  10  21  35  51  76 107 137 173 213 258 315
#     4   9  17  30  50  74 101 130 163 205 251 301
#     4   9  18  32  50  71  95 126 165 207 250 298
#     4   8  15  30  50  69  90 122 166 207 241 287
#     4  10  21  36  53  75 105 139 178 224 267 309
#     4   9  17  31  51  74  97 128 171 211 250 297
#     4  10  19  31  48  73 105 134 162 202 249 303
#
# _framework density 17.795224000000001
#
# number of rings (size 3 to 8) (size 9 to 14) (size 15 to 20)
#    0.000    2.625    1.250    1.500    0.000    2.500 
#    0.000    1.875    0.000    3.375    0.000    0.000 
#    0.000    0.000    0.000    0.000    0.000    0.000 
#
# Total GULP energy -793136.673467 kJ/mol
# GULP energy per Si atom -12392.760523 kJ/mol
# Density = 1.775472 g / cm^3
# Si number density = 17.795224 Si / 1000 Ang^3
#
#
#
# Elastic Constant Matrix: (Units=GPa)
#
#
# Indices 1 2 3 4 5 6 
#
# 1 48.1905 31.1004 35.2540 0.0000 0.0000 0.0000
# 2 31.1004 55.0738 43.2618 0.0000 0.0000 0.0000
# 3 35.2540 43.2618 111.9898 0.0000 0.0000 0.0000
# 4 0.0000 0.0000 0.0000 27.2821 0.0000 0.0000
# 5 0.0000 0.0000 0.0000 0.0000 24.8864 0.0000
# 6 0.0000 0.0000 0.0000 0.0000 0.0000 26.1071
#
#
#
# Elastic Compliance Matrix: (Units=1/GPa)
#
#
# Indices 1 2 3 4 5 6 
#
# 1 0.034334 -0.015646 -0.004764 0.000000 0.000000 0.000000
# 2 -0.015646 0.033198 -0.007899 0.000000 0.000000 0.000000
# 3 -0.004764 -0.007899 0.013480 0.000000 0.000000 0.000000
# 4 0.000000 0.000000 0.000000 0.036654 0.000000 0.000000
# 5 0.000000 0.000000 0.000000 0.000000 0.040183 0.000000
# 6 0.000000 0.000000 0.000000 0.000000 0.000000 0.038304
#
#
# Mechanical properties :
#
#
# Convention : Reuss Voigt Hill
#
# Bulk Modulus (GPa) = 40.99433 48.27628 44.63531
# Shear Modulus (GPa) = 19.16434 22.69765 20.93100
#
# Velocity S-wave (km/s) = 3.28523 3.57528 3.43332
# Velocity P-wave (km/s) = 6.12185 6.65065 6.39172
#
# Compressibility (1/GPa) = 0.02439362
#
# Stress axis : x y z
#
# Youngs Moduli (GPa) = 29.12607 30.12263 74.18145
#
# Poissons Ratio (x) = 0.47130 0.35340
# Poissons Ratio (y) = 0.45571 0.58596
# Poissons Ratio (z) = 0.13876 0.23794
#
# Static dielectric constant tensor:
#      x y z
#    x 3.174400 0.000000 0.000000 
#    y 0.000000 2.819230 0.000000 
#    z 0.000000 0.000000 3.521860 
# 
# 
# High freq. dielectric constant tensor:
#      x y z
#    x 1.672860 0.000000 0.000000 
#    y 0.000000 1.668800 0.000000 
#    z 0.000000 0.000000 1.702600 
# 
# From -- ./inp_files/26361.got.cif
#   From: 2010.03.12/outbox.cif.g09.slc.cpg/sg59_14_cif.got.tgz:26361.got - 2010.04.16 16:29:54.
