data_PCOD8240068
_publ_section_title
;
Structure prediction by ZEFSAII (Michael W. Deem and Ramdas Pophale) SiO2 
 PCOD8240068
Probable space group: P M M N
;
_chemical_formula_sum "Si O2"
_cell_formula_units_Z 48
_cell_length_a 19.215634
_cell_length_b 8.890524
_cell_length_c 13.839857
_cell_angle_alpha 90.000000
_cell_angle_beta 90.000000
_cell_angle_gamma 90.000000
_cell_volume 2364.360415
_symmetry_space_group_name_H-M "P M M N"
_symmetry_group_IT_number 59
_space_group.IT_coordinate_system_code '2'
_symmetry_cell_setting 'orthorhombic'
loop_
_space_group_symop_operation_xyz
x,y,z
1/2-x,1/2-y,z
1/2+x,-y,-z
-x,1/2+y,-z
-x,-y,-z
1/2+x,1/2+y,-z
1/2-x,y,z
x,1/2-y,z
loop_
_atom_site_type_symbol
_atom_site_label
_atom_site_fract_x
_atom_site_fract_y
_atom_site_fract_z
Si Si1 0.174174 0.927359 0.213356
Si Si2 0.829258 0.571648 0.428439
Si Si3 0.089866 0.927691 0.395235
Si Si4 0.830861 0.075949 0.001578
Si Si5 0.047652 0.071937 0.699776
Si Si6 0.455238 0.426551 0.914912
O O1 0.250000 0.001448 0.230371
O O2 0.182350 0.750000 0.219121
O O3 0.122264 0.984737 0.294515
O O4 0.146021 0.968565 0.107216
O O5 0.750000 0.507305 0.420763
O O6 0.826594 0.750000 0.435321
O O7 0.869306 0.512639 0.521793
O O8 0.875528 0.518883 0.335968
O O9 0.098256 0.750000 0.412353
O O10 0.008845 0.976355 0.382498
O O11 0.750000 0.043104 0.018490
O O12 0.848248 0.250000 0.022664
O O13 0.874284 0.968083 0.071331
O O14 0.046385 0.250000 0.708208
O O15 0.027737 0.010583 0.806756
O O16 0.467673 0.250000 0.920767
O O17 0.500000 0.500000 0.000000
#
# Coordination Sequence:
#
# PCOD8240068 Si02
#       6
#     8   8   8   8   8   8
#     4   8  14  26  47  74 103 137 173 210 261 323
#     4  10  21  37  55  77 108 142 174 212 262 318
#     4  10  18  32  56  80 102 132 177 226 264 309
#     4   9  18  34  55  79 110 147 185 226 274 327
#     4   9  20  37  56  77 103 142 184 217 259 323
#     4  11  22  37  58  82 109 143 186 231 275 326
#
# _framework density 20.301473999999999
#
# number of rings (size 3 to 8) (size 9 to 14) (size 15 to 20)
#    0.000    2.500    0.000    3.500    0.000    4.667 
#    0.000    7.500    0.000    1.000    0.000    0.000 
#    0.000    0.000    0.000    0.000    0.000    0.000 
#
# Total GULP energy -594756.421449 kJ/mol
# GULP energy per Si atom -12390.758780 kJ/mol
# Density = 2.025527 g / cm^3
# Si number density = 20.301474 Si / 1000 Ang^3
#
#
#
# Elastic Constant Matrix: (Units=GPa)
#
#
# Indices 1 2 3 4 5 6 
#
# 1 128.1585 21.8754 66.2082 0.0000 0.0000 0.0000
# 2 21.8754 25.4621 18.7716 0.0000 0.0000 0.0000
# 3 66.2082 18.7716 109.4863 0.0000 0.0000 0.0000
# 4 0.0000 0.0000 0.0000 24.1378 0.0000 0.0000
# 5 0.0000 0.0000 0.0000 0.0000 23.1810 0.0000
# 6 0.0000 0.0000 0.0000 0.0000 0.0000 28.0967
#
#
#
# Elastic Compliance Matrix: (Units=1/GPa)
#
#
# Indices 1 2 3 4 5 6 
#
# 1 0.012028 -0.005690 -0.006298 0.000000 0.000000 0.000000
# 2 -0.005690 0.047649 -0.004728 0.000000 0.000000 0.000000
# 3 -0.006298 -0.004728 0.013753 0.000000 0.000000 0.000000
# 4 0.000000 0.000000 0.000000 0.041429 0.000000 0.000000
# 5 0.000000 0.000000 0.000000 0.000000 0.043139 0.000000
# 6 0.000000 0.000000 0.000000 0.000000 0.000000 0.035591
#
#
# Mechanical properties :
#
#
# Convention : Reuss Voigt Hill
#
# Bulk Modulus (GPa) = 25.00246 52.97971 38.99108
# Shear Modulus (GPa) = 20.80273 25.49987 23.15130
#
# Velocity S-wave (km/s) = 3.20455 3.54794 3.38061
# Velocity P-wave (km/s) = 5.10240 6.55263 5.87246
#
# Compressibility (1/GPa) = 0.03999606
#
# Stress axis : x y z
#
# Youngs Moduli (GPa) = 83.14226 20.98684 72.71388
#
# Poissons Ratio (x) = 0.11942 0.45793
# Poissons Ratio (y) = 0.47312 0.34382
# Poissons Ratio (z) = 0.52360 0.09923
#
# Static dielectric constant tensor:
#      x y z
#    x 4.477510 0.000000 0.000000 
#    y 0.000000 3.224350 0.000000 
#    z 0.000000 0.000000 4.011170 
# 
# 
# High freq. dielectric constant tensor:
#      x y z
#    x 1.812420 0.000000 0.000000 
#    y 0.000000 1.742250 0.000000 
#    z 0.000000 0.000000 1.797180 
# 
# From -- ./inp_files/23667.got.cif
#   From: 2010.03.12/outbox.cif.g09.slc.cpg/sg59_12_cif.got.tgz:23667.got - 2010.04.16 16:29:54.
