data_PCOD8240133
_publ_section_title
;
Structure prediction by ZEFSAII (Michael W. Deem and Ramdas Pophale) SiO2 
 PCOD8240133
Probable space group: P M M N
;
_chemical_formula_sum "Si O2"
_cell_formula_units_Z 48
_cell_length_a 20.392542
_cell_length_b 9.041134
_cell_length_c 14.541503
_cell_angle_alpha 90.000000
_cell_angle_beta 90.000000
_cell_angle_gamma 90.000000
_cell_volume 2681.041699
_symmetry_space_group_name_H-M "P M M N"
_symmetry_group_IT_number 59
_space_group.IT_coordinate_system_code '2'
_symmetry_cell_setting 'orthorhombic'
loop_
_space_group_symop_operation_xyz
x,y,z
1/2-x,1/2-y,z
1/2+x,-y,-z
-x,1/2+y,-z
-x,-y,-z
1/2+x,1/2+y,-z
1/2-x,y,z
x,1/2-y,z
loop_
_atom_site_type_symbol
_atom_site_label
_atom_site_fract_x
_atom_site_fract_y
_atom_site_fract_z
Si Si1 0.823314 0.420546 0.428802
Si Si2 0.372288 0.075745 0.748286
Si Si3 0.060425 0.574336 0.051832
Si Si4 0.174687 0.078466 0.947856
Si Si5 0.941123 0.075194 0.553153
Si Si6 0.480437 0.575407 0.249795
O O1 0.750000 0.446710 0.466555
O O2 0.836705 0.250000 0.406618
O O3 0.831631 0.507992 0.334705
O O4 0.872883 0.476632 0.507822
O O5 0.372385 0.250000 0.734290
O O6 0.336982 0.030574 0.842755
O O7 0.445918 0.009698 0.748838
O O8 0.054585 0.750000 0.040633
O O9 0.057513 0.523527 0.158469
O O10 0.129792 0.519676 0.013858
O O11 0.000000 0.500000 0.000000
O O12 0.250000 0.048477 0.974286
O O13 0.155753 0.250000 0.960967
O O14 0.951202 0.250000 0.547025
O O15 0.941359 0.021880 0.659505
O O16 0.000000 0.000000 0.500000
O O17 0.486878 0.750000 0.248449
#
# Coordination Sequence:
#
# PCOD8240133 Si02
#       6
#     8   8   8   8   8   8
#     4  10  21  34  49  76 111 139 168 212 265 312
#     4  10  18  33  56  79 106 140 175 212 260 317
#     4  11  21  36  57  80 108 141 181 223 265 316
#     4  10  21  37  55  78 110 145 178 217 271 325
#     4  10  19  34  54  75 102 136 173 213 257 304
#     4   9  18  33  54  79 105 132 174 220 258 310
#
# _framework density 17.903487999999999
#
# number of rings (size 3 to 8) (size 9 to 14) (size 15 to 20)
#    0.000    2.000    3.333    1.000    0.000    2.000 
#    0.000    2.500    0.000    3.000    0.000    0.000 
#    0.000    0.000    0.000    0.000    0.000    0.000 
#
# Total GULP energy -595201.056240 kJ/mol
# GULP energy per Si atom -12400.022005 kJ/mol
# Density = 1.786274 g / cm^3
# Si number density = 17.903488 Si / 1000 Ang^3
#
#
#
# Elastic Constant Matrix: (Units=GPa)
#
#
# Indices 1 2 3 4 5 6 
#
# 1 131.7640 37.1465 73.6155 0.0000 0.0000 0.0000
# 2 37.1465 40.0545 42.3638 0.0000 0.0000 0.0000
# 3 73.6155 42.3638 153.7890 0.0000 0.0000 0.0000
# 4 0.0000 0.0000 0.0000 23.1801 0.0000 0.0000
# 5 0.0000 0.0000 0.0000 0.0000 33.3598 0.0000
# 6 0.0000 0.0000 0.0000 0.0000 0.0000 27.1818
#
#
#
# Elastic Compliance Matrix: (Units=1/GPa)
#
#
# Indices 1 2 3 4 5 6 
#
# 1 0.011560 -0.006870 -0.003641 0.000000 0.000000 0.000000
# 2 -0.006870 0.039313 -0.007541 0.000000 0.000000 0.000000
# 3 -0.003641 -0.007541 0.010323 0.000000 0.000000 0.000000
# 4 0.000000 0.000000 0.000000 0.043140 0.000000 0.000000
# 5 0.000000 0.000000 0.000000 0.000000 0.029976 0.000000
# 6 0.000000 0.000000 0.000000 0.000000 0.000000 0.036789
#
#
# Mechanical properties :
#
#
# Convention : Reuss Voigt Hill
#
# Bulk Modulus (GPa) = 39.85379 70.20659 55.03019
# Shear Modulus (GPa) = 23.19431 28.24311 25.71871
#
# Velocity S-wave (km/s) = 3.60324 3.97611 3.79426
# Velocity P-wave (km/s) = 6.29442 7.77035 7.07100
#
# Compressibility (1/GPa) = 0.02509172
#
# Stress axis : x y z
#
# Youngs Moduli (GPa) = 86.50188 25.43701 96.87393
#
# Poissons Ratio (x) = 0.17475 0.35275
# Poissons Ratio (y) = 0.59426 0.73052
# Poissons Ratio (z) = 0.31498 0.19182
#
# Static dielectric constant tensor:
#      x y z
#    x 3.397520 0.000000 0.000000 
#    y 0.000000 3.144700 0.000000 
#    z 0.000000 0.000000 3.655830 
# 
# 
# High freq. dielectric constant tensor:
#      x y z
#    x 1.694470 0.000000 0.000000 
#    y 0.000000 1.673700 0.000000 
#    z 0.000000 0.000000 1.696910 
# 
# From -- ./inp_files/20337.got.cif
#   From: 2010.03.12/outbox.cif.g09.slc.cpg/sg59_11_cif.got.tgz:20337.got - 2010.04.16 16:29:54.
