data_PCOD8240832
_publ_section_title
;
Structure prediction by ZEFSAII (Michael W. Deem and Ramdas Pophale) SiO2 
 PCOD8240832
Probable space group: P M M N
;
_chemical_formula_sum "Si O2"
_cell_formula_units_Z 64
_cell_length_a 9.148743
_cell_length_b 27.118745
_cell_length_c 14.483826
_cell_angle_alpha 90.000000
_cell_angle_beta 90.000000
_cell_angle_gamma 90.000000
_cell_volume 3593.472404
_symmetry_space_group_name_H-M "P M M N"
_symmetry_group_IT_number 59
_space_group.IT_coordinate_system_code '2'
_symmetry_cell_setting 'orthorhombic'
loop_
_space_group_symop_operation_xyz
x,y,z
1/2-x,1/2-y,z
1/2+x,-y,-z
-x,1/2+y,-z
-x,-y,-z
1/2+x,1/2+y,-z
1/2-x,y,z
x,1/2-y,z
loop_
_atom_site_type_symbol
_atom_site_label
_atom_site_fract_x
_atom_site_fract_y
_atom_site_fract_z
Si Si1 0.420843 0.081962 0.846181
Si Si2 0.418234 0.306872 0.356147
Si Si3 0.919742 0.111243 0.464190
Si Si4 0.583116 0.420417 0.664139
Si Si5 0.079761 0.033837 0.344148
Si Si6 0.082534 0.307310 0.144116
Si Si7 0.918725 0.468684 0.161127
Si Si8 0.079437 0.884083 0.979099
O O1 0.250000 0.092451 0.850175
O O2 0.479587 0.098582 0.746069
O O3 0.459624 0.024725 0.864278
O O4 0.498108 0.115026 0.923244
O O5 0.250000 0.320439 0.375329
O O6 0.448102 0.250000 0.378440
O O7 0.521117 0.338110 0.422589
O O8 0.457470 0.318696 0.250208
O O9 0.750000 0.105481 0.439964
O O10 0.944812 0.113011 0.574376
O O11 0.003426 0.064171 0.424713
O O12 0.750000 0.416774 0.698491
O O13 0.545774 0.476699 0.637753
O O14 0.250000 0.046342 0.344834
O O15 0.016210 0.050692 0.245541
O O16 0.250000 0.322208 0.124468
O O17 0.058009 0.250000 0.122480
O O18 0.975672 0.337859 0.079320
O O19 0.750000 0.464420 0.190830
O O20 0.955182 0.435016 0.073516
O O21 0.250000 0.877329 0.997188
#
# Coordination Sequence:
#
# PCOD8240832 Si02
#       8
#     8   8   8   8   8   8   8   8
#     4  10  20  34  52  72  98 134 173 211 249 291
#     4   9  19  36  56  78 104 132 163 202 248 298
#     4  11  21  32  50  75 103 134 168 207 250 298
#     4   9  20  36  50  69 100 136 172 211 253 294
#     4  10  19  31  49  72 101 137 172 207 248 294
#     4   9  19  36  55  75 101 131 163 201 245 294
#     4   9  19  33  48  72 104 135 168 206 248 296
#     4  11  21  32  50  75 103 133 165 203 248 299
#
# _framework density 17.810071000000001
#
# number of rings (size 3 to 8) (size 9 to 14) (size 15 to 20)
#    0.000    2.250    0.000    3.750    0.000    6.000 
#    0.000    1.250    0.000    0.750    0.000    3.500 
#    0.000    0.000    0.000    0.000    0.000    0.000 
#
# Total GULP energy -793839.034448 kJ/mol
# GULP energy per Si atom -12403.734913 kJ/mol
# Density = 1.776953 g / cm^3
# Si number density = 17.810071 Si / 1000 Ang^3
#
#
#
# Elastic Constant Matrix: (Units=GPa)
#
#
# Indices 1 2 3 4 5 6 
#
# 1 100.4019 38.7008 69.8214 0.0000 0.0000 0.0000
# 2 38.7008 60.8361 48.7723 0.0000 0.0000 0.0000
# 3 69.8214 48.7723 115.4395 0.0000 0.0000 0.0000
# 4 0.0000 0.0000 0.0000 27.5600 0.0000 0.0000
# 5 0.0000 0.0000 0.0000 0.0000 34.4832 0.0000
# 6 0.0000 0.0000 0.0000 0.0000 0.0000 29.3588
#
#
#
# Elastic Compliance Matrix: (Units=1/GPa)
#
#
# Indices 1 2 3 4 5 6 
#
# 1 0.017836 -0.004080 -0.009064 0.000000 0.000000 0.000000
# 2 -0.004080 0.025790 -0.008429 0.000000 0.000000 0.000000
# 3 -0.009064 -0.008429 0.017706 0.000000 0.000000 0.000000
# 4 0.000000 0.000000 0.000000 0.036284 0.000000 0.000000
# 5 0.000000 0.000000 0.000000 0.000000 0.029000 0.000000
# 6 0.000000 0.000000 0.000000 0.000000 0.000000 0.034061
#
#
# Mechanical properties :
#
#
# Convention : Reuss Voigt Hill
#
# Bulk Modulus (GPa) = 54.98393 65.69626 60.34009
# Shear Modulus (GPa) = 23.82268 26.23927 25.03097
#
# Velocity S-wave (km/s) = 3.66128 3.84250 3.75299
# Velocity P-wave (km/s) = 6.98661 7.52686 7.26176
#
# Compressibility (1/GPa) = 0.01818713
#
# Stress axis : x y z
#
# Youngs Moduli (GPa) = 56.06704 38.77459 56.47859
#
# Poissons Ratio (x) = 0.15818 0.51193
# Poissons Ratio (y) = 0.22873 0.47604
# Poissons Ratio (z) = 0.50820 0.32682
#
# Static dielectric constant tensor:
#      x y z
#    x 3.329730 0.000000 0.000000 
#    y 0.000000 3.085250 0.000000 
#    z 0.000000 0.000000 3.233840 
# 
# 
# High freq. dielectric constant tensor:
#      x y z
#    x 1.697730 0.000000 0.000000 
#    y 0.000000 1.667650 0.000000 
#    z 0.000000 0.000000 1.686420 
# 
# From -- ./inp_files/15082.got.cif
#   From: 2010.03.12/outbox.cif.g09.slc.cpg/sg59_8_cif.got.tgz:15082.got - 2010.04.16 16:29:54.
