data_PCOD8240739
_publ_section_title
;
Structure prediction by ZEFSAII (Michael W. Deem and Ramdas Pophale) SiO2 
 PCOD8240739
Probable space group: P M M N
;
_chemical_formula_sum "Si O2"
_cell_formula_units_Z 64
_cell_length_a 9.261059
_cell_length_b 27.961737
_cell_length_c 14.535916
_cell_angle_alpha 90.000000
_cell_angle_beta 90.000000
_cell_angle_gamma 90.000000
_cell_volume 3764.152432
_symmetry_space_group_name_H-M "P M M N"
_symmetry_group_IT_number 59
_space_group.IT_coordinate_system_code '2'
_symmetry_cell_setting 'orthorhombic'
loop_
_space_group_symop_operation_xyz
x,y,z
1/2-x,1/2-y,z
1/2+x,-y,-z
-x,1/2+y,-z
-x,-y,-z
1/2+x,1/2+y,-z
1/2-x,y,z
x,1/2-y,z
loop_
_atom_site_type_symbol
_atom_site_label
_atom_site_fract_x
_atom_site_fract_y
_atom_site_fract_z
Si Si1 0.916949 0.475397 0.643272
Si Si2 0.580302 0.429295 0.350872
Si Si3 0.581693 0.805536 0.148268
Si Si4 0.081769 0.880348 0.034402
Si Si5 0.584293 0.473408 0.856016
Si Si6 0.919482 0.195480 0.666176
Si Si7 0.582566 0.068053 0.145680
Si Si8 0.420225 0.615135 0.467329
O O1 0.750000 0.485421 0.621010
O O2 0.940088 0.462114 0.749376
O O3 0.981081 0.431411 0.585010
O O4 0.005550 0.522207 0.615988
O O5 0.750000 0.438557 0.354582
O O6 0.530654 0.414899 0.247546
O O7 0.536469 0.387749 0.424279
O O8 0.750000 0.817571 0.157158
O O9 0.555195 0.750000 0.126315
O O10 0.512670 0.835143 0.064628
O O11 0.503909 0.820465 0.242717
O O12 0.250000 0.869741 0.054076
O O13 0.028983 0.927369 0.088650
O O14 0.052523 0.889126 0.925848
O O15 0.750000 0.483799 0.879727
O O16 0.497451 0.520220 0.887024
O O17 0.750000 0.187808 0.685572
O O18 0.954364 0.250000 0.639743
O O19 0.977858 0.163513 0.580858
O O20 0.750000 0.054594 0.146969
O O21 0.250000 0.615037 0.455654
#
# Coordination Sequence:
#
# PCOD8240739 Si02
#       8
#     8   8   8   8   8   8   8   8
#     4   9  16  26  40  60  87 117 151 187 221 262
#     4   9  17  29  43  61  90 123 152 186 223 255
#     4  10  21  35  50  71  96 117 141 181 232 278
#     4  10  19  31  48  68  91 123 159 189 223 271
#     4   9  17  28  43  64  91 122 155 191 228 268
#     4   9  17  31  51  71  90 115 146 177 216 272
#     4   9  18  30  44  65  93 124 158 194 228 262
#     4   9  16  27  45  66  89 119 151 183 220 261
#
# _framework density 17.002500000000001
#
# number of rings (size 3 to 8) (size 9 to 14) (size 15 to 20)
#    0.000    2.750    0.000    1.875    0.000    3.750 
#    0.000    3.750    0.000    0.750    0.000    3.500 
#    0.000    2.000    0.000    0.000    0.000    0.000 
#
# Total GULP energy -793445.631207 kJ/mol
# GULP energy per Si atom -12397.587988 kJ/mol
# Density = 1.696380 g / cm^3
# Si number density = 17.002500 Si / 1000 Ang^3
#
#
#
# Elastic Constant Matrix: (Units=GPa)
#
#
# Indices 1 2 3 4 5 6 
#
# 1 44.3035 36.3902 32.9100 0.0000 0.0000 0.0000
# 2 36.3902 90.7286 68.6034 0.0000 0.0000 0.0000
# 3 32.9100 68.6034 105.9016 0.0000 0.0000 0.0000
# 4 0.0000 0.0000 0.0000 30.5890 0.0000 0.0000
# 5 0.0000 0.0000 0.0000 0.0000 15.5726 0.0000
# 6 0.0000 0.0000 0.0000 0.0000 0.0000 24.3996
#
#
#
# Elastic Compliance Matrix: (Units=1/GPa)
#
#
# Indices 1 2 3 4 5 6 
#
# 1 0.034283 -0.011162 -0.003423 0.000000 0.000000 0.000000
# 2 -0.011162 0.025239 -0.012881 0.000000 0.000000 0.000000
# 3 -0.003423 -0.012881 0.018851 0.000000 0.000000 0.000000
# 4 0.000000 0.000000 0.000000 0.032691 0.000000 0.000000
# 5 0.000000 0.000000 0.000000 0.000000 0.064215 0.000000
# 6 0.000000 0.000000 0.000000 0.000000 0.000000 0.040984
#
#
# Mechanical properties :
#
#
# Convention : Reuss Voigt Hill
#
# Bulk Modulus (GPa) = 42.66185 57.41563 50.03874
# Shear Modulus (GPa) = 17.92062 20.98093 19.45077
#
# Velocity S-wave (km/s) = 3.25006 3.51663 3.38597
# Velocity P-wave (km/s) = 6.26337 7.09445 6.69182
#
# Compressibility (1/GPa) = 0.02344015
#
# Stress axis : x y z
#
# Youngs Moduli (GPa) = 29.16931 39.62160 53.04850
#
# Poissons Ratio (x) = 0.44227 0.18157
# Poissons Ratio (y) = 0.32560 0.68331
# Poissons Ratio (z) = 0.09984 0.51036
#
# Static dielectric constant tensor:
#      x y z
#    x 3.061120 0.000000 0.000000 
#    y 0.000000 3.118000 0.000000 
#    z 0.000000 0.000000 3.428850 
# 
# 
# High freq. dielectric constant tensor:
#      x y z
#    x 1.639670 0.000000 0.000000 
#    y 0.000000 1.633710 0.000000 
#    z 0.000000 0.000000 1.661980 
# 
# From -- ./inp_files/21897.got.cif
#   From: 2010.03.12/outbox.cif.g09.slc.cpg/sg59_11_cif.got.tgz:21897.got - 2010.04.16 16:29:54.
