data_PCOD8240640
_publ_section_title
;
Structure prediction by ZEFSAII (Michael W. Deem and Ramdas Pophale) SiO2 
 PCOD8240640
Probable space group: P M M N
;
_chemical_formula_sum "Si O2"
_cell_formula_units_Z 56
_cell_length_a 19.733559
_cell_length_b 8.985102
_cell_length_c 16.190340
_cell_angle_alpha 90.000000
_cell_angle_beta 90.000000
_cell_angle_gamma 90.000000
_cell_volume 2870.677459
_symmetry_space_group_name_H-M "P M M N"
_symmetry_group_IT_number 59
_space_group.IT_coordinate_system_code '2'
_symmetry_cell_setting 'orthorhombic'
loop_
_space_group_symop_operation_xyz
x,y,z
1/2-x,1/2-y,z
1/2+x,-y,-z
-x,1/2+y,-z
-x,-y,-z
1/2+x,1/2+y,-z
1/2-x,y,z
x,1/2-y,z
loop_
_atom_site_type_symbol
_atom_site_label
_atom_site_fract_x
_atom_site_fract_y
_atom_site_fract_z
Si Si1 0.324753 0.073268 0.158466
Si Si2 0.048862 0.425502 0.433335
Si Si3 0.457369 0.425308 0.246206
Si Si4 0.174491 0.426844 0.973456
Si Si5 0.827727 0.423621 0.494953
Si Si6 0.827825 0.580662 0.327260
Si Si7 0.417370 0.425699 0.827072
O O1 0.250000 0.011683 0.184314
O O2 0.321824 0.250000 0.158520
O O3 0.382104 0.016101 0.221860
O O4 0.343373 0.018330 0.065864
O O5 0.047614 0.250000 0.447034
O O6 0.025894 0.469187 0.340792
O O7 0.125356 0.484746 0.442712
O O8 0.000000 0.500000 0.500000
O O9 0.461661 0.250000 0.233443
O O10 0.509650 0.500094 0.183337
O O11 0.250000 0.483187 0.949282
O O12 0.173578 0.250000 0.968181
O O13 0.118867 0.490162 0.909307
O O14 0.750000 0.462218 0.516292
O O15 0.843288 0.250000 0.503690
O O16 0.845850 0.471759 0.402146
O O17 0.750000 0.566378 0.300765
O O18 0.844878 0.750000 0.353846
O O19 0.871526 0.527638 0.250254
O O20 0.426995 0.250000 0.832098
#
# Coordination Sequence:
#
# PCOD8240640 Si02
#       7
#     8   8   8   8   8   8   8
#     4   8  15  31  54  76  99 129 167 210 251 292
#     4  11  23  38  56  76 102 137 177 221 266 315
#     4  10  22  36  51  75 102 130 167 211 258 305
#     4   8  14  27  50  78 104 132 168 206 241 283
#     4  10  21  36  54  77 104 133 169 215 265 317
#     4   9  17  30  49  73 102 136 173 211 249 293
#     4  10  19  30  48  76 107 136 167 203 245 296
#
# _framework density 19.50759
#
# number of rings (size 3 to 8) (size 9 to 14) (size 15 to 20)
#    0.000    2.571    0.000    3.000    0.000    7.714 
#    0.000    1.429    0.000    1.714    0.000    2.000 
#    0.000    0.000    0.000    0.000    0.000    0.000 
#
# Total GULP energy -694290.585567 kJ/mol
# GULP energy per Si atom -12398.046171 kJ/mol
# Density = 1.946319 g / cm^3
# Si number density = 19.507590 Si / 1000 Ang^3
#
#
#
# Elastic Constant Matrix: (Units=GPa)
#
#
# Indices 1 2 3 4 5 6 
#
# 1 123.3204 31.0858 64.7799 0.0000 0.0000 0.0000
# 2 31.0858 40.7732 30.5342 0.0000 0.0000 0.0000
# 3 64.7799 30.5342 96.4249 0.0000 0.0000 0.0000
# 4 0.0000 0.0000 0.0000 16.3237 0.0000 0.0000
# 5 0.0000 0.0000 0.0000 0.0000 40.2953 0.0000
# 6 0.0000 0.0000 0.0000 0.0000 0.0000 31.0518
#
#
#
# Elastic Compliance Matrix: (Units=1/GPa)
#
#
# Indices 1 2 3 4 5 6 
#
# 1 0.013122 -0.004460 -0.007403 0.000000 0.000000 0.000000
# 2 -0.004460 0.033666 -0.007664 0.000000 0.000000 0.000000
# 3 -0.007403 -0.007664 0.017771 0.000000 0.000000 0.000000
# 4 0.000000 0.000000 0.000000 0.061261 0.000000 0.000000
# 5 0.000000 0.000000 0.000000 0.000000 0.024817 0.000000
# 6 0.000000 0.000000 0.000000 0.000000 0.000000 0.032204
#
#
# Mechanical properties :
#
#
# Convention : Reuss Voigt Hill
#
# Bulk Modulus (GPa) = 39.20963 57.03536 48.12250
# Shear Modulus (GPa) = 21.70152 26.47540 24.08846
#
# Velocity S-wave (km/s) = 3.33898 3.68800 3.51782
# Velocity P-wave (km/s) = 5.91679 6.88739 6.42045
#
# Compressibility (1/GPa) = 0.02550394
#
# Stress axis : x y z
#
# Youngs Moduli (GPa) = 76.20658 29.70346 56.27008
#
# Poissons Ratio (x) = 0.13249 0.41659
# Poissons Ratio (y) = 0.33991 0.43127
# Poissons Ratio (z) = 0.56418 0.22766
#
# Static dielectric constant tensor:
#      x y z
#    x 3.812880 0.000000 0.000000 
#    y 0.000000 3.175520 0.000000 
#    z 0.000000 0.000000 3.668080 
# 
# 
# High freq. dielectric constant tensor:
#      x y z
#    x 1.771250 0.000000 0.000000 
#    y 0.000000 1.721460 0.000000 
#    z 0.000000 0.000000 1.757680 
# 
# From -- ./inp_files/24265.got.cif
#   From: 2010.03.12/outbox.cif.g09.slc.cpg/sg59_13_cif.got.tgz:24265.got - 2010.04.16 16:29:54.
