data_PCOD8240852
_publ_section_title
;
Structure prediction by ZEFSAII (Michael W. Deem and Ramdas Pophale) SiO2 
 PCOD8240852
Probable space group: P M M N
;
_chemical_formula_sum "Si O2"
_cell_formula_units_Z 40
_cell_length_a 18.222027
_cell_length_b 8.738934
_cell_length_c 13.913152
_cell_angle_alpha 90.000000
_cell_angle_beta 90.000000
_cell_angle_gamma 90.000000
_cell_volume 2215.545508
_symmetry_space_group_name_H-M "P M M N"
_symmetry_group_IT_number 59
_space_group.IT_coordinate_system_code '2'
_symmetry_cell_setting 'orthorhombic'
loop_
_space_group_symop_operation_xyz
x,y,z
1/2-x,1/2-y,z
1/2+x,-y,-z
-x,1/2+y,-z
-x,-y,-z
1/2+x,1/2+y,-z
1/2-x,y,z
x,1/2-y,z
loop_
_atom_site_type_symbol
_atom_site_label
_atom_site_fract_x
_atom_site_fract_y
_atom_site_fract_z
Si Si1 0.168222 0.569446 0.920368
Si Si2 0.476479 0.931513 0.399762
Si Si3 0.959978 0.070637 0.214946
Si Si4 0.905953 0.070458 0.886339
Si Si5 0.170365 0.570786 0.308145
O O1 0.250000 0.498925 0.908586
O O2 0.174160 0.750000 0.933626
O O3 0.120317 0.528493 0.826565
O O4 0.128662 0.504313 0.015750
O O5 0.477927 0.750000 0.404895
O O6 0.394627 0.994952 0.375460
O O7 0.500000 0.000000 0.500000
O O8 0.531649 0.983358 0.315807
O O9 0.968293 0.250000 0.233792
O O10 0.019252 0.019267 0.135808
O O11 0.924898 0.250000 0.892300
O O12 0.847255 0.036836 0.802784
O O13 0.250000 0.496575 0.333331
O O14 0.174749 0.750000 0.325921
#
# Coordination Sequence:
#
# PCOD8240852 Si02
#       5
#     8   8   8   8   8
#     4   9  17  29  47  72 100 133 173 207 231 267
#     4  10  20  35  55  74  94 123 159 201 247 295
#     4  10  19  31  49  72  99 129 162 202 243 288
#     4   9  16  28  49  73  98 129 163 201 241 281
#     4   8  14  26  47  74  96 116 151 197 239 279
#
# _framework density 18.054245000000002
#
# number of rings (size 3 to 8) (size 9 to 14) (size 15 to 20)
#    0.000    2.800    0.000    3.600    0.000    2.400 
#    0.000    2.000    0.000   31.200    0.000    0.000 
#    0.000    0.000    0.000    0.000    0.000    0.000 
#
# Total GULP energy -495815.952401 kJ/mol
# GULP energy per Si atom -12395.398810 kJ/mol
# Density = 1.801315 g / cm^3
# Si number density = 18.054245 Si / 1000 Ang^3
#
#
#
# Elastic Constant Matrix: (Units=GPa)
#
#
# Indices 1 2 3 4 5 6 
#
# 1 125.6065 28.6599 78.1579 0.0000 0.0000 0.0000
# 2 28.6599 44.4654 31.0243 0.0000 0.0000 0.0000
# 3 78.1579 31.0243 136.5568 0.0000 0.0000 0.0000
# 4 0.0000 0.0000 0.0000 26.0537 0.0000 0.0000
# 5 0.0000 0.0000 0.0000 0.0000 19.5512 0.0000
# 6 0.0000 0.0000 0.0000 0.0000 0.0000 19.9345
#
#
#
# Elastic Compliance Matrix: (Units=1/GPa)
#
#
# Indices 1 2 3 4 5 6 
#
# 1 0.012871 -0.003750 -0.006514 0.000000 0.000000 0.000000
# 2 -0.003750 0.027819 -0.004174 0.000000 0.000000 0.000000
# 3 -0.006514 -0.004174 0.012000 0.000000 0.000000 0.000000
# 4 0.000000 0.000000 0.000000 0.038382 0.000000 0.000000
# 5 0.000000 0.000000 0.000000 0.000000 0.051148 0.000000
# 6 0.000000 0.000000 0.000000 0.000000 0.000000 0.050164
#
#
# Mechanical properties :
#
#
# Convention : Reuss Voigt Hill
#
# Bulk Modulus (GPa) = 41.99537 64.70143 53.34840
# Shear Modulus (GPa) = 21.81523 24.36033 23.08778
#
# Velocity S-wave (km/s) = 3.47985 3.67725 3.57991
# Velocity P-wave (km/s) = 6.28148 7.34470 6.83380
#
# Compressibility (1/GPa) = 0.02381215
#
# Stress axis : x y z
#
# Youngs Moduli (GPa) = 77.69592 35.94698 83.33574
#
# Poissons Ratio (x) = 0.13482 0.54288
# Poissons Ratio (y) = 0.29140 0.34781
# Poissons Ratio (z) = 0.50614 0.15003
#
# Static dielectric constant tensor:
#      x y z
#    x 3.299260 0.000000 0.000000 
#    y 0.000000 3.023050 0.000000 
#    z 0.000000 0.000000 3.349660 
# 
# 
# High freq. dielectric constant tensor:
#      x y z
#    x 1.704910 0.000000 0.000000 
#    y 0.000000 1.665620 0.000000 
#    z 0.000000 0.000000 1.690650 
# 
# From -- ./inp_files/20111.got.cif
#   From: 2010.03.12/outbox.cif.g09.slc.cpg/sg59_11_cif.got.tgz:20111.got - 2010.04.16 16:29:54.
