data_PCOD8240660
_publ_section_title
;
Structure prediction by ZEFSAII (Michael W. Deem and Ramdas Pophale) SiO2 
 PCOD8240660
Probable space group: P M M N
;
_chemical_formula_sum "Si O2"
_cell_formula_units_Z 56
_cell_length_a 19.631621
_cell_length_b 9.219075
_cell_length_c 17.507102
_cell_angle_alpha 90.000000
_cell_angle_beta 90.000000
_cell_angle_gamma 90.000000
_cell_volume 3168.529620
_symmetry_space_group_name_H-M "P M M N"
_symmetry_group_IT_number 59
_space_group.IT_coordinate_system_code '2'
_symmetry_cell_setting 'orthorhombic'
loop_
_space_group_symop_operation_xyz
x,y,z
1/2-x,1/2-y,z
1/2+x,-y,-z
-x,1/2+y,-z
-x,-y,-z
1/2+x,1/2+y,-z
1/2-x,y,z
x,1/2-y,z
loop_
_atom_site_type_symbol
_atom_site_label
_atom_site_fract_x
_atom_site_fract_y
_atom_site_fract_z
Si Si1 0.547427 0.919316 0.206169
Si Si2 0.676352 0.920767 0.920405
Si Si3 0.064348 0.420402 0.965365
Si Si4 0.911421 0.914545 0.780620
Si Si5 0.427927 0.920350 0.645683
Si Si6 0.828312 0.079071 0.488699
Si Si7 0.919592 0.914349 0.608754
O O1 0.549572 0.750000 0.224589
O O2 0.579520 0.955173 0.123462
O O3 0.470265 0.971762 0.202924
O O4 0.587510 0.001288 0.273906
O O5 0.750000 0.994997 0.929706
O O6 0.682512 0.750000 0.929968
O O7 0.650034 0.959082 0.835700
O O8 0.628204 0.981283 0.987043
O O9 0.052402 0.250000 0.977591
O O10 0.000000 0.500000 0.000000
O O11 0.937084 0.750000 0.798143
O O12 0.887366 0.924762 0.693167
O O13 0.431416 0.750000 0.662143
O O14 0.366201 0.963220 0.589899
O O15 0.501377 0.969320 0.610496
O O16 0.750000 0.021345 0.487056
O O17 0.828903 0.250000 0.500639
O O18 0.871775 0.012315 0.556946
O O19 0.917234 0.750000 0.577570
#
# Coordination Sequence:
#
# PCOD8240660 Si02
#       7
#     8   8   8   8   8   8   8
#     4  10  19  30  49  79 104 125 164 214 259 297
#     4   9  17  30  49  72 100 136 174 207 243 295
#     4  10  19  31  51  76 101 132 170 209 251 297
#     4   9  17  31  51  74  99 131 168 203 248 305
#     4   9  19  36  55  74  99 133 172 211 251 302
#     4  10  21  36  53  74 101 135 172 208 254 308
#     4   9  18  31  51  78 102 128 167 209 252 299
#
# _framework density 17.673812999999999
#
# number of rings (size 3 to 8) (size 9 to 14) (size 15 to 20)
#    0.000    2.571    1.429    1.714    0.000    4.286 
#    0.000    2.143    0.000    2.571    0.000    0.000 
#    0.000    0.000    0.000    0.000    0.000    0.000 
#
# Total GULP energy -694155.386149 kJ/mol
# GULP energy per Si atom -12395.631896 kJ/mol
# Density = 1.763359 g / cm^3
# Si number density = 17.673813 Si / 1000 Ang^3
#
#
#
# Elastic Constant Matrix: (Units=GPa)
#
#
# Indices 1 2 3 4 5 6 
#
# 1 113.7407 26.7563 73.3614 0.0000 0.0000 0.0000
# 2 26.7563 36.3640 45.0279 0.0000 0.0000 0.0000
# 3 73.3614 45.0279 135.0663 0.0000 0.0000 0.0000
# 4 0.0000 0.0000 0.0000 25.8295 0.0000 0.0000
# 5 0.0000 0.0000 0.0000 0.0000 23.4692 0.0000
# 6 0.0000 0.0000 0.0000 0.0000 0.0000 18.3335
#
#
#
# Elastic Compliance Matrix: (Units=1/GPa)
#
#
# Indices 1 2 3 4 5 6 
#
# 1 0.013578 -0.001462 -0.006888 0.000000 0.000000 0.000000
# 2 -0.001462 0.046990 -0.014871 0.000000 0.000000 0.000000
# 3 -0.006888 -0.014871 0.016102 0.000000 0.000000 0.000000
# 4 0.000000 0.000000 0.000000 0.038715 0.000000 0.000000
# 5 0.000000 0.000000 0.000000 0.000000 0.042609 0.000000
# 6 0.000000 0.000000 0.000000 0.000000 0.000000 0.054545
#
#
# Mechanical properties :
#
#
# Convention : Reuss Voigt Hill
#
# Bulk Modulus (GPa) = 33.08102 63.94024 48.51063
# Shear Modulus (GPa) = 18.58335 22.86148 20.72241
#
# Velocity S-wave (km/s) = 3.24614 3.60046 3.42788
# Velocity P-wave (km/s) = 5.72784 7.31717 6.57073
#
# Compressibility (1/GPa) = 0.03022881
#
# Stress axis : x y z
#
# Youngs Moduli (GPa) = 73.64678 21.28119 62.10227
#
# Poissons Ratio (x) = 0.03112 0.42774
# Poissons Ratio (y) = 0.10768 0.92353
# Poissons Ratio (z) = 0.50725 0.31648
#
# Static dielectric constant tensor:
#      x y z
#    x 3.969870 0.000000 0.000000 
#    y 0.000000 3.122930 0.000000 
#    z 0.000000 0.000000 3.533250 
# 
# 
# High freq. dielectric constant tensor:
#      x y z
#    x 1.665200 0.000000 0.000000 
#    y 0.000000 1.665220 0.000000 
#    z 0.000000 0.000000 1.697060 
# 
# From -- ./inp_files/28096.got.cif
#   From: 2010.03.12/outbox.cif.g09.slc.cpg/sg59_15_cif.got.tgz:28096.got - 2010.04.16 16:29:54.
