data_PCOD8240501
_publ_section_title
;
Structure prediction by ZEFSAII (Michael W. Deem and Ramdas Pophale) SiO2 
 PCOD8240501
Probable space group: P M M N
;
_chemical_formula_sum "Si O2"
_cell_formula_units_Z 64
_cell_length_a 17.450177
_cell_length_b 9.253887
_cell_length_c 23.136925
_cell_angle_alpha 90.000000
_cell_angle_beta 90.000000
_cell_angle_gamma 90.000000
_cell_volume 3736.196138
_symmetry_space_group_name_H-M "P M M N"
_symmetry_group_IT_number 59
_space_group.IT_coordinate_system_code '2'
_symmetry_cell_setting 'orthorhombic'
loop_
_space_group_symop_operation_xyz
x,y,z
1/2-x,1/2-y,z
1/2+x,-y,-z
-x,1/2+y,-z
-x,-y,-z
1/2+x,1/2+y,-z
1/2-x,y,z
x,1/2-y,z
loop_
_atom_site_type_symbol
_atom_site_label
_atom_site_fract_x
_atom_site_fract_y
_atom_site_fract_z
Si Si1 0.048579 0.415341 0.363613
Si Si2 0.939314 0.919206 0.960938
Si Si3 0.601905 0.080757 0.433036
Si Si4 0.162233 0.418051 0.459945
Si Si5 0.018250 0.422039 0.868083
Si Si6 0.665857 0.585448 0.332455
Si Si7 0.480766 0.418888 0.736297
Si Si8 0.165494 0.082039 0.938673
O O1 0.039863 0.250000 0.344858
O O2 0.128908 0.445560 0.395651
O O3 0.982059 0.457773 0.408936
O O4 0.044082 0.506996 0.304671
O O5 0.958986 0.750000 0.954980
O O6 0.857990 0.941186 0.993684
O O7 0.945956 0.997709 0.898721
O O8 0.000000 0.000000 0.000000
O O9 0.616114 0.250000 0.438995
O O10 0.612280 0.009410 0.495325
O O11 0.663655 0.014419 0.388992
O O12 0.250000 0.469651 0.460286
O O13 0.154475 0.250000 0.476476
O O14 0.010014 0.250000 0.876100
O O15 0.012946 0.471873 0.801895
O O16 0.099435 0.478007 0.895318
O O17 0.750000 0.570084 0.304164
O O18 0.650052 0.750000 0.352144
O O19 0.604103 0.536505 0.284984
O O20 0.495228 0.250000 0.732253
O O21 0.250000 0.010068 0.928473
O O22 0.172607 0.250000 0.925175
#
# Coordination Sequence:
#
# PCOD8240501 Si02
#       8
#     8   8   8   8   8   8   8   8
#     4   9  19  34  49  66  89 118 150 184 225 269
#     4   9  16  27  45  67  91 120 151 182 216 255
#     4  10  19  30  46  68  92 117 146 180 221 275
#     4  10  20  33  49  68  89 113 144 186 233 276
#     4   9  17  29  46  68  92 119 152 188 222 259
#     4   9  17  29  44  63  90 122 152 183 221 265
#     4   9  18  31  47  67  89 117 154 189 220 258
#     4   8  14  25  43  68  95 119 144 178 218 256
#
# _framework density 17.129722000000001
#
# number of rings (size 3 to 8) (size 9 to 14) (size 15 to 20)
#    0.000    2.875    0.000    2.250    0.000    4.000 
#    0.000    2.500    0.000   10.125    0.000   10.500 
#    0.000    0.000    0.000    0.000    0.000    0.000 
#
# Total GULP energy -793188.418588 kJ/mol
# GULP energy per Si atom -12393.569040 kJ/mol
# Density = 1.709073 g / cm^3
# Si number density = 17.129722 Si / 1000 Ang^3
#
#
#
# Elastic Constant Matrix: (Units=GPa)
#
#
# Indices 1 2 3 4 5 6 
#
# 1 48.2425 20.8452 38.3627 0.0000 0.0000 0.0000
# 2 20.8452 50.2260 43.1777 0.0000 0.0000 0.0000
# 3 38.3627 43.1777 129.9319 0.0000 0.0000 0.0000
# 4 0.0000 0.0000 0.0000 29.9754 0.0000 0.0000
# 5 0.0000 0.0000 0.0000 0.0000 16.8934 0.0000
# 6 0.0000 0.0000 0.0000 0.0000 0.0000 17.7638
#
#
#
# Elastic Compliance Matrix: (Units=1/GPa)
#
#
# Indices 1 2 3 4 5 6 
#
# 1 0.028499 -0.006432 -0.006277 0.000000 0.000000 0.000000
# 2 -0.006432 0.029324 -0.007846 0.000000 0.000000 0.000000
# 3 -0.006277 -0.007846 0.012157 0.000000 0.000000 0.000000
# 4 0.000000 0.000000 0.000000 0.033361 0.000000 0.000000
# 5 0.000000 0.000000 0.000000 0.000000 0.059195 0.000000
# 6 0.000000 0.000000 0.000000 0.000000 0.000000 0.056294
#
#
# Mechanical properties :
#
#
# Convention : Reuss Voigt Hill
#
# Bulk Modulus (GPa) = 34.63672 48.13017 41.38344
# Shear Modulus (GPa) = 18.54855 21.32752 19.93803
#
# Velocity S-wave (km/s) = 3.29421 3.53237 3.41536
# Velocity P-wave (km/s) = 5.89349 6.69293 6.30589
#
# Compressibility (1/GPa) = 0.02887110
#
# Stress axis : x y z
#
# Youngs Moduli (GPa) = 35.08847 34.10165 82.25790
#
# Poissons Ratio (x) = 0.21933 0.51635
# Poissons Ratio (y) = 0.22568 0.64537
# Poissons Ratio (z) = 0.22026 0.26755
#
# Static dielectric constant tensor:
#      x y z
#    x 3.399800 0.000000 0.000000 
#    y 0.000000 3.170350 0.000000 
#    z 0.000000 0.000000 3.703500 
# 
# 
# High freq. dielectric constant tensor:
#      x y z
#    x 1.643370 0.000000 0.000000 
#    y 0.000000 1.649250 0.000000 
#    z 0.000000 0.000000 1.651420 
# 
# From -- ./inp_files/32294.got.cif
#   From: 2010.03.12/outbox.cif.g09.slc.cpg/sg59_17_cif.got.tgz:32294.got - 2010.04.16 16:29:54.
