data_PCOD8240497
_publ_section_title
;
Structure prediction by ZEFSAII (Michael W. Deem and Ramdas Pophale) SiO2 
 PCOD8240497
Probable space group: P M M N
;
_chemical_formula_sum "Si O2"
_cell_formula_units_Z 56
_cell_length_a 17.506187
_cell_length_b 8.986099
_cell_length_c 20.729003
_cell_angle_alpha 90.000000
_cell_angle_beta 90.000000
_cell_angle_gamma 90.000000
_cell_volume 3260.927750
_symmetry_space_group_name_H-M "P M M N"
_symmetry_group_IT_number 59
_space_group.IT_coordinate_system_code '2'
_symmetry_cell_setting 'orthorhombic'
loop_
_space_group_symop_operation_xyz
x,y,z
1/2-x,1/2-y,z
1/2+x,-y,-z
-x,1/2+y,-z
-x,-y,-z
1/2+x,1/2+y,-z
1/2-x,y,z
x,1/2-y,z
loop_
_atom_site_type_symbol
_atom_site_label
_atom_site_fract_x
_atom_site_fract_y
_atom_site_fract_z
Si Si1 0.477716 0.927061 0.849932
Si Si2 0.111647 0.414397 0.520658
Si Si3 0.561509 0.075647 0.955144
Si Si4 0.050494 0.586244 0.410646
Si Si5 0.663711 0.418274 0.361612
Si Si6 0.334300 0.923983 0.933154
Si Si7 0.534979 0.574103 0.286336
O O1 0.482806 0.750000 0.852544
O O2 0.398916 0.986150 0.883735
O O3 0.552516 0.995756 0.885832
O O4 0.482444 0.983449 0.777565
O O5 0.148465 0.250000 0.518559
O O6 0.108535 0.475886 0.447150
O O7 0.162413 0.521997 0.565002
O O8 0.027745 0.406224 0.550049
O O9 0.544834 0.250000 0.947458
O O10 0.642313 0.047950 0.991596
O O11 0.500000 0.000000 0.000000
O O12 0.087913 0.750000 0.408863
O O13 0.031615 0.533100 0.337822
O O14 0.750000 0.420206 0.336131
O O15 0.630806 0.250000 0.360480
O O16 0.616448 0.523417 0.314038
O O17 0.250000 0.996427 0.921156
O O18 0.328695 0.750000 0.920079
O O19 0.538240 0.750000 0.273109
#
# Coordination Sequence:
#
# PCOD8240497 Si02
#       7
#     8   8   8   8   8   8   8
#     4  10  19  30  46  67  94 126 155 188 231 281
#     4   9  16  26  43  64  84 109 142 183 225 260
#     4   9  16  28  47  67  89 118 152 192 233 273
#     4   8  15  27  42  61  84 109 139 179 224 264
#     4  10  20  32  45  62  88 123 157 186 221 269
#     4   8  15  28  46  68  91 117 152 190 226 267
#     4  10  20  32  46  65  90 120 154 190 225 265
#
# _framework density 17.173027999999999
#
# number of rings (size 3 to 8) (size 9 to 14) (size 15 to 20)
#    0.000    2.857    0.000    3.857    0.000    5.714 
#    0.000    1.429    0.000   15.000    0.000    1.000 
#    0.000    3.429    0.000    0.000    0.000    0.000 
#
# Total GULP energy -693883.907009 kJ/mol
# GULP energy per Si atom -12390.784054 kJ/mol
# Density = 1.713394 g / cm^3
# Si number density = 17.173028 Si / 1000 Ang^3
#
#
#
# Elastic Constant Matrix: (Units=GPa)
#
#
# Indices 1 2 3 4 5 6 
#
# 1 11.7460 8.3470 22.6348 0.0000 0.0000 0.0000
# 2 8.3470 80.8813 37.1152 0.0000 0.0000 0.0000
# 3 22.6348 37.1152 120.5456 0.0000 0.0000 0.0000
# 4 0.0000 0.0000 0.0000 33.1835 0.0000 0.0000
# 5 0.0000 0.0000 0.0000 0.0000 14.4935 0.0000
# 6 0.0000 0.0000 0.0000 0.0000 0.0000 16.5627
#
#
#
# Elastic Compliance Matrix: (Units=1/GPa)
#
#
# Indices 1 2 3 4 5 6 
#
# 1 0.133896 -0.002656 -0.024324 0.000000 0.000000 0.000000
# 2 -0.002656 0.014451 -0.003950 0.000000 0.000000 0.000000
# 3 -0.024324 -0.003950 0.014079 0.000000 0.000000 0.000000
# 4 0.000000 0.000000 0.000000 0.030135 0.000000 0.000000
# 5 0.000000 0.000000 0.000000 0.000000 0.068996 0.000000
# 6 0.000000 0.000000 0.000000 0.000000 0.000000 0.060377
#
#
# Mechanical properties :
#
#
# Convention : Reuss Voigt Hill
#
# Bulk Modulus (GPa) = 9.94387 38.81855 24.38121
# Shear Modulus (GPa) = 11.98131 22.51966 17.25049
#
# Velocity S-wave (km/s) = 2.64423 3.62517 3.17284
# Velocity P-wave (km/s) = 3.88916 6.33845 5.25840
#
# Compressibility (1/GPa) = 0.10056447
#
# Stress axis : x y z
#
# Youngs Moduli (GPa) = 7.46851 69.20049 71.02697
#
# Poissons Ratio (x) = 0.18383 1.72763
# Poissons Ratio (y) = 0.01984 0.28059
# Poissons Ratio (z) = 0.18166 0.27338
#
# Static dielectric constant tensor:
#      x y z
#    x 3.127030 0.000000 0.000000 
#    y 0.000000 3.413320 0.000000 
#    z 0.000000 0.000000 3.388270 
# 
# 
# High freq. dielectric constant tensor:
#      x y z
#    x 1.617300 0.000000 0.000000 
#    y 0.000000 1.667130 0.000000 
#    z 0.000000 0.000000 1.656890 
# 
# From -- ./inp_files/30605.got.cif
#   From: 2010.03.12/outbox.cif.g09.slc.cpg/sg59_16_cif.got.tgz:30605.got - 2010.04.16 16:29:54.
