data_PCOD8240206
_publ_section_title
;
Structure prediction by ZEFSAII (Michael W. Deem and Ramdas Pophale) SiO2 
 PCOD8240206
Probable space group: P M M N
;
_chemical_formula_sum "Si O2"
_cell_formula_units_Z 56
_cell_length_a 14.839531
_cell_length_b 8.977565
_cell_length_c 21.919660
_cell_angle_alpha 90.000000
_cell_angle_beta 90.000000
_cell_angle_gamma 90.000000
_cell_volume 2920.199667
_symmetry_space_group_name_H-M "P M M N"
_symmetry_group_IT_number 59
_space_group.IT_coordinate_system_code '2'
_symmetry_cell_setting 'orthorhombic'
loop_
_space_group_symop_operation_xyz
x,y,z
1/2-x,1/2-y,z
1/2+x,-y,-z
-x,1/2+y,-z
-x,-y,-z
1/2+x,1/2+y,-z
1/2-x,y,z
x,1/2-y,z
loop_
_atom_site_type_symbol
_atom_site_label
_atom_site_fract_x
_atom_site_fract_y
_atom_site_fract_z
Si Si1 0.561597 0.426790 0.332872
Si Si2 0.750000 0.072999 0.384315
Si Si3 0.906470 0.578690 0.988533
Si Si4 0.350226 0.081782 0.877933
Si Si5 0.648312 0.419374 0.868581
Si Si6 0.994536 0.425789 0.200758
Si Si7 0.750000 0.576664 0.514026
Si Si8 0.054058 0.075358 0.445768
O O1 0.564605 0.250000 0.330808
O O2 0.660933 0.488238 0.350108
O O3 0.533849 0.489464 0.266829
O O4 0.487622 0.482182 0.381962
O O5 0.750000 0.250000 0.385985
O O6 0.750000 0.018085 0.453101
O O7 0.922940 0.750000 0.970686
O O8 0.847271 0.562601 0.049235
O O9 0.855060 0.500316 0.933468
O O10 0.000000 0.500000 0.000000
O O11 0.250000 0.049373 0.853042
O O12 0.380649 0.250000 0.861265
O O13 0.417986 0.965117 0.848159
O O14 0.750000 0.425106 0.843979
O O15 0.614671 0.250000 0.877175
O O16 0.588065 0.499583 0.817941
O O17 0.007975 0.250000 0.201940
O O18 0.750000 0.750000 0.496271
O O19 0.839499 0.535545 0.552785
O O20 0.038399 0.250000 0.452886
O O21 0.000000 0.000000 0.500000
#
# Coordination Sequence:
#
# PCOD8240206 Si02
#       8
#     8   4   8   8   8   8   4   8
#     4   9  20  36  56  83 113 150 191 233 283 338
#     4  10  18  34  60  84 114 150 187 226 275 344
#     4  11  21  36  61  89 118 151 190 239 294 347
#     4  10  22  39  58  83 117 153 186 229 288 347
#     4  11  24  42  63  85 114 153 197 245 298 351
#     4  11  23  39  60  85 113 151 197 242 287 342
#     4  10  20  32  54  88 118 142 181 236 289 334
#     4  10  19  35  56  82 114 147 185 233 284 333
#
# _framework density 19.176770999999999
#
# number of rings (size 3 to 8) (size 9 to 14) (size 15 to 20)
#    0.000    1.714    2.857    1.714    1.000    2.571 
#    1.286    2.857    0.000    0.000    0.000    0.000 
#    0.000    0.000    0.000    0.000    0.000    0.000 
#
# Total GULP energy -694479.025453 kJ/mol
# GULP energy per Si atom -12401.411169 kJ/mol
# Density = 1.913312 g / cm^3
# Si number density = 19.176771 Si / 1000 Ang^3
#
#
#
# Elastic Constant Matrix: (Units=GPa)
#
#
# Indices 1 2 3 4 5 6 
#
# 1 149.2540 42.7504 62.9065 0.0000 0.0000 0.0000
# 2 42.7504 76.7569 37.3500 0.0000 0.0000 0.0000
# 3 62.9065 37.3500 126.9856 0.0000 0.0000 0.0000
# 4 0.0000 0.0000 0.0000 26.2493 0.0000 0.0000
# 5 0.0000 0.0000 0.0000 0.0000 20.2687 0.0000
# 6 0.0000 0.0000 0.0000 0.0000 0.0000 20.8113
#
#
#
# Elastic Compliance Matrix: (Units=1/GPa)
#
#
# Indices 1 2 3 4 5 6 
#
# 1 0.009162 -0.003378 -0.003545 0.000000 0.000000 0.000000
# 2 -0.003378 0.016449 -0.003165 0.000000 0.000000 0.000000
# 3 -0.003545 -0.003165 0.010562 0.000000 0.000000 0.000000
# 4 0.000000 0.000000 0.000000 0.038096 0.000000 0.000000
# 5 0.000000 0.000000 0.000000 0.000000 0.049337 0.000000
# 6 0.000000 0.000000 0.000000 0.000000 0.000000 0.048051
#
#
# Mechanical properties :
#
#
# Convention : Reuss Voigt Hill
#
# Bulk Modulus (GPa) = 62.50915 71.00113 66.75514
# Shear Modulus (GPa) = 25.35945 27.46516 26.41230
#
# Velocity S-wave (km/s) = 3.64043 3.78856 3.71524
# Velocity P-wave (km/s) = 7.09488 7.49950 7.30000
#
# Compressibility (1/GPa) = 0.01599766
#
# Stress axis : x y z
#
# Youngs Moduli (GPa) = 109.15180 60.79236 94.67921
#
# Poissons Ratio (x) = 0.20533 0.33564
# Poissons Ratio (y) = 0.36867 0.29966
# Poissons Ratio (z) = 0.38695 0.19241
#
# Static dielectric constant tensor:
#      x y z
#    x 3.753120 0.000000 0.000000 
#    y 0.000000 3.470720 0.000000 
#    z 0.000000 0.000000 3.638780 
# 
# 
# High freq. dielectric constant tensor:
#      x y z
#    x 1.760660 0.000000 0.000000 
#    y 0.000000 1.734460 0.000000 
#    z 0.000000 0.000000 1.738350 
# 
# From -- ./inp_files/30469.got.cif
#   From: 2010.03.12/outbox.cif.g09.slc.cpg/sg59_16_cif.got.tgz:30469.got - 2010.04.16 16:29:54.
