data_PCOD8240830
_publ_section_title
;
Structure prediction by ZEFSAII (Michael W. Deem and Ramdas Pophale) SiO2 
 PCOD8240830
Probable space group: P M M N
;
_chemical_formula_sum "Si O2"
_cell_formula_units_Z 64
_cell_length_a 8.837063
_cell_length_b 21.501016
_cell_length_c 18.877747
_cell_angle_alpha 90.000000
_cell_angle_beta 90.000000
_cell_angle_gamma 90.000000
_cell_volume 3586.882043
_symmetry_space_group_name_H-M "P M M N"
_symmetry_group_IT_number 59
_space_group.IT_coordinate_system_code '2'
_symmetry_cell_setting 'orthorhombic'
loop_
_space_group_symop_operation_xyz
x,y,z
1/2-x,1/2-y,z
1/2+x,-y,-z
-x,1/2+y,-z
-x,-y,-z
1/2+x,1/2+y,-z
1/2-x,y,z
x,1/2-y,z
loop_
_atom_site_type_symbol
_atom_site_label
_atom_site_fract_x
_atom_site_fract_y
_atom_site_fract_z
Si Si1 0.426659 0.878147 0.662123
Si Si2 0.428691 0.443853 0.545453
Si Si3 0.422405 0.493941 0.826169
Si Si4 0.925239 0.819516 0.535563
Si Si5 0.419464 0.320777 0.209174
Si Si6 0.927964 0.493646 0.676668
Si Si7 0.573521 0.939046 0.031505
Si Si8 0.574653 0.120899 0.089156
O O1 0.250000 0.892129 0.656251
O O2 0.477463 0.825330 0.607272
O O3 0.464500 0.857900 0.741614
O O4 0.519318 0.940335 0.645387
O O5 0.500000 0.500000 0.500000
O O6 0.250000 0.453698 0.545593
O O7 0.473495 0.375115 0.516979
O O8 0.492610 0.443284 0.625659
O O9 0.250000 0.493668 0.798979
O O10 0.528007 0.483772 0.758534
O O11 0.450875 0.438150 0.883152
O O12 0.457420 0.558037 0.866590
O O13 0.750000 0.826014 0.556251
O O14 0.957037 0.750000 0.503706
O O15 0.250000 0.349297 0.214435
O O16 0.415490 0.250000 0.233419
O O17 0.483368 0.325068 0.129434
O O18 0.750000 0.487337 0.669145
O O19 0.750000 0.939375 0.013147
O O20 0.491581 0.882198 0.991001
O O21 0.500000 0.000000 0.000000
O O22 0.750000 0.137552 0.084325
#
# Coordination Sequence:
#
# PCOD8240830 Si02
#       8
#     8   8   8   8   8   8   8   8
#     4  12  23  35  53  76 106 142 181 223 268 321
#     4  11  22  37  58  81 110 143 178 223 273 329
#     4   9  18  32  49  73 102 133 169 210 258 313
#     4  10  22  40  60  81 106 140 182 224 270 325
#     4  11  23  36  50  70 100 140 184 225 265 315
#     4  12  23  34  53  78 108 145 181 221 270 322
#     4   9  17  29  47  70  99 130 164 205 251 303
#     4  10  19  31  49  71  99 134 172 214 260 309
#
# _framework density 17.842794999999999
#
# number of rings (size 3 to 8) (size 9 to 14) (size 15 to 20)
#    0.000    1.500    2.500    4.875    0.000    5.750 
#    0.000    0.000    0.000    0.000    0.000    0.875 
#    0.000    3.000    0.000    0.000    0.000    0.000 
#
# Total GULP energy -793428.547292 kJ/mol
# GULP energy per Si atom -12397.321051 kJ/mol
# Density = 1.780218 g / cm^3
# Si number density = 17.842795 Si / 1000 Ang^3
#
#
#
# Elastic Constant Matrix: (Units=GPa)
#
#
# Indices 1 2 3 4 5 6 
#
# 1 106.0949 32.3849 42.6522 0.0000 0.0000 0.0000
# 2 32.3849 73.4259 37.5800 0.0000 0.0000 0.0000
# 3 42.6522 37.5800 83.2285 0.0000 0.0000 0.0000
# 4 0.0000 0.0000 0.0000 25.5911 0.0000 0.0000
# 5 0.0000 0.0000 0.0000 0.0000 34.2248 0.0000
# 6 0.0000 0.0000 0.0000 0.0000 0.0000 19.0445
#
#
#
# Elastic Compliance Matrix: (Units=1/GPa)
#
#
# Indices 1 2 3 4 5 6 
#
# 1 0.012318 -0.002864 -0.005019 0.000000 0.000000 0.000000
# 2 -0.002864 0.018378 -0.006831 0.000000 0.000000 0.000000
# 3 -0.005019 -0.006831 0.017672 0.000000 0.000000 0.000000
# 4 0.000000 0.000000 0.000000 0.039076 0.000000 0.000000
# 5 0.000000 0.000000 0.000000 0.000000 0.029219 0.000000
# 6 0.000000 0.000000 0.000000 0.000000 0.000000 0.052509
#
#
# Mechanical properties :
#
#
# Convention : Reuss Voigt Hill
#
# Bulk Modulus (GPa) = 52.79875 54.22039 53.50957
# Shear Modulus (GPa) = 24.40078 25.78091 25.09084
#
# Velocity S-wave (km/s) = 3.70204 3.80530 3.75402
# Velocity P-wave (km/s) = 6.92306 7.05414 6.98891
#
# Compressibility (1/GPa) = 0.01893984
#
# Stress axis : x y z
#
# Youngs Moduli (GPa) = 81.18499 54.41215 56.58797
#
# Poissons Ratio (x) = 0.15583 0.28403
# Poissons Ratio (y) = 0.23250 0.38653
# Poissons Ratio (z) = 0.40749 0.37167
#
# Static dielectric constant tensor:
#      x y z
#    x 3.434240 0.000000 0.000000 
#    y 0.000000 3.217250 0.000000 
#    z 0.000000 0.000000 3.536150 
# 
# 
# High freq. dielectric constant tensor:
#      x y z
#    x 1.704570 0.000000 0.000000 
#    y 0.000000 1.649950 0.000000 
#    z 0.000000 0.000000 1.688920 
# 
# From -- ./inp_files/26276.got.cif
#   From: 2010.03.12/outbox.cif.g09.slc.cpg/sg59_14_cif.got.tgz:26276.got - 2010.04.16 16:29:54.
