data_PCOD8240095
_publ_section_title
;
Structure prediction by ZEFSAII (Michael W. Deem and Ramdas Pophale) SiO2 
 PCOD8240095
Probable space group: P M M N
;
_chemical_formula_sum "Si O2"
_cell_formula_units_Z 64
_cell_length_a 24.925312
_cell_length_b 8.835623
_cell_length_c 14.959758
_cell_angle_alpha 90.000000
_cell_angle_beta 90.000000
_cell_angle_gamma 90.000000
_cell_volume 3294.597378
_symmetry_space_group_name_H-M "P M M N"
_symmetry_group_IT_number 59
_space_group.IT_coordinate_system_code '2'
_symmetry_cell_setting 'orthorhombic'
loop_
_space_group_symop_operation_xyz
x,y,z
1/2-x,1/2-y,z
1/2+x,-y,-z
-x,1/2+y,-z
-x,-y,-z
1/2+x,1/2+y,-z
1/2-x,y,z
x,1/2-y,z
loop_
_atom_site_type_symbol
_atom_site_label
_atom_site_fract_x
_atom_site_fract_y
_atom_site_fract_z
Si Si1 0.809276 0.570700 0.055840
Si Si2 0.544943 0.082287 0.446932
Si Si3 0.808343 0.927773 0.363429
Si Si4 0.636343 0.924206 0.534112
Si Si5 0.107707 0.927462 0.279832
Si Si6 0.886732 0.930064 0.210852
Si Si7 0.187377 0.424530 0.145507
Si Si8 0.994395 0.417947 0.248319
O O1 0.750000 0.504808 0.078653
O O2 0.805823 0.750000 0.060763
O O3 0.853039 0.509943 0.125596
O O4 0.825898 0.523554 0.955430
O O5 0.557366 0.250000 0.486344
O O6 0.526345 0.097905 0.347338
O O7 0.500000 0.000000 0.500000
O O8 0.593907 0.968692 0.457866
O O9 0.750000 0.992961 0.334123
O O10 0.809802 0.750000 0.345595
O O11 0.811809 0.956759 0.471779
O O12 0.855614 0.995290 0.299333
O O13 0.631037 0.750000 0.563387
O O14 0.628932 0.022239 0.622669
O O15 0.098830 0.750000 0.282254
O O16 0.153739 0.969311 0.210422
O O17 0.051716 0.999764 0.248167
O O18 0.891121 0.750000 0.213202
O O19 0.947168 0.992743 0.197186
O O20 0.250000 0.447432 0.166843
O O21 0.171175 0.250000 0.161613
O O22 0.001824 0.250000 0.206416
#
# Coordination Sequence:
#
# PCOD8240095 Si02
#       8
#     8   8   8   8   8   8   8   8
#     4   8  15  31  60  93 117 143 184 232 280 334
#     4  11  21  33  53  76 104 143 191 238 279 325
#     4   9  18  31  50  79 113 148 185 225 270 326
#     4  11  21  34  53  78 110 147 189 232 280 334
#     4  12  25  39  58  83 112 147 193 241 287 335
#     4  10  18  32  57  87 117 147 185 231 278 329
#     4   9  19  39  65  89 114 145 183 229 283 341
#     4  11  23  37  54  79 115 153 191 231 281 339
#
# _framework density 19.425742
#
# number of rings (size 3 to 8) (size 9 to 14) (size 15 to 20)
#    0.000    1.875    2.500    3.375    0.000    3.250 
#    0.000    2.500    0.000    4.875    0.000    0.000 
#    0.000    0.000    0.000    0.000    0.000    0.000 
#
# Total GULP energy -792890.963630 kJ/mol
# GULP energy per Si atom -12388.921307 kJ/mol
# Density = 1.938153 g / cm^3
# Si number density = 19.425742 Si / 1000 Ang^3
#
#
#
# Elastic Constant Matrix: (Units=GPa)
#
#
# Indices 1 2 3 4 5 6 
#
# 1 105.0152 35.7438 53.6453 0.0000 0.0000 0.0000
# 2 35.7438 66.3868 34.8352 0.0000 0.0000 0.0000
# 3 53.6453 34.8352 93.1938 0.0000 0.0000 0.0000
# 4 0.0000 0.0000 0.0000 17.4425 0.0000 0.0000
# 5 0.0000 0.0000 0.0000 0.0000 30.7389 0.0000
# 6 0.0000 0.0000 0.0000 0.0000 0.0000 25.9884
#
#
#
# Elastic Compliance Matrix: (Units=1/GPa)
#
#
# Indices 1 2 3 4 5 6 
#
# 1 0.014384 -0.004229 -0.006699 0.000000 0.000000 0.000000
# 2 -0.004229 0.019982 -0.005035 0.000000 0.000000 0.000000
# 3 -0.006699 -0.005035 0.016468 0.000000 0.000000 0.000000
# 4 0.000000 0.000000 0.000000 0.057331 0.000000 0.000000
# 5 0.000000 0.000000 0.000000 0.000000 0.032532 0.000000
# 6 0.000000 0.000000 0.000000 0.000000 0.000000 0.038479
#
#
# Mechanical properties :
#
#
# Convention : Reuss Voigt Hill
#
# Bulk Modulus (GPa) = 52.88606 57.00495 54.94550
# Shear Modulus (GPa) = 22.99848 24.19206 23.59527
#
# Velocity S-wave (km/s) = 3.44454 3.53280 3.48895
# Velocity P-wave (km/s) = 6.56534 6.78599 6.67657
#
# Compressibility (1/GPa) = 0.01890857
#
# Stress axis : x y z
#
# Youngs Moduli (GPa) = 69.52137 50.04435 60.72248
#
# Poissons Ratio (x) = 0.21166 0.40678
# Poissons Ratio (y) = 0.29404 0.30571
# Poissons Ratio (z) = 0.46572 0.25195
#
# Static dielectric constant tensor:
#      x y z
#    x 3.788660 0.000000 0.000000 
#    y 0.000000 3.427100 0.000000 
#    z 0.000000 0.000000 3.577790 
# 
# 
# High freq. dielectric constant tensor:
#      x y z
#    x 1.763420 0.000000 0.000000 
#    y 0.000000 1.731030 0.000000 
#    z 0.000000 0.000000 1.748770 
# 
# From -- ./inp_files/24745.got.cif
#   From: 2010.03.12/outbox.cif.g09.slc.cpg/sg59_13_cif.got.tgz:24745.got - 2010.04.16 16:29:54.
