data_PCOD8240318
_publ_section_title
;
Structure prediction by ZEFSAII (Michael W. Deem and Ramdas Pophale) SiO2 
 PCOD8240318
Probable space group: P M M N
;
_chemical_formula_sum "Si O2"
_cell_formula_units_Z 48
_cell_length_a 22.882992
_cell_length_b 8.884461
_cell_length_c 13.441749
_cell_angle_alpha 90.000000
_cell_angle_beta 90.000000
_cell_angle_gamma 90.000000
_cell_volume 2732.748569
_symmetry_space_group_name_H-M "P M M N"
_symmetry_group_IT_number 59
_space_group.IT_coordinate_system_code '2'
_symmetry_cell_setting 'orthorhombic'
loop_
_space_group_symop_operation_xyz
x,y,z
1/2-x,1/2-y,z
1/2+x,-y,-z
-x,1/2+y,-z
-x,-y,-z
1/2+x,1/2+y,-z
1/2-x,y,z
x,1/2-y,z
loop_
_atom_site_type_symbol
_atom_site_label
_atom_site_fract_x
_atom_site_fract_y
_atom_site_fract_z
Si Si1 0.316540 0.572905 0.404116
Si Si2 0.495313 0.070835 0.107414
Si Si3 0.904562 0.085433 0.256541
Si Si4 0.005444 0.416649 0.399189
Si Si5 0.586980 0.074657 0.746643
Si Si6 0.317492 0.074095 0.609739
O O1 0.250000 0.523505 0.385017
O O2 0.323370 0.750000 0.420351
O O3 0.351608 0.523364 0.303976
O O4 0.340695 0.496790 0.505601
O O5 0.493512 0.250000 0.103462
O O6 0.552788 0.017831 0.170208
O O7 0.433365 0.016389 0.154982
O O8 0.500000 0.000000 0.000000
O O9 0.880799 0.250000 0.222551
O O10 0.941470 0.106673 0.356109
O O11 0.850587 0.980784 0.289796
O O12 0.035625 0.250000 0.406225
O O13 0.039286 0.537954 0.334903
O O14 0.000000 0.500000 0.500000
O O15 0.587733 0.250000 0.774023
O O16 0.250000 0.029643 0.624545
O O17 0.327280 0.250000 0.600729
#
# Coordination Sequence:
#
# PCOD8240318 Si02
#       6
#     8   8   8   8   8   8
#     4   9  18  32  49  70 100 138 173 202 234 279
#     4  10  21  37  56  77  99 123 157 202 253 303
#     4   9  19  33  48  68  94 126 162 197 237 291
#     4  10  19  29  42  65  97 128 160 198 241 290
#     4  10  19  31  49  72  97 127 164 202 243 291
#     4  10  20  31  46  72 103 134 168 204 240 280
#
# _framework density 17.564734000000001
#
# number of rings (size 3 to 8) (size 9 to 14) (size 15 to 20)
#    0.000    2.333    0.000    4.000    0.000   10.333 
#    0.000    0.000    0.000    1.000    0.000    2.333 
#    0.000    0.000    0.000    0.000    0.000    0.000 
#
# Total GULP energy -594644.553930 kJ/mol
# GULP energy per Si atom -12388.428207 kJ/mol
# Density = 1.752476 g / cm^3
# Si number density = 17.564734 Si / 1000 Ang^3
#
#
#
# Elastic Constant Matrix: (Units=GPa)
#
#
# Indices 1 2 3 4 5 6 
#
# 1 79.0757 35.4023 48.5105 0.0000 0.0000 0.0000
# 2 35.4023 66.3896 42.0746 0.0000 0.0000 0.0000
# 3 48.5105 42.0746 126.7926 0.0000 0.0000 0.0000
# 4 0.0000 0.0000 0.0000 27.4910 0.0000 0.0000
# 5 0.0000 0.0000 0.0000 0.0000 25.8802 0.0000
# 6 0.0000 0.0000 0.0000 0.0000 0.0000 25.7650
#
#
#
# Elastic Compliance Matrix: (Units=1/GPa)
#
#
# Indices 1 2 3 4 5 6 
#
# 1 0.018724 -0.006894 -0.004876 0.000000 0.000000 0.000000
# 2 -0.006894 0.021613 -0.004534 0.000000 0.000000 0.000000
# 3 -0.004876 -0.004534 0.011257 0.000000 0.000000 0.000000
# 4 0.000000 0.000000 0.000000 0.036376 0.000000 0.000000
# 5 0.000000 0.000000 0.000000 0.000000 0.038640 0.000000
# 6 0.000000 0.000000 0.000000 0.000000 0.000000 0.038812
#
#
# Mechanical properties :
#
#
# Convention : Reuss Voigt Hill
#
# Bulk Modulus (GPa) = 52.67408 58.24805 55.46107
# Shear Modulus (GPa) = 24.46686 25.57861 25.02274
#
# Velocity S-wave (km/s) = 3.73628 3.82022 3.77848
# Velocity P-wave (km/s) = 6.97615 7.25897 7.11897
#
# Compressibility (1/GPa) = 0.01898467
#
# Stress axis : x y z
#
# Youngs Moduli (GPa) = 53.40743 46.26946 88.83379
#
# Poissons Ratio (x) = 0.31900 0.43315
# Poissons Ratio (y) = 0.36821 0.40278
# Poissons Ratio (z) = 0.26041 0.20979
#
# Static dielectric constant tensor:
#      x y z
#    x 3.356330 0.000000 0.000000 
#    y 0.000000 3.351450 0.000000 
#    z 0.000000 0.000000 3.114690 
# 
# 
# High freq. dielectric constant tensor:
#      x y z
#    x 1.666260 0.000000 0.000000 
#    y 0.000000 1.687380 0.000000 
#    z 0.000000 0.000000 1.657630 
# 
# From -- ./inp_files/18603.got.cif
#   From: 2010.03.12/outbox.cif.g09.slc.cpg/sg59_10_cif.got.tgz:18603.got - 2010.04.16 16:29:54.
