data_PCOD8240608
_publ_section_title
;
Structure prediction by ZEFSAII (Michael W. Deem and Ramdas Pophale) SiO2 
 PCOD8240608
Probable space group: P M M N
;
_chemical_formula_sum "Si O2"
_cell_formula_units_Z 64
_cell_length_a 28.232901
_cell_length_b 8.829564
_cell_length_c 15.683367
_cell_angle_alpha 90.000000
_cell_angle_beta 90.000000
_cell_angle_gamma 90.000000
_cell_volume 3909.615694
_symmetry_space_group_name_H-M "P M M N"
_symmetry_group_IT_number 59
_space_group.IT_coordinate_system_code '2'
_symmetry_cell_setting 'orthorhombic'
loop_
_space_group_symop_operation_xyz
x,y,z
1/2-x,1/2-y,z
1/2+x,-y,-z
-x,1/2+y,-z
-x,-y,-z
1/2+x,1/2+y,-z
1/2-x,y,z
x,1/2-y,z
loop_
_atom_site_type_symbol
_atom_site_label
_atom_site_fract_x
_atom_site_fract_y
_atom_site_fract_z
Si Si1 0.942404 0.571882 0.317054
Si Si2 0.549811 0.924100 0.500666
Si Si3 0.196408 0.572765 0.099312
Si Si4 0.112081 0.572758 0.834826
Si Si5 0.196303 0.075393 0.919026
Si Si6 0.044900 0.427299 0.314960
Si Si7 0.448649 0.571967 0.999049
Si Si8 0.893499 0.928319 0.844945
O O1 0.938051 0.750000 0.296905
O O2 0.922904 0.529653 0.413249
O O3 0.909847 0.477248 0.254231
O O4 0.997044 0.523375 0.306383
O O5 0.538597 0.750000 0.491758
O O6 0.572349 0.959255 0.594089
O O7 0.500000 0.000000 0.500000
O O8 0.250000 0.532311 0.126798
O O9 0.186265 0.750000 0.105697
O O10 0.160869 0.483773 0.161825
O O11 0.186650 0.522990 0.002794
O O12 0.122739 0.750000 0.833310
O O13 0.161473 0.483996 0.845756
O O14 0.075987 0.528905 0.910117
O O15 0.250000 0.053873 0.886395
O O16 0.185757 0.250000 0.940793
O O17 0.031759 0.250000 0.306197
O O18 0.080573 0.479063 0.241395
O O19 0.453768 0.750000 0.010318
O O20 0.417700 0.507889 0.075386
O O21 0.500000 0.500000 0.000000
O O22 0.895642 0.750000 0.858349
#
# Coordination Sequence:
#
# PCOD8240608 Si02
#       8
#     8   8   8   8   8   8   8   8
#     4  10  19  30  48  72  96 127 164 202 239 280
#     4   8  15  29  47  67  93 123 157 198 242 283
#     4  10  20  34  51  70  94 124 157 196 242 286
#     4  11  22  34  48  68  96 131 163 194 238 285
#     4  10  20  34  53  74  94 119 156 201 242 282
#     4   9  18  32  48  69  98 129 160 197 241 288
#     4  11  23  35  46  63  93 132 167 197 232 277
#     4  11  21  32  49  71  95 126 162 198 237 281
#
# _framework density 16.369895
#
# number of rings (size 3 to 8) (size 9 to 14) (size 15 to 20)
#    0.000    2.000    1.250    3.000    0.000    7.500 
#    0.000    0.000    0.000    0.000    0.000    0.875 
#    0.000    3.000    0.000    0.000    0.000    0.000 
#
# Total GULP energy -793278.333049 kJ/mol
# GULP energy per Si atom -12394.973954 kJ/mol
# Density = 1.633264 g / cm^3
# Si number density = 16.369895 Si / 1000 Ang^3
#
#
#
# Elastic Constant Matrix: (Units=GPa)
#
#
# Indices 1 2 3 4 5 6 
#
# 1 82.4165 29.3612 31.8941 0.0000 0.0000 0.0000
# 2 29.3612 49.3070 31.5233 0.0000 0.0000 0.0000
# 3 31.8941 31.5233 88.3079 0.0000 0.0000 0.0000
# 4 0.0000 0.0000 0.0000 18.5557 0.0000 0.0000
# 5 0.0000 0.0000 0.0000 0.0000 10.8694 0.0000
# 6 0.0000 0.0000 0.0000 0.0000 0.0000 28.3316
#
#
#
# Elastic Compliance Matrix: (Units=1/GPa)
#
#
# Indices 1 2 3 4 5 6 
#
# 1 0.016024 -0.007569 -0.003085 0.000000 0.000000 0.000000
# 2 -0.007569 0.029854 -0.007923 0.000000 0.000000 0.000000
# 3 -0.003085 -0.007923 0.015267 0.000000 0.000000 0.000000
# 4 0.000000 0.000000 0.000000 0.053892 0.000000 0.000000
# 5 0.000000 0.000000 0.000000 0.000000 0.092001 0.000000
# 6 0.000000 0.000000 0.000000 0.000000 0.000000 0.035296
#
#
# Mechanical properties :
#
#
# Convention : Reuss Voigt Hill
#
# Bulk Modulus (GPa) = 41.68590 45.06537 43.37563
# Shear Modulus (GPa) = 17.39213 20.03487 18.71350
#
# Velocity S-wave (km/s) = 3.26305 3.50220 3.38474
# Velocity P-wave (km/s) = 6.30214 6.62896 6.46761
#
# Compressibility (1/GPa) = 0.02398893
#
# Stress axis : x y z
#
# Youngs Moduli (GPa) = 62.40587 33.49638 65.50217
#
# Poissons Ratio (x) = 0.25355 0.20210
# Poissons Ratio (y) = 0.47238 0.51898
# Poissons Ratio (z) = 0.19254 0.26540
#
# Static dielectric constant tensor:
#      x y z
#    x 3.191920 0.000000 0.000000 
#    y 0.000000 3.015530 0.000000 
#    z 0.000000 0.000000 3.523830 
# 
# 
# High freq. dielectric constant tensor:
#      x y z
#    x 1.607840 0.000000 0.000000 
#    y 0.000000 1.646140 0.000000 
#    z 0.000000 0.000000 1.624580 
# 
# From -- ./inp_files/21807.got.cif
#   From: 2010.03.12/outbox.cif.g09.slc.cpg/sg59_11_cif.got.tgz:21807.got - 2010.04.16 16:29:54.
