data_PCOD8240736
_publ_section_title
;
Structure prediction by ZEFSAII (Michael W. Deem and Ramdas Pophale) SiO2 
 PCOD8240736
Probable space group: P M M N
;
_chemical_formula_sum "Si O2"
_cell_formula_units_Z 56
_cell_length_a 13.849933
_cell_length_b 9.371844
_cell_length_c 25.885654
_cell_angle_alpha 90.000000
_cell_angle_beta 90.000000
_cell_angle_gamma 90.000000
_cell_volume 3359.942655
_symmetry_space_group_name_H-M "P M M N"
_symmetry_group_IT_number 59
_space_group.IT_coordinate_system_code '2'
_symmetry_cell_setting 'orthorhombic'
loop_
_space_group_symop_operation_xyz
x,y,z
1/2-x,1/2-y,z
1/2+x,-y,-z
-x,1/2+y,-z
-x,-y,-z
1/2+x,1/2+y,-z
1/2-x,y,z
x,1/2-y,z
loop_
_atom_site_type_symbol
_atom_site_label
_atom_site_fract_x
_atom_site_fract_y
_atom_site_fract_z
Si Si1 0.540947 0.914852 0.630972
Si Si2 0.360530 0.417108 0.973578
Si Si3 0.357533 0.586036 0.572311
Si Si4 0.361079 0.085381 0.176794
Si Si5 0.363796 0.088014 0.474700
Si Si6 0.138311 0.917126 0.278728
Si Si7 0.975517 0.916261 0.924665
O O1 0.567193 0.750000 0.643332
O O2 0.426027 0.935300 0.622073
O O3 0.593381 0.968206 0.579043
O O4 0.572240 0.014546 0.677515
O O5 0.250000 0.469205 0.969593
O O6 0.368688 0.250000 0.962545
O O7 0.424467 0.498398 0.930916
O O8 0.399911 0.456002 0.030349
O O9 0.250000 0.531163 0.586902
O O10 0.355392 0.750000 0.555547
O O11 0.401758 0.503393 0.523122
O O12 0.250000 0.060365 0.161041
O O13 0.378565 0.250000 0.191842
O O14 0.427135 0.038238 0.129022
O O15 0.391327 0.987420 0.224640
O O16 0.250000 0.072646 0.470570
O O17 0.397273 0.250000 0.483959
O O18 0.250000 0.949097 0.291531
O O19 0.117058 0.750000 0.275499
O O20 0.000532 0.750000 0.925822
#
# Coordination Sequence:
#
# PCOD8240736 Si02
#       7
#     8   8   8   8   8   8   8
#     4  10  19  31  48  67  90 122 154 184 223 271
#     4   9  17  29  45  68 100 133 161 192 233 277
#     4   9  18  31  46  66  91 118 150 187 224 263
#     4   9  17  31  51  71  93 123 155 187 226 273
#     4   9  17  28  43  65  91 118 149 183 220 268
#     4  10  21  34  48  70  96 118 145 186 233 277
#     4   9  17  29  47  71  96 125 163 199 229 269
#
# _framework density 16.66695
#
# number of rings (size 3 to 8) (size 9 to 14) (size 15 to 20)
#    0.000    2.714    0.000    1.714    0.000    5.143 
#    0.000    1.429    0.000    3.429    0.000    2.000 
#    0.000    0.000    0.000    0.000    0.000    0.000 
#
# Total GULP energy -694417.719518 kJ/mol
# GULP energy per Si atom -12400.316420 kJ/mol
# Density = 1.662902 g / cm^3
# Si number density = 16.666950 Si / 1000 Ang^3
#
#
#
# Elastic Constant Matrix: (Units=GPa)
#
#
# Indices 1 2 3 4 5 6 
#
# 1 94.1528 46.1884 66.2611 0.0000 0.0000 0.0000
# 2 46.1884 68.5437 62.6086 0.0000 0.0000 0.0000
# 3 66.2611 62.6086 119.9971 0.0000 0.0000 0.0000
# 4 0.0000 0.0000 0.0000 29.8801 0.0000 0.0000
# 5 0.0000 0.0000 0.0000 0.0000 27.5393 0.0000
# 6 0.0000 0.0000 0.0000 0.0000 0.0000 24.6814
#
#
#
# Elastic Compliance Matrix: (Units=1/GPa)
#
#
# Indices 1 2 3 4 5 6 
#
# 1 0.018586 -0.006018 -0.007123 0.000000 0.000000 0.000000
# 2 -0.006018 0.029821 -0.012236 0.000000 0.000000 0.000000
# 3 -0.007123 -0.012236 0.018651 0.000000 0.000000 0.000000
# 4 0.000000 0.000000 0.000000 0.033467 0.000000 0.000000
# 5 0.000000 0.000000 0.000000 0.000000 0.036312 0.000000
# 6 0.000000 0.000000 0.000000 0.000000 0.000000 0.040516
#
#
# Mechanical properties :
#
#
# Convention : Reuss Voigt Hill
#
# Bulk Modulus (GPa) = 61.33537 70.31218 65.82378
# Shear Modulus (GPa) = 21.40932 23.59586 22.50259
#
# Velocity S-wave (km/s) = 3.58793 3.76670 3.67840
# Velocity P-wave (km/s) = 7.35152 7.82276 7.59080
#
# Compressibility (1/GPa) = 0.01630381
#
# Stress axis : x y z
#
# Youngs Moduli (GPa) = 53.80283 33.53334 53.61605
#
# Poissons Ratio (x) = 0.20180 0.38192
# Poissons Ratio (y) = 0.32379 0.65605
# Poissons Ratio (z) = 0.38325 0.41032
#
# Static dielectric constant tensor:
#      x y z
#    x 3.236330 0.000000 0.000000 
#    y 0.000000 3.133030 0.000000 
#    z 0.000000 0.000000 3.008670 
# 
# 
# High freq. dielectric constant tensor:
#      x y z
#    x 1.641030 0.000000 0.000000 
#    y 0.000000 1.639710 0.000000 
#    z 0.000000 0.000000 1.625090 
# 
# From -- ./inp_files/30374.got.cif
#   From: 2010.03.12/outbox.cif.g09.slc.cpg/sg59_16_cif.got.tgz:30374.got - 2010.04.16 16:29:54.
