data_PCOD8240577
_publ_section_title
;
Structure prediction by ZEFSAII (Michael W. Deem and Ramdas Pophale) SiO2 
 PCOD8240577
Probable space group: P M M N
;
_chemical_formula_sum "Si O2"
_cell_formula_units_Z 64
_cell_length_a 9.189009
_cell_length_b 23.535467
_cell_length_c 16.619459
_cell_angle_alpha 90.000000
_cell_angle_beta 90.000000
_cell_angle_gamma 90.000000
_cell_volume 3594.250812
_symmetry_space_group_name_H-M "P M M N"
_symmetry_group_IT_number 59
_space_group.IT_coordinate_system_code '2'
_symmetry_cell_setting 'orthorhombic'
loop_
_space_group_symop_operation_xyz
x,y,z
1/2-x,1/2-y,z
1/2+x,-y,-z
-x,1/2+y,-z
-x,-y,-z
1/2+x,1/2+y,-z
1/2-x,y,z
x,1/2-y,z
loop_
_atom_site_type_symbol
_atom_site_label
_atom_site_fract_x
_atom_site_fract_y
_atom_site_fract_z
Si Si1 0.418950 0.618343 0.217674
Si Si2 0.079656 0.093732 0.531664
Si Si3 0.916497 0.972235 0.308466
Si Si4 0.419113 0.591804 0.629823
Si Si5 0.580073 0.683088 0.078886
Si Si6 0.918940 0.817343 0.729694
Si Si7 0.417195 0.815505 0.378477
Si Si8 0.421588 0.188106 0.096078
O O1 0.250000 0.609352 0.201186
O O2 0.486401 0.556854 0.239370
O O3 0.488909 0.644638 0.138627
O O4 0.451325 0.661498 0.289826
O O5 0.250000 0.097010 0.513804
O O6 0.040249 0.050312 0.603018
O O7 0.997578 0.073381 0.452148
O O8 0.021057 0.155880 0.555867
O O9 0.750000 0.956276 0.290144
O O10 0.941768 0.040009 0.307317
O O11 0.250000 0.601813 0.611631
O O12 0.485687 0.649668 0.664602
O O13 0.750000 0.674231 0.096679
O O14 0.540573 0.750000 0.086820
O O15 0.537612 0.658862 0.989163
O O16 0.750000 0.830425 0.712789
O O17 0.949222 0.750000 0.722560
O O18 0.966595 0.841054 0.819043
O O19 0.250000 0.827279 0.401911
O O20 0.456464 0.750000 0.378346
O O21 0.250000 0.196517 0.098480
O O22 0.495662 0.250000 0.095104
#
# Coordination Sequence:
#
# PCOD8240577 Si02
#       8
#     8   8   8   8   8   8   8   8
#     4  10  19  30  47  72 101 131 163 202 244 284
#     4  10  20  34  52  72  93 121 162 206 242 282
#     4   9  20  37  53  70  94 126 164 203 242 286
#     4  11  22  35  53  75  98 124 156 198 247 295
#     4   9  16  27  47  74 102 133 166 197 234 284
#     4   9  18  34  55  77 101 128 160 198 238 285
#     4   9  18  32  47  65  96 134 163 191 236 288
#     4   7  12  26  48  72  97 127 162 197 234 278
#
# _framework density 17.806213
#
# number of rings (size 3 to 8) (size 9 to 14) (size 15 to 20)
#    0.000    2.750    0.000    3.375    0.000    3.750 
#    0.000    0.625    0.000    3.000    0.000    0.000 
#    0.000    0.000    0.000    0.000    0.000    0.000 
#
# Total GULP energy -793190.220087 kJ/mol
# GULP energy per Si atom -12393.597189 kJ/mol
# Density = 1.776569 g / cm^3
# Si number density = 17.806213 Si / 1000 Ang^3
#
#
#
# Elastic Constant Matrix: (Units=GPa)
#
#
# Indices 1 2 3 4 5 6 
#
# 1 75.7781 31.8077 36.8265 0.0000 0.0000 0.0000
# 2 31.8077 66.0297 20.5514 0.0000 0.0000 0.0000
# 3 36.8265 20.5514 72.9149 0.0000 0.0000 0.0000
# 4 0.0000 0.0000 0.0000 17.1082 0.0000 0.0000
# 5 0.0000 0.0000 0.0000 0.0000 22.3841 0.0000
# 6 0.0000 0.0000 0.0000 0.0000 0.0000 24.5738
#
#
#
# Elastic Compliance Matrix: (Units=1/GPa)
#
#
# Indices 1 2 3 4 5 6 
#
# 1 0.020179 -0.007178 -0.008169 0.000000 0.000000 0.000000
# 2 -0.007178 0.019155 -0.001773 0.000000 0.000000 0.000000
# 3 -0.008169 -0.001773 0.018340 0.000000 0.000000 0.000000
# 4 0.000000 0.000000 0.000000 0.058451 0.000000 0.000000
# 5 0.000000 0.000000 0.000000 0.000000 0.044675 0.000000
# 6 0.000000 0.000000 0.000000 0.000000 0.000000 0.040694
#
#
# Mechanical properties :
#
#
# Convention : Reuss Voigt Hill
#
# Bulk Modulus (GPa) = 42.67384 43.67711 43.17548
# Shear Modulus (GPa) = 20.53010 21.18238 20.85624
#
# Velocity S-wave (km/s) = 3.39923 3.45281 3.42612
# Velocity P-wave (km/s) = 6.27886 6.36225 6.32069
#
# Compressibility (1/GPa) = 0.02343356
#
# Stress axis : x y z
#
# Youngs Moduli (GPa) = 49.55594 52.20691 54.52555
#
# Poissons Ratio (x) = 0.37476 0.44539
# Poissons Ratio (y) = 0.35573 0.09669
# Poissons Ratio (z) = 0.40480 0.09258
#
# Static dielectric constant tensor:
#      x y z
#    x 3.171480 0.000000 0.000000 
#    y 0.000000 3.113770 0.000000 
#    z 0.000000 0.000000 3.416610 
# 
# 
# High freq. dielectric constant tensor:
#      x y z
#    x 1.679980 0.000000 0.000000 
#    y 0.000000 1.667040 0.000000 
#    z 0.000000 0.000000 1.687550 
# 
# From -- ./inp_files/26451.got.cif
#   From: 2010.03.12/outbox.cif.g09.slc.cpg/sg59_14_cif.got.tgz:26451.got - 2010.04.16 16:29:54.
