data_PCOD8240210
_publ_section_title
;
Structure prediction by ZEFSAII (Michael W. Deem and Ramdas Pophale) SiO2 
 PCOD8240210
Probable space group: P M M N
;
_chemical_formula_sum "Si O2"
_cell_formula_units_Z 64
_cell_length_a 9.093162
_cell_length_b 30.763636
_cell_length_c 11.844173
_cell_angle_alpha 90.000000
_cell_angle_beta 90.000000
_cell_angle_gamma 90.000000
_cell_volume 3313.273864
_symmetry_space_group_name_H-M "P M M N"
_symmetry_group_IT_number 59
_space_group.IT_coordinate_system_code '2'
_symmetry_cell_setting 'orthorhombic'
loop_
_space_group_symop_operation_xyz
x,y,z
1/2-x,1/2-y,z
1/2+x,-y,-z
-x,1/2+y,-z
-x,-y,-z
1/2+x,1/2+y,-z
1/2-x,y,z
x,1/2-y,z
loop_
_atom_site_type_symbol
_atom_site_label
_atom_site_fract_x
_atom_site_fract_y
_atom_site_fract_z
Si Si1 0.575847 0.202082 0.990594
Si Si2 0.921953 0.045263 0.979084
Si Si3 0.582346 0.918007 0.233658
Si Si4 0.422969 0.623334 0.854951
Si Si5 0.581054 0.331565 0.749523
Si Si6 0.916827 0.201129 0.507272
Si Si7 0.083263 0.456517 0.527398
Si Si8 0.924506 0.875007 0.615582
O O1 0.750000 0.201964 0.996710
O O2 0.515449 0.250000 0.025700
O O3 0.515638 0.164745 0.074194
O O4 0.526498 0.192750 0.862235
O O5 0.750000 0.036528 0.970112
O O6 0.976503 0.064912 0.862664
O O7 0.958223 0.079141 0.078211
O O8 0.000000 0.000000 0.000000
O O9 0.750000 0.914807 0.190008
O O10 0.526097 0.871532 0.274428
O O11 0.571452 0.950131 0.339044
O O12 0.250000 0.628176 0.831829
O O13 0.508834 0.620850 0.739026
O O14 0.750000 0.347471 0.764139
O O15 0.564009 0.300116 0.642594
O O16 0.750000 0.188301 0.474562
O O17 0.952385 0.250000 0.467510
O O18 0.026205 0.169522 0.442481
O O19 0.250000 0.462817 0.488554
O O20 0.016895 0.415460 0.459190
O O21 0.000000 0.500000 0.500000
O O22 0.750000 0.874642 0.623475
#
# Coordination Sequence:
#
# PCOD8240210 Si02
#       8
#     8   8   8   8   8   8   8   8
#     4   9  17  33  59  88 117 149 188 238 293 345
#     4  11  24  42  63  91 122 156 199 244 297 353
#     4  11  22  39  62  90 123 157 194 243 298 356
#     4  10  22  40  60  86 118 155 199 245 291 347
#     4  10  18  34  60  91 121 153 194 244 295 348
#     4  10  21  37  61  92 121 155 202 249 296 356
#     4  10  24  42  61  87 118 155 199 246 298 355
#     4  11  24  42  60  85 120 159 200 246 301 357
#
# _framework density 19.316241999999999
#
# number of rings (size 3 to 8) (size 9 to 14) (size 15 to 20)
#    0.000    1.750    2.500    1.500    1.750    5.250 
#    0.000    1.250    0.000    1.875    0.000    0.000 
#    0.000    0.000    0.000    0.000    0.000    0.000 
#
# Total GULP energy -793694.508234 kJ/mol
# GULP energy per Si atom -12401.476691 kJ/mol
# Density = 1.927228 g / cm^3
# Si number density = 19.316242 Si / 1000 Ang^3
#
#
#
# Elastic Constant Matrix: (Units=GPa)
#
#
# Indices 1 2 3 4 5 6 
#
# 1 65.5153 54.6492 51.8097 0.0000 0.0000 0.0000
# 2 54.6492 135.5092 48.9530 0.0000 0.0000 0.0000
# 3 51.8097 48.9530 119.1073 0.0000 0.0000 0.0000
# 4 0.0000 0.0000 0.0000 24.1368 0.0000 0.0000
# 5 0.0000 0.0000 0.0000 0.0000 31.0661 0.0000
# 6 0.0000 0.0000 0.0000 0.0000 0.0000 29.2912
#
#
#
# Elastic Compliance Matrix: (Units=1/GPa)
#
#
# Indices 1 2 3 4 5 6 
#
# 1 0.029997 -0.008671 -0.009484 0.000000 0.000000 0.000000
# 2 -0.008671 0.011173 -0.000820 0.000000 0.000000 0.000000
# 3 -0.009484 -0.000820 0.012858 0.000000 0.000000 0.000000
# 4 0.000000 0.000000 0.000000 0.041431 0.000000 0.000000
# 5 0.000000 0.000000 0.000000 0.000000 0.032189 0.000000
# 6 0.000000 0.000000 0.000000 0.000000 0.000000 0.034140
#
#
# Mechanical properties :
#
#
# Convention : Reuss Voigt Hill
#
# Bulk Modulus (GPa) = 62.20158 70.10618 66.15388
# Shear Modulus (GPa) = 24.37858 27.88016 26.12937
#
# Velocity S-wave (km/s) = 3.55643 3.80327 3.68192
# Velocity P-wave (km/s) = 7.00970 7.46051 7.23861
#
# Compressibility (1/GPa) = 0.01607676
#
# Stress axis : x y z
#
# Youngs Moduli (GPa) = 33.33690 89.50273 77.77010
#
# Poissons Ratio (x) = 0.77609 0.73759
# Poissons Ratio (y) = 0.28907 0.06379
# Poissons Ratio (z) = 0.31618 0.07341
#
# Static dielectric constant tensor:
#      x y z
#    x 3.359460 0.000000 0.000000 
#    y 0.000000 3.439270 0.000000 
#    z 0.000000 0.000000 3.534080 
# 
# 
# High freq. dielectric constant tensor:
#      x y z
#    x 1.735720 0.000000 0.000000 
#    y 0.000000 1.762740 0.000000 
#    z 0.000000 0.000000 1.758630 
# 
# From -- ./inp_files/14900.got.cif
#   From: 2010.03.12/outbox.cif.g09.slc.cpg/sg59_8_cif.got.tgz:14900.got - 2010.04.16 16:29:54.
