data_PCOD8240220
_publ_section_title
;
Structure prediction by ZEFSAII (Michael W. Deem and Ramdas Pophale) SiO2 
 PCOD8240220
Probable space group: P M M N
;
_chemical_formula_sum "Si O2"
_cell_formula_units_Z 64
_cell_length_a 16.726082
_cell_length_b 21.666950
_cell_length_c 9.699320
_cell_angle_alpha 90.000000
_cell_angle_beta 90.000000
_cell_angle_gamma 90.000000
_cell_volume 3515.064435
_symmetry_space_group_name_H-M "P M M N"
_symmetry_group_IT_number 59
_space_group.IT_coordinate_system_code '2'
_symmetry_cell_setting 'orthorhombic'
loop_
_space_group_symop_operation_xyz
x,y,z
1/2-x,1/2-y,z
1/2+x,-y,-z
-x,1/2+y,-z
-x,-y,-z
1/2+x,1/2+y,-z
1/2-x,y,z
x,1/2-y,z
loop_
_atom_site_type_symbol
_atom_site_label
_atom_site_fract_x
_atom_site_fract_y
_atom_site_fract_z
Si Si1 0.978495 0.820760 0.281142
Si Si2 0.158596 0.919364 0.902328
Si Si3 0.975745 0.180205 0.026721
Si Si4 0.339468 0.321990 0.513525
Si Si5 0.936296 0.460695 0.347382
Si Si6 0.572410 0.877367 0.743123
Si Si7 0.340357 0.007836 0.144573
Si Si8 0.560819 0.438311 0.649486
O O1 0.001898 0.750000 0.314820
O O2 0.893948 0.837937 0.353326
O O3 0.045665 0.864931 0.347667
O O4 0.976854 0.832603 0.116482
O O5 0.250000 0.894527 0.905367
O O6 0.099155 0.865812 0.954850
O O7 0.137369 0.943765 0.750451
O O8 0.148906 0.980973 0.992231
O O9 0.942246 0.250000 0.028261
O O10 0.039226 0.173898 0.151281
O O11 0.250000 0.345686 0.547473
O O12 0.340449 0.250000 0.485489
O O13 0.366480 0.351753 0.369199
O O14 0.905485 0.462449 0.503697
O O15 0.000287 0.405683 0.343619
O O16 0.978575 0.525726 0.309044
O O17 0.609815 0.929886 0.840201
O O18 0.250000 0.024083 0.180094
O O19 0.369161 0.953619 0.245194
#
# Coordination Sequence:
#
# PCOD8240220 Si02
#       8
#     8   8   8   8   8   8   8   8
#     4  10  20  35  55  79 106 142 186 224 266 324
#     4  10  21  37  54  80 113 144 179 228 281 324
#     4  10  21  36  58  82 105 144 188 224 266 324
#     4  10  20  35  54  76 107 142 176 223 277 324
#     4   9  20  32  55  81 104 140 180 223 273 328
#     4  10  19  34  55  79 106 136 181 223 266 328
#     4  10  21  34  53  79 111 146 178 220 277 326
#     4  10  18  35  55  78 107 142 184 225 270 320
#
# _framework density 18.207348
#
# number of rings (size 3 to 8) (size 9 to 14) (size 15 to 20)
#    0.000    2.125    2.500    0.750    1.750    2.250 
#    0.000    1.875    0.000    3.375    0.000    0.000 
#    0.000    0.000    0.000    0.000    0.000    0.000 
#
# Total GULP energy -793365.284123 kJ/mol
# GULP energy per Si atom -12396.332564 kJ/mol
# Density = 1.816591 g / cm^3
# Si number density = 18.207348 Si / 1000 Ang^3
#
#
#
# Elastic Constant Matrix: (Units=GPa)
#
#
# Indices 1 2 3 4 5 6 
#
# 1 79.1508 22.4495 47.4802 0.0000 0.0000 0.0000
# 2 22.4495 61.9558 30.1235 0.0000 0.0000 0.0000
# 3 47.4802 30.1235 94.2737 0.0000 0.0000 0.0000
# 4 0.0000 0.0000 0.0000 26.2173 0.0000 0.0000
# 5 0.0000 0.0000 0.0000 0.0000 28.1349 0.0000
# 6 0.0000 0.0000 0.0000 0.0000 0.0000 21.2573
#
#
#
# Elastic Compliance Matrix: (Units=1/GPa)
#
#
# Indices 1 2 3 4 5 6 
#
# 1 0.018441 -0.002565 -0.008468 0.000000 0.000000 0.000000
# 2 -0.002565 0.019466 -0.004928 0.000000 0.000000 0.000000
# 3 -0.008468 -0.004928 0.016447 0.000000 0.000000 0.000000
# 4 0.000000 0.000000 0.000000 0.038143 0.000000 0.000000
# 5 0.000000 0.000000 0.000000 0.000000 0.035543 0.000000
# 6 0.000000 0.000000 0.000000 0.000000 0.000000 0.047043
#
#
# Mechanical properties :
#
#
# Convention : Reuss Voigt Hill
#
# Bulk Modulus (GPa) = 44.57956 48.38739 46.48348
# Shear Modulus (GPa) = 23.31184 24.14372 23.72778
#
# Velocity S-wave (km/s) = 3.58208 3.64544 3.61390
# Velocity P-wave (km/s) = 6.45337 6.65976 6.55738
#
# Compressibility (1/GPa) = 0.02243180
#
# Stress axis : x y z
#
# Youngs Moduli (GPa) = 54.22553 51.37140 60.80068
#
# Poissons Ratio (x) = 0.13176 0.51488
# Poissons Ratio (y) = 0.13908 0.29964
# Poissons Ratio (z) = 0.45920 0.25317
#
# Static dielectric constant tensor:
#      x y z
#    x 3.282960 0.000000 0.000000 
#    y 0.000000 3.343070 0.000000 
#    z 0.000000 0.000000 3.416470 
# 
# 
# High freq. dielectric constant tensor:
#      x y z
#    x 1.684830 0.000000 0.000000 
#    y 0.000000 1.706650 0.000000 
#    z 0.000000 0.000000 1.716020 
# 
# From -- ./inp_files/10687.got.cif
#   From: 2010.03.12/outbox.cif.g09.slc.cpg/sg59_6_cif.got.tgz:10687.got - 2010.04.16 16:29:54.
