data_PCOD8240216
_publ_section_title
;
Structure prediction by ZEFSAII (Michael W. Deem and Ramdas Pophale) SiO2 
 PCOD8240216
Probable space group: P M M N
;
_chemical_formula_sum "Si O2"
_cell_formula_units_Z 64
_cell_length_a 20.487526
_cell_length_b 18.287420
_cell_length_c 9.796980
_cell_angle_alpha 90.000000
_cell_angle_beta 90.000000
_cell_angle_gamma 90.000000
_cell_volume 3670.575643
_symmetry_space_group_name_H-M "P M M N"
_symmetry_group_IT_number 59
_space_group.IT_coordinate_system_code '2'
_symmetry_cell_setting 'orthorhombic'
loop_
_space_group_symop_operation_xyz
x,y,z
1/2-x,1/2-y,z
1/2+x,-y,-z
-x,1/2+y,-z
-x,-y,-z
1/2+x,1/2+y,-z
1/2-x,y,z
x,1/2-y,z
loop_
_atom_site_type_symbol
_atom_site_label
_atom_site_fract_x
_atom_site_fract_y
_atom_site_fract_z
Si Si1 0.596015 0.336405 0.458191
Si Si2 0.578698 0.555472 0.379613
Si Si3 0.460102 0.333788 0.829480
Si Si4 0.610012 0.166710 0.769771
Si Si5 0.175314 0.562381 0.723426
Si Si6 0.825381 0.445439 0.963542
Si Si7 0.557607 0.947373 0.945611
Si Si8 0.479755 0.069149 0.351648
O O1 0.592618 0.250000 0.443494
O O2 0.610163 0.360709 0.613378
O O3 0.653032 0.367615 0.362992
O O4 0.527702 0.368965 0.408711
O O5 0.571923 0.634247 0.308537
O O6 0.640703 0.512133 0.323705
O O7 0.581801 0.565266 0.544052
O O8 0.513421 0.510145 0.343264
O O9 0.437931 0.250000 0.841583
O O10 0.537951 0.341304 0.830746
O O11 0.431696 0.379324 0.955119
O O12 0.634183 0.250000 0.776548
O O13 0.660256 0.120459 0.859862
O O14 0.250000 0.547945 0.694071
O O15 0.161064 0.580317 0.881501
O O16 0.750000 0.470168 0.945653
O O17 0.873645 0.511736 0.930230
O O18 0.542150 0.911186 0.799971
O O19 0.500000 0.000000 0.000000
#
# Coordination Sequence:
#
# PCOD8240216 Si02
#       8
#     8   8   8   8   8   8   8   8
#     4  10  21  36  54  82 118 148 181 228 280 336
#     4  10  18  35  53  79 107 139 181 230 279 322
#     4  11  21  35  59  86 112 142 183 231 283 337
#     4  10  21  36  54  82 118 154 187 224 277 344
#     4  10  22  37  55  77 106 148 193 232 273 331
#     4  11  23  38  56  80 114 154 192 236 286 340
#     4  12  20  36  57  84 113 149 190 241 289 337
#     4  10  20  31  56  81 110 145 182 229 284 328
#
# _framework density 17.435957999999999
#
# number of rings (size 3 to 8) (size 9 to 14) (size 15 to 20)
#    0.000    1.500    5.000    0.750    3.500    2.000 
#    0.000    2.500    0.000    1.500    0.000    0.000 
#    0.000    3.000    0.000    0.000    0.000    0.000 
#
# Total GULP energy -793618.735224 kJ/mol
# GULP energy per Si atom -12400.292738 kJ/mol
# Density = 1.739627 g / cm^3
# Si number density = 17.435958 Si / 1000 Ang^3
#
#
#
# Elastic Constant Matrix: (Units=GPa)
#
#
# Indices 1 2 3 4 5 6 
#
# 1 86.1762 41.6716 54.3182 0.0000 0.0000 0.0000
# 2 41.6716 104.4397 48.0912 0.0000 0.0000 0.0000
# 3 54.3182 48.0912 137.0361 0.0000 0.0000 0.0000
# 4 0.0000 0.0000 0.0000 30.9399 0.0000 0.0000
# 5 0.0000 0.0000 0.0000 0.0000 20.8286 0.0000
# 6 0.0000 0.0000 0.0000 0.0000 0.0000 18.9086
#
#
#
# Elastic Compliance Matrix: (Units=1/GPa)
#
#
# Indices 1 2 3 4 5 6 
#
# 1 0.017005 -0.004391 -0.005199 0.000000 0.000000 0.000000
# 2 -0.004391 0.012554 -0.002665 0.000000 0.000000 0.000000
# 3 -0.005199 -0.002665 0.010294 0.000000 0.000000 0.000000
# 4 0.000000 0.000000 0.000000 0.032321 0.000000 0.000000
# 5 0.000000 0.000000 0.000000 0.000000 0.048011 0.000000
# 6 0.000000 0.000000 0.000000 0.000000 0.000000 0.052886
#
#
# Mechanical properties :
#
#
# Convention : Reuss Voigt Hill
#
# Bulk Modulus (GPa) = 65.18278 68.42377 66.80328
# Shear Modulus (GPa) = 24.66767 26.37350 25.52058
#
# Velocity S-wave (km/s) = 3.76541 3.89343 3.82995
# Velocity P-wave (km/s) = 7.50797 7.71620 7.61280
#
# Compressibility (1/GPa) = 0.01534147
#
# Stress axis : x y z
#
# Youngs Moduli (GPa) = 58.80782 79.65528 97.14739
#
# Poissons Ratio (x) = 0.34974 0.50511
# Poissons Ratio (y) = 0.25821 0.25893
# Poissons Ratio (z) = 0.30576 0.21231
#
# Static dielectric constant tensor:
#      x y z
#    x 3.083120 0.000000 0.000000 
#    y 0.000000 3.211930 0.000000 
#    z 0.000000 0.000000 3.560090 
# 
# 
# High freq. dielectric constant tensor:
#      x y z
#    x 1.645680 0.000000 0.000000 
#    y 0.000000 1.663040 0.000000 
#    z 0.000000 0.000000 1.694780 
# 
# From -- ./inp_files/11610.got.cif
#   From: 2010.03.12/outbox.cif.g09.slc.cpg/sg59_6_cif.got.tgz:11610.got - 2010.04.16 16:29:54.
