data_PCOD8240274
_publ_section_title
;
Structure prediction by ZEFSAII (Michael W. Deem and Ramdas Pophale) SiO2 
 PCOD8240274
Probable space group: P M M N
;
_chemical_formula_sum "Si O2"
_cell_formula_units_Z 56
_cell_length_a 18.331543
_cell_length_b 9.435749
_cell_length_c 18.767617
_cell_angle_alpha 90.000000
_cell_angle_beta 90.000000
_cell_angle_gamma 90.000000
_cell_volume 3246.269217
_symmetry_space_group_name_H-M "P M M N"
_symmetry_group_IT_number 59
_space_group.IT_coordinate_system_code '2'
_symmetry_cell_setting 'orthorhombic'
loop_
_space_group_symop_operation_xyz
x,y,z
1/2-x,1/2-y,z
1/2+x,-y,-z
-x,1/2+y,-z
-x,-y,-z
1/2+x,1/2+y,-z
1/2-x,y,z
x,1/2-y,z
loop_
_atom_site_type_symbol
_atom_site_label
_atom_site_fract_x
_atom_site_fract_y
_atom_site_fract_z
Si Si1 0.398899 0.085916 0.288564
Si Si2 0.830472 0.918389 0.856816
Si Si3 0.027796 0.084117 0.067325
Si Si4 0.667246 0.916997 0.291197
Si Si5 0.950863 0.088829 0.213772
Si Si6 0.835576 0.415283 0.582787
Si Si7 0.836480 0.593106 0.449351
O O1 0.381560 0.250000 0.306371
O O2 0.349789 0.030196 0.222790
O O3 0.483285 0.065148 0.268906
O O4 0.381194 0.989016 0.355500
O O5 0.750000 0.974656 0.878268
O O6 0.833919 0.750000 0.855386
O O7 0.890364 0.971217 0.913814
O O8 0.028240 0.250000 0.049360
O O9 0.975879 0.051041 0.134035
O O10 0.000000 0.000000 0.000000
O O11 0.750000 0.970360 0.279712
O O12 0.662811 0.750000 0.280064
O O13 0.638736 0.957282 0.370642
O O14 0.616709 0.989964 0.232765
O O15 0.923973 0.250000 0.217514
O O16 0.750000 0.444239 0.594633
O O17 0.853863 0.250000 0.581749
O O18 0.863242 0.480915 0.508049
O O19 0.750000 0.603331 0.448616
O O20 0.868275 0.750000 0.466799
#
# Coordination Sequence:
#
# PCOD8240274 Si02
#       7
#     8   8   8   8   8   8   8
#     4   9  17  30  48  68  92 125 162 195 232 283
#     4   8  14  27  49  73  93 119 159 199 229 265
#     4   9  18  33  52  74 100 128 157 189 230 282
#     4   9  18  33  53  75  95 119 159 206 245 284
#     4   9  19  34  51  73  98 124 157 194 235 289
#     4  10  19  28  41  67  99 126 157 198 241 285
#     4   8  15  29  47  65  88 121 160 200 240 282
#
# _framework density 17.250571000000001
#
# number of rings (size 3 to 8) (size 9 to 14) (size 15 to 20)
#    0.000    3.143    0.000    3.429    0.000    3.429 
#    0.000    5.000    0.000    3.857    0.000    0.000 
#    0.000    0.000    0.000    0.000    0.000    0.000 
#
# Total GULP energy -694178.815116 kJ/mol
# GULP energy per Si atom -12396.050270 kJ/mol
# Density = 1.721131 g / cm^3
# Si number density = 17.250571 Si / 1000 Ang^3
#
#
#
# Elastic Constant Matrix: (Units=GPa)
#
#
# Indices 1 2 3 4 5 6 
#
# 1 92.3476 44.9328 63.7973 0.0000 0.0000 0.0000
# 2 44.9328 72.6394 59.8304 0.0000 0.0000 0.0000
# 3 63.7973 59.8304 116.3427 0.0000 0.0000 0.0000
# 4 0.0000 0.0000 0.0000 32.6142 0.0000 0.0000
# 5 0.0000 0.0000 0.0000 0.0000 24.1106 0.0000
# 6 0.0000 0.0000 0.0000 0.0000 0.0000 25.4495
#
#
#
# Elastic Compliance Matrix: (Units=1/GPa)
#
#
# Indices 1 2 3 4 5 6 
#
# 1 0.018569 -0.005377 -0.007417 0.000000 0.000000 0.000000
# 2 -0.005377 0.025440 -0.010134 0.000000 0.000000 0.000000
# 3 -0.007417 -0.010134 0.017874 0.000000 0.000000 0.000000
# 4 0.000000 0.000000 0.000000 0.030662 0.000000 0.000000
# 5 0.000000 0.000000 0.000000 0.000000 0.041476 0.000000
# 6 0.000000 0.000000 0.000000 0.000000 0.000000 0.039294
#
#
# Mechanical properties :
#
#
# Convention : Reuss Voigt Hill
#
# Bulk Modulus (GPa) = 62.39786 68.71676 65.55731
# Shear Modulus (GPa) = 22.27044 23.95278 23.11161
#
# Velocity S-wave (km/s) = 3.59694 3.73033 3.66424
# Velocity P-wave (km/s) = 7.31441 7.64688 7.48249
#
# Compressibility (1/GPa) = 0.01602619
#
# Stress axis : x y z
#
# Youngs Moduli (GPa) = 53.85311 39.30836 55.94644
#
# Poissons Ratio (x) = 0.21136 0.41497
# Poissons Ratio (y) = 0.28957 0.56697
# Poissons Ratio (z) = 0.39944 0.39836
#
# Static dielectric constant tensor:
#      x y z
#    x 3.163060 0.000000 0.000000 
#    y 0.000000 3.040740 0.000000 
#    z 0.000000 0.000000 3.178860 
# 
# 
# High freq. dielectric constant tensor:
#      x y z
#    x 1.652510 0.000000 0.000000 
#    y 0.000000 1.649010 0.000000 
#    z 0.000000 0.000000 1.661340 
# 
# From -- ./inp_files/30626.got.cif
#   From: 2010.03.12/outbox.cif.g09.slc.cpg/sg59_16_cif.got.tgz:30626.got - 2010.04.16 16:29:54.
