data_PCOD8240755
_publ_section_title
;
Structure prediction by ZEFSAII (Michael W. Deem and Ramdas Pophale) SiO2 
 PCOD8240755
Probable space group: P M M N
;
_chemical_formula_sum "Si O2"
_cell_formula_units_Z 64
_cell_length_a 8.775073
_cell_length_b 17.755275
_cell_length_c 23.182501
_cell_angle_alpha 90.000000
_cell_angle_beta 90.000000
_cell_angle_gamma 90.000000
_cell_volume 3611.922544
_symmetry_space_group_name_H-M "P M M N"
_symmetry_group_IT_number 59
_space_group.IT_coordinate_system_code '2'
_symmetry_cell_setting 'orthorhombic'
loop_
_space_group_symop_operation_xyz
x,y,z
1/2-x,1/2-y,z
1/2+x,-y,-z
-x,1/2+y,-z
-x,-y,-z
1/2+x,1/2+y,-z
1/2-x,y,z
x,1/2-y,z
loop_
_atom_site_type_symbol
_atom_site_label
_atom_site_fract_x
_atom_site_fract_y
_atom_site_fract_z
Si Si1 0.571500 0.563629 0.461231
Si Si2 0.070752 0.968102 0.756004
Si Si3 0.077238 0.165896 0.184677
Si Si4 0.929031 0.382982 0.073426
Si Si5 0.570153 0.522701 0.633246
Si Si6 0.571060 0.537287 0.127865
Si Si7 0.070746 0.333869 0.438729
Si Si8 0.572362 0.836158 0.045078
O O1 0.500000 0.500000 0.500000
O O2 0.750000 0.550983 0.454741
O O3 0.495039 0.552291 0.398626
O O4 0.536384 0.642441 0.494343
O O5 0.250000 0.976043 0.744381
O O6 0.034521 0.883332 0.775937
O O7 0.978904 0.986448 0.698827
O O8 0.009427 0.023824 0.807024
O O9 0.250000 0.134374 0.187189
O O10 0.072066 0.250000 0.209768
O O11 0.019680 0.168365 0.118734
O O12 0.750000 0.369912 0.081995
O O13 0.976796 0.469483 0.085226
O O14 0.974991 0.359610 0.009709
O O15 0.750000 0.521297 0.627735
O O16 0.506811 0.601738 0.605356
O O17 0.750000 0.538447 0.134110
O O18 0.513025 0.615131 0.099790
O O19 0.250000 0.329142 0.429006
O O20 0.999523 0.250000 0.427544
O O21 0.750000 0.852013 0.032175
O O22 0.542353 0.750000 0.061327
#
# Coordination Sequence:
#
# PCOD8240755 Si02
#       8
#     8   8   8   8   8   8   8   8
#     4   9  16  28  48  71  96 127 161 197 234 275
#     4  10  20  34  51  69  92 124 164 206 241 278
#     4  10  20  33  48  67  94 127 160 194 235 286
#     4  10  19  31  48  69  95 124 153 189 233 287
#     4  10  19  31  49  72  98 129 164 200 238 285
#     4   8  17  33  49  67  91 121 156 194 238 283
#     4   8  15  28  47  72 100 127 155 190 232 276
#     4  10  19  31  49  71  93 117 149 193 243 294
#
# _framework density 17.719094999999999
#
# number of rings (size 3 to 8) (size 9 to 14) (size 15 to 20)
#    0.000    2.625    0.000    4.125    0.000    3.250 
#    0.000    4.375    0.000   13.875    0.000    3.500 
#    0.000    0.000    0.000    0.000    0.000    0.000 
#
# Total GULP energy -793089.193654 kJ/mol
# GULP energy per Si atom -12392.018651 kJ/mol
# Density = 1.767877 g / cm^3
# Si number density = 17.719095 Si / 1000 Ang^3
#
#
#
# Elastic Constant Matrix: (Units=GPa)
#
#
# Indices 1 2 3 4 5 6 
#
# 1 50.3447 14.5375 17.3494 0.0000 0.0000 0.0000
# 2 14.5375 52.5565 23.6221 0.0000 0.0000 0.0000
# 3 17.3494 23.6221 95.0212 0.0000 0.0000 0.0000
# 4 0.0000 0.0000 0.0000 11.7613 0.0000 0.0000
# 5 0.0000 0.0000 0.0000 0.0000 30.0980 0.0000
# 6 0.0000 0.0000 0.0000 0.0000 0.0000 17.9500
#
#
#
# Elastic Compliance Matrix: (Units=1/GPa)
#
#
# Indices 1 2 3 4 5 6 
#
# 1 0.022253 -0.004874 -0.002851 0.000000 0.000000 0.000000
# 2 -0.004874 0.022488 -0.004701 0.000000 0.000000 0.000000
# 3 -0.002851 -0.004701 0.012213 0.000000 0.000000 0.000000
# 4 0.000000 0.000000 0.000000 0.085025 0.000000 0.000000
# 5 0.000000 0.000000 0.000000 0.000000 0.033225 0.000000
# 6 0.000000 0.000000 0.000000 0.000000 0.000000 0.055710
#
#
# Mechanical properties :
#
#
# Convention : Reuss Voigt Hill
#
# Bulk Modulus (GPa) = 31.15013 34.32672 32.73842
# Shear Modulus (GPa) = 18.76410 21.45609 20.11010
#
# Velocity S-wave (km/s) = 3.25772 3.48358 3.37254
# Velocity P-wave (km/s) = 5.63635 5.96617 5.80361
#
# Compressibility (1/GPa) = 0.03210260
#
# Stress axis : x y z
#
# Youngs Moduli (GPa) = 44.93765 44.46820 81.87888
#
# Poissons Ratio (x) = 0.21673 0.23348
# Poissons Ratio (y) = 0.21901 0.38488
# Poissons Ratio (z) = 0.12814 0.20903
#
# Static dielectric constant tensor:
#      x y z
#    x 3.265850 0.000000 0.000000 
#    y 0.000000 3.614090 0.000000 
#    z 0.000000 0.000000 3.549000 
# 
# 
# High freq. dielectric constant tensor:
#      x y z
#    x 1.674590 0.000000 0.000000 
#    y 0.000000 1.667550 0.000000 
#    z 0.000000 0.000000 1.679120 
# 
# From -- ./inp_files/31708.got.cif
#   From: 2010.03.12/outbox.cif.g09.slc.cpg/sg59_16_cif.got.tgz:31708.got - 2010.04.16 16:29:54.
