data_PCOD8240982
_publ_section_title
;
Structure prediction by ZEFSAII (Michael W. Deem and Ramdas Pophale) SiO2 
 PCOD8240982
Probable space group: P M M N
;
_chemical_formula_sum "Si O2"
_cell_formula_units_Z 64
_cell_length_a 9.139658
_cell_length_b 15.111494
_cell_length_c 24.391540
_cell_angle_alpha 90.000000
_cell_angle_beta 90.000000
_cell_angle_gamma 90.000000
_cell_volume 3368.810400
_symmetry_space_group_name_H-M "P M M N"
_symmetry_group_IT_number 59
_space_group.IT_coordinate_system_code '2'
_symmetry_cell_setting 'orthorhombic'
loop_
_space_group_symop_operation_xyz
x,y,z
1/2-x,1/2-y,z
1/2+x,-y,-z
-x,1/2+y,-z
-x,-y,-z
1/2+x,1/2+y,-z
1/2-x,y,z
x,1/2-y,z
loop_
_atom_site_type_symbol
_atom_site_label
_atom_site_fract_x
_atom_site_fract_y
_atom_site_fract_z
Si Si1 0.085585 0.855107 0.945420
Si Si2 0.078344 0.148944 0.163450
Si Si3 0.078158 0.851455 0.159165
Si Si4 0.582148 0.352876 0.433307
Si Si5 0.424448 0.003088 0.366210
Si Si6 0.423931 0.652293 0.443360
Si Si7 0.077133 0.503013 0.243442
Si Si8 0.914550 0.644851 0.050253
O O1 0.250000 0.893266 0.945251
O O2 0.087661 0.750000 0.948824
O O3 0.004258 0.885620 0.890410
O O4 0.999877 0.894379 0.997779
O O5 0.250000 0.139470 0.151593
O O6 0.036572 0.250000 0.178086
O O7 0.027092 0.087593 0.213827
O O8 0.250000 0.862951 0.148268
O O9 0.038538 0.750000 0.173044
O O10 0.996184 0.886056 0.105154
O O11 0.022993 0.911150 0.209798
O O12 0.750000 0.382960 0.426810
O O13 0.564836 0.250000 0.419147
O O14 0.482017 0.406033 0.391340
O O15 0.525710 0.372030 0.495070
O O16 0.250000 0.005459 0.367019
O O17 0.487992 0.993943 0.304671
O O18 0.485984 0.919966 0.401030
O O19 0.250000 0.654446 0.441968
O O20 0.483529 0.750000 0.427031
O O21 0.250000 0.505525 0.247520
O O22 0.750000 0.606946 0.050495
O O23 0.912996 0.750000 0.047038
#
# Coordination Sequence:
#
# PCOD8240982 Si02
#       8
#     8   8   8   8   8   8   8   8
#     4   9  16  27  46  72  97 119 150 195 242 287
#     4   9  17  31  49  65  88 125 159 189 233 286
#     4   9  17  31  50  69  93 126 159 194 237 283
#     4   9  18  33  51  72 102 138 169 200 248 305
#     4  10  19  31  51  77 101 129 169 214 251 287
#     4   8  15  29  50  76 105 135 166 202 248 301
#     4   9  19  33  48  71  99 125 160 202 241 283
#     4   9  16  27  46  72  98 123 154 192 237 291
#
# _framework density 18.997803999999999
#
# number of rings (size 3 to 8) (size 9 to 14) (size 15 to 20)
#    0.000    3.000    0.000    1.875    0.000    4.250 
#    0.000    6.250    0.000    2.625    0.000    0.000 
#    0.000    0.000    0.000    0.000    0.000    0.000 
#
# Total GULP energy -793472.059782 kJ/mol
# GULP energy per Si atom -12398.000934 kJ/mol
# Density = 1.895456 g / cm^3
# Si number density = 18.997804 Si / 1000 Ang^3
#
#
#
# Elastic Constant Matrix: (Units=GPa)
#
#
# Indices 1 2 3 4 5 6 
#
# 1 55.1969 25.0333 43.3675 0.0000 0.0000 0.0000
# 2 25.0333 89.1373 70.0789 0.0000 0.0000 0.0000
# 3 43.3675 70.0789 169.7999 0.0000 0.0000 0.0000
# 4 0.0000 0.0000 0.0000 6.3403 0.0000 0.0000
# 5 0.0000 0.0000 0.0000 0.0000 19.8735 0.0000
# 6 0.0000 0.0000 0.0000 0.0000 0.0000 14.1599
#
#
#
# Elastic Compliance Matrix: (Units=1/GPa)
#
#
# Indices 1 2 3 4 5 6 
#
# 1 0.023108 -0.002738 -0.004772 0.000000 0.000000 0.000000
# 2 -0.002738 0.016932 -0.006289 0.000000 0.000000 0.000000
# 3 -0.004772 -0.006289 0.009703 0.000000 0.000000 0.000000
# 4 0.000000 0.000000 0.000000 0.157720 0.000000 0.000000
# 5 0.000000 0.000000 0.000000 0.000000 0.050318 0.000000
# 6 0.000000 0.000000 0.000000 0.000000 0.000000 0.070622
#
#
# Mechanical properties :
#
#
# Convention : Reuss Voigt Hill
#
# Bulk Modulus (GPa) = 45.15490 65.67705 55.41598
# Shear Modulus (GPa) = 13.75961 19.78504 16.77232
#
# Velocity S-wave (km/s) = 2.69415 3.23063 2.97451
# Velocity P-wave (km/s) = 5.78775 6.96864 6.40546
#
# Compressibility (1/GPa) = 0.02214599
#
# Stress axis : x y z
#
# Youngs Moduli (GPa) = 43.27529 59.06092 103.05633
#
# Poissons Ratio (x) = 0.16171 0.49176
# Poissons Ratio (y) = 0.11849 0.64808
# Poissons Ratio (z) = 0.20650 0.37141
#
# Static dielectric constant tensor:
#      x y z
#    x 3.229880 0.000000 0.000000 
#    y 0.000000 3.451340 0.000000 
#    z 0.000000 0.000000 3.679820 
# 
# 
# High freq. dielectric constant tensor:
#      x y z
#    x 1.706590 0.000000 0.000000 
#    y 0.000000 1.735390 0.000000 
#    z 0.000000 0.000000 1.738120 
# 
# From -- ./inp_files/31436.got.cif
#   From: 2010.03.12/outbox.cif.g09.slc.cpg/sg59_16_cif.got.tgz:31436.got - 2010.04.16 16:29:54.
