data_PCOD8240973
_publ_section_title
;
Structure prediction by ZEFSAII (Michael W. Deem and Ramdas Pophale) SiO2 
 PCOD8240973
Probable space group: P M M N
;
_chemical_formula_sum "Si O2"
_cell_formula_units_Z 48
_cell_length_a 7.821433
_cell_length_b 7.725004
_cell_length_c 38.308047
_cell_angle_alpha 90.000000
_cell_angle_beta 90.000000
_cell_angle_gamma 90.000000
_cell_volume 2314.595231
_symmetry_space_group_name_H-M "P M M N"
_symmetry_group_IT_number 59
_space_group.IT_coordinate_system_code '2'
_symmetry_cell_setting 'orthorhombic'
loop_
_space_group_symop_operation_xyz
x,y,z
1/2-x,1/2-y,z
1/2+x,-y,-z
-x,1/2+y,-z
-x,-y,-z
1/2+x,1/2+y,-z
1/2-x,y,z
x,1/2-y,z
loop_
_atom_site_type_symbol
_atom_site_label
_atom_site_fract_x
_atom_site_fract_y
_atom_site_fract_z
Si Si1 0.750000 0.457368 0.915149
Si Si2 0.750000 0.047392 0.837425
Si Si3 0.955759 0.250000 0.343425
Si Si4 0.065385 0.547426 0.462301
Si Si5 0.050480 0.750000 0.734250
Si Si6 0.940314 0.953661 0.038423
Si Si7 0.448460 0.451174 0.786500
Si Si8 0.055169 0.058937 0.610703
O O1 0.750000 0.250000 0.915729
O O2 0.750000 0.535430 0.875983
O O3 0.579447 0.529220 0.934351
O O4 0.750000 0.250000 0.842045
O O5 0.575393 0.992764 0.817698
O O6 0.750000 0.250000 0.344772
O O7 0.032447 0.250000 0.304206
O O8 0.029576 0.420463 0.363000
O O9 0.250000 0.460132 0.457454
O O10 0.078580 0.750000 0.460895
O O11 0.000000 0.500000 0.500000
O O12 0.952680 0.486820 0.429252
O O13 0.250000 0.750000 0.728754
O O14 0.997899 0.574297 0.754390
O O15 0.750000 0.031790 0.045589
O O16 0.931929 0.750000 0.042671
O O17 0.000000 0.000000 0.000000
O O18 0.250000 0.482484 0.797731
O O19 0.476504 0.250000 0.775770
O O20 0.250000 0.079188 0.621374
O O21 0.966631 0.250000 0.614366
#
# Coordination Sequence:
#
# PCOD8240973 Si02
#       8
#     4   4   4   8   4   8   8   8
#     4   9  18  32  50  78 106 139 185 231 280 335
#     4   9  18  33  55  81 110 141 183 232 283 339
#     4   9  18  32  54  82 108 139 179 221 264 327
#     4  10  21  35  52  74 101 135 175 220 268 320
#     4   9  18  33  55  85 114 143 183 224 271 335
#     4  10  19  31  51  75 102 141 185 231 281 331
#     4   9  18  33  56  83 111 147 184 227 279 337
#     4   9  18  33  52  75 106 141 176 220 273 318
#
# _framework density 20.737964999999999
#
# number of rings (size 3 to 8) (size 9 to 14) (size 15 to 20)
#    0.000    2.667    0.833    0.500    1.167    2.667 
#    0.000    6.667    7.333    0.000    0.000    0.000 
#    0.000    0.000    0.000    0.000    0.000    0.000 
#
# Total GULP energy -594698.922806 kJ/mol
# GULP energy per Si atom -12389.560892 kJ/mol
# Density = 2.069076 g / cm^3
# Si number density = 20.737965 Si / 1000 Ang^3
#
#
#
# Elastic Constant Matrix: (Units=GPa)
#
#
# Indices 1 2 3 4 5 6 
#
# 1 110.4753 29.9355 61.6869 0.0000 0.0000 0.0000
# 2 29.9355 77.5264 63.0032 0.0000 0.0000 0.0000
# 3 61.6869 63.0032 202.2476 0.0000 0.0000 0.0000
# 4 0.0000 0.0000 0.0000 25.9079 0.0000 0.0000
# 5 0.0000 0.0000 0.0000 0.0000 22.7408 0.0000
# 6 0.0000 0.0000 0.0000 0.0000 0.0000 10.3149
#
#
#
# Elastic Compliance Matrix: (Units=1/GPa)
#
#
# Indices 1 2 3 4 5 6 
#
# 1 0.011151 -0.002064 -0.002758 0.000000 0.000000 0.000000
# 2 -0.002064 0.017653 -0.004870 0.000000 0.000000 0.000000
# 3 -0.002758 -0.004870 0.007303 0.000000 0.000000 0.000000
# 4 0.000000 0.000000 0.000000 0.038598 0.000000 0.000000
# 5 0.000000 0.000000 0.000000 0.000000 0.043974 0.000000
# 6 0.000000 0.000000 0.000000 0.000000 0.000000 0.096947
#
#
# Mechanical properties :
#
#
# Convention : Reuss Voigt Hill
#
# Bulk Modulus (GPa) = 59.79817 77.72228 68.76022
# Shear Modulus (GPa) = 20.78267 27.50097 24.14182
#
# Velocity S-wave (km/s) = 3.16912 3.64554 3.41565
# Velocity P-wave (km/s) = 6.50298 7.43502 6.98457
#
# Compressibility (1/GPa) = 0.01672292
#
# Stress axis : x y z
#
# Youngs Moduli (GPa) = 89.67593 56.64643 136.93682
#
# Poissons Ratio (x) = 0.11694 0.37769
# Poissons Ratio (y) = 0.18513 0.66683
# Poissons Ratio (z) = 0.24734 0.27585
#
# Static dielectric constant tensor:
#      x y z
#    x 4.105950 0.000000 0.000000 
#    y 0.000000 3.645250 0.000000 
#    z 0.000000 0.000000 3.933870 
# 
# 
# High freq. dielectric constant tensor:
#      x y z
#    x 1.803470 0.000000 0.000000 
#    y 0.000000 1.801100 0.000000 
#    z 0.000000 0.000000 1.803120 
# 
# From -- ./inp_files/33121.got.cif
#   From: 2010.03.12/outbox.cif.g09.slc.cpg/sg59_17_cif.got.tgz:33121.got - 2010.04.16 16:29:54.
