data_PCOD8240103
_publ_section_title
;
Structure prediction by ZEFSAII (Michael W. Deem and Ramdas Pophale) SiO2 
 PCOD8240103
Probable space group: P M M N
;
_chemical_formula_sum "Si O2"
_cell_formula_units_Z 48
_cell_length_a 16.246856
_cell_length_b 14.670116
_cell_length_c 11.033943
_cell_angle_alpha 90.000000
_cell_angle_beta 90.000000
_cell_angle_gamma 90.000000
_cell_volume 2629.865969
_symmetry_space_group_name_H-M "P M M N"
_symmetry_group_IT_number 59
_space_group.IT_coordinate_system_code '2'
_symmetry_cell_setting 'orthorhombic'
loop_
_space_group_symop_operation_xyz
x,y,z
1/2-x,1/2-y,z
1/2+x,-y,-z
-x,1/2+y,-z
-x,-y,-z
1/2+x,1/2+y,-z
1/2-x,y,z
x,1/2-y,z
loop_
_atom_site_type_symbol
_atom_site_label
_atom_site_fract_x
_atom_site_fract_y
_atom_site_fract_z
Si Si1 0.158543 0.916437 0.599550
Si Si2 0.061967 0.521662 0.392979
Si Si3 0.506139 0.644671 0.184783
Si Si4 0.407143 0.851903 0.946565
Si Si5 0.160474 0.474667 0.832185
Si Si6 0.002873 0.151650 0.286502
O O1 0.250000 0.871093 0.608535
O O2 0.146468 0.948500 0.459124
O O3 0.084464 0.850034 0.640137
O O4 0.153598 0.003258 0.689142
O O5 0.028725 0.601957 0.308009
O O6 0.000000 0.500000 0.500000
O O7 0.068636 0.426939 0.318825
O O8 0.526482 0.750000 0.209446
O O9 0.588927 0.596158 0.136337
O O10 0.437034 0.632130 0.082928
O O11 0.367267 0.750000 0.935059
O O12 0.485097 0.858967 0.856209
O O13 0.343988 0.931449 0.910077
O O14 0.250000 0.431232 0.860534
O O15 0.043372 0.250000 0.314116
#
# Coordination Sequence:
#
# PCOD8240103 Si02
#       6
#     8   8   8   8   8   8
#     4   9  18  33  50  73 105 135 170 216 263 307
#     4  10  18  33  50  76 103 136 177 217 252 313
#     4  11  21  34  55  79 108 141 176 218 265 315
#     4   9  18  33  55  81 104 131 170 217 267 319
#     4  10  19  34  55  78 107 139 175 218 262 308
#     4   9  17  30  52  77  98 129 175 220 261 308
#
# _framework density 18.251881000000001
#
# number of rings (size 3 to 8) (size 9 to 14) (size 15 to 20)
#    0.000    2.333    5.000    0.500    0.000    3.667 
#    0.000    4.167    0.000    1.500    0.000    0.000 
#    0.000    0.000    0.000    0.000    0.000    0.000 
#
# Total GULP energy -594672.074648 kJ/mol
# GULP energy per Si atom -12389.001555 kJ/mol
# Density = 1.821034 g / cm^3
# Si number density = 18.251881 Si / 1000 Ang^3
#
#
#
# Elastic Constant Matrix: (Units=GPa)
#
#
# Indices 1 2 3 4 5 6 
#
# 1 54.5596 22.8102 23.6411 0.0000 0.0000 0.0000
# 2 22.8102 105.2272 33.2442 0.0000 0.0000 0.0000
# 3 23.6411 33.2442 88.5297 0.0000 0.0000 0.0000
# 4 0.0000 0.0000 0.0000 20.2663 0.0000 0.0000
# 5 0.0000 0.0000 0.0000 0.0000 13.3531 0.0000
# 6 0.0000 0.0000 0.0000 0.0000 0.0000 14.7659
#
#
#
# Elastic Compliance Matrix: (Units=1/GPa)
#
#
# Indices 1 2 3 4 5 6 
#
# 1 0.021667 -0.003255 -0.004564 0.000000 0.000000 0.000000
# 2 -0.003255 0.011271 -0.003363 0.000000 0.000000 0.000000
# 3 -0.004564 -0.003363 0.013777 0.000000 0.000000 0.000000
# 4 0.000000 0.000000 0.000000 0.049343 0.000000 0.000000
# 5 0.000000 0.000000 0.000000 0.000000 0.074889 0.000000
# 6 0.000000 0.000000 0.000000 0.000000 0.000000 0.067724
#
#
# Mechanical properties :
#
#
# Convention : Reuss Voigt Hill
#
# Bulk Modulus (GPa) = 41.06502 45.30083 43.18293
# Shear Modulus (GPa) = 18.57683 20.91846 19.74765
#
# Velocity S-wave (km/s) = 3.19376 3.38908 3.29287
# Velocity P-wave (km/s) = 6.01233 6.33942 6.17804
#
# Compressibility (1/GPa) = 0.02435162
#
# Stress axis : x y z
#
# Youngs Moduli (GPa) = 46.15338 88.72008 72.58303
#
# Poissons Ratio (x) = 0.28878 0.33125
# Poissons Ratio (y) = 0.15023 0.24412
# Poissons Ratio (z) = 0.21063 0.29840
#
# Static dielectric constant tensor:
#      x y z
#    x 3.286460 0.000000 0.000000 
#    y 0.000000 3.521350 0.000000 
#    z 0.000000 0.000000 3.716230 
# 
# 
# High freq. dielectric constant tensor:
#      x y z
#    x 1.665870 0.000000 0.000000 
#    y 0.000000 1.702800 0.000000 
#    z 0.000000 0.000000 1.710200 
# 
# From -- ./inp_files/17690.got.cif
#   From: 2010.03.12/outbox.cif.g09.slc.cpg/sg59_9_cif.got.tgz:17690.got - 2010.04.16 16:29:54.
