data_PCOD8240570
_publ_section_title
;
Structure prediction by ZEFSAII (Michael W. Deem and Ramdas Pophale) SiO2 
 PCOD8240570
Probable space group: P M M N
;
_chemical_formula_sum "Si O2"
_cell_formula_units_Z 64
_cell_length_a 8.887509
_cell_length_b 23.180137
_cell_length_c 18.982358
_cell_angle_alpha 90.000000
_cell_angle_beta 90.000000
_cell_angle_gamma 90.000000
_cell_volume 3910.625355
_symmetry_space_group_name_H-M "P M M N"
_symmetry_group_IT_number 59
_space_group.IT_coordinate_system_code '2'
_symmetry_cell_setting 'orthorhombic'
loop_
_space_group_symop_operation_xyz
x,y,z
1/2-x,1/2-y,z
1/2+x,-y,-z
-x,1/2+y,-z
-x,-y,-z
1/2+x,1/2+y,-z
1/2-x,y,z
x,1/2-y,z
loop_
_atom_site_type_symbol
_atom_site_label
_atom_site_fract_x
_atom_site_fract_y
_atom_site_fract_z
Si Si1 0.922560 0.987705 0.100511
Si Si2 0.076926 0.920650 0.531264
Si Si3 0.923595 0.493889 0.256604
Si Si4 0.424785 0.409598 0.025069
Si Si5 0.422161 0.685060 0.622555
Si Si6 0.927343 0.870106 0.753026
Si Si7 0.924386 0.477318 0.609170
Si Si8 0.926220 0.316613 0.109302
O O1 0.750000 0.006586 0.086164
O O2 0.948515 0.973134 0.182534
O O3 0.961792 0.931159 0.054269
O O4 0.029098 0.040726 0.080149
O O5 0.250000 0.939390 0.544032
O O6 0.047280 0.854986 0.554446
O O7 0.037520 0.927789 0.448383
O O8 0.971246 0.960764 0.578343
O O9 0.750000 0.480391 0.270301
O O10 0.009365 0.433660 0.258008
O O11 0.985768 0.535101 0.318637
O O12 0.250000 0.396122 0.035450
O O13 0.517944 0.351514 0.040423
O O14 0.250000 0.678227 0.648419
O O15 0.456988 0.750000 0.598161
O O16 0.529515 0.669312 0.686969
O O17 0.750000 0.873672 0.760048
O O18 0.991256 0.841120 0.822790
O O19 0.750000 0.479071 0.628063
O O20 0.750000 0.325813 0.119726
O O21 0.967814 0.250000 0.098006
#
# Coordination Sequence:
#
# PCOD8240570 Si02
#       8
#     8   8   8   8   8   8   8   8
#     4   9  19  33  50  71  98 128 159 197 246 299
#     4   9  18  32  48  67  94 127 160 199 244 288
#     4  11  20  32  50  71  99 133 161 191 240 296
#     4  10  19  32  51  74  96 123 162 207 247 282
#     4  10  20  34  51  69  93 130 168 198 236 287
#     4  12  23  33  47  71  99 129 168 206 236 274
#     4  10  19  30  47  71  96 123 160 202 243 284
#     4  11  23  37  51  68  96 136 172 200 239 291
#
# _framework density 16.365667999999999
#
# number of rings (size 3 to 8) (size 9 to 14) (size 15 to 20)
#    0.000    1.750    2.500    3.000    0.000    4.250 
#    0.000    0.000    0.000    0.000    0.000    0.875 
#    0.000    3.000    0.000    0.000    0.000    0.000 
#
# Total GULP energy -793647.018504 kJ/mol
# GULP energy per Si atom -12400.734664 kJ/mol
# Density = 1.632842 g / cm^3
# Si number density = 16.365668 Si / 1000 Ang^3
#
#
#
# Elastic Constant Matrix: (Units=GPa)
#
#
# Indices 1 2 3 4 5 6 
#
# 1 72.7295 31.1573 38.1252 0.0000 0.0000 0.0000
# 2 31.1573 80.0448 51.7762 0.0000 0.0000 0.0000
# 3 38.1252 51.7762 118.0255 0.0000 0.0000 0.0000
# 4 0.0000 0.0000 0.0000 20.2578 0.0000 0.0000
# 5 0.0000 0.0000 0.0000 0.0000 26.3068 0.0000
# 6 0.0000 0.0000 0.0000 0.0000 0.0000 20.5602
#
#
#
# Elastic Compliance Matrix: (Units=1/GPa)
#
#
# Indices 1 2 3 4 5 6 
#
# 1 0.017612 -0.004433 -0.003744 0.000000 0.000000 0.000000
# 2 -0.004433 0.018559 -0.006709 0.000000 0.000000 0.000000
# 3 -0.003744 -0.006709 0.012625 0.000000 0.000000 0.000000
# 4 0.000000 0.000000 0.000000 0.049364 0.000000 0.000000
# 5 0.000000 0.000000 0.000000 0.000000 0.038013 0.000000
# 6 0.000000 0.000000 0.000000 0.000000 0.000000 0.048638
#
#
# Mechanical properties :
#
#
# Convention : Reuss Voigt Hill
#
# Bulk Modulus (GPa) = 52.57089 56.99081 54.78085
# Shear Modulus (GPa) = 22.63221 23.40769 23.01995
#
# Velocity S-wave (km/s) = 3.72278 3.78602 3.75454
# Velocity P-wave (km/s) = 7.11837 7.34922 7.23471
#
# Compressibility (1/GPa) = 0.01902193
#
# Stress axis : x y z
#
# Youngs Moduli (GPa) = 56.78101 53.88354 79.20509
#
# Poissons Ratio (x) = 0.23889 0.29655
# Poissons Ratio (y) = 0.25174 0.53141
# Poissons Ratio (z) = 0.21259 0.36152
#
# Static dielectric constant tensor:
#      x y z
#    x 3.226410 0.000000 0.000000 
#    y 0.000000 2.998220 0.000000 
#    z 0.000000 0.000000 3.346490 
# 
# 
# High freq. dielectric constant tensor:
#      x y z
#    x 1.642590 0.000000 0.000000 
#    y 0.000000 1.597100 0.000000 
#    z 0.000000 0.000000 1.628420 
# 
# From -- ./inp_files/26558.got.cif
#   From: 2010.03.12/outbox.cif.g09.slc.cpg/sg59_14_cif.got.tgz:26558.got - 2010.04.16 16:29:54.
