data_PCOD8240692
_publ_section_title
;
Structure prediction by ZEFSAII (Michael W. Deem and Ramdas Pophale) SiO2 
 PCOD8240692
Probable space group: P M M N
;
_chemical_formula_sum "Si O2"
_cell_formula_units_Z 64
_cell_length_a 8.785044
_cell_length_b 28.517222
_cell_length_c 15.799444
_cell_angle_alpha 90.000000
_cell_angle_beta 90.000000
_cell_angle_gamma 90.000000
_cell_volume 3958.156499
_symmetry_space_group_name_H-M "P M M N"
_symmetry_group_IT_number 59
_space_group.IT_coordinate_system_code '2'
_symmetry_cell_setting 'orthorhombic'
loop_
_space_group_symop_operation_xyz
x,y,z
1/2-x,1/2-y,z
1/2+x,-y,-z
-x,1/2+y,-z
-x,-y,-z
1/2+x,1/2+y,-z
1/2-x,y,z
x,1/2-y,z
loop_
_atom_site_type_symbol
_atom_site_label
_atom_site_fract_x
_atom_site_fract_y
_atom_site_fract_z
Si Si1 0.576378 0.301859 0.074330
Si Si2 0.071501 0.946980 0.677667
Si Si3 0.569915 0.106087 0.846440
Si Si4 0.929781 0.551213 0.997175
Si Si5 0.073344 0.896251 0.843899
Si Si6 0.571857 0.050190 0.504462
Si Si7 0.927408 0.802909 0.102362
Si Si8 0.929916 0.451389 0.686616
O O1 0.750000 0.306473 0.041344
O O2 0.547697 0.250000 0.113263
O O3 0.542533 0.340639 0.145834
O O4 0.465989 0.311024 0.995839
O O5 0.250000 0.957159 0.680906
O O6 0.023375 0.909504 0.748713
O O7 0.026006 0.924730 0.584734
O O8 0.991325 0.996159 0.696480
O O9 0.750000 0.101902 0.855095
O O10 0.494393 0.082753 0.927755
O O11 0.521418 0.160571 0.840535
O O12 0.506536 0.080945 0.761953
O O13 0.750000 0.547445 0.006353
O O14 0.000000 0.500000 0.000000
O O15 0.971203 0.574418 0.908109
O O16 0.250000 0.908479 0.860818
O O17 0.750000 0.043460 0.507908
O O18 0.520594 0.072233 0.595311
O O19 0.500000 0.000000 0.500000
O O20 0.750000 0.812390 0.115082
O O21 0.971916 0.750000 0.129914
O O22 0.750000 0.454337 0.694375
#
# Coordination Sequence:
#
# PCOD8240692 Si02
#       8
#     8   8   8   8   8   8   8   8
#     4   9  17  30  48  66  87 117 151 188 227 268
#     4   9  17  28  45  67  91 120 151 186 227 271
#     4  11  21  33  48  68  92 122 158 192 229 274
#     4  12  24  35  46  62  90 127 159 189 224 266
#     4  10  19  31  46  67  92 119 153 187 223 273
#     4   8  14  27  44  63  87 115 148 186 228 267
#     4  10  20  33  49  69  91 116 151 194 237 276
#     4   9  18  30  45  65  90 120 153 189 225 268
#
# _framework density 16.169142999999998
#
# number of rings (size 3 to 8) (size 9 to 14) (size 15 to 20)
#    0.000    2.250    1.250    2.625    0.000    4.250 
#    0.000    0.000    0.000    0.000    0.000    0.875 
#    0.000    5.000    0.000    3.375    0.000    3.125 
#
# Total GULP energy -793032.498204 kJ/mol
# GULP energy per Si atom -12391.132784 kJ/mol
# Density = 1.613234 g / cm^3
# Si number density = 16.169143 Si / 1000 Ang^3
#
#
#
# Elastic Constant Matrix: (Units=GPa)
#
#
# Indices 1 2 3 4 5 6 
#
# 1 42.5774 18.1740 16.4505 0.0000 0.0000 0.0000
# 2 18.1740 90.5437 40.8617 0.0000 0.0000 0.0000
# 3 16.4505 40.8617 108.4482 0.0000 0.0000 0.0000
# 4 0.0000 0.0000 0.0000 13.2773 0.0000 0.0000
# 5 0.0000 0.0000 0.0000 0.0000 11.9274 0.0000
# 6 0.0000 0.0000 0.0000 0.0000 0.0000 21.4503
#
#
#
# Elastic Compliance Matrix: (Units=1/GPa)
#
#
# Indices 1 2 3 4 5 6 
#
# 1 0.026196 -0.004175 -0.002401 0.000000 0.000000 0.000000
# 2 -0.004175 0.013972 -0.004631 0.000000 0.000000 0.000000
# 3 -0.002401 -0.004631 0.011330 0.000000 0.000000 0.000000
# 4 0.000000 0.000000 0.000000 0.075316 0.000000 0.000000
# 5 0.000000 0.000000 0.000000 0.000000 0.083841 0.000000
# 6 0.000000 0.000000 0.000000 0.000000 0.000000 0.046619
#
#
# Mechanical properties :
#
#
# Convention : Reuss Voigt Hill
#
# Bulk Modulus (GPa) = 34.38169 43.61573 38.99871
# Shear Modulus (GPa) = 17.27810 20.40322 18.84066
#
# Velocity S-wave (km/s) = 3.27247 3.55612 3.41724
# Velocity P-wave (km/s) = 5.96562 6.62530 6.30410
#
# Compressibility (1/GPa) = 0.02908525
#
# Stress axis : x y z
#
# Youngs Moduli (GPa) = 38.17352 71.56955 88.25984
#
# Poissons Ratio (x) = 0.29878 0.21189
# Poissons Ratio (y) = 0.15936 0.40876
# Poissons Ratio (z) = 0.09164 0.33146
#
# Static dielectric constant tensor:
#      x y z
#    x 3.143580 0.000000 0.000000 
#    y 0.000000 3.355710 0.000000 
#    z 0.000000 0.000000 3.589340 
# 
# 
# High freq. dielectric constant tensor:
#      x y z
#    x 1.625150 0.000000 0.000000 
#    y 0.000000 1.600780 0.000000 
#    z 0.000000 0.000000 1.616810 
# 
# From -- ./inp_files/21810.got.cif
#   From: 2010.03.12/outbox.cif.g09.slc.cpg/sg59_11_cif.got.tgz:21810.got - 2010.04.16 16:29:54.
