data_PCOD8240382
_publ_section_title
;
Structure prediction by ZEFSAII (Michael W. Deem and Ramdas Pophale) SiO2 
 PCOD8240382
Probable space group: P M M N
;
_chemical_formula_sum "Si O2"
_cell_formula_units_Z 56
_cell_length_a 9.030776
_cell_length_b 21.668498
_cell_length_c 17.693348
_cell_angle_alpha 90.000000
_cell_angle_beta 90.000000
_cell_angle_gamma 90.000000
_cell_volume 3462.293639
_symmetry_space_group_name_H-M "P M M N"
_symmetry_group_IT_number 59
_space_group.IT_coordinate_system_code '2'
_symmetry_cell_setting 'orthorhombic'
loop_
_space_group_symop_operation_xyz
x,y,z
1/2-x,1/2-y,z
1/2+x,-y,-z
-x,1/2+y,-z
-x,-y,-z
1/2+x,1/2+y,-z
1/2-x,y,z
x,1/2-y,z
loop_
_atom_site_type_symbol
_atom_site_label
_atom_site_fract_x
_atom_site_fract_y
_atom_site_fract_z
Si Si1 0.920224 0.892411 0.212560
Si Si2 0.080917 0.579777 0.070449
Si Si3 0.580072 0.454497 0.086615
Si Si4 0.421300 0.088263 0.550021
Si Si5 0.423278 0.678308 0.345346
Si Si6 0.920417 0.967837 0.605974
Si Si7 0.083470 0.535685 0.750244
O O1 0.750000 0.873081 0.215595
O O2 0.980204 0.880008 0.127216
O O3 0.008889 0.849752 0.269724
O O4 0.946057 0.963502 0.233773
O O5 0.250000 0.589294 0.095621
O O6 0.039759 0.507915 0.075548
O O7 0.058948 0.596455 0.980608
O O8 0.750000 0.480994 0.083218
O O9 0.555492 0.426782 0.171181
O O10 0.250000 0.094739 0.571926
O O11 0.507227 0.147977 0.579557
O O12 0.445086 0.082619 0.459841
O O13 0.480608 0.027689 0.591687
O O14 0.250000 0.665216 0.345241
O O15 0.461408 0.750000 0.348382
O O16 0.750000 0.988238 0.609689
O O17 0.972233 0.939153 0.685897
O O18 0.250000 0.546227 0.721013
#
# Coordination Sequence:
#
# PCOD8240382 Si02
#       7
#     8   8   8   8   8   8   8
#     4  10  19  30  44  62  86 117 151 183 222 270
#     4   9  15  24  39  57  81 114 149 183 215 250
#     4   8  15  25  36  55  84 117 149 179 213 255
#     4  10  20  33  47  65  88 118 151 185 230 276
#     4  11  23  36  50  68  88 113 151 195 233 272
#     4  10  19  29  45  67  91 118 152 189 223 270
#     4   9  16  26  41  62  89 119 151 184 220 266
#
# _framework density 16.174250000000001
#
# number of rings (size 3 to 8) (size 9 to 14) (size 15 to 20)
#    0.000    2.429    1.429    3.000    0.000    5.714 
#    0.000    0.000    0.000    0.000    0.000    0.000 
#    0.000    1.143    0.000   10.286    0.000    7.000 
#
# Total GULP energy -694011.335286 kJ/mol
# GULP energy per Si atom -12393.059559 kJ/mol
# Density = 1.613744 g / cm^3
# Si number density = 16.174250 Si / 1000 Ang^3
#
#
#
# Elastic Constant Matrix: (Units=GPa)
#
#
# Indices 1 2 3 4 5 6 
#
# 1 82.6775 32.2124 58.3375 0.0000 0.0000 0.0000
# 2 32.2124 42.0621 35.5405 0.0000 0.0000 0.0000
# 3 58.3375 35.5405 147.0927 0.0000 0.0000 0.0000
# 4 0.0000 0.0000 0.0000 10.8859 0.0000 0.0000
# 5 0.0000 0.0000 0.0000 0.0000 31.3309 0.0000
# 6 0.0000 0.0000 0.0000 0.0000 0.0000 15.7217
#
#
#
# Elastic Compliance Matrix: (Units=1/GPa)
#
#
# Indices 1 2 3 4 5 6 
#
# 1 0.020106 -0.010882 -0.005345 0.000000 0.000000 0.000000
# 2 -0.010882 0.035762 -0.004325 0.000000 0.000000 0.000000
# 3 -0.005345 -0.004325 0.009963 0.000000 0.000000 0.000000
# 4 0.000000 0.000000 0.000000 0.091862 0.000000 0.000000
# 5 0.000000 0.000000 0.000000 0.000000 0.031917 0.000000
# 6 0.000000 0.000000 0.000000 0.000000 0.000000 0.063607
#
#
# Mechanical properties :
#
#
# Convention : Reuss Voigt Hill
#
# Bulk Modulus (GPa) = 40.43953 58.22369 49.33161
# Shear Modulus (GPa) = 16.52541 21.30382 18.91461
#
# Velocity S-wave (km/s) = 3.19989 3.63319 3.42340
# Velocity P-wave (km/s) = 6.22166 7.32639 6.79651
#
# Compressibility (1/GPa) = 0.02472828
#
# Stress axis : x y z
#
# Youngs Moduli (GPa) = 49.73548 27.96226 100.36812
#
# Poissons Ratio (x) = 0.30428 0.53647
# Poissons Ratio (y) = 0.54121 0.43411
# Poissons Ratio (z) = 0.26584 0.12094
#
# Static dielectric constant tensor:
#      x y z
#    x 3.192850 0.000000 0.000000 
#    y 0.000000 2.477980 0.000000 
#    z 0.000000 0.000000 3.625450 
# 
# 
# High freq. dielectric constant tensor:
#      x y z
#    x 1.639620 0.000000 0.000000 
#    y 0.000000 1.535020 0.000000 
#    z 0.000000 0.000000 1.646700 
# 
# From -- ./inp_files/26077.got.cif
#   From: 2010.03.12/outbox.cif.g09.slc.cpg/sg59_14_cif.got.tgz:26077.got - 2010.04.16 16:29:54.
