data_PCOD8240339
_publ_section_title
;
Structure prediction by ZEFSAII (Michael W. Deem and Ramdas Pophale) SiO2 
 PCOD8240339
Probable space group: P M M N
;
_chemical_formula_sum "Si O2"
_cell_formula_units_Z 48
_cell_length_a 8.908877
_cell_length_b 26.141402
_cell_length_c 11.501992
_cell_angle_alpha 90.000000
_cell_angle_beta 90.000000
_cell_angle_gamma 90.000000
_cell_volume 2678.705071
_symmetry_space_group_name_H-M "P M M N"
_symmetry_group_IT_number 59
_space_group.IT_coordinate_system_code '2'
_symmetry_cell_setting 'orthorhombic'
loop_
_space_group_symop_operation_xyz
x,y,z
1/2-x,1/2-y,z
1/2+x,-y,-z
-x,1/2+y,-z
-x,-y,-z
1/2+x,1/2+y,-z
1/2-x,y,z
x,1/2-y,z
loop_
_atom_site_type_symbol
_atom_site_label
_atom_site_fract_x
_atom_site_fract_y
_atom_site_fract_z
Si Si1 0.426192 0.548828 0.643511
Si Si2 0.914722 0.616667 0.836944
Si Si3 0.085105 0.046359 0.947348
Si Si4 0.425771 0.067146 0.597536
Si Si5 0.426944 0.808683 0.996558
Si Si6 0.425563 0.879813 0.205950
O O1 0.250000 0.558265 0.638686
O O2 0.491366 0.581079 0.750576
O O3 0.497435 0.571220 0.527092
O O4 0.463742 0.488291 0.655901
O O5 0.750000 0.630293 0.783450
O O6 0.886742 0.587590 0.955355
O O7 0.001977 0.667761 0.878554
O O8 0.250000 0.031637 0.893521
O O9 0.971085 0.066548 0.851187
O O10 0.000000 0.000000 0.000000
O O11 0.250000 0.074014 0.580785
O O12 0.487492 0.116106 0.671084
O O13 0.250000 0.816213 0.984626
O O14 0.476246 0.750000 0.003222
O O15 0.479121 0.834241 0.119655
O O16 0.250000 0.876800 0.231015
#
# Coordination Sequence:
#
# PCOD8240339 Si02
#       6
#     8   8   8   8   8   8
#     4  10  20  33  50  72 101 138 174 205 241 290
#     4  10  20  32  48  72 100 129 163 205 250 295
#     4  10  19  29  43  66  97 130 162 197 240 291
#     4  10  20  33  50  73 103 137 171 206 244 290
#     4   9  19  36  56  76  98 127 164 206 253 303
#     4  10  19  31  49  72  98 128 163 203 247 296
#
# _framework density 17.919105999999999
#
# number of rings (size 3 to 8) (size 9 to 14) (size 15 to 20)
#    0.000    2.167    0.000    3.500    0.000    7.667 
#    0.000    0.000    0.000    1.000    0.000    2.333 
#    0.000    0.000    0.000    0.000    0.000    0.000 
#
# Total GULP energy -594734.346288 kJ/mol
# GULP energy per Si atom -12390.298881 kJ/mol
# Density = 1.787832 g / cm^3
# Si number density = 17.919106 Si / 1000 Ang^3
#
#
#
# Elastic Constant Matrix: (Units=GPa)
#
#
# Indices 1 2 3 4 5 6 
#
# 1 91.0653 29.2239 37.8606 0.0000 0.0000 0.0000
# 2 29.2239 59.6551 20.3790 0.0000 0.0000 0.0000
# 3 37.8606 20.3790 77.2522 0.0000 0.0000 0.0000
# 4 0.0000 0.0000 0.0000 25.4212 0.0000 0.0000
# 5 0.0000 0.0000 0.0000 0.0000 32.9826 0.0000
# 6 0.0000 0.0000 0.0000 0.0000 0.0000 21.8872
#
#
#
# Elastic Compliance Matrix: (Units=1/GPa)
#
#
# Indices 1 2 3 4 5 6 
#
# 1 0.015222 -0.005395 -0.006037 0.000000 0.000000 0.000000
# 2 -0.005395 0.020335 -0.002720 0.000000 0.000000 0.000000
# 3 -0.006037 -0.002720 0.016621 0.000000 0.000000 0.000000
# 4 0.000000 0.000000 0.000000 0.039337 0.000000 0.000000
# 5 0.000000 0.000000 0.000000 0.000000 0.030319 0.000000
# 6 0.000000 0.000000 0.000000 0.000000 0.000000 0.045689
#
#
# Mechanical properties :
#
#
# Convention : Reuss Voigt Hill
#
# Bulk Modulus (GPa) = 41.88707 44.76664 43.32686
# Shear Modulus (GPa) = 24.53549 25.42548 24.98048
#
# Velocity S-wave (km/s) = 3.70433 3.77092 3.73777
# Velocity P-wave (km/s) = 6.45930 6.63300 6.54672
#
# Compressibility (1/GPa) = 0.02387371
#
# Stress axis : x y z
#
# Youngs Moduli (GPa) = 65.69288 49.17586 60.16466
#
# Poissons Ratio (x) = 0.26529 0.36323
# Poissons Ratio (y) = 0.35440 0.16368
# Poissons Ratio (z) = 0.39660 0.13378
#
# Static dielectric constant tensor:
#      x y z
#    x 3.545830 0.000000 0.000000 
#    y 0.000000 2.680240 0.000000 
#    z 0.000000 0.000000 2.790930 
# 
# 
# High freq. dielectric constant tensor:
#      x y z
#    x 1.709850 0.000000 0.000000 
#    y 0.000000 1.658570 0.000000 
#    z 0.000000 0.000000 1.691680 
# 
# From -- ./inp_files/14474.got.cif
#   From: 2010.03.12/outbox.cif.g09.slc.cpg/sg59_8_cif.got.tgz:14474.got - 2010.04.16 16:29:54.
