data_PCOD8240795
_publ_section_title
;
Structure prediction by ZEFSAII (Michael W. Deem and Ramdas Pophale) SiO2 
 PCOD8240795
Probable space group: P M M N
;
_chemical_formula_sum "Si O2"
_cell_formula_units_Z 64
_cell_length_a 19.006734
_cell_length_b 9.415785
_cell_length_c 19.967375
_cell_angle_alpha 90.000000
_cell_angle_beta 90.000000
_cell_angle_gamma 90.000000
_cell_volume 3573.427740
_symmetry_space_group_name_H-M "P M M N"
_symmetry_group_IT_number 59
_space_group.IT_coordinate_system_code '2'
_symmetry_cell_setting 'orthorhombic'
loop_
_space_group_symop_operation_xyz
x,y,z
1/2-x,1/2-y,z
1/2+x,-y,-z
-x,1/2+y,-z
-x,-y,-z
1/2+x,1/2+y,-z
1/2-x,y,z
x,1/2-y,z
loop_
_atom_site_type_symbol
_atom_site_label
_atom_site_fract_x
_atom_site_fract_y
_atom_site_fract_z
Si Si1 0.408531 0.592960 0.730925
Si Si2 0.828941 0.911095 0.165235
Si Si3 0.927379 0.585738 0.393221
Si Si4 0.589102 0.082621 0.629358
Si Si5 0.331565 0.085688 0.480393
Si Si6 0.917836 0.909872 0.045500
Si Si7 0.572218 0.591801 0.756713
Si Si8 0.453782 0.415754 0.097550
O O1 0.375665 0.750000 0.723458
O O2 0.378048 0.516483 0.795147
O O3 0.390258 0.504797 0.664587
O O4 0.490615 0.603346 0.741740
O O5 0.750000 0.959618 0.177397
O O6 0.841845 0.750000 0.189999
O O7 0.844985 0.922883 0.085767
O O8 0.918023 0.750000 0.374669
O O9 0.884961 0.546207 0.459947
O O10 0.010528 0.548053 0.398567
O O11 0.602117 0.250000 0.633066
O O12 0.646802 0.012730 0.581359
O O13 0.604242 0.017951 0.703157
O O14 0.250000 0.055677 0.500150
O O15 0.341415 0.250000 0.460064
O O16 0.948414 0.750000 0.049066
O O17 0.904420 0.948735 0.967193
O O18 0.972598 0.009585 0.083347
O O19 0.606112 0.750000 0.748753
O O20 0.582677 0.532088 0.832983
O O21 0.470036 0.250000 0.107033
#
# Coordination Sequence:
#
# PCOD8240795 Si02
#       8
#     8   8   8   8   8   8   8   8
#     4  10  19  31  48  72  99 128 164 205 247 290
#     4  10  20  32  45  63  94 135 170 201 241 294
#     4   9  19  35  54  77 105 136 170 207 251 305
#     4  10  20  33  53  79 105 134 169 211 255 301
#     4  10  21  37  56  76 101 134 170 209 256 310
#     4   9  17  28  45  68  93 124 163 204 245 291
#     4   9  17  30  49  72 101 130 158 201 254 303
#     4   9  16  28  47  71  97 123 154 203 257 294
#
# _framework density 17.909974999999999
#
# number of rings (size 3 to 8) (size 9 to 14) (size 15 to 20)
#    0.000    2.500    1.250    1.125    0.000    3.000 
#    0.000    1.250    0.000    0.750    0.000    3.500 
#    0.000    0.000    0.000    0.000    0.000    0.000 
#
# Total GULP energy -793224.793664 kJ/mol
# GULP energy per Si atom -12394.137401 kJ/mol
# Density = 1.786921 g / cm^3
# Si number density = 17.909975 Si / 1000 Ang^3
#
#
#
# Elastic Constant Matrix: (Units=GPa)
#
#
# Indices 1 2 3 4 5 6 
#
# 1 30.6680 19.2666 24.2825 0.0000 0.0000 0.0000
# 2 19.2666 69.8402 52.1172 0.0000 0.0000 0.0000
# 3 24.2825 52.1172 128.4462 0.0000 0.0000 0.0000
# 4 0.0000 0.0000 0.0000 27.5145 0.0000 0.0000
# 5 0.0000 0.0000 0.0000 0.0000 8.8460 0.0000
# 6 0.0000 0.0000 0.0000 0.0000 0.0000 14.4150
#
#
#
# Elastic Compliance Matrix: (Units=1/GPa)
#
#
# Indices 1 2 3 4 5 6 
#
# 1 0.041224 -0.007970 -0.004560 0.000000 0.000000 0.000000
# 2 -0.007970 0.022077 -0.007451 0.000000 0.000000 0.000000
# 3 -0.004560 -0.007451 0.011671 0.000000 0.000000 0.000000
# 4 0.000000 0.000000 0.000000 0.036344 0.000000 0.000000
# 5 0.000000 0.000000 0.000000 0.000000 0.113045 0.000000
# 6 0.000000 0.000000 0.000000 0.000000 0.000000 0.069372
#
#
# Mechanical properties :
#
#
# Convention : Reuss Voigt Hill
#
# Bulk Modulus (GPa) = 28.56242 46.69853 37.63048
# Shear Modulus (GPa) = 14.47739 19.04099 16.75919
#
# Velocity S-wave (km/s) = 2.84622 3.26414 3.06232
# Velocity P-wave (km/s) = 5.17530 6.35112 5.79312
#
# Compressibility (1/GPa) = 0.03501104
#
# Stress axis : x y z
#
# Youngs Moduli (GPa) = 24.25747 45.29521 85.68475
#
# Poissons Ratio (x) = 0.36100 0.39069
# Poissons Ratio (y) = 0.19333 0.63846
# Poissons Ratio (z) = 0.11060 0.33751
#
# Static dielectric constant tensor:
#      x y z
#    x 2.973010 0.000000 0.000000 
#    y 0.000000 3.459820 0.000000 
#    z 0.000000 0.000000 3.616090 
# 
# 
# High freq. dielectric constant tensor:
#      x y z
#    x 1.649400 0.000000 0.000000 
#    y 0.000000 1.696390 0.000000 
#    z 0.000000 0.000000 1.705860 
# 
# From -- ./inp_files/30742.got.cif
#   From: 2010.03.12/outbox.cif.g09.slc.cpg/sg59_16_cif.got.tgz:30742.got - 2010.04.16 16:29:54.
