data_PCOD8240334
_publ_section_title
;
Structure prediction by ZEFSAII (Michael W. Deem and Ramdas Pophale) SiO2 
 PCOD8240334
Probable space group: P M M N
;
_chemical_formula_sum "Si O2"
_cell_formula_units_Z 56
_cell_length_a 28.451067
_cell_length_b 9.543447
_cell_length_c 12.907584
_cell_angle_alpha 90.000000
_cell_angle_beta 90.000000
_cell_angle_gamma 90.000000
_cell_volume 3504.683342
_symmetry_space_group_name_H-M "P M M N"
_symmetry_group_IT_number 59
_space_group.IT_coordinate_system_code '2'
_symmetry_cell_setting 'orthorhombic'
loop_
_space_group_symop_operation_xyz
x,y,z
1/2-x,1/2-y,z
1/2+x,-y,-z
-x,1/2+y,-z
-x,-y,-z
1/2+x,1/2+y,-z
1/2-x,y,z
x,1/2-y,z
loop_
_atom_site_type_symbol
_atom_site_label
_atom_site_fract_x
_atom_site_fract_y
_atom_site_fract_z
Si Si1 0.150522 0.587404 0.688506
Si Si2 0.550271 0.588223 0.605780
Si Si3 0.446258 0.910671 0.596038
Si Si4 0.305015 0.411850 0.506602
Si Si5 0.804745 0.912895 0.900764
Si Si6 0.144694 0.086190 0.301338
Si Si7 0.195586 0.911683 0.901729
O O1 0.163148 0.750000 0.670587
O O2 0.094470 0.559999 0.679533
O O3 0.179252 0.498936 0.605738
O O4 0.165527 0.539611 0.802846
O O5 0.554647 0.750000 0.574090
O O6 0.563694 0.502884 0.504061
O O7 0.497485 0.552200 0.645205
O O8 0.588672 0.552891 0.694460
O O9 0.445426 0.750000 0.559397
O O10 0.250000 0.430033 0.489385
O O11 0.318839 0.250000 0.525137
O O12 0.330498 0.474233 0.404486
O O13 0.750000 0.937783 0.877952
O O14 0.815962 0.750000 0.919579
O O15 0.833503 0.977634 0.803538
O O16 0.821555 0.996266 0.001782
O O17 0.155769 0.250000 0.298097
O O18 0.250000 0.939895 0.876260
O O19 0.186515 0.750000 0.929095
#
# Coordination Sequence:
#
# PCOD8240334 Si02
#       7
#     8   8   8   8   8   8   8
#     4  10  19  31  46  65  92 122 150 183 225 268
#     4   9  16  28  46  66  90 119 149 181 220 267
#     4   9  17  28  44  67  91 117 151 185 217 262
#     4  10  19  29  43  66  94 121 148 179 219 270
#     4   9  17  30  48  67  86 112 150 191 224 260
#     4   9  16  28  46  67  91 118 145 179 227 271
#     4   9  18  32  47  62  84 117 153 186 222 263
#
# _framework density 15.978619999999999
#
# number of rings (size 3 to 8) (size 9 to 14) (size 15 to 20)
#    0.000    2.714    1.429    0.857    0.000    3.143 
#    0.000    2.857    0.000    2.571    0.000    0.000 
#    0.000    0.000    0.000    0.000    0.000    0.000 
#
# Total GULP energy -694242.152217 kJ/mol
# GULP energy per Si atom -12397.181290 kJ/mol
# Density = 1.594225 g / cm^3
# Si number density = 15.978620 Si / 1000 Ang^3
#
#
#
# Elastic Constant Matrix: (Units=GPa)
#
#
# Indices 1 2 3 4 5 6 
#
# 1 97.1685 31.8490 67.0201 0.0000 0.0000 0.0000
# 2 31.8490 41.4430 46.4841 0.0000 0.0000 0.0000
# 3 67.0201 46.4841 132.7089 0.0000 0.0000 0.0000
# 4 0.0000 0.0000 0.0000 22.5410 0.0000 0.0000
# 5 0.0000 0.0000 0.0000 0.0000 23.1767 0.0000
# 6 0.0000 0.0000 0.0000 0.0000 0.0000 18.0827
#
#
#
# Elastic Compliance Matrix: (Units=1/GPa)
#
#
# Indices 1 2 3 4 5 6 
#
# 1 0.016519 -0.005498 -0.006417 0.000000 0.000000 0.000000
# 2 -0.005498 0.041574 -0.011786 0.000000 0.000000 0.000000
# 3 -0.006417 -0.011786 0.014904 0.000000 0.000000 0.000000
# 4 0.000000 0.000000 0.000000 0.044364 0.000000 0.000000
# 5 0.000000 0.000000 0.000000 0.000000 0.043147 0.000000
# 6 0.000000 0.000000 0.000000 0.000000 0.000000 0.055301
#
#
# Mechanical properties :
#
#
# Convention : Reuss Voigt Hill
#
# Bulk Modulus (GPa) = 39.06744 62.44740 50.75742
# Shear Modulus (GPa) = 18.39982 21.15788 19.77885
#
# Velocity S-wave (km/s) = 3.39710 3.64282 3.52210
# Velocity P-wave (km/s) = 6.31585 7.54057 6.95522
#
# Compressibility (1/GPa) = 0.02559676
#
# Stress axis : x y z
#
# Youngs Moduli (GPa) = 60.53548 24.05357 67.09591
#
# Poissons Ratio (x) = 0.13224 0.43054
# Poissons Ratio (y) = 0.33281 0.79077
# Poissons Ratio (z) = 0.38844 0.28349
#
# Static dielectric constant tensor:
#      x y z
#    x 3.254020 0.000000 0.000000 
#    y 0.000000 3.133890 0.000000 
#    z 0.000000 0.000000 2.981100 
# 
# 
# High freq. dielectric constant tensor:
#      x y z
#    x 1.620420 0.000000 0.000000 
#    y 0.000000 1.600660 0.000000 
#    z 0.000000 0.000000 1.594190 
# 
# From -- ./inp_files/18962.got.cif
#   From: 2010.03.12/outbox.cif.g09.slc.cpg/sg59_10_cif.got.tgz:18962.got - 2010.04.16 16:29:54.
