data_PCOD8240716
_publ_section_title
;
Structure prediction by ZEFSAII (Michael W. Deem and Ramdas Pophale) SiO2 
 PCOD8240716
Probable space group: P M M N
;
_chemical_formula_sum "Si O2"
_cell_formula_units_Z 64
_cell_length_a 17.231663
_cell_length_b 31.616322
_cell_length_c 6.687132
_cell_angle_alpha 90.000000
_cell_angle_beta 90.000000
_cell_angle_gamma 90.000000
_cell_volume 3643.161591
_symmetry_space_group_name_H-M "P M M N"
_symmetry_group_IT_number 59
_space_group.IT_coordinate_system_code '2'
_symmetry_cell_setting 'orthorhombic'
loop_
_space_group_symop_operation_xyz
x,y,z
1/2-x,1/2-y,z
1/2+x,-y,-z
-x,1/2+y,-z
-x,-y,-z
1/2+x,1/2+y,-z
1/2-x,y,z
x,1/2-y,z
loop_
_atom_site_type_symbol
_atom_site_label
_atom_site_fract_x
_atom_site_fract_y
_atom_site_fract_z
Si Si1 0.337656 0.916739 0.645639
Si Si2 0.936721 0.428314 0.973302
Si Si3 0.538922 0.121245 0.590606
Si Si4 0.066144 0.069888 0.289139
Si Si5 0.662823 0.848304 0.766587
Si Si6 0.341248 0.513653 0.327358
Si Si7 0.332962 0.204443 0.859143
Si Si8 0.551638 0.797751 0.491470
O O1 0.250000 0.903418 0.675863
O O2 0.374070 0.883002 0.492246
O O3 0.346595 0.962819 0.541328
O O4 0.376007 0.912647 0.862228
O O5 0.962656 0.389741 0.827008
O O6 0.893263 0.464107 0.844128
O O7 0.013353 0.443349 0.096721
O O8 0.485925 0.086799 0.473007
O O9 0.518401 0.169607 0.540266
O O10 0.127380 0.105472 0.231936
O O11 0.118645 0.031271 0.364225
O O12 0.750000 0.849145 0.675584
O O13 0.610004 0.813671 0.659299
O O14 0.664170 0.834896 0.995039
O O15 0.250000 0.510120 0.261334
O O16 0.250000 0.202017 0.743102
O O17 0.337733 0.250000 0.972202
O O18 0.404324 0.201101 0.714916
O O19 0.522121 0.750000 0.541678
#
# Coordination Sequence:
#
# PCOD8240716 Si02
#       8
#     8   8   8   8   8   8   8   8
#     4   9  19  35  54  75  97 122 157 200 242 289
#     4  10  19  33  53  72  96 128 165 202 244 292
#     4   9  20  34  50  74  98 124 158 195 240 290
#     4  10  20  32  47  70 102 134 164 202 244 284
#     4  10  19  31  47  68  97 134 170 201 238 283
#     4  10  20  33  49  72 100 131 168 206 243 284
#     4   9  17  28  43  65  92 123 163 206 238 269
#     4  10  19  32  50  71  96 126 160 198 239 285
#
# _framework density 17.567159
#
# number of rings (size 3 to 8) (size 9 to 14) (size 15 to 20)
#    0.000    2.375    0.000    2.625    0.000    7.250 
#    0.000    0.000    0.000    6.375    0.000    0.000 
#    0.000    0.000    0.000    0.000    0.000    0.000 
#
# Total GULP energy -792978.084150 kJ/mol
# GULP energy per Si atom -12390.282565 kJ/mol
# Density = 1.752718 g / cm^3
# Si number density = 17.567159 Si / 1000 Ang^3
#
#
#
# Elastic Constant Matrix: (Units=GPa)
#
#
# Indices 1 2 3 4 5 6 
#
# 1 77.0027 53.3205 25.8263 0.0000 0.0000 0.0000
# 2 53.3205 104.1103 26.5772 0.0000 0.0000 0.0000
# 3 25.8263 26.5772 74.5973 0.0000 0.0000 0.0000
# 4 0.0000 0.0000 0.0000 18.2511 0.0000 0.0000
# 5 0.0000 0.0000 0.0000 0.0000 24.7794 0.0000
# 6 0.0000 0.0000 0.0000 0.0000 0.0000 19.9955
#
#
#
# Elastic Compliance Matrix: (Units=1/GPa)
#
#
# Indices 1 2 3 4 5 6 
#
# 1 0.021055 -0.009815 -0.003793 0.000000 0.000000 0.000000
# 2 -0.009815 0.015142 -0.001997 0.000000 0.000000 0.000000
# 3 -0.003793 -0.001997 0.015430 0.000000 0.000000 0.000000
# 4 0.000000 0.000000 0.000000 0.054791 0.000000 0.000000
# 5 0.000000 0.000000 0.000000 0.000000 0.040356 0.000000
# 6 0.000000 0.000000 0.000000 0.000000 0.000000 0.050011
#
#
# Mechanical properties :
#
#
# Convention : Reuss Voigt Hill
#
# Bulk Modulus (GPa) = 48.97668 51.90647 50.44158
# Shear Modulus (GPa) = 21.29473 22.60429 21.94951
#
# Velocity S-wave (km/s) = 3.48543 3.59100 3.53861
# Velocity P-wave (km/s) = 6.64363 6.84144 6.74326
#
# Compressibility (1/GPa) = 0.02041788
#
# Stress axis : x y z
#
# Youngs Moduli (GPa) = 47.49427 66.04223 64.81038
#
# Poissons Ratio (x) = 0.64823 0.24580
# Poissons Ratio (y) = 0.46617 0.12939
# Poissons Ratio (z) = 0.18012 0.13185
#
# Static dielectric constant tensor:
#      x y z
#    x 3.433340 0.000000 0.000000 
#    y 0.000000 3.401280 0.000000 
#    z 0.000000 0.000000 3.213260 
# 
# 
# High freq. dielectric constant tensor:
#      x y z
#    x 1.681200 0.000000 0.000000 
#    y 0.000000 1.665830 0.000000 
#    z 0.000000 0.000000 1.678290 
# 
# From -- ./inp_files/3044.got.cif
#   From: 2010.03.12/outbox.cif.g09.slc.cpg/sg59_2_cif.got.tgz:3044.got - 2010.04.16 16:29:54.
