data_PCOD8240641
_publ_section_title
;
Structure prediction by ZEFSAII (Michael W. Deem and Ramdas Pophale) SiO2 
 PCOD8240641
Probable space group: P M M N
;
_chemical_formula_sum "Si O2"
_cell_formula_units_Z 56
_cell_length_a 9.280723
_cell_length_b 22.240196
_cell_length_c 14.312738
_cell_angle_alpha 90.000000
_cell_angle_beta 90.000000
_cell_angle_gamma 90.000000
_cell_volume 2954.222097
_symmetry_space_group_name_H-M "P M M N"
_symmetry_group_IT_number 59
_space_group.IT_coordinate_system_code '2'
_symmetry_cell_setting 'orthorhombic'
loop_
_space_group_symop_operation_xyz
x,y,z
1/2-x,1/2-y,z
1/2+x,-y,-z
-x,1/2+y,-z
-x,-y,-z
1/2+x,1/2+y,-z
1/2-x,y,z
x,1/2-y,z
loop_
_atom_site_type_symbol
_atom_site_label
_atom_site_fract_x
_atom_site_fract_y
_atom_site_fract_z
Si Si1 0.078675 0.250000 0.854572
Si Si2 0.582395 0.638453 0.478434
Si Si3 0.082012 0.896016 0.654755
Si Si4 0.415287 0.034760 0.660903
Si Si5 0.913917 0.899779 0.835913
Si Si6 0.582468 0.461154 0.842769
Si Si7 0.582349 0.868247 0.040088
Si Si8 0.420703 0.250000 0.644334
O O1 0.250000 0.250000 0.854118
O O2 0.022731 0.191233 0.909005
O O3 0.015056 0.250000 0.749355
O O4 0.750000 0.647185 0.502484
O O5 0.493364 0.642451 0.573917
O O6 0.552930 0.574378 0.430149
O O7 0.526084 0.690905 0.410141
O O8 0.250000 0.881509 0.654316
O O9 0.018032 0.875848 0.754520
O O10 0.048238 0.966076 0.636315
O O11 0.250000 0.042015 0.693297
O O12 0.514476 0.059030 0.744236
O O13 0.750000 0.893299 0.800366
O O14 0.947638 0.968855 0.860605
O O15 0.941026 0.860671 0.928869
O O16 0.750000 0.445387 0.841136
O O17 0.507190 0.425427 0.925989
O O18 0.750000 0.879730 0.062646
O O19 0.250000 0.250000 0.652404
#
# Coordination Sequence:
#
# PCOD8240641 Si02
#       8
#     4   8   8   8   8   8   8   4
#     4   9  18  34  56  79 100 126 167 213 252 295
#     4  10  19  33  53  74  99 132 169 210 253 299
#     4  10  20  33  51  76 104 134 168 208 256 307
#     4   9  18  32  51  75 103 136 171 208 253 303
#     4   9  19  34  51  74 104 137 172 210 253 301
#     4  10  19  30  48  76 108 138 167 205 255 308
#     4  10  19  33  54  76 100 133 172 213 254 298
#     4   9  18  32  52  77 100 126 163 205 250 299
#
# _framework density 18.955921
#
# number of rings (size 3 to 8) (size 9 to 14) (size 15 to 20)
#    0.000    2.429    0.000    2.571    0.000    4.571 
#    0.000    1.429    0.000    3.429    0.000    0.000 
#    0.000    0.000    0.000    0.000    0.000    0.000 
#
# Total GULP energy -694554.202726 kJ/mol
# GULP energy per Si atom -12402.753620 kJ/mol
# Density = 1.891278 g / cm^3
# Si number density = 18.955921 Si / 1000 Ang^3
#
#
#
# Elastic Constant Matrix: (Units=GPa)
#
#
# Indices 1 2 3 4 5 6 
#
# 1 71.6579 26.4043 60.1481 0.0000 0.0000 0.0000
# 2 26.4043 63.2462 56.5169 0.0000 0.0000 0.0000
# 3 60.1481 56.5169 149.0286 0.0000 0.0000 0.0000
# 4 0.0000 0.0000 0.0000 31.2310 0.0000 0.0000
# 5 0.0000 0.0000 0.0000 0.0000 31.6876 0.0000
# 6 0.0000 0.0000 0.0000 0.0000 0.0000 16.8765
#
#
#
# Elastic Compliance Matrix: (Units=1/GPa)
#
#
# Indices 1 2 3 4 5 6 
#
# 1 0.021244 -0.001826 -0.007881 0.000000 0.000000 0.000000
# 2 -0.001826 0.024073 -0.008392 0.000000 0.000000 0.000000
# 3 -0.007881 -0.008392 0.013074 0.000000 0.000000 0.000000
# 4 0.000000 0.000000 0.000000 0.032019 0.000000 0.000000
# 5 0.000000 0.000000 0.000000 0.000000 0.031558 0.000000
# 6 0.000000 0.000000 0.000000 0.000000 0.000000 0.059254
#
#
# Mechanical properties :
#
#
# Convention : Reuss Voigt Hill
#
# Bulk Modulus (GPa) = 45.06386 63.34125 54.20255
# Shear Modulus (GPa) = 22.24018 25.34991 23.79504
#
# Velocity S-wave (km/s) = 3.42900 3.66089 3.54684
# Velocity P-wave (km/s) = 6.28506 7.16638 6.74014
#
# Compressibility (1/GPa) = 0.02219073
#
# Stress axis : x y z
#
# Youngs Moduli (GPa) = 47.07316 41.54031 76.48904
#
# Poissons Ratio (x) = 0.07585 0.60284
# Poissons Ratio (y) = 0.08595 0.64193
# Poissons Ratio (z) = 0.37100 0.34862
#
# Static dielectric constant tensor:
#      x y z
#    x 3.293670 0.000000 0.000000 
#    y 0.000000 3.339030 0.000000 
#    z 0.000000 0.000000 3.490200 
# 
# 
# High freq. dielectric constant tensor:
#      x y z
#    x 1.717810 0.000000 0.000000 
#    y 0.000000 1.717010 0.000000 
#    z 0.000000 0.000000 1.745040 
# 
# From -- ./inp_files/21229.got.cif
#   From: 2010.03.12/outbox.cif.g09.slc.cpg/sg59_11_cif.got.tgz:21229.got - 2010.04.16 16:29:54.
