data_PCOD8240625
_publ_section_title
;
Structure prediction by ZEFSAII (Michael W. Deem and Ramdas Pophale) SiO2 
 PCOD8240625
Probable space group: P M M N
;
_chemical_formula_sum "Si O2"
_cell_formula_units_Z 56
_cell_length_a 18.175132
_cell_length_b 9.118600
_cell_length_c 18.974984
_cell_angle_alpha 90.000000
_cell_angle_beta 90.000000
_cell_angle_gamma 90.000000
_cell_volume 3144.757469
_symmetry_space_group_name_H-M "P M M N"
_symmetry_group_IT_number 59
_space_group.IT_coordinate_system_code '2'
_symmetry_cell_setting 'orthorhombic'
loop_
_space_group_symop_operation_xyz
x,y,z
1/2-x,1/2-y,z
1/2+x,-y,-z
-x,1/2+y,-z
-x,-y,-z
1/2+x,1/2+y,-z
1/2-x,y,z
x,1/2-y,z
loop_
_atom_site_type_symbol
_atom_site_label
_atom_site_fract_x
_atom_site_fract_y
_atom_site_fract_z
Si Si1 0.413542 0.419501 0.073410
Si Si2 0.552837 0.582817 0.712633
Si Si3 0.168986 0.575555 0.643732
Si Si4 0.024877 0.576836 0.570441
Si Si5 0.432953 0.081123 0.916682
Si Si6 0.601013 0.417828 0.213552
Si Si7 0.334970 0.580069 0.194442
O O1 0.418014 0.250000 0.095840
O O2 0.492837 0.488680 0.084970
O O3 0.353179 0.498157 0.121481
O O4 0.391015 0.437021 0.991283
O O5 0.580623 0.750000 0.711710
O O6 0.529967 0.533520 0.633921
O O7 0.484227 0.566756 0.765052
O O8 0.618476 0.480905 0.739838
O O9 0.250000 0.519303 0.620775
O O10 0.164723 0.750000 0.645410
O O11 0.107283 0.519102 0.589096
O O12 0.151229 0.521045 0.722794
O O13 0.024978 0.750000 0.558953
O O14 0.000000 0.500000 0.500000
O O15 0.452241 0.250000 0.902066
O O16 0.381477 0.017264 0.854705
O O17 0.620603 0.250000 0.195710
O O18 0.250000 0.554145 0.212547
O O19 0.353674 0.750000 0.184386
#
# Coordination Sequence:
#
# PCOD8240625 Si02
#       7
#     8   8   8   8   8   8   8
#     4  10  20  33  49  70  98 134 174 212 259 315
#     4   9  18  33  52  74 100 133 173 209 248 306
#     4   8  15  30  52  77 104 135 170 207 250 302
#     4   9  18  33  55  82 108 136 171 209 248 300
#     4  10  19  30  48  74 100 128 167 217 263 303
#     4   9  16  28  50  76  99 128 169 211 251 303
#     4  11  23  36  51  74 102 133 175 226 271 309
#
# _framework density 17.807414999999999
#
# number of rings (size 3 to 8) (size 9 to 14) (size 15 to 20)
#    0.000    2.571    1.429    3.000    0.000    3.429 
#    0.000    3.571    0.000    6.857    0.000    0.000 
#    0.000    0.000    0.000    0.000    0.000    0.000 
#
# Total GULP energy -694251.233810 kJ/mol
# GULP energy per Si atom -12397.343461 kJ/mol
# Density = 1.776688 g / cm^3
# Si number density = 17.807415 Si / 1000 Ang^3
#
#
#
# Elastic Constant Matrix: (Units=GPa)
#
#
# Indices 1 2 3 4 5 6 
#
# 1 99.9565 46.6816 58.9497 0.0000 0.0000 0.0000
# 2 46.6816 91.2984 58.2848 0.0000 0.0000 0.0000
# 3 58.9497 58.2848 147.2635 0.0000 0.0000 0.0000
# 4 0.0000 0.0000 0.0000 34.7410 0.0000 0.0000
# 5 0.0000 0.0000 0.0000 0.0000 20.1172 0.0000
# 6 0.0000 0.0000 0.0000 0.0000 0.0000 20.3222
#
#
#
# Elastic Compliance Matrix: (Units=1/GPa)
#
#
# Indices 1 2 3 4 5 6 
#
# 1 0.014627 -0.005006 -0.003874 0.000000 0.000000 0.000000
# 2 -0.005006 0.016369 -0.004475 0.000000 0.000000 0.000000
# 3 -0.003874 -0.004475 0.010112 0.000000 0.000000 0.000000
# 4 0.000000 0.000000 0.000000 0.028784 0.000000 0.000000
# 5 0.000000 0.000000 0.000000 0.000000 0.049709 0.000000
# 6 0.000000 0.000000 0.000000 0.000000 0.000000 0.049207
#
#
# Mechanical properties :
#
#
# Convention : Reuss Voigt Hill
#
# Bulk Modulus (GPa) = 69.44747 74.03893 71.74320
# Shear Modulus (GPa) = 24.96030 26.67621 25.81825
#
# Velocity S-wave (km/s) = 3.74796 3.87465 3.81183
# Velocity P-wave (km/s) = 7.60352 7.85398 7.72977
#
# Compressibility (1/GPa) = 0.01439937
#
# Stress axis : x y z
#
# Youngs Moduli (GPa) = 68.36784 61.08980 98.88827
#
# Poissons Ratio (x) = 0.30579 0.38309
# Poissons Ratio (y) = 0.34223 0.44252
# Poissons Ratio (z) = 0.26485 0.27338
#
# Static dielectric constant tensor:
#      x y z
#    x 3.190580 0.000000 0.000000 
#    y 0.000000 3.198010 0.000000 
#    z 0.000000 0.000000 3.429440 
# 
# 
# High freq. dielectric constant tensor:
#      x y z
#    x 1.664390 0.000000 0.000000 
#    y 0.000000 1.678060 0.000000 
#    z 0.000000 0.000000 1.691990 
# 
# From -- ./inp_files/30561.got.cif
#   From: 2010.03.12/outbox.cif.g09.slc.cpg/sg59_16_cif.got.tgz:30561.got - 2010.04.16 16:29:54.
