data_PCOD8240926
_publ_section_title
;
Structure prediction by ZEFSAII (Michael W. Deem and Ramdas Pophale) SiO2 
 PCOD8240926
Probable space group: P M M N
;
_chemical_formula_sum "Si O2"
_cell_formula_units_Z 40
_cell_length_a 19.162252
_cell_length_b 9.130739
_cell_length_c 13.037043
_cell_angle_alpha 90.000000
_cell_angle_beta 90.000000
_cell_angle_gamma 90.000000
_cell_volume 2281.033029
_symmetry_space_group_name_H-M "P M M N"
_symmetry_group_IT_number 59
_space_group.IT_coordinate_system_code '2'
_symmetry_cell_setting 'orthorhombic'
loop_
_space_group_symop_operation_xyz
x,y,z
1/2-x,1/2-y,z
1/2+x,-y,-z
-x,1/2+y,-z
-x,-y,-z
1/2+x,1/2+y,-z
1/2-x,y,z
x,1/2-y,z
loop_
_atom_site_type_symbol
_atom_site_label
_atom_site_fract_x
_atom_site_fract_y
_atom_site_fract_z
Si Si1 0.430747 0.921086 0.778259
Si Si2 0.830051 0.079160 0.403149
Si Si3 0.429140 0.916888 0.000492
Si Si4 0.921183 0.422362 0.777611
Si Si5 0.668182 0.580589 0.608260
O O1 0.449814 0.750000 0.765160
O O2 0.375760 0.972443 0.693254
O O3 0.392712 0.948723 0.890014
O O4 0.500817 0.014957 0.766080
O O5 0.750000 0.041509 0.377409
O O6 0.839742 0.250000 0.426986
O O7 0.856649 0.989781 0.501457
O O8 0.451112 0.750000 0.006946
O O9 0.389430 0.955496 0.107197
O O10 0.500000 0.000000 0.000000
O O11 0.922825 0.250000 0.753418
O O12 0.869808 0.501275 0.700684
O O13 0.750000 0.556406 0.623972
O O14 0.647257 0.750000 0.607249
#
# Coordination Sequence:
#
# PCOD8240926 Si02
#       5
#     8   8   8   8   8
#     4   9  17  31  51  74 100 128 159 197 239 284
#     4   9  18  33  52  72  95 125 160 198 241 287
#     4   8  15  28  46  70  98 127 157 190 233 280
#     4  10  19  31  50  75 100 127 161 199 237 281
#     4  10  21  36  52  69  93 127 163 199 242 289
#
# _framework density 17.535913999999998
#
# number of rings (size 3 to 8) (size 9 to 14) (size 15 to 20)
#    0.000    2.800    0.000    1.200    0.000    3.600 
#    0.000    1.000    0.000    3.600    0.000    2.800 
#    0.000    0.000    0.000    0.000    0.000    0.000 
#
# Total GULP energy -495556.430508 kJ/mol
# GULP energy per Si atom -12388.910763 kJ/mol
# Density = 1.749600 g / cm^3
# Si number density = 17.535914 Si / 1000 Ang^3
#
#
#
# Elastic Constant Matrix: (Units=GPa)
#
#
# Indices 1 2 3 4 5 6 
#
# 1 48.7786 36.7669 66.9930 0.0000 0.0000 0.0000
# 2 36.7669 76.7594 75.8876 0.0000 0.0000 0.0000
# 3 66.9930 75.8876 199.9472 0.0000 0.0000 0.0000
# 4 0.0000 0.0000 0.0000 23.4819 0.0000 0.0000
# 5 0.0000 0.0000 0.0000 0.0000 -3.2700 0.0000
# 6 0.0000 0.0000 0.0000 0.0000 0.0000 20.4174
#
#
#
# Elastic Compliance Matrix: (Units=1/GPa)
#
#
# Indices 1 2 3 4 5 6 
#
# 1 0.042282 -0.009999 -0.010372 0.000000 0.000000 0.000000
# 2 -0.009999 0.023216 -0.005461 0.000000 0.000000 0.000000
# 3 -0.010372 -0.005461 0.010549 0.000000 0.000000 0.000000
# 4 0.000000 0.000000 0.000000 0.042586 0.000000 0.000000
# 5 0.000000 0.000000 0.000000 0.000000 -0.305809 0.000000
# 6 0.000000 0.000000 0.000000 0.000000 0.000000 0.048978
#
#
# Mechanical properties :
#
#
# Convention : Reuss Voigt Hill
#
# Bulk Modulus (GPa) = 41.01060 76.08668 58.54864
# Shear Modulus (GPa) = -63.77105 17.84836 -22.96135
#
# Velocity S-wave (km/s) = -6.03696 3.19379 -3.62247
# Velocity P-wave (km/s) = 5.01556 7.55537 3.99548
#
# Compressibility (1/GPa) = 0.02438394
#
# Stress axis : x y z
#
# Youngs Moduli (GPa) = 23.65061 43.07316 94.79289
#
# Poissons Ratio (x) = 0.43067 0.98319
# Poissons Ratio (y) = 0.23647 0.51770
# Poissons Ratio (z) = 0.24530 0.23524
#
# Static dielectric constant tensor:
#      x y z
#    x 2.926940 0.000000 0.000000 
#    y 0.000000 3.214220 0.000000 
#    z 0.000000 0.000000 4.075450 
# 
# 
# High freq. dielectric constant tensor:
#      x y z
#    x 1.638850 0.000000 0.000000 
#    y 0.000000 1.684350 0.000000 
#    z 0.000000 0.000000 1.703850 
# 
# From -- ./inp_files/14049.got.cif
#   From: 2010.03.12/outbox.cif.g09.slc.cpg/sg59_8_cif.got.tgz:14049.got - 2010.04.16 16:29:54.
