data_PCOD8240325
_publ_section_title
;
Structure prediction by ZEFSAII (Michael W. Deem and Ramdas Pophale) SiO2 
 PCOD8240325
Probable space group: P M M N
;
_chemical_formula_sum "Si O2"
_cell_formula_units_Z 64
_cell_length_a 9.016343
_cell_length_b 24.642953
_cell_length_c 18.505703
_cell_angle_alpha 90.000000
_cell_angle_beta 90.000000
_cell_angle_gamma 90.000000
_cell_volume 4111.769506
_symmetry_space_group_name_H-M "P M M N"
_symmetry_group_IT_number 59
_space_group.IT_coordinate_system_code '2'
_symmetry_cell_setting 'orthorhombic'
loop_
_space_group_symop_operation_xyz
x,y,z
1/2-x,1/2-y,z
1/2+x,-y,-z
-x,1/2+y,-z
-x,-y,-z
1/2+x,1/2+y,-z
1/2-x,y,z
x,1/2-y,z
loop_
_atom_site_type_symbol
_atom_site_label
_atom_site_fract_x
_atom_site_fract_y
_atom_site_fract_z
Si Si1 0.078013 0.514445 0.887594
Si Si2 0.585748 0.076222 0.537387
Si Si3 0.925808 0.001574 0.739362
Si Si4 0.086473 0.454115 0.407186
Si Si5 0.075107 0.394211 0.675512
Si Si6 0.916731 0.313001 0.770651
Si Si7 0.920179 0.811228 0.082598
Si Si8 0.079754 0.080644 0.994815
O O1 0.250000 0.522244 0.869130
O O2 0.047352 0.455804 0.923737
O O3 0.983745 0.520936 0.814961
O O4 0.027388 0.562487 0.940849
O O5 0.750000 0.101998 0.539093
O O6 0.523340 0.082244 0.455674
O O7 0.480154 0.107690 0.592925
O O8 0.592928 0.014018 0.560087
O O9 0.750000 0.010768 0.741453
O O10 0.002710 0.058441 0.722771
O O11 0.967629 0.958307 0.676114
O O12 0.250000 0.427805 0.410695
O O13 0.250000 0.401632 0.676267
O O14 0.026868 0.338476 0.712317
O O15 0.750000 0.336766 0.764105
O O16 0.917681 0.250000 0.753678
O O17 0.974150 0.324785 0.850902
O O18 0.750000 0.816774 0.108602
O O19 0.950117 0.750000 0.052743
O O20 0.953838 0.856056 0.021274
O O21 0.250000 0.072028 0.018880
#
# Coordination Sequence:
#
# PCOD8240325 Si02
#       8
#     8   8   8   8   8   8   8   8
#     4  10  19  29  43  63  86 115 149 181 216 261
#     4   9  16  26  40  58  81 109 140 172 205 240
#     4  10  19  30  44  62  86 114 144 178 215 256
#     4   8  15  26  39  57  81 109 138 168 203 242
#     4  11  20  29  43  61  84 114 147 180 212 253
#     4  10  20  32  45  62  85 112 143 180 219 256
#     4   9  17  30  48  67  86 111 145 183 221 261
#     4   9  18  31  44  60  85 115 145 179 219 261
#
# _framework density 15.565073999999999
#
# number of rings (size 3 to 8) (size 9 to 14) (size 15 to 20)
#    0.000    2.500    0.000    4.125    0.000    6.250 
#    0.000    0.000    0.000    0.000    0.000    0.000 
#    0.000    1.000    0.000    8.250    0.000    4.125 
#
# Total GULP energy -793473.272437 kJ/mol
# GULP energy per Si atom -12398.019882 kJ/mol
# Density = 1.552965 g / cm^3
# Si number density = 15.565074 Si / 1000 Ang^3
#
#
#
# Elastic Constant Matrix: (Units=GPa)
#
#
# Indices 1 2 3 4 5 6 
#
# 1 103.9740 30.7906 54.2545 0.0000 0.0000 0.0000
# 2 30.7906 56.8409 34.8973 0.0000 0.0000 0.0000
# 3 54.2545 34.8973 103.1819 0.0000 0.0000 0.0000
# 4 0.0000 0.0000 0.0000 17.1660 0.0000 0.0000
# 5 0.0000 0.0000 0.0000 0.0000 29.8815 0.0000
# 6 0.0000 0.0000 0.0000 0.0000 0.0000 18.7021
#
#
#
# Elastic Compliance Matrix: (Units=1/GPa)
#
#
# Indices 1 2 3 4 5 6 
#
# 1 0.013887 -0.003836 -0.006005 0.000000 0.000000 0.000000
# 2 -0.003836 0.023263 -0.005851 0.000000 0.000000 0.000000
# 3 -0.006005 -0.005851 0.014828 0.000000 0.000000 0.000000
# 4 0.000000 0.000000 0.000000 0.058255 0.000000 0.000000
# 5 0.000000 0.000000 0.000000 0.000000 0.033465 0.000000
# 6 0.000000 0.000000 0.000000 0.000000 0.000000 0.053470
#
#
# Mechanical properties :
#
#
# Convention : Reuss Voigt Hill
#
# Bulk Modulus (GPa) = 48.55570 55.98685 52.27127
# Shear Modulus (GPa) = 21.23903 22.75356 21.99629
#
# Velocity S-wave (km/s) = 3.69796 3.82754 3.76331
# Velocity P-wave (km/s) = 7.03536 7.45527 7.24836
#
# Compressibility (1/GPa) = 0.02059491
#
# Stress axis : x y z
#
# Youngs Moduli (GPa) = 72.00954 42.98671 67.44119
#
# Poissons Ratio (x) = 0.16490 0.40496
# Poissons Ratio (y) = 0.27623 0.39458
# Poissons Ratio (z) = 0.43239 0.25151
#
# Static dielectric constant tensor:
#      x y z
#    x 3.169850 0.000000 0.000000 
#    y 0.000000 2.700720 0.000000 
#    z 0.000000 0.000000 2.991790 
# 
# 
# High freq. dielectric constant tensor:
#      x y z
#    x 1.613210 0.000000 0.000000 
#    y 0.000000 1.551230 0.000000 
#    z 0.000000 0.000000 1.589270 
# 
# From -- ./inp_files/26622.got.cif
#   From: 2010.03.12/outbox.cif.g09.slc.cpg/sg59_14_cif.got.tgz:26622.got - 2010.04.16 16:29:54.
