data_PCOD8240510
_publ_section_title
;
Structure prediction by ZEFSAII (Michael W. Deem and Ramdas Pophale) SiO2 
 PCOD8240510
Probable space group: P M M N
;
_chemical_formula_sum "Si O2"
_cell_formula_units_Z 64
_cell_length_a 14.418472
_cell_length_b 8.912673
_cell_length_c 28.391959
_cell_angle_alpha 90.000000
_cell_angle_beta 90.000000
_cell_angle_gamma 90.000000
_cell_volume 3648.569055
_symmetry_space_group_name_H-M "P M M N"
_symmetry_group_IT_number 59
_space_group.IT_coordinate_system_code '2'
_symmetry_cell_setting 'orthorhombic'
loop_
_space_group_symop_operation_xyz
x,y,z
1/2-x,1/2-y,z
1/2+x,-y,-z
-x,1/2+y,-z
-x,-y,-z
1/2+x,1/2+y,-z
1/2-x,y,z
x,1/2-y,z
loop_
_atom_site_type_symbol
_atom_site_label
_atom_site_fract_x
_atom_site_fract_y
_atom_site_fract_z
Si Si1 0.147217 0.571945 0.195551
Si Si2 0.977146 0.428371 0.889392
Si Si3 0.357444 0.423819 0.030647
Si Si4 0.353080 0.574372 0.568515
Si Si5 0.645238 0.427120 0.698953
Si Si6 0.355746 0.575117 0.931487
Si Si7 0.642805 0.924314 0.527294
Si Si8 0.966116 0.925700 0.617743
O O1 0.250000 0.510085 0.182634
O O2 0.150345 0.750000 0.193779
O O3 0.072429 0.511770 0.158119
O O4 0.120085 0.518944 0.248147
O O5 0.988904 0.250000 0.889522
O O6 0.916130 0.477735 0.933591
O O7 0.077664 0.507600 0.891202
O O8 0.250000 0.444472 0.043496
O O9 0.387534 0.250000 0.032965
O O10 0.378444 0.485552 0.978924
O O11 0.250000 0.512747 0.581547
O O12 0.349752 0.750000 0.559668
O O13 0.391257 0.504205 0.520197
O O14 0.424641 0.536352 0.610657
O O15 0.750000 0.479923 0.686059
O O16 0.638733 0.250000 0.695079
O O17 0.569404 0.496767 0.664720
O O18 0.250000 0.548774 0.915278
O O19 0.376169 0.750000 0.939793
O O20 0.750000 0.958930 0.536449
O O21 0.622103 0.750000 0.520711
O O22 0.588184 0.988778 0.572238
O O23 0.947992 0.750000 0.623123
#
# Coordination Sequence:
#
# PCOD8240510 Si02
#       8
#     8   8   8   8   8   8   8   8
#     4   8  16  32  52  74  99 124 150 184 231 285
#     4  11  20  31  52  76  98 127 162 199 241 290
#     4  10  20  33  49  72 103 134 165 201 238 282
#     4   9  18  31  45  63  90 124 161 196 227 265
#     4   9  18  33  52  73  96 121 151 188 229 278
#     4  10  21  36  51  68  96 133 169 204 240 279
#     4   9  17  28  42  63  92 122 152 189 233 279
#     4  10  19  30  46  68  94 124 155 190 235 280
#
# _framework density 17.541124
#
# number of rings (size 3 to 8) (size 9 to 14) (size 15 to 20)
#    0.000    2.500    0.000    3.375    0.000    3.750 
#    0.000    2.500    0.000    2.250    0.000    3.500 
#    0.000    0.000    0.000    0.000    0.000    0.000 
#
# Total GULP energy -793504.018552 kJ/mol
# GULP energy per Si atom -12398.500290 kJ/mol
# Density = 1.750120 g / cm^3
# Si number density = 17.541124 Si / 1000 Ang^3
#
#
#
# Elastic Constant Matrix: (Units=GPa)
#
#
# Indices 1 2 3 4 5 6 
#
# 1 108.5791 31.6250 75.2826 0.0000 0.0000 0.0000
# 2 31.6250 39.2459 24.9046 0.0000 0.0000 0.0000
# 3 75.2826 24.9046 101.7216 0.0000 0.0000 0.0000
# 4 0.0000 0.0000 0.0000 24.1226 0.0000 0.0000
# 5 0.0000 0.0000 0.0000 0.0000 32.4779 0.0000
# 6 0.0000 0.0000 0.0000 0.0000 0.0000 25.8847
#
#
#
# Elastic Compliance Matrix: (Units=1/GPa)
#
#
# Indices 1 2 3 4 5 6 
#
# 1 0.021003 -0.008359 -0.013497 0.000000 0.000000 0.000000
# 2 -0.008359 0.033495 -0.002014 0.000000 0.000000 0.000000
# 3 -0.013497 -0.002014 0.020313 0.000000 0.000000 0.000000
# 4 0.000000 0.000000 0.000000 0.041455 0.000000 0.000000
# 5 0.000000 0.000000 0.000000 0.000000 0.030790 0.000000
# 6 0.000000 0.000000 0.000000 0.000000 0.000000 0.038633
#
#
# Mechanical properties :
#
#
# Convention : Reuss Voigt Hill
#
# Bulk Modulus (GPa) = 36.94224 57.01901 46.98062
# Shear Modulus (GPa) = 20.62260 24.34599 22.48429
#
# Velocity S-wave (km/s) = 3.43253 3.72955 3.58411
# Velocity P-wave (km/s) = 6.06760 7.15000 6.63092
#
# Compressibility (1/GPa) = 0.02706928
#
# Stress axis : x y z
#
# Youngs Moduli (GPa) = 47.61243 29.85564 49.22971
#
# Poissons Ratio (x) = 0.24958 0.66447
# Poissons Ratio (y) = 0.39801 0.09914
# Poissons Ratio (z) = 0.64264 0.06012
#
# Static dielectric constant tensor:
#      x y z
#    x 3.549420 0.000000 0.000000 
#    y 0.000000 5.387460 0.000000 
#    z 0.000000 0.000000 3.262770 
# 
# 
# High freq. dielectric constant tensor:
#      x y z
#    x 1.684120 0.000000 0.000000 
#    y 0.000000 1.668020 0.000000 
#    z 0.000000 0.000000 1.657810 
# 
# From -- ./inp_files/32231.got.cif
#   From: 2010.03.12/outbox.cif.g09.slc.cpg/sg59_17_cif.got.tgz:32231.got - 2010.04.16 16:29:54.
