data_PCOD8240756
_publ_section_title
;
Structure prediction by ZEFSAII (Michael W. Deem and Ramdas Pophale) SiO2 
 PCOD8240756
Probable space group: P M M N
;
_chemical_formula_sum "Si O2"
_cell_formula_units_Z 64
_cell_length_a 17.687872
_cell_length_b 8.756918
_cell_length_c 23.233079
_cell_angle_alpha 90.000000
_cell_angle_beta 90.000000
_cell_angle_gamma 90.000000
_cell_volume 3598.600524
_symmetry_space_group_name_H-M "P M M N"
_symmetry_group_IT_number 59
_space_group.IT_coordinate_system_code '2'
_symmetry_cell_setting 'orthorhombic'
loop_
_space_group_symop_operation_xyz
x,y,z
1/2-x,1/2-y,z
1/2+x,-y,-z
-x,1/2+y,-z
-x,-y,-z
1/2+x,1/2+y,-z
1/2-x,y,z
x,1/2-y,z
loop_
_atom_site_type_symbol
_atom_site_label
_atom_site_fract_x
_atom_site_fract_y
_atom_site_fract_z
Si Si1 0.477887 0.568795 0.742698
Si Si2 0.666334 0.429551 0.546054
Si Si3 0.065122 0.429203 0.037609
Si Si4 0.334368 0.070315 0.936180
Si Si5 0.480503 0.069329 0.866288
Si Si6 0.331056 0.572961 0.681272
Si Si7 0.045443 0.572425 0.364792
Si Si8 0.913336 0.427446 0.432643
O O1 0.479098 0.750000 0.750530
O O2 0.494055 0.487290 0.802215
O O3 0.397278 0.502890 0.720511
O O4 0.539332 0.523014 0.694357
O O5 0.750000 0.503439 0.547246
O O6 0.672739 0.250000 0.535371
O O7 0.626846 0.464152 0.607156
O O8 0.617258 0.495199 0.492833
O O9 0.053312 0.250000 0.044695
O O10 0.054934 0.507641 0.099797
O O11 0.143171 0.464956 0.003148
O O12 0.000000 0.500000 0.000000
O O13 0.250000 0.999913 0.924059
O O14 0.330200 0.250000 0.926876
O O15 0.400133 0.006736 0.892911
O O16 0.481116 0.250000 0.869153
O O17 0.250000 0.495284 0.695826
O O18 0.327024 0.750000 0.696280
O O19 0.347045 0.550121 0.613939
O O20 0.035754 0.750000 0.350203
O O21 0.984867 0.525609 0.413074
O O22 0.937688 0.250000 0.436408
#
# Coordination Sequence:
#
# PCOD8240756 Si02
#       8
#     8   8   8   8   8   8   8   8
#     4  10  20  33  49  67  90 123 163 201 234 275
#     4   9  17  29  48  73  95 118 152 194 241 290
#     4   9  16  28  48  71  97 128 159 190 222 263
#     4   8  15  28  47  73 103 130 152 180 225 274
#     4  10  19  31  49  71  96 126 161 199 234 274
#     4   8  14  25  42  64  89 118 152 189 227 270
#     4  10  19  31  48  69  95 124 155 195 239 284
#     4   9  16  28  48  70  93 122 154 188 228 283
#
# _framework density 17.784690000000001
#
# number of rings (size 3 to 8) (size 9 to 14) (size 15 to 20)
#    0.000    2.875    0.000    3.750    0.000    2.000 
#    0.000    0.625    0.000   29.250    0.000    0.000 
#    0.000    0.000    0.000    0.000    0.000    0.000 
#
# Total GULP energy -792959.933163 kJ/mol
# GULP energy per Si atom -12389.998956 kJ/mol
# Density = 1.774421 g / cm^3
# Si number density = 17.784690 Si / 1000 Ang^3
#
#
#
# Elastic Constant Matrix: (Units=GPa)
#
#
# Indices 1 2 3 4 5 6 
#
# 1 60.0526 14.3269 38.3831 0.0000 0.0000 0.0000
# 2 14.3269 44.7775 21.2116 0.0000 0.0000 0.0000
# 3 38.3831 21.2116 118.9976 0.0000 0.0000 0.0000
# 4 0.0000 0.0000 0.0000 25.9484 0.0000 0.0000
# 5 0.0000 0.0000 0.0000 0.0000 15.9790 0.0000
# 6 0.0000 0.0000 0.0000 0.0000 0.0000 15.1017
#
#
#
# Elastic Compliance Matrix: (Units=1/GPa)
#
#
# Indices 1 2 3 4 5 6 
#
# 1 0.021596 -0.003943 -0.006263 0.000000 0.000000 0.000000
# 2 -0.003943 0.025112 -0.003204 0.000000 0.000000 0.000000
# 3 -0.006263 -0.003204 0.010995 0.000000 0.000000 0.000000
# 4 0.000000 0.000000 0.000000 0.038538 0.000000 0.000000
# 5 0.000000 0.000000 0.000000 0.000000 0.062582 0.000000
# 6 0.000000 0.000000 0.000000 0.000000 0.000000 0.066218
#
#
# Mechanical properties :
#
#
# Convention : Reuss Voigt Hill
#
# Bulk Modulus (GPa) = 32.38121 41.29677 36.83899
# Shear Modulus (GPa) = 19.07264 21.39956 20.23610
#
# Velocity S-wave (km/s) = 3.27833 3.47256 3.37685
# Velocity P-wave (km/s) = 5.70761 6.27288 5.99691
#
# Compressibility (1/GPa) = 0.03088210
#
# Stress axis : x y z
#
# Youngs Moduli (GPa) = 46.30535 39.82131 90.95135
#
# Poissons Ratio (x) = 0.15701 0.56963
# Poissons Ratio (y) = 0.18258 0.29145
# Poissons Ratio (z) = 0.29001 0.12761
#
# Static dielectric constant tensor:
#      x y z
#    x 3.657460 0.000000 0.000000 
#    y 0.000000 3.124430 0.000000 
#    z 0.000000 0.000000 3.463440 
# 
# 
# High freq. dielectric constant tensor:
#      x y z
#    x 1.671260 0.000000 0.000000 
#    y 0.000000 1.661570 0.000000 
#    z 0.000000 0.000000 1.684860 
# 
# From -- ./inp_files/32303.got.cif
#   From: 2010.03.12/outbox.cif.g09.slc.cpg/sg59_17_cif.got.tgz:32303.got - 2010.04.16 16:29:54.
