data_PCOD8240050
_publ_section_title
;
Structure prediction by ZEFSAII (Michael W. Deem and Ramdas Pophale) SiO2 
 PCOD8240050
Probable space group: P M M N
;
_chemical_formula_sum "Si O2"
_cell_formula_units_Z 64
_cell_length_a 14.599469
_cell_length_b 18.404800
_cell_length_c 12.706145
_cell_angle_alpha 90.000000
_cell_angle_beta 90.000000
_cell_angle_gamma 90.000000
_cell_volume 3414.145063
_symmetry_space_group_name_H-M "P M M N"
_symmetry_group_IT_number 59
_space_group.IT_coordinate_system_code '2'
_symmetry_cell_setting 'orthorhombic'
loop_
_space_group_symop_operation_xyz
x,y,z
1/2-x,1/2-y,z
1/2+x,-y,-z
-x,1/2+y,-z
-x,-y,-z
1/2+x,1/2+y,-z
1/2-x,y,z
x,1/2-y,z
loop_
_atom_site_type_symbol
_atom_site_label
_atom_site_fract_x
_atom_site_fract_y
_atom_site_fract_z
Si Si1 0.850914 0.918282 0.741977
Si Si2 0.142080 0.168468 0.058167
Si Si3 0.496398 0.336393 0.595555
Si Si4 0.853309 0.546735 0.323287
Si Si5 0.098145 0.455110 0.908698
Si Si6 0.014990 0.562288 0.583532
Si Si7 0.852805 0.168480 0.766757
Si Si8 0.109883 0.538551 0.104940
O O1 0.750000 0.899189 0.694868
O O2 0.884243 0.856581 0.824005
O O3 0.923334 0.925123 0.649525
O O4 0.838511 0.993132 0.805556
O O5 0.250000 0.160104 0.040690
O O6 0.107488 0.250000 0.043118
O O7 0.091373 0.121417 0.969752
O O8 0.473890 0.250000 0.593159
O O9 0.407384 0.383611 0.629167
O O10 0.532623 0.362523 0.480362
O O11 0.576814 0.356094 0.676822
O O12 0.750000 0.547644 0.369343
O O13 0.844332 0.553519 0.197230
O O14 0.900068 0.467830 0.347264
O O15 0.996570 0.480055 0.879268
O O16 0.142907 0.514969 0.987921
O O17 0.000000 0.500000 0.500000
O O18 0.750000 0.160215 0.721699
O O19 0.873452 0.250000 0.802203
O O20 0.866704 0.122229 0.873273
#
# Coordination Sequence:
#
# PCOD8240050 Si02
#       8
#     8   8   8   8   8   8   8   8
#     4  10  19  34  57  79 104 141 181 228 276 316
#     4   9  19  33  50  79 113 144 182 220 263 327
#     4  10  22  40  59  82 113 143 183 235 283 334
#     4  11  22  37  56  81 115 151 184 221 272 335
#     4  10  19  32  54  81 110 147 181 218 264 321
#     4  10  21  37  55  80 109 141 186 234 277 330
#     4  10  20  35  57  82 107 139 180 229 282 325
#     4  10  18  32  55  79 108 138 181 226 264 315
#
# _framework density 18.745543000000001
#
# number of rings (size 3 to 8) (size 9 to 14) (size 15 to 20)
#    0.000    2.000    2.500    1.500    0.000    5.750 
#    0.000    0.000    0.000    0.000    0.000    0.000 
#    0.000    0.000    0.000    0.000    0.000    0.000 
#
# Total GULP energy -793252.362011 kJ/mol
# GULP energy per Si atom -12394.568156 kJ/mol
# Density = 1.870288 g / cm^3
# Si number density = 18.745543 Si / 1000 Ang^3
#
#
#
# Elastic Constant Matrix: (Units=GPa)
#
#
# Indices 1 2 3 4 5 6 
#
# 1 97.8937 44.3525 37.5238 0.0000 0.0000 0.0000
# 2 44.3525 113.0466 58.5859 0.0000 0.0000 0.0000
# 3 37.5238 58.5859 99.8603 0.0000 0.0000 0.0000
# 4 0.0000 0.0000 0.0000 22.7023 0.0000 0.0000
# 5 0.0000 0.0000 0.0000 0.0000 13.3034 0.0000
# 6 0.0000 0.0000 0.0000 0.0000 0.0000 18.0477
#
#
#
# Elastic Compliance Matrix: (Units=1/GPa)
#
#
# Indices 1 2 3 4 5 6 
#
# 1 0.012911 -0.003666 -0.002701 0.000000 0.000000 0.000000
# 2 -0.003666 0.013751 -0.006690 0.000000 0.000000 0.000000
# 3 -0.002701 -0.006690 0.014954 0.000000 0.000000 0.000000
# 4 0.000000 0.000000 0.000000 0.044048 0.000000 0.000000
# 5 0.000000 0.000000 0.000000 0.000000 0.075169 0.000000
# 6 0.000000 0.000000 0.000000 0.000000 0.000000 0.055409
#
#
# Mechanical properties :
#
#
# Convention : Reuss Voigt Hill
#
# Bulk Modulus (GPa) = 64.50489 65.74722 65.12606
# Shear Modulus (GPa) = 20.20012 22.16659 21.18335
#
# Velocity S-wave (km/s) = 3.28624 3.44248 3.36526
# Velocity P-wave (km/s) = 6.99175 7.13797 7.06524
#
# Compressibility (1/GPa) = 0.01550270
#
# Stress axis : x y z
#
# Youngs Moduli (GPa) = 77.45126 72.72056 66.87259
#
# Poissons Ratio (x) = 0.26658 0.18062
# Poissons Ratio (y) = 0.28393 0.44738
# Poissons Ratio (z) = 0.20919 0.48651
#
# Static dielectric constant tensor:
#      x y z
#    x 3.427150 0.000000 0.000000 
#    y 0.000000 3.574080 0.000000 
#    z 0.000000 0.000000 3.605550 
# 
# 
# High freq. dielectric constant tensor:
#      x y z
#    x 1.724620 0.000000 0.000000 
#    y 0.000000 1.720170 0.000000 
#    z 0.000000 0.000000 1.722580 
# 
# From -- ./inp_files/17257.got.cif
#   From: 2010.03.12/outbox.cif.g09.slc.cpg/sg59_9_cif.got.tgz:17257.got - 2010.04.16 16:29:54.
