data_PCOD8240146
_publ_section_title
;
Structure prediction by ZEFSAII (Michael W. Deem and Ramdas Pophale) SiO2 
 PCOD8240146
Probable space group: P M M N
;
_chemical_formula_sum "Si O2"
_cell_formula_units_Z 64
_cell_length_a 15.524201
_cell_length_b 8.982447
_cell_length_c 23.965882
_cell_angle_alpha 90.000000
_cell_angle_beta 90.000000
_cell_angle_gamma 90.000000
_cell_volume 3341.929910
_symmetry_space_group_name_H-M "P M M N"
_symmetry_group_IT_number 59
_space_group.IT_coordinate_system_code '2'
_symmetry_cell_setting 'orthorhombic'
loop_
_space_group_symop_operation_xyz
x,y,z
1/2-x,1/2-y,z
1/2+x,-y,-z
-x,1/2+y,-z
-x,-y,-z
1/2+x,1/2+y,-z
1/2-x,y,z
x,1/2-y,z
loop_
_atom_site_type_symbol
_atom_site_label
_atom_site_fract_x
_atom_site_fract_y
_atom_site_fract_z
Si Si1 0.153456 0.578990 0.861793
Si Si2 0.151606 0.078622 0.372272
Si Si3 0.083706 0.078309 0.251385
Si Si4 0.503500 0.073050 0.559923
Si Si5 0.903611 0.574425 0.248191
Si Si6 0.500415 0.073164 0.059833
Si Si7 0.156117 0.074371 0.133910
Si Si8 0.844652 0.573429 0.367241
O O1 0.250000 0.557864 0.885607
O O2 0.132559 0.750000 0.848315
O O3 0.145638 0.491122 0.804452
O O4 0.086368 0.520024 0.907881
O O5 0.250000 0.039704 0.387700
O O6 0.130853 0.250000 0.386848
O O7 0.139065 0.048954 0.306648
O O8 0.090009 0.973883 0.408255
O O9 0.053741 0.250000 0.247098
O O10 0.140715 0.032332 0.198315
O O11 0.001959 0.973072 0.250882
O O12 0.502099 0.250000 0.554286
O O13 0.419899 0.010819 0.593050
O O14 0.500000 0.000000 0.500000
O O15 0.898320 0.750000 0.243777
O O16 0.857773 0.515160 0.304286
O O17 0.497737 0.250000 0.053349
O O18 0.418378 0.009499 0.094058
O O19 0.500000 0.000000 0.000000
O O20 0.250000 0.009798 0.116434
O O21 0.155991 0.250000 0.127056
O O22 0.750000 0.520216 0.388288
O O23 0.850362 0.750000 0.367579
#
# Coordination Sequence:
#
# PCOD8240146 Si02
#       8
#     8   8   8   8   8   8   8   8
#     4  10  21  38  58  81 111 148 186 225 276 334
#     4  10  21  37  60  89 118 151 190 233 285 345
#     4  10  18  33  58  85 115 147 183 227 278 338
#     4  11  23  40  60  83 113 152 196 243 288 335
#     4  11  20  33  57  87 117 146 181 226 280 339
#     4  10  21  37  55  78 107 144 186 230 275 325
#     4   9  17  32  56  82 107 139 180 225 272 324
#     4   9  19  36  57  81 111 147 183 224 281 339
#
# _framework density 19.150611999999999
#
# number of rings (size 3 to 8) (size 9 to 14) (size 15 to 20)
#    0.000    2.000    2.500    1.500    0.000    4.000 
#    0.000    1.250    0.000    5.250    0.000    0.000 
#    0.000    0.000    0.000    0.000    0.000    0.000 
#
# Total GULP energy -793574.766478 kJ/mol
# GULP energy per Si atom -12399.605726 kJ/mol
# Density = 1.910702 g / cm^3
# Si number density = 19.150612 Si / 1000 Ang^3
#
#
#
# Elastic Constant Matrix: (Units=GPa)
#
#
# Indices 1 2 3 4 5 6 
#
# 1 168.1809 33.1537 78.7826 0.0000 0.0000 0.0000
# 2 33.1537 43.1894 41.2359 0.0000 0.0000 0.0000
# 3 78.7826 41.2359 158.3341 0.0000 0.0000 0.0000
# 4 0.0000 0.0000 0.0000 31.8579 0.0000 0.0000
# 5 0.0000 0.0000 0.0000 0.0000 16.2048 0.0000
# 6 0.0000 0.0000 0.0000 0.0000 0.0000 22.6300
#
#
#
# Elastic Compliance Matrix: (Units=1/GPa)
#
#
# Indices 1 2 3 4 5 6 
#
# 1 0.008061 -0.003139 -0.003193 0.000000 0.000000 0.000000
# 2 -0.003139 0.032039 -0.006782 0.000000 0.000000 0.000000
# 3 -0.003193 -0.006782 0.009671 0.000000 0.000000 0.000000
# 4 0.000000 0.000000 0.000000 0.031389 0.000000 0.000000
# 5 0.000000 0.000000 0.000000 0.000000 0.061710 0.000000
# 6 0.000000 0.000000 0.000000 0.000000 0.000000 0.044189
#
#
# Mechanical properties :
#
#
# Convention : Reuss Voigt Hill
#
# Bulk Modulus (GPa) = 42.47777 75.11652 58.79715
# Shear Modulus (GPa) = 22.61061 28.57401 25.59231
#
# Velocity S-wave (km/s) = 3.43982 3.86692 3.65961
# Velocity P-wave (km/s) = 6.16486 7.69719 6.97324
#
# Compressibility (1/GPa) = 0.02354173
#
# Stress axis : x y z
#
# Youngs Moduli (GPa) = 124.06058 31.21216 103.40203
#
# Poissons Ratio (x) = 0.09797 0.33019
# Poissons Ratio (y) = 0.38940 0.70130
# Poissons Ratio (z) = 0.39616 0.21169
#
# Static dielectric constant tensor:
#      x y z
#    x 3.873860 0.000000 0.000000 
#    y 0.000000 3.224560 0.000000 
#    z 0.000000 0.000000 3.588720 
# 
# 
# High freq. dielectric constant tensor:
#      x y z
#    x 1.761840 0.000000 0.000000 
#    y 0.000000 1.713440 0.000000 
#    z 0.000000 0.000000 1.746070 
# 
# From -- ./inp_files/31444.got.cif
#   From: 2010.03.12/outbox.cif.g09.slc.cpg/sg59_16_cif.got.tgz:31444.got - 2010.04.16 16:29:54.
