data_PCOD8240670
_publ_section_title
;
Structure prediction by ZEFSAII (Michael W. Deem and Ramdas Pophale) SiO2 
 PCOD8240670
Probable space group: P M M N
;
_chemical_formula_sum "Si O2"
_cell_formula_units_Z 64
_cell_length_a 24.362345
_cell_length_b 9.390905
_cell_length_c 15.197996
_cell_angle_alpha 90.000000
_cell_angle_beta 90.000000
_cell_angle_gamma 90.000000
_cell_volume 3477.065422
_symmetry_space_group_name_H-M "P M M N"
_symmetry_group_IT_number 59
_space_group.IT_coordinate_system_code '2'
_symmetry_cell_setting 'orthorhombic'
loop_
_space_group_symop_operation_xyz
x,y,z
1/2-x,1/2-y,z
1/2+x,-y,-z
-x,1/2+y,-z
-x,-y,-z
1/2+x,1/2+y,-z
1/2-x,y,z
x,1/2-y,z
loop_
_atom_site_type_symbol
_atom_site_label
_atom_site_fract_x
_atom_site_fract_y
_atom_site_fract_z
Si Si1 0.372778 0.091146 0.861655
Si Si2 0.814718 0.086958 0.986950
Si Si3 0.497898 0.407672 0.914570
Si Si4 0.976943 0.593757 0.766272
Si Si5 0.554716 0.414320 0.475018
Si Si6 0.598209 0.407056 0.291138
Si Si7 0.904017 0.087226 0.658420
Si Si8 0.189460 0.918598 0.210299
O O1 0.347408 0.250000 0.853677
O O2 0.437050 0.104413 0.877967
O O3 0.345078 0.010482 0.942599
O O4 0.362996 0.008965 0.768352
O O5 0.750000 0.072586 0.001027
O O6 0.833518 0.250000 0.001521
O O7 0.830306 0.034946 0.887716
O O8 0.522075 0.250000 0.932214
O O9 0.537968 0.488731 0.846632
O O10 0.500000 0.500000 0.000000
O O11 0.949899 0.750000 0.779605
O O12 0.954661 0.516691 0.679456
O O13 0.041652 0.611966 0.760607
O O14 0.500000 0.500000 0.500000
O O15 0.537135 0.250000 0.457725
O O16 0.585277 0.473879 0.387652
O O17 0.600553 0.423107 0.552707
O O18 0.625934 0.250000 0.300172
O O19 0.917007 0.250000 0.686675
O O20 0.851032 0.028971 0.711805
O O21 0.250000 0.983080 0.229792
O O22 0.193878 0.750000 0.211424
#
# Coordination Sequence:
#
# PCOD8240670 Si02
#       8
#     8   8   8   8   8   8   8   8
#     4  10  21  34  50  74 100 129 166 213 259 300
#     4   9  18  34  56  78 100 131 169 206 250 312
#     4  10  21  34  46  66  98 135 173 206 245 299
#     4  10  19  31  46  67  98 135 170 205 248 297
#     4  10  19  31  49  74 104 136 173 214 256 302
#     4   9  18  33  49  67  99 140 172 205 250 303
#     4  10  19  30  50  77 100 130 170 215 258 301
#     4   8  16  32  52  75 101 129 164 204 251 306
#
# _framework density 18.406327000000001
#
# number of rings (size 3 to 8) (size 9 to 14) (size 15 to 20)
#    0.000    2.500    1.250    1.875    1.750    2.750 
#    0.000    0.000    0.000    1.875    0.000    3.500 
#    0.000    0.000    0.000    0.000    0.000    0.000 
#
# Total GULP energy -793064.378017 kJ/mol
# GULP energy per Si atom -12391.630907 kJ/mol
# Density = 1.836443 g / cm^3
# Si number density = 18.406327 Si / 1000 Ang^3
#
#
#
# Elastic Constant Matrix: (Units=GPa)
#
#
# Indices 1 2 3 4 5 6 
#
# 1 35.9921 19.0519 26.2910 0.0000 0.0000 0.0000
# 2 19.0519 107.0622 54.7849 0.0000 0.0000 0.0000
# 3 26.2910 54.7849 139.7171 0.0000 0.0000 0.0000
# 4 0.0000 0.0000 0.0000 22.6719 0.0000 0.0000
# 5 0.0000 0.0000 0.0000 0.0000 22.9993 0.0000
# 6 0.0000 0.0000 0.0000 0.0000 0.0000 14.6670
#
#
#
# Elastic Compliance Matrix: (Units=1/GPa)
#
#
# Indices 1 2 3 4 5 6 
#
# 1 0.033166 -0.003388 -0.004912 0.000000 0.000000 0.000000
# 2 -0.003388 0.012031 -0.004080 0.000000 0.000000 0.000000
# 3 -0.004912 -0.004080 0.009682 0.000000 0.000000 0.000000
# 4 0.000000 0.000000 0.000000 0.044108 0.000000 0.000000
# 5 0.000000 0.000000 0.000000 0.000000 0.043480 0.000000
# 6 0.000000 0.000000 0.000000 0.000000 0.000000 0.068180
#
#
# Mechanical properties :
#
#
# Convention : Reuss Voigt Hill
#
# Bulk Modulus (GPa) = 33.20360 53.66968 43.43664
# Shear Modulus (GPa) = 20.37111 24.24387 22.30749
#
# Velocity S-wave (km/s) = 3.33039 3.63319 3.48508
# Velocity P-wave (km/s) = 5.73298 6.84264 6.31224
#
# Compressibility (1/GPa) = 0.03011722
#
# Stress axis : x y z
#
# Youngs Moduli (GPa) = 30.15170 83.11812 103.28972
#
# Poissons Ratio (x) = 0.28162 0.50739
# Poissons Ratio (y) = 0.10216 0.42142
# Poissons Ratio (z) = 0.14812 0.33912
#
# Static dielectric constant tensor:
#      x y z
#    x 3.043140 0.000000 0.000000 
#    y 0.000000 3.574170 0.000000 
#    z 0.000000 0.000000 3.659920 
# 
# 
# High freq. dielectric constant tensor:
#      x y z
#    x 1.667750 0.000000 0.000000 
#    y 0.000000 1.708680 0.000000 
#    z 0.000000 0.000000 1.723080 
# 
# From -- ./inp_files/21864.got.cif
#   From: 2010.03.12/outbox.cif.g09.slc.cpg/sg59_11_cif.got.tgz:21864.got - 2010.04.16 16:29:54.
