data_PCOD8240531
_publ_section_title
;
Structure prediction by ZEFSAII (Michael W. Deem and Ramdas Pophale) SiO2 
 PCOD8240531
Probable space group: P M M N
;
_chemical_formula_sum "Si O2"
_cell_formula_units_Z 64
_cell_length_a 19.735789
_cell_length_b 9.198054
_cell_length_c 20.147585
_cell_angle_alpha 90.000000
_cell_angle_beta 90.000000
_cell_angle_gamma 90.000000
_cell_volume 3657.408290
_symmetry_space_group_name_H-M "P M M N"
_symmetry_group_IT_number 59
_space_group.IT_coordinate_system_code '2'
_symmetry_cell_setting 'orthorhombic'
loop_
_space_group_symop_operation_xyz
x,y,z
1/2-x,1/2-y,z
1/2+x,-y,-z
-x,1/2+y,-z
-x,-y,-z
1/2+x,1/2+y,-z
1/2-x,y,z
x,1/2-y,z
loop_
_atom_site_type_symbol
_atom_site_label
_atom_site_fract_x
_atom_site_fract_y
_atom_site_fract_z
Si Si1 0.570924 0.419294 0.904138
Si Si2 0.098919 0.918312 0.244703
Si Si3 0.590087 0.082207 0.549867
Si Si4 0.066685 0.580147 0.877448
Si Si5 0.965127 0.416116 0.266958
Si Si6 0.828218 0.909305 0.650351
Si Si7 0.326766 0.922096 0.983152
Si Si8 0.041775 0.915252 0.588412
O O1 0.555265 0.250000 0.916323
O O2 0.605985 0.446537 0.833394
O O3 0.499040 0.501311 0.908436
O O4 0.625514 0.480034 0.957071
O O5 0.103276 0.750000 0.262532
O O6 0.158389 0.001608 0.282382
O O7 0.028748 0.978809 0.272510
O O8 0.597620 0.250000 0.569055
O O9 0.596433 0.057816 0.470041
O O10 0.649046 0.993293 0.584613
O O11 0.518710 0.027609 0.578160
O O12 0.054020 0.750000 0.889211
O O13 0.077843 0.542388 0.799088
O O14 0.135401 0.531009 0.914940
O O15 0.989954 0.250000 0.258982
O O16 0.925436 0.436441 0.337435
O O17 0.750000 0.887120 0.643028
O O18 0.863519 0.750000 0.654248
O O19 0.250000 0.988600 0.985468
O O20 0.320464 0.750000 0.988552
O O21 0.013827 0.750000 0.581737
#
# Coordination Sequence:
#
# PCOD8240531 Si02
#       8
#     8   8   8   8   8   8   8   8
#     4   9  18  31  49  72  98 127 159 201 248 292
#     4  10  19  30  46  70  94 118 156 198 236 282
#     4  10  19  30  47  71  94 120 159 198 233 278
#     4   9  17  29  49  74  97 127 165 201 239 288
#     4   9  16  28  47  70  98 125 149 186 238 287
#     4  11  23  36  48  63  91 131 165 194 236 289
#     4   9  17  30  48  70  97 129 165 203 243 289
#     4   9  17  29  47  70  98 125 149 189 241 286
#
# _framework density 17.498729999999998
#
# number of rings (size 3 to 8) (size 9 to 14) (size 15 to 20)
#    0.000    2.500    1.250    1.500    0.000    2.500 
#    0.000    1.250    0.000    2.250    0.000    3.500 
#    0.000    0.000    0.000    0.000    0.000    0.000 
#
# Total GULP energy -793059.816360 kJ/mol
# GULP energy per Si atom -12391.559631 kJ/mol
# Density = 1.745890 g / cm^3
# Si number density = 17.498730 Si / 1000 Ang^3
#
#
#
# Elastic Constant Matrix: (Units=GPa)
#
#
# Indices 1 2 3 4 5 6 
#
# 1 79.4992 29.8334 53.3616 0.0000 0.0000 0.0000
# 2 29.8334 76.6199 34.4239 0.0000 0.0000 0.0000
# 3 53.3616 34.4239 142.1748 0.0000 0.0000 0.0000
# 4 0.0000 0.0000 0.0000 18.6625 0.0000 0.0000
# 5 0.0000 0.0000 0.0000 0.0000 22.9242 0.0000
# 6 0.0000 0.0000 0.0000 0.0000 0.0000 17.5017
#
#
#
# Elastic Compliance Matrix: (Units=1/GPa)
#
#
# Indices 1 2 3 4 5 6 
#
# 1 0.018089 -0.004480 -0.005704 0.000000 0.000000 0.000000
# 2 -0.004480 0.015754 -0.002133 0.000000 0.000000 0.000000
# 3 -0.005704 -0.002133 0.009691 0.000000 0.000000 0.000000
# 4 0.000000 0.000000 0.000000 0.053583 0.000000 0.000000
# 5 0.000000 0.000000 0.000000 0.000000 0.043622 0.000000
# 6 0.000000 0.000000 0.000000 0.000000 0.000000 0.057137
#
#
# Mechanical properties :
#
#
# Convention : Reuss Voigt Hill
#
# Bulk Modulus (GPa) = 52.91322 59.28128 56.09725
# Shear Modulus (GPa) = 21.85198 23.86267 22.85732
#
# Velocity S-wave (km/s) = 3.53763 3.69681 3.61810
# Velocity P-wave (km/s) = 6.85496 7.22308 7.04143
#
# Compressibility (1/GPa) = 0.01889887
#
# Stress axis : x y z
#
# Youngs Moduli (GPa) = 55.28214 63.47498 103.18831
#
# Poissons Ratio (x) = 0.28439 0.58863
# Poissons Ratio (y) = 0.24769 0.22009
# Poissons Ratio (z) = 0.31535 0.13538
#
# Static dielectric constant tensor:
#      x y z
#    x 2.965410 0.000000 0.000000 
#    y 0.000000 3.414060 0.000000 
#    z 0.000000 0.000000 3.817660 
# 
# 
# High freq. dielectric constant tensor:
#      x y z
#    x 1.628860 0.000000 0.000000 
#    y 0.000000 1.671170 0.000000 
#    z 0.000000 0.000000 1.698100 
# 
# From -- ./inp_files/30912.got.cif
#   From: 2010.03.12/outbox.cif.g09.slc.cpg/sg59_16_cif.got.tgz:30912.got - 2010.04.16 16:29:54.
