data_PCOD8240304
_publ_section_title
;
Structure prediction by ZEFSAII (Michael W. Deem and Ramdas Pophale) SiO2 
 PCOD8240304
Probable space group: P M M N
;
_chemical_formula_sum "Si O2"
_cell_formula_units_Z 64
_cell_length_a 24.509332
_cell_length_b 8.970301
_cell_length_c 18.586308
_cell_angle_alpha 90.000000
_cell_angle_beta 90.000000
_cell_angle_gamma 90.000000
_cell_volume 4086.312918
_symmetry_space_group_name_H-M "P M M N"
_symmetry_group_IT_number 59
_space_group.IT_coordinate_system_code '2'
_symmetry_cell_setting 'orthorhombic'
loop_
_space_group_symop_operation_xyz
x,y,z
1/2-x,1/2-y,z
1/2+x,-y,-z
-x,1/2+y,-z
-x,-y,-z
1/2+x,1/2+y,-z
1/2-x,y,z
x,1/2-y,z
loop_
_atom_site_type_symbol
_atom_site_label
_atom_site_fract_x
_atom_site_fract_y
_atom_site_fract_z
Si Si1 0.495508 0.081071 0.759939
Si Si2 0.990075 0.075027 0.391094
Si Si3 0.312523 0.574851 0.435257
Si Si4 0.382536 0.585029 0.181814
Si Si5 0.065211 0.579459 0.042489
Si Si6 0.035512 0.579778 0.893269
Si Si7 0.914280 0.574948 0.502422
Si Si8 0.187294 0.417566 0.289343
O O1 0.479408 0.250000 0.740455
O O2 0.556177 0.068581 0.789818
O O3 0.490853 0.978965 0.690280
O O4 0.454564 0.021358 0.822535
O O5 0.979021 0.250000 0.394069
O O6 0.047797 0.035114 0.428860
O O7 0.940620 0.993590 0.431134
O O8 0.250000 0.528353 0.453664
O O9 0.320849 0.750000 0.442073
O O10 0.353959 0.493746 0.489076
O O11 0.327661 0.526676 0.354463
O O12 0.359926 0.750000 0.200246
O O13 0.382458 0.559016 0.095158
O O14 0.345298 0.461627 0.218313
O O15 0.042822 0.750000 0.052918
O O16 0.021084 0.458680 0.067388
O O17 0.080438 0.554941 0.957586
O O18 0.034433 0.750000 0.866814
O O19 0.908434 0.750000 0.491639
O O20 0.250000 0.429041 0.268383
O O21 0.171159 0.250000 0.312533
#
# Coordination Sequence:
#
# PCOD8240304 Si02
#       8
#     8   8   8   8   8   8   8   8
#     4  10  19  29  41  60  86 113 143 177 211 250
#     4  10  20  32  46  65  89 118 150 181 217 263
#     4  10  20  33  49  67  87 114 147 182 220 261
#     4   9  17  28  42  59  81 111 144 176 210 251
#     4   8  15  26  38  55  79 106 136 169 203 239
#     4   9  15  24  39  57  79 107 137 168 202 241
#     4  10  20  33  49  67  88 115 146 182 222 262
#     4  10  20  31  42  59  83 109 140 179 217 251
#
# _framework density 15.662039999999999
#
# number of rings (size 3 to 8) (size 9 to 14) (size 15 to 20)
#    0.000    2.500    0.000    3.750    0.000    8.000 
#    0.000    0.000    0.000    0.000    0.000    0.000 
#    0.000    1.000    0.000    5.250    0.000    5.000 
#
# Total GULP energy -793258.792943 kJ/mol
# GULP energy per Si atom -12394.668640 kJ/mol
# Density = 1.562639 g / cm^3
# Si number density = 15.662040 Si / 1000 Ang^3
#
#
#
# Elastic Constant Matrix: (Units=GPa)
#
#
# Indices 1 2 3 4 5 6 
#
# 1 53.0346 31.8505 26.1316 0.0000 0.0000 0.0000
# 2 31.8505 71.6248 28.1031 0.0000 0.0000 0.0000
# 3 26.1316 28.1031 82.7596 0.0000 0.0000 0.0000
# 4 0.0000 0.0000 0.0000 27.3056 0.0000 0.0000
# 5 0.0000 0.0000 0.0000 0.0000 19.6373 0.0000
# 6 0.0000 0.0000 0.0000 0.0000 0.0000 22.1854
#
#
#
# Elastic Compliance Matrix: (Units=1/GPa)
#
#
# Indices 1 2 3 4 5 6 
#
# 1 0.027564 -0.010202 -0.005239 0.000000 0.000000 0.000000
# 2 -0.010202 0.019883 -0.003531 0.000000 0.000000 0.000000
# 3 -0.005239 -0.003531 0.014936 0.000000 0.000000 0.000000
# 4 0.000000 0.000000 0.000000 0.036623 0.000000 0.000000
# 5 0.000000 0.000000 0.000000 0.000000 0.050923 0.000000
# 6 0.000000 0.000000 0.000000 0.000000 0.000000 0.045075
#
#
# Mechanical properties :
#
#
# Convention : Reuss Voigt Hill
#
# Bulk Modulus (GPa) = 40.91530 42.17660 41.54595
# Shear Modulus (GPa) = 20.73880 21.91459 21.32669
#
# Velocity S-wave (km/s) = 3.64283 3.74467 3.69410
# Velocity P-wave (km/s) = 6.62376 6.75902 6.69173
#
# Compressibility (1/GPa) = 0.02444074
#
# Stress axis : x y z
#
# Youngs Moduli (GPa) = 36.27957 50.29306 66.95045
#
# Poissons Ratio (x) = 0.51307 0.35076
# Poissons Ratio (y) = 0.37011 0.23639
# Poissons Ratio (z) = 0.19007 0.17757
#
# Static dielectric constant tensor:
#      x y z
#    x 2.722400 0.000000 0.000000 
#    y 0.000000 3.127620 0.000000 
#    z 0.000000 0.000000 3.161780 
# 
# 
# High freq. dielectric constant tensor:
#      x y z
#    x 1.549020 0.000000 0.000000 
#    y 0.000000 1.619250 0.000000 
#    z 0.000000 0.000000 1.600620 
# 
# From -- ./inp_files/28413.got.cif
#   From: 2010.03.12/outbox.cif.g09.slc.cpg/sg59_15_cif.got.tgz:28413.got - 2010.04.16 16:29:54.
