data_PCOD8240897
_publ_section_title
;
Structure prediction by ZEFSAII (Michael W. Deem and Ramdas Pophale) SiO2 
 PCOD8240897
Probable space group: P M M N
;
_chemical_formula_sum "Si O2"
_cell_formula_units_Z 48
_cell_length_a 10.219140
_cell_length_b 8.944807
_cell_length_c 29.573572
_cell_angle_alpha 90.000000
_cell_angle_beta 90.000000
_cell_angle_gamma 90.000000
_cell_volume 2703.268019
_symmetry_space_group_name_H-M "P M M N"
_symmetry_group_IT_number 59
_space_group.IT_coordinate_system_code '2'
_symmetry_cell_setting 'orthorhombic'
loop_
_space_group_symop_operation_xyz
x,y,z
1/2-x,1/2-y,z
1/2+x,-y,-z
-x,1/2+y,-z
-x,-y,-z
1/2+x,1/2+y,-z
1/2-x,y,z
x,1/2-y,z
loop_
_atom_site_type_symbol
_atom_site_label
_atom_site_fract_x
_atom_site_fract_y
_atom_site_fract_z
Si Si1 0.594354 0.916599 0.279072
Si Si2 0.250000 0.073095 0.954854
Si Si3 0.898365 0.072490 0.466135
Si Si4 0.904046 0.077194 0.189012
Si Si5 0.750000 0.928082 0.942538
Si Si6 0.998813 0.927637 0.101055
Si Si7 0.904874 0.084596 0.365707
O O1 0.750000 0.913481 0.281244
O O2 0.538773 0.750000 0.271675
O O3 0.548005 0.022128 0.238113
O O4 0.536798 0.979258 0.326381
O O5 0.250000 0.250000 0.954106
O O6 0.377872 0.013528 0.929069
O O7 0.250000 0.012575 0.005927
O O8 0.750000 0.019862 0.477470
O O9 0.906879 0.250000 0.469351
O O10 0.938286 0.020100 0.415448
O O11 0.000000 0.000000 0.500000
O O12 0.750000 0.051470 0.183148
O O13 0.942240 0.250000 0.183203
O O14 0.978526 0.977051 0.152514
O O15 0.750000 0.750000 0.940348
O O16 0.624946 0.991487 0.917669
O O17 0.015721 0.750000 0.098758
O O18 0.750000 0.096308 0.360705
O O19 0.965647 0.250000 0.359724
#
# Coordination Sequence:
#
# PCOD8240897 Si02
#       7
#     8   4   8   8   4   8   8
#     4   9  16  25  41  68  99 129 162 205 254 304
#     4   9  20  37  59  81 107 137 173 217 260 301
#     4   9  18  31  47  70 100 134 172 213 257 304
#     4  10  19  31  49  75 104 135 169 208 256 308
#     4  11  23  39  55  79 109 141 177 213 254 309
#     4  11  21  37  57  80 107 139 174 215 260 303
#     4   8  14  26  42  62  93 129 163 204 253 303
#
# _framework density 17.756285999999999
#
# number of rings (size 3 to 8) (size 9 to 14) (size 15 to 20)
#    0.000    2.500    0.833    3.250    0.000    3.667 
#    0.000    4.167    0.000    0.000    2.167    0.000 
#    0.000    0.000    0.000    0.000    0.000    0.000 
#
# Total GULP energy -595106.619850 kJ/mol
# GULP energy per Si atom -12398.054580 kJ/mol
# Density = 1.771587 g / cm^3
# Si number density = 17.756286 Si / 1000 Ang^3
#
#
#
# Elastic Constant Matrix: (Units=GPa)
#
#
# Indices 1 2 3 4 5 6 
#
# 1 78.4225 31.9972 53.8110 0.0000 0.0000 0.0000
# 2 31.9972 81.6707 50.9441 0.0000 0.0000 0.0000
# 3 53.8110 50.9441 155.4770 0.0000 0.0000 0.0000
# 4 0.0000 0.0000 0.0000 32.8843 0.0000 0.0000
# 5 0.0000 0.0000 0.0000 0.0000 16.8266 0.0000
# 6 0.0000 0.0000 0.0000 0.0000 0.0000 -24.6168
#
#
#
# Elastic Compliance Matrix: (Units=1/GPa)
#
#
# Indices 1 2 3 4 5 6 
#
# 1 0.017661 -0.003904 -0.004833 0.000000 0.000000 0.000000
# 2 -0.003904 0.016253 -0.003974 0.000000 0.000000 0.000000
# 3 -0.004833 -0.003974 0.009407 0.000000 0.000000 0.000000
# 4 0.000000 0.000000 0.000000 0.030410 0.000000 0.000000
# 5 0.000000 0.000000 0.000000 0.000000 0.059430 0.000000
# 6 0.000000 0.000000 0.000000 0.000000 0.000000 -0.040623
#
#
# Mechanical properties :
#
#
# Convention : Reuss Voigt Hill
#
# Bulk Modulus (GPa) = 55.87491 65.45274 60.66382
# Shear Modulus (GPa) = 40.34648 16.93999 28.64324
#
# Velocity S-wave (km/s) = 4.77197 3.09209 4.02074
# Velocity P-wave (km/s) = 7.86754 7.04910 7.46954
#
# Compressibility (1/GPa) = 0.01789712
#
# Stress axis : x y z
#
# Youngs Moduli (GPa) = 56.62258 61.52720 106.30649
#
# Poissons Ratio (x) = 0.24023 0.51379
# Poissons Ratio (y) = 0.22108 0.42248
# Poissons Ratio (z) = 0.27366 0.24452
#
# Static dielectric constant tensor:
#      x y z
#    x 2.773110 0.000000 0.000000 
#    y 0.000000 3.355290 0.000000 
#    z 0.000000 0.000000 3.631630 
# 
# 
# High freq. dielectric constant tensor:
#      x y z
#    x 1.635860 0.000000 0.000000 
#    y 0.000000 1.688010 0.000000 
#    z 0.000000 0.000000 1.704720 
# 
# From -- ./inp_files/32992.got.cif
#   From: 2010.03.12/outbox.cif.g09.slc.cpg/sg59_17_cif.got.tgz:32992.got - 2010.04.16 16:29:54.
