data_PCOD8240907
_publ_section_title
;
Structure prediction by ZEFSAII (Michael W. Deem and Ramdas Pophale) SiO2 
 PCOD8240907
Probable space group: P M M N
;
_chemical_formula_sum "Si O2"
_cell_formula_units_Z 64
_cell_length_a 9.305649
_cell_length_b 19.121539
_cell_length_c 18.821833
_cell_angle_alpha 90.000000
_cell_angle_beta 90.000000
_cell_angle_gamma 90.000000
_cell_volume 3349.125537
_symmetry_space_group_name_H-M "P M M N"
_symmetry_group_IT_number 59
_space_group.IT_coordinate_system_code '2'
_symmetry_cell_setting 'orthorhombic'
loop_
_space_group_symop_operation_xyz
x,y,z
1/2-x,1/2-y,z
1/2+x,-y,-z
-x,1/2+y,-z
-x,-y,-z
1/2+x,1/2+y,-z
1/2-x,y,z
x,1/2-y,z
loop_
_atom_site_type_symbol
_atom_site_label
_atom_site_fract_x
_atom_site_fract_y
_atom_site_fract_z
Si Si1 0.083190 0.978205 0.385361
Si Si2 0.581557 0.055190 0.771028
Si Si3 0.590184 0.913644 0.845469
Si Si4 0.090349 0.667229 0.744484
Si Si5 0.415053 0.594753 0.525942
Si Si6 0.086464 0.071761 0.992588
Si Si7 0.579669 0.167690 0.882104
Si Si8 0.906214 0.829317 0.617609
O O1 0.250000 0.999475 0.377847
O O2 0.016782 0.954608 0.308932
O O3 0.066552 0.915154 0.441885
O O4 0.997188 0.041034 0.421690
O O5 0.750000 0.057841 0.761404
O O6 0.533312 0.127983 0.808780
O O7 0.535570 0.991436 0.823047
O O8 0.750000 0.902247 0.813213
O O9 0.479560 0.856006 0.818017
O O10 0.594809 0.899086 0.928386
O O11 0.250000 0.635946 0.737718
O O12 0.096219 0.750000 0.740347
O O13 0.992324 0.633809 0.682219
O O14 0.250000 0.596082 0.548698
O O15 0.496755 0.666490 0.545976
O O16 0.250000 0.059257 0.963868
O O17 0.005049 0.129857 0.945775
O O18 0.000000 0.000000 0.000000
O O19 0.750000 0.158782 0.895880
O O20 0.537893 0.250000 0.877007
O O21 0.750000 0.865359 0.608146
O O22 0.882940 0.750000 0.638105
#
# Coordination Sequence:
#
# PCOD8240907 Si02
#       8
#     8   8   8   8   8   8   8   8
#     4   9  18  32  53  77 106 142 177 223 275 328
#     4   9  17  34  56  80 107 139 185 229 272 326
#     4  10  20  34  56  81 109 144 181 222 267 329
#     4  10  21  35  51  77 112 143 177 226 278 328
#     4  10  19  31  49  78 109 136 176 226 278 328
#     4  11  22  38  60  86 115 147 188 233 279 333
#     4  10  21  39  62  85 113 150 190 234 286 341
#     4  10  20  34  52  71  97 140 185 219 263 325
#
# _framework density 19.109466000000001
#
# number of rings (size 3 to 8) (size 9 to 14) (size 15 to 20)
#    0.000    2.125    1.250    2.250    0.000    4.750 
#    0.000    3.750    0.000    2.250    0.000    0.000 
#    0.000    0.000    0.000    0.000    0.000    0.000 
#
# Total GULP energy -792941.263574 kJ/mol
# GULP energy per Si atom -12389.707243 kJ/mol
# Density = 1.906597 g / cm^3
# Si number density = 19.109466 Si / 1000 Ang^3
#
#
#
# Elastic Constant Matrix: (Units=GPa)
#
#
# Indices 1 2 3 4 5 6 
#
# 1 113.7308 30.8318 46.1066 0.0000 0.0000 0.0000
# 2 30.8318 58.7189 44.0300 0.0000 0.0000 0.0000
# 3 46.1066 44.0300 123.7619 0.0000 0.0000 0.0000
# 4 0.0000 0.0000 0.0000 31.6321 0.0000 0.0000
# 5 0.0000 0.0000 0.0000 0.0000 28.5447 0.0000
# 6 0.0000 0.0000 0.0000 0.0000 0.0000 27.7752
#
#
#
# Elastic Compliance Matrix: (Units=1/GPa)
#
#
# Indices 1 2 3 4 5 6 
#
# 1 0.010903 -0.003654 -0.002762 0.000000 0.000000 0.000000
# 2 -0.003654 0.024451 -0.007338 0.000000 0.000000 0.000000
# 3 -0.002762 -0.007338 0.011719 0.000000 0.000000 0.000000
# 4 0.000000 0.000000 0.000000 0.031613 0.000000 0.000000
# 5 0.000000 0.000000 0.000000 0.000000 0.035033 0.000000
# 6 0.000000 0.000000 0.000000 0.000000 0.000000 0.036003
#
#
# Mechanical properties :
#
#
# Convention : Reuss Voigt Hill
#
# Bulk Modulus (GPa) = 51.10746 59.79427 55.45086
# Shear Modulus (GPa) = 27.21068 29.27328 28.24198
#
# Velocity S-wave (km/s) = 3.77760 3.91816 3.84852
# Velocity P-wave (km/s) = 6.76976 7.19914 6.98775
#
# Compressibility (1/GPa) = 0.01956661
#
# Stress axis : x y z
#
# Youngs Moduli (GPa) = 91.71860 40.89839 85.32882
#
# Poissons Ratio (x) = 0.14944 0.23567
# Poissons Ratio (y) = 0.33513 0.62610
# Poissons Ratio (z) = 0.25332 0.30009
#
# Static dielectric constant tensor:
#      x y z
#    x 3.801030 0.000000 0.000000 
#    y 0.000000 3.469900 0.000000 
#    z 0.000000 0.000000 3.783100 
# 
# 
# High freq. dielectric constant tensor:
#      x y z
#    x 1.740970 0.000000 0.000000 
#    y 0.000000 1.726680 0.000000 
#    z 0.000000 0.000000 1.744850 
# 
# From -- ./inp_files/26193.got.cif
#   From: 2010.03.12/outbox.cif.g09.slc.cpg/sg59_14_cif.got.tgz:26193.got - 2010.04.16 16:29:54.
