data_PCOD8240020
_publ_section_title
;
Structure prediction by ZEFSAII (Michael W. Deem and Ramdas Pophale) SiO2 
 PCOD8240020
Probable space group: P M M N
;
_chemical_formula_sum "Si O2"
_cell_formula_units_Z 48
_cell_length_a 18.075625
_cell_length_b 9.078971
_cell_length_c 15.890625
_cell_angle_alpha 90.000000
_cell_angle_beta 90.000000
_cell_angle_gamma 90.000000
_cell_volume 2607.779882
_symmetry_space_group_name_H-M "P M M N"
_symmetry_group_IT_number 59
_space_group.IT_coordinate_system_code '2'
_symmetry_cell_setting 'orthorhombic'
loop_
_space_group_symop_operation_xyz
x,y,z
1/2-x,1/2-y,z
1/2+x,-y,-z
-x,1/2+y,-z
-x,-y,-z
1/2+x,1/2+y,-z
1/2-x,y,z
x,1/2-y,z
loop_
_atom_site_type_symbol
_atom_site_label
_atom_site_fract_x
_atom_site_fract_y
_atom_site_fract_z
Si Si1 0.250000 0.075620 0.724795
Si Si2 0.960905 0.076089 0.684029
Si Si3 0.485657 0.581361 0.128747
Si Si4 0.115680 0.074713 0.610081
Si Si5 0.750000 0.924064 0.086046
Si Si6 0.890690 0.082346 0.032216
Si Si7 0.334859 0.923876 0.439927
O O1 0.250000 0.250000 0.728459
O O2 0.176338 0.019967 0.677675
O O3 0.250000 0.011196 0.819098
O O4 0.964162 0.250000 0.680629
O O5 0.957182 0.024028 0.780910
O O6 0.886879 0.020900 0.636805
O O7 0.035421 0.015499 0.639488
O O8 0.515134 0.750000 0.134300
O O9 0.551416 0.476013 0.100457
O O10 0.419241 0.569436 0.062942
O O11 0.117331 0.250000 0.600482
O O12 0.135673 0.004318 0.521806
O O13 0.750000 0.750000 0.086470
O O14 0.819623 0.981025 0.034865
O O15 0.871506 0.250000 0.055283
O O16 0.250000 0.968566 0.420251
O O17 0.341897 0.750000 0.454161
#
# Coordination Sequence:
#
# PCOD8240020 Si02
#       7
#     4   8   8   8   4   8   8
#     4   9  18  31  51  76  97 130 174 215 257 309
#     4   9  18  33  54  78  99 133 183 219 246 307
#     4   9  18  36  58  77 102 141 181 217 263 319
#     4  10  18  32  54  75  99 129 172 219 258 307
#     4  11  21  35  55  78 107 146 182 213 259 321
#     4  10  20  34  54  82 112 137 171 223 274 316
#     4  10  20  34  50  73 106 138 170 213 264 310
#
# _framework density 18.406461
#
# number of rings (size 3 to 8) (size 9 to 14) (size 15 to 20)
#    0.000    2.333    0.833    2.250    0.000    3.333 
#    1.500    5.000    0.000    0.000    0.000    0.000 
#    0.000    0.000    0.000    0.000    0.000    0.000 
#
# Total GULP energy -595193.537519 kJ/mol
# GULP energy per Si atom -12399.865365 kJ/mol
# Density = 1.836457 g / cm^3
# Si number density = 18.406461 Si / 1000 Ang^3
#
#
#
# Elastic Constant Matrix: (Units=GPa)
#
#
# Indices 1 2 3 4 5 6 
#
# 1 147.8837 36.1053 88.2527 0.0000 0.0000 0.0000
# 2 36.1053 51.0556 41.4993 0.0000 0.0000 0.0000
# 3 88.2527 41.4993 109.8277 0.0000 0.0000 0.0000
# 4 0.0000 0.0000 0.0000 26.4069 0.0000 0.0000
# 5 0.0000 0.0000 0.0000 0.0000 26.6557 0.0000
# 6 0.0000 0.0000 0.0000 0.0000 0.0000 23.2745
#
#
#
# Elastic Compliance Matrix: (Units=1/GPa)
#
#
# Indices 1 2 3 4 5 6 
#
# 1 0.013029 -0.001016 -0.010086 0.000000 0.000000 0.000000
# 2 -0.001016 0.028348 -0.009895 0.000000 0.000000 0.000000
# 3 -0.010086 -0.009895 0.020948 0.000000 0.000000 0.000000
# 4 0.000000 0.000000 0.000000 0.037869 0.000000 0.000000
# 5 0.000000 0.000000 0.000000 0.000000 0.037515 0.000000
# 6 0.000000 0.000000 0.000000 0.000000 0.000000 0.042965
#
#
# Mechanical properties :
#
#
# Convention : Reuss Voigt Hill
#
# Bulk Modulus (GPa) = 49.18351 71.16461 60.17406
# Shear Modulus (GPa) = 21.79166 24.79475 23.29320
#
# Velocity S-wave (km/s) = 3.44454 3.67422 3.56123
# Velocity P-wave (km/s) = 6.52676 7.53304 7.04788
#
# Compressibility (1/GPa) = 0.02033202
#
# Stress axis : x y z
#
# Youngs Moduli (GPa) = 76.75274 35.27587 47.73621
#
# Poissons Ratio (x) = 0.03584 0.48145
# Poissons Ratio (y) = 0.07797 0.47236
# Poissons Ratio (z) = 0.77409 0.34906
#
# Static dielectric constant tensor:
#      x y z
#    x 3.828080 0.000000 0.000000 
#    y 0.000000 3.193250 0.000000 
#    z 0.000000 0.000000 3.570100 
# 
# 
# High freq. dielectric constant tensor:
#      x y z
#    x 1.721630 0.000000 0.000000 
#    y 0.000000 1.687670 0.000000 
#    z 0.000000 0.000000 1.719730 
# 
# From -- ./inp_files/23690.got.cif
#   From: 2010.03.12/outbox.cif.g09.slc.cpg/sg59_12_cif.got.tgz:23690.got - 2010.04.16 16:29:54.
