data_PCOD8240355
_publ_section_title
;
Structure prediction by ZEFSAII (Michael W. Deem and Ramdas Pophale) SiO2 
 PCOD8240355
Probable space group: P M M N
;
_chemical_formula_sum "Si O2"
_cell_formula_units_Z 48
_cell_length_a 9.352401
_cell_length_b 13.667044
_cell_length_c 23.675542
_cell_angle_alpha 90.000000
_cell_angle_beta 90.000000
_cell_angle_gamma 90.000000
_cell_volume 3026.200107
_symmetry_space_group_name_H-M "P M M N"
_symmetry_group_IT_number 59
_space_group.IT_coordinate_system_code '2'
_symmetry_cell_setting 'orthorhombic'
loop_
_space_group_symop_operation_xyz
x,y,z
1/2-x,1/2-y,z
1/2+x,-y,-z
-x,1/2+y,-z
-x,-y,-z
1/2+x,1/2+y,-z
1/2-x,y,z
x,1/2-y,z
loop_
_atom_site_type_symbol
_atom_site_label
_atom_site_fract_x
_atom_site_fract_y
_atom_site_fract_z
Si Si1 0.080754 0.641877 0.189943
Si Si2 0.916190 0.138595 0.026049
Si Si3 0.086571 0.639999 0.516113
Si Si4 0.584155 0.364132 0.683051
Si Si5 0.417128 0.520533 0.085328
Si Si6 0.416899 0.049011 0.583161
O O1 0.250000 0.649472 0.183784
O O2 0.015853 0.750000 0.178628
O O3 0.040814 0.607171 0.253010
O O4 0.021711 0.565783 0.143655
O O5 0.750000 0.128434 0.039962
O O6 0.967866 0.250000 0.027631
O O7 0.951468 0.097416 0.964132
O O8 0.001838 0.080699 0.074184
O O9 0.250000 0.627076 0.495332
O O10 0.059221 0.750000 0.538687
O O11 0.053544 0.564068 0.566523
O O12 0.984812 0.620841 0.463091
O O13 0.750000 0.386838 0.671612
O O14 0.552481 0.250000 0.671718
O O15 0.488565 0.432039 0.643341
O O16 0.250000 0.497340 0.089345
O O17 0.250000 0.072683 0.587117
#
# Coordination Sequence:
#
# PCOD8240355 Si02
#       6
#     8   8   8   8   8   8
#     4   8  14  26  45  66  85 109 143 177 208 248
#     4   9  17  28  42  62  89 117 141 170 214 263
#     4   9  18  32  47  62  84 115 145 171 205 251
#     4   9  17  29  45  64  87 115 142 169 208 257
#     4   9  16  27  45  66  85 109 144 182 213 245
#     4  10  19  29  44  67  90 111 139 176 212 246
#
# _framework density 15.861476
#
# number of rings (size 3 to 8) (size 9 to 14) (size 15 to 20)
#    0.000    3.000    0.000    2.500    0.000    5.667 
#    0.000    0.833    0.000    3.500    0.000    4.667 
#    0.000    0.000    0.000    0.000    0.000    0.000 
#
# Total GULP energy -595114.937353 kJ/mol
# GULP energy per Si atom -12398.227862 kJ/mol
# Density = 1.582537 g / cm^3
# Si number density = 15.861476 Si / 1000 Ang^3
#
#
#
# Elastic Constant Matrix: (Units=GPa)
#
#
# Indices 1 2 3 4 5 6 
#
# 1 55.3190 46.3578 48.8507 0.0000 0.0000 0.0000
# 2 46.3578 119.2115 65.4708 0.0000 0.0000 0.0000
# 3 48.8507 65.4708 118.6328 0.0000 0.0000 0.0000
# 4 0.0000 0.0000 0.0000 24.9065 0.0000 0.0000
# 5 0.0000 0.0000 0.0000 0.0000 23.9801 0.0000
# 6 0.0000 0.0000 0.0000 0.0000 0.0000 24.5710
#
#
#
# Elastic Compliance Matrix: (Units=1/GPa)
#
#
# Indices 1 2 3 4 5 6 
#
# 1 0.032601 -0.007612 -0.009224 0.000000 0.000000 0.000000
# 2 -0.007612 0.013814 -0.004489 0.000000 0.000000 0.000000
# 3 -0.009224 -0.004489 0.014705 0.000000 0.000000 0.000000
# 4 0.000000 0.000000 0.000000 0.040150 0.000000 0.000000
# 5 0.000000 0.000000 0.000000 0.000000 0.041701 0.000000
# 6 0.000000 0.000000 0.000000 0.000000 0.000000 0.040698
#
#
# Mechanical properties :
#
#
# Convention : Reuss Voigt Hill
#
# Bulk Modulus (GPa) = 54.14055 68.28023 61.21039
# Shear Modulus (GPa) = 21.50760 23.52377 22.51569
#
# Velocity S-wave (km/s) = 3.68634 3.85525 3.77174
# Velocity P-wave (km/s) = 7.23369 7.93464 7.59226
#
# Compressibility (1/GPa) = 0.01847044
#
# Stress axis : x y z
#
# Youngs Moduli (GPa) = 30.67397 72.39056 68.00445
#
# Poissons Ratio (x) = 0.55103 0.62724
# Poissons Ratio (y) = 0.23349 0.30528
# Poissons Ratio (z) = 0.28292 0.32497
#
# Static dielectric constant tensor:
#      x y z
#    x 2.881290 0.000000 0.000000 
#    y 0.000000 3.056430 0.000000 
#    z 0.000000 0.000000 3.038960 
# 
# 
# High freq. dielectric constant tensor:
#      x y z
#    x 1.595320 0.000000 0.000000 
#    y 0.000000 1.601220 0.000000 
#    z 0.000000 0.000000 1.599750 
# 
# From -- ./inp_files/31272.got.cif
#   From: 2010.03.12/outbox.cif.g09.slc.cpg/sg59_16_cif.got.tgz:31272.got - 2010.04.16 16:29:54.
