data_PCOD8240735
_publ_section_title
;
Structure prediction by ZEFSAII (Michael W. Deem and Ramdas Pophale) SiO2 
 PCOD8240735
Probable space group: P M M N
;
_chemical_formula_sum "Si O2"
_cell_formula_units_Z 64
_cell_length_a 9.398259
_cell_length_b 28.250024
_cell_length_c 15.327224
_cell_angle_alpha 90.000000
_cell_angle_beta 90.000000
_cell_angle_gamma 90.000000
_cell_volume 4069.393948
_symmetry_space_group_name_H-M "P M M N"
_symmetry_group_IT_number 59
_space_group.IT_coordinate_system_code '2'
_symmetry_cell_setting 'orthorhombic'
loop_
_space_group_symop_operation_xyz
x,y,z
1/2-x,1/2-y,z
1/2+x,-y,-z
-x,1/2+y,-z
-x,-y,-z
1/2+x,1/2+y,-z
1/2-x,y,z
x,1/2-y,z
loop_
_atom_site_type_symbol
_atom_site_label
_atom_site_fract_x
_atom_site_fract_y
_atom_site_fract_z
Si Si1 0.092951 0.193866 0.516063
Si Si2 0.413367 0.051237 0.912357
Si Si3 0.913508 0.446218 0.083396
Si Si4 0.583369 0.149597 0.167981
Si Si5 0.415375 0.805487 0.321113
Si Si6 0.416312 0.304812 0.321062
Si Si7 0.086359 0.146135 0.830917
Si Si8 0.587375 0.694790 0.987751
O O1 0.250000 0.173672 0.538560
O O2 0.100050 0.250000 0.515911
O O3 0.046614 0.177829 0.419151
O O4 0.981905 0.175618 0.588158
O O5 0.250000 0.053354 0.941343
O O6 0.441043 0.089466 0.836013
O O7 0.455315 0.998383 0.879592
O O8 0.499638 0.066276 0.997351
O O9 0.750000 0.445076 0.055023
O O10 0.944635 0.406569 0.156026
O O11 0.750000 0.161560 0.171792
O O12 0.510893 0.163362 0.258319
O O13 0.516212 0.178882 0.088980
O O14 0.250000 0.817283 0.323561
O O15 0.445155 0.750000 0.308341
O O16 0.484859 0.833185 0.241950
O O17 0.250000 0.312370 0.300946
O O18 0.457010 0.250000 0.307202
O O19 0.250000 0.157881 0.807270
O O20 0.044778 0.168497 0.923564
O O21 0.750000 0.683047 0.961195
O O22 0.566241 0.750000 0.004468
#
# Coordination Sequence:
#
# PCOD8240735 Si02
#       8
#     8   8   8   8   8   8   8   8
#     4   8  15  30  50  68  87 115 152 192 228 261
#     4   9  17  31  50  67  84 113 154 195 232 269
#     4   9  18  31  46  66  91 116 146 190 238 275
#     4  11  21  30  43  66  95 124 151 183 228 278
#     4  10  20  31  45  68  97 125 150 181 225 275
#     4   9  18  32  49  68  91 121 157 193 224 260
#     4  10  19  31  48  67  87 118 159 194 224 264
#     4  10  20  32  44  60  87 123 161 194 219 253
#
# _framework density 15.727157
#
# number of rings (size 3 to 8) (size 9 to 14) (size 15 to 20)
#    0.000    2.500    1.250    2.250    0.000    5.250 
#    0.000    1.250    0.000    0.000    0.000    0.875 
#    0.000    0.000    0.000    0.000    0.000    0.000 
#
# Total GULP energy -793460.326514 kJ/mol
# GULP energy per Si atom -12397.817602 kJ/mol
# Density = 1.569136 g / cm^3
# Si number density = 15.727157 Si / 1000 Ang^3
#
#
#
# Elastic Constant Matrix: (Units=GPa)
#
#
# Indices 1 2 3 4 5 6 
#
# 1 87.6099 46.3324 68.7585 0.0000 0.0000 0.0000
# 2 46.3324 75.8093 47.6832 0.0000 0.0000 0.0000
# 3 68.7585 47.6832 111.7188 0.0000 0.0000 0.0000
# 4 0.0000 0.0000 0.0000 8.3139 0.0000 0.0000
# 5 0.0000 0.0000 0.0000 0.0000 24.6123 0.0000
# 6 0.0000 0.0000 0.0000 0.0000 0.0000 20.1507
#
#
#
# Elastic Compliance Matrix: (Units=1/GPa)
#
#
# Indices 1 2 3 4 5 6 
#
# 1 0.024944 -0.007640 -0.012091 0.000000 0.000000 0.000000
# 2 -0.007640 0.020372 -0.003993 0.000000 0.000000 0.000000
# 3 -0.012091 -0.003993 0.018097 0.000000 0.000000 0.000000
# 4 0.000000 0.000000 0.000000 0.120280 0.000000 0.000000
# 5 0.000000 0.000000 0.000000 0.000000 0.040630 0.000000
# 6 0.000000 0.000000 0.000000 0.000000 0.000000 0.049626
#
#
# Mechanical properties :
#
#
# Convention : Reuss Voigt Hill
#
# Bulk Modulus (GPa) = 62.63816 66.74291 64.69053
# Shear Modulus (GPa) = 15.30367 18.10630 16.70499
#
# Velocity S-wave (km/s) = 3.12280 3.39673 3.26264
# Velocity P-wave (km/s) = 7.27440 7.61011 7.44415
#
# Compressibility (1/GPa) = 0.01596471
#
# Stress axis : x y z
#
# Youngs Moduli (GPa) = 40.08948 49.08759 55.25754
#
# Poissons Ratio (x) = 0.37502 0.66814
# Poissons Ratio (y) = 0.30628 0.22064
# Poissons Ratio (z) = 0.48474 0.19600
#
# Static dielectric constant tensor:
#      x y z
#    x 3.116500 0.000000 0.000000 
#    y 0.000000 3.085080 0.000000 
#    z 0.000000 0.000000 2.989770 
# 
# 
# High freq. dielectric constant tensor:
#      x y z
#    x 1.609690 0.000000 0.000000 
#    y 0.000000 1.588860 0.000000 
#    z 0.000000 0.000000 1.588350 
# 
# From -- ./inp_files/21848.got.cif
#   From: 2010.03.12/outbox.cif.g09.slc.cpg/sg59_11_cif.got.tgz:21848.got - 2010.04.16 16:29:54.
