data_PCOD8240812
_publ_section_title
;
Structure prediction by ZEFSAII (Michael W. Deem and Ramdas Pophale) SiO2 
 PCOD8240812
Probable space group: P M M N
;
_chemical_formula_sum "Si O2"
_cell_formula_units_Z 64
_cell_length_a 23.156207
_cell_length_b 8.875073
_cell_length_c 18.922727
_cell_angle_alpha 90.000000
_cell_angle_beta 90.000000
_cell_angle_gamma 90.000000
_cell_volume 3888.866915
_symmetry_space_group_name_H-M "P M M N"
_symmetry_group_IT_number 59
_space_group.IT_coordinate_system_code '2'
_symmetry_cell_setting 'orthorhombic'
loop_
_space_group_symop_operation_xyz
x,y,z
1/2-x,1/2-y,z
1/2+x,-y,-z
-x,1/2+y,-z
-x,-y,-z
1/2+x,1/2+y,-z
1/2-x,y,z
x,1/2-y,z
loop_
_atom_site_type_symbol
_atom_site_label
_atom_site_fract_x
_atom_site_fract_y
_atom_site_fract_z
Si Si1 0.183910 0.573658 0.102775
Si Si2 0.522011 0.575456 0.390118
Si Si3 0.499337 0.572457 0.749767
Si Si4 0.982156 0.574721 0.108966
Si Si5 0.585003 0.925480 0.971269
Si Si6 0.815299 0.577324 0.623066
Si Si7 0.079450 0.422663 0.468762
Si Si8 0.375848 0.926015 0.249364
O O1 0.250000 0.520450 0.100148
O O2 0.178216 0.750000 0.087527
O O3 0.149852 0.483064 0.041748
O O4 0.158083 0.530148 0.178593
O O5 0.520045 0.750000 0.369973
O O6 0.535536 0.482457 0.319284
O O7 0.571476 0.539133 0.448236
O O8 0.459812 0.530011 0.421002
O O9 0.498714 0.750000 0.752860
O O10 0.466359 0.508654 0.818457
O O11 0.564954 0.516752 0.746451
O O12 0.989543 0.750000 0.124640
O O13 0.043406 0.516269 0.080952
O O14 0.931678 0.541530 0.052560
O O15 0.578742 0.750000 0.953564
O O16 0.750000 0.537152 0.601516
O O17 0.820950 0.750000 0.648816
O O18 0.854287 0.550272 0.553288
O O19 0.834806 0.469350 0.685978
O O20 0.060080 0.250000 0.454751
O O21 0.390281 0.750000 0.252428
#
# Coordination Sequence:
#
# PCOD8240812 Si02
#       8
#     8   8   8   8   8   8   8   8
#     4  10  21  35  50  69  99 138 174 206 240 283
#     4  10  19  31  49  70  95 129 162 199 247 292
#     4  12  22  32  49  74 100 129 164 203 250 296
#     4  10  20  34  51  72  99 129 162 200 247 300
#     4  10  20  33  51  74  98 128 164 205 247 290
#     4  10  20  33  49  70  98 132 167 204 241 281
#     4   9  18  32  48  69  97 128 163 201 240 290
#     4  11  21  33  48  69  98 135 173 204 236 281
#
# _framework density 16.457236000000002
#
# number of rings (size 3 to 8) (size 9 to 14) (size 15 to 20)
#    0.000    1.750    2.500    3.000    0.000    3.500 
#    0.000    0.000    0.000    0.000    0.000    0.875 
#    0.000    5.000    0.000    0.000    0.000    0.000 
#
# Total GULP energy -793753.583661 kJ/mol
# GULP energy per Si atom -12402.399745 kJ/mol
# Density = 1.641978 g / cm^3
# Si number density = 16.457236 Si / 1000 Ang^3
#
#
#
# Elastic Constant Matrix: (Units=GPa)
#
#
# Indices 1 2 3 4 5 6 
#
# 1 81.3097 31.7457 54.7118 0.0000 0.0000 0.0000
# 2 31.7457 86.1000 57.5992 0.0000 0.0000 0.0000
# 3 54.7118 57.5992 127.8225 0.0000 0.0000 0.0000
# 4 0.0000 0.0000 0.0000 28.7404 0.0000 0.0000
# 5 0.0000 0.0000 0.0000 0.0000 21.9561 0.0000
# 6 0.0000 0.0000 0.0000 0.0000 0.0000 21.3609
#
#
#
# Elastic Compliance Matrix: (Units=1/GPa)
#
#
# Indices 1 2 3 4 5 6 
#
# 1 0.017527 -0.002067 -0.006571 0.000000 0.000000 0.000000
# 2 -0.002067 0.016870 -0.006717 0.000000 0.000000 0.000000
# 3 -0.006571 -0.006717 0.013663 0.000000 0.000000 0.000000
# 4 0.000000 0.000000 0.000000 0.034794 0.000000 0.000000
# 5 0.000000 0.000000 0.000000 0.000000 0.045545 0.000000
# 6 0.000000 0.000000 0.000000 0.000000 0.000000 0.046814
#
#
# Mechanical properties :
#
#
# Convention : Reuss Voigt Hill
#
# Bulk Modulus (GPa) = 57.63596 64.81621 61.22608
# Shear Modulus (GPa) = 23.61753 24.48986 24.05369
#
# Velocity S-wave (km/s) = 3.79236 3.86176 3.82722
# Velocity P-wave (km/s) = 7.36707 7.70418 7.53751
#
# Compressibility (1/GPa) = 0.01735028
#
# Stress axis : x y z
#
# Youngs Moduli (GPa) = 57.05523 59.27605 73.19110
#
# Poissons Ratio (x) = 0.12250 0.48092
# Poissons Ratio (y) = 0.11791 0.49166
# Poissons Ratio (z) = 0.37490 0.39819
#
# Static dielectric constant tensor:
#      x y z
#    x 2.965540 0.000000 0.000000 
#    y 0.000000 3.176900 0.000000 
#    z 0.000000 0.000000 3.300510 
# 
# 
# High freq. dielectric constant tensor:
#      x y z
#    x 1.601580 0.000000 0.000000 
#    y 0.000000 1.645880 0.000000 
#    z 0.000000 0.000000 1.632700 
# 
# From -- ./inp_files/26491.got.cif
#   From: 2010.03.12/outbox.cif.g09.slc.cpg/sg59_14_cif.got.tgz:26491.got - 2010.04.16 16:29:54.
