data_PCOD8240872
_publ_section_title
;
Structure prediction by ZEFSAII (Michael W. Deem and Ramdas Pophale) SiO2 
 PCOD8240872
Probable space group: P M M N
;
_chemical_formula_sum "Si O2"
_cell_formula_units_Z 56
_cell_length_a 13.637140
_cell_length_b 15.027760
_cell_length_c 13.566374
_cell_angle_alpha 90.000000
_cell_angle_beta 90.000000
_cell_angle_gamma 90.000000
_cell_volume 2780.233905
_symmetry_space_group_name_H-M "P M M N"
_symmetry_group_IT_number 59
_space_group.IT_coordinate_system_code '2'
_symmetry_cell_setting 'orthorhombic'
loop_
_space_group_symop_operation_xyz
x,y,z
1/2-x,1/2-y,z
1/2+x,-y,-z
-x,1/2+y,-z
-x,-y,-z
1/2+x,1/2+y,-z
1/2-x,y,z
x,1/2-y,z
loop_
_atom_site_type_symbol
_atom_site_label
_atom_site_fract_x
_atom_site_fract_y
_atom_site_fract_z
Si Si1 0.519338 0.155749 0.621128
Si Si2 0.464408 0.354499 0.311386
Si Si3 0.359524 0.350777 0.947474
Si Si4 0.136852 0.463281 0.139138
Si Si5 0.446244 0.647303 0.165650
Si Si6 0.140625 0.617125 0.553179
Si Si7 0.642736 0.580044 0.498926
O O1 0.470738 0.250000 0.650004
O O2 0.571135 0.121303 0.719854
O O3 0.593866 0.177754 0.531620
O O4 0.430988 0.092516 0.591265
O O5 0.458708 0.250000 0.281649
O O6 0.433705 0.417988 0.220966
O O7 0.574719 0.379632 0.347538
O O8 0.391243 0.372438 0.401700
O O9 0.250000 0.372123 0.906150
O O10 0.363931 0.250000 0.987552
O O11 0.439251 0.364656 0.861576
O O12 0.386240 0.414387 0.037484
O O13 0.250000 0.450356 0.171229
O O14 0.116595 0.568318 0.115710
O O15 0.410932 0.750000 0.141194
O O16 0.250000 0.648216 0.583343
O O17 0.144187 0.525441 0.492077
O O18 0.750000 0.617735 0.472510
#
# Coordination Sequence:
#
# PCOD8240872 Si02
#       7
#     8   8   8   8   8   8   8
#     4  10  20  32  48  72 102 136 175 219 266 320
#     4  11  22  35  54  80 111 147 188 233 278 326
#     4   9  19  37  61  87 112 140 177 223 278 338
#     4  11  22  37  58  83 113 147 185 230 278 330
#     4  10  21  37  57  82 112 145 184 229 276 329
#     4  10  20  35  54  75 105 146 187 228 275 327
#     4  10  19  31  49  73 103 138 177 225 276 326
#
# _framework density 20.142189999999999
#
# number of rings (size 3 to 8) (size 9 to 14) (size 15 to 20)
#    0.000    1.857    0.000    6.429    0.000    6.286 
#    0.000    3.571    0.000    0.857    0.000    2.000 
#    0.000    0.000    0.000    0.000    0.000    0.000 
#
# Total GULP energy -693764.594690 kJ/mol
# GULP energy per Si atom -12388.653477 kJ/mol
# Density = 2.009635 g / cm^3
# Si number density = 20.142190 Si / 1000 Ang^3
#
#
#
# Elastic Constant Matrix: (Units=GPa)
#
#
# Indices 1 2 3 4 5 6 
#
# 1 114.6553 26.9880 26.1433 0.0000 0.0000 0.0000
# 2 26.9880 105.1726 19.3249 0.0000 0.0000 0.0000
# 3 26.1433 19.3249 57.2193 0.0000 0.0000 0.0000
# 4 0.0000 0.0000 0.0000 26.4923 0.0000 0.0000
# 5 0.0000 0.0000 0.0000 0.0000 19.5477 0.0000
# 6 0.0000 0.0000 0.0000 0.0000 0.0000 51.7204
#
#
#
# Elastic Compliance Matrix: (Units=1/GPa)
#
#
# Indices 1 2 3 4 5 6 
#
# 1 0.010064 -0.001852 -0.003972 0.000000 0.000000 0.000000
# 2 -0.001852 0.010478 -0.002692 0.000000 0.000000 0.000000
# 3 -0.003972 -0.002692 0.020201 0.000000 0.000000 0.000000
# 4 0.000000 0.000000 0.000000 0.037747 0.000000 0.000000
# 5 0.000000 0.000000 0.000000 0.000000 0.051157 0.000000
# 6 0.000000 0.000000 0.000000 0.000000 0.000000 0.019335
#
#
# Mechanical properties :
#
#
# Convention : Reuss Voigt Hill
#
# Bulk Modulus (GPa) = 42.17965 46.88441 44.53203
# Shear Modulus (GPa) = 28.74907 33.19149 30.97028
#
# Velocity S-wave (km/s) = 3.78207 4.06379 3.92546
# Velocity P-wave (km/s) = 6.32918 6.73397 6.53471
#
# Compressibility (1/GPa) = 0.02370811
#
# Stress axis : x y z
#
# Youngs Moduli (GPa) = 99.36797 95.43563 49.50271
#
# Poissons Ratio (x) = 0.17679 0.19664
# Poissons Ratio (y) = 0.18408 0.13328
# Poissons Ratio (z) = 0.39473 0.25696
#
# Static dielectric constant tensor:
#      x y z
#    x 3.803710 0.000000 0.000000 
#    y 0.000000 3.892910 0.000000 
#    z 0.000000 0.000000 3.428210 
# 
# 
# High freq. dielectric constant tensor:
#      x y z
#    x 1.780380 0.000000 0.000000 
#    y 0.000000 1.807840 0.000000 
#    z 0.000000 0.000000 1.758820 
# 
# From -- ./inp_files/23305.got.cif
#   From: 2010.03.12/outbox.cif.g09.slc.cpg/sg59_12_cif.got.tgz:23305.got - 2010.04.16 16:29:54.
