data_PCOD8240451
_publ_section_title
;
Structure prediction by ZEFSAII (Michael W. Deem and Ramdas Pophale) SiO2 
 PCOD8240451
Probable space group: P M M N
;
_chemical_formula_sum "Si O2"
_cell_formula_units_Z 64
_cell_length_a 25.182328
_cell_length_b 9.152849
_cell_length_c 17.832139
_cell_angle_alpha 90.000000
_cell_angle_beta 90.000000
_cell_angle_gamma 90.000000
_cell_volume 4110.130532
_symmetry_space_group_name_H-M "P M M N"
_symmetry_group_IT_number 59
_space_group.IT_coordinate_system_code '2'
_symmetry_cell_setting 'orthorhombic'
loop_
_space_group_symop_operation_xyz
x,y,z
1/2-x,1/2-y,z
1/2+x,-y,-z
-x,1/2+y,-z
-x,-y,-z
1/2+x,1/2+y,-z
1/2-x,y,z
x,1/2-y,z
loop_
_atom_site_type_symbol
_atom_site_label
_atom_site_fract_x
_atom_site_fract_y
_atom_site_fract_z
Si Si1 0.813416 0.086188 0.499186
Si Si2 0.607937 0.076297 0.086302
Si Si3 0.493814 0.079388 0.921684
Si Si4 0.188856 0.577672 0.208297
Si Si5 0.186925 0.411919 0.642142
Si Si6 0.813098 0.914166 0.642937
Si Si7 0.312078 0.419280 0.809737
Si Si8 0.889509 0.418805 0.916399
O O1 0.750000 0.084444 0.499274
O O2 0.835276 0.250000 0.506459
O O3 0.835746 0.020018 0.421270
O O4 0.835871 0.993452 0.568987
O O5 0.601210 0.250000 0.090208
O O6 0.554815 0.000127 0.121294
O O7 0.658345 0.025747 0.133355
O O8 0.615501 0.017703 0.000821
O O9 0.480784 0.250000 0.932630
O O10 0.551193 0.058889 0.881496
O O11 0.500000 0.000000 0.000000
O O12 0.250000 0.538977 0.191174
O O13 0.180803 0.750000 0.219267
O O14 0.168154 0.500993 0.283683
O O15 0.153773 0.511992 0.139978
O O16 0.250000 0.406332 0.638333
O O17 0.164374 0.250000 0.626028
O O18 0.170031 0.463241 0.725371
O O19 0.750000 0.912708 0.639106
O O20 0.835829 0.750000 0.645679
O O21 0.250000 0.447149 0.821234
O O22 0.326051 0.250000 0.825292
O O23 0.875579 0.250000 0.923437
#
# Coordination Sequence:
#
# PCOD8240451 Si02
#       8
#     8   8   8   8   8   8   8   8
#     4   9  15  22  35  55  76 101 136 172 204 240
#     4  10  19  30  45  65  86 110 144 182 220 259
#     4   9  16  29  47  64  83 106 137 179 223 262
#     4   9  16  27  42  58  80 110 141 172 206 246
#     4   8  14  25  39  54  76 107 139 170 205 245
#     4   9  16  25  36  52  77 107 137 168 203 243
#     4   9  18  31  44  60  86 119 149 175 210 256
#     4   8  16  29  44  62  82 108 142 177 214 255
#
# _framework density 15.571282
#
# number of rings (size 3 to 8) (size 9 to 14) (size 15 to 20)
#    0.000    3.125    0.000    3.000    0.000    4.250 
#    0.000    6.250    0.000    1.500    0.000    0.000 
#    0.000    1.000    0.000    3.000    0.000    4.375 
#
# Total GULP energy -793107.164035 kJ/mol
# GULP energy per Si atom -12392.299438 kJ/mol
# Density = 1.553584 g / cm^3
# Si number density = 15.571282 Si / 1000 Ang^3
#
#
#
# Elastic Constant Matrix: (Units=GPa)
#
#
# Indices 1 2 3 4 5 6 
#
# 1 54.0235 34.2157 42.7402 0.0000 0.0000 0.0000
# 2 34.2157 88.8483 50.5424 0.0000 0.0000 0.0000
# 3 42.7402 50.5424 107.0895 0.0000 0.0000 0.0000
# 4 0.0000 0.0000 0.0000 25.7743 0.0000 0.0000
# 5 0.0000 0.0000 0.0000 0.0000 1.5231 0.0000
# 6 0.0000 0.0000 0.0000 0.0000 0.0000 18.3512
#
#
#
# Elastic Compliance Matrix: (Units=1/GPa)
#
#
# Indices 1 2 3 4 5 6 
#
# 1 0.029472 -0.006368 -0.008757 0.000000 0.000000 0.000000
# 2 -0.006368 0.016762 -0.005369 0.000000 0.000000 0.000000
# 3 -0.008757 -0.005369 0.015367 0.000000 0.000000 0.000000
# 4 0.000000 0.000000 0.000000 0.038798 0.000000 0.000000
# 5 0.000000 0.000000 0.000000 0.000000 0.656550 0.000000
# 6 0.000000 0.000000 0.000000 0.000000 0.000000 0.054492
#
#
# Mechanical properties :
#
#
# Convention : Reuss Voigt Hill
#
# Bulk Modulus (GPa) = 48.51588 56.10643 52.31116
# Shear Modulus (GPa) = 5.81868 17.29391 11.55629
#
# Velocity S-wave (km/s) = 1.93518 3.33622 2.72721
# Velocity P-wave (km/s) = 6.01815 7.13798 6.60185
#
# Compressibility (1/GPa) = 0.02061181
#
# Stress axis : x y z
#
# Youngs Moduli (GPa) = 33.93097 59.65852 65.07419
#
# Poissons Ratio (x) = 0.37992 0.56984
# Poissons Ratio (y) = 0.21608 0.34942
# Poissons Ratio (z) = 0.29713 0.32034
#
# Static dielectric constant tensor:
#      x y z
#    x 3.115210 0.000000 0.000000 
#    y 0.000000 3.059860 0.000000 
#    z 0.000000 0.000000 3.152260 
# 
# 
# High freq. dielectric constant tensor:
#      x y z
#    x 1.549270 0.000000 0.000000 
#    y 0.000000 1.599160 0.000000 
#    z 0.000000 0.000000 1.590270 
# 
# From -- ./inp_files/28532.got.cif
#   From: 2010.03.12/outbox.cif.g09.slc.cpg/sg59_15_cif.got.tgz:28532.got - 2010.04.16 16:29:54.
