data_PCOD8240773
_publ_section_title
;
Structure prediction by ZEFSAII (Michael W. Deem and Ramdas Pophale) SiO2 
 PCOD8240773
Probable space group: P M M N
;
_chemical_formula_sum "Si O2"
_cell_formula_units_Z 48
_cell_length_a 14.341186
_cell_length_b 9.072742
_cell_length_c 18.007630
_cell_angle_alpha 90.000000
_cell_angle_beta 90.000000
_cell_angle_gamma 90.000000
_cell_volume 2343.042619
_symmetry_space_group_name_H-M "P M M N"
_symmetry_group_IT_number 59
_space_group.IT_coordinate_system_code '2'
_symmetry_cell_setting 'orthorhombic'
loop_
_space_group_symop_operation_xyz
x,y,z
1/2-x,1/2-y,z
1/2+x,-y,-z
-x,1/2+y,-z
-x,-y,-z
1/2+x,1/2+y,-z
1/2-x,y,z
x,1/2-y,z
loop_
_atom_site_type_symbol
_atom_site_label
_atom_site_fract_x
_atom_site_fract_y
_atom_site_fract_z
Si Si1 0.151447 0.584236 0.814646
Si Si2 0.958071 0.422050 0.608193
Si Si3 0.380502 0.085812 0.956123
Si Si4 0.857703 0.920811 0.476479
Si Si5 0.043523 0.075566 0.241059
Si Si6 0.408122 0.915698 0.094920
O O1 0.250000 0.577347 0.769344
O O2 0.128188 0.750000 0.840933
O O3 0.169793 0.489522 0.887503
O O4 0.065699 0.529425 0.765024
O O5 0.941284 0.250000 0.620407
O O6 0.067650 0.453795 0.589461
O O7 0.924437 0.507210 0.681528
O O8 0.888140 0.477358 0.544678
O O9 0.341884 0.250000 0.965270
O O10 0.489021 0.087399 0.937921
O O11 0.350656 0.000871 0.031509
O O12 0.750000 0.957124 0.452780
O O13 0.866211 0.750000 0.500290
O O14 0.060970 0.250000 0.241148
O O15 0.099428 0.003554 0.172603
O O16 0.369803 0.750000 0.107135
#
# Coordination Sequence:
#
# PCOD8240773 Si02
#       6
#     8   8   8   8   8   8
#     4   9  18  31  45  64  94 133 174 214 258 307
#     4  10  20  34  54  82 112 140 175 218 262 313
#     4   9  16  26  42  64  88 117 157 202 246 295
#     4   9  19  37  59  81 107 141 178 215 258 310
#     4  10  19  31  48  71 101 135 170 210 255 305
#     4   9  16  27  44  65  89 119 157 201 247 294
#
# _framework density 20.486183
#
# number of rings (size 3 to 8) (size 9 to 14) (size 15 to 20)
#    0.000    2.667    0.000    2.000    0.000    6.667 
#    0.000    0.000    0.000    1.000    0.000    0.000 
#    0.000    0.000    0.000    0.000    0.000    0.000 
#
# Total GULP energy -594769.199638 kJ/mol
# GULP energy per Si atom -12391.024992 kJ/mol
# Density = 2.043956 g / cm^3
# Si number density = 20.486183 Si / 1000 Ang^3
#
#
#
# Elastic Constant Matrix: (Units=GPa)
#
#
# Indices 1 2 3 4 5 6 
#
# 1 45.9075 0.3035 -12.7499 0.0000 0.0000 0.0000
# 2 0.3035 114.2326 48.1322 0.0000 0.0000 0.0000
# 3 -12.7499 48.1322 96.5461 0.0000 0.0000 0.0000
# 4 0.0000 0.0000 0.0000 35.5267 0.0000 0.0000
# 5 0.0000 0.0000 0.0000 0.0000 2.4692 0.0000
# 6 0.0000 0.0000 0.0000 0.0000 0.0000 10.4063
#
#
#
# Elastic Compliance Matrix: (Units=1/GPa)
#
#
# Indices 1 2 3 4 5 6 
#
# 1 0.022866 -0.001688 0.003861 0.000000 0.000000 0.000000
# 2 -0.001688 0.011207 -0.005810 0.000000 0.000000 0.000000
# 3 0.003861 -0.005810 0.013764 0.000000 0.000000 0.000000
# 4 0.000000 0.000000 0.000000 0.028148 0.000000 0.000000
# 5 0.000000 0.000000 0.000000 0.000000 0.404994 0.000000
# 6 0.000000 0.000000 0.000000 0.000000 0.000000 0.096096
#
#
# Mechanical properties :
#
#
# Convention : Reuss Voigt Hill
#
# Bulk Modulus (GPa) = 24.65216 36.45086 30.55151
# Shear Modulus (GPa) = 8.36304 24.41379 16.38841
#
# Velocity S-wave (km/s) = 2.02266 3.45587 2.83145
# Velocity P-wave (km/s) = 4.18504 5.80996 5.06311
#
# Compressibility (1/GPa) = 0.04056439
#
# Stress axis : x y z
#
# Youngs Moduli (GPa) = 43.73220 89.23381 72.65303
#
# Poissons Ratio (x) = 0.15059 -0.28052
# Poissons Ratio (y) = 0.07380 0.42210
# Poissons Ratio (z) = -0.16885 0.51843
#
# Static dielectric constant tensor:
#      x y z
#    x 3.520210 0.000000 0.000000 
#    y 0.000000 3.851760 0.000000 
#    z 0.000000 0.000000 3.475960 
# 
# 
# High freq. dielectric constant tensor:
#      x y z
#    x 1.785050 0.000000 0.000000 
#    y 0.000000 1.809320 0.000000 
#    z 0.000000 0.000000 1.781330 
# 
# From -- ./inp_files/27770.got.cif
#   From: 2010.03.12/outbox.cif.g09.slc.cpg/sg59_14_cif.got.tgz:27770.got - 2010.04.16 16:29:54.
