data_PCOD8240782
_publ_section_title
;
Structure prediction by ZEFSAII (Michael W. Deem and Ramdas Pophale) SiO2 
 PCOD8240782
Probable space group: P M M N
;
_chemical_formula_sum "Si O2"
_cell_formula_units_Z 56
_cell_length_a 9.151130
_cell_length_b 22.609668
_cell_length_c 14.868891
_cell_angle_alpha 90.000000
_cell_angle_beta 90.000000
_cell_angle_gamma 90.000000
_cell_volume 3076.433189
_symmetry_space_group_name_H-M "P M M N"
_symmetry_group_IT_number 59
_space_group.IT_coordinate_system_code '2'
_symmetry_cell_setting 'orthorhombic'
loop_
_space_group_symop_operation_xyz
x,y,z
1/2-x,1/2-y,z
1/2+x,-y,-z
-x,1/2+y,-z
-x,-y,-z
1/2+x,1/2+y,-z
1/2-x,y,z
x,1/2-y,z
loop_
_atom_site_type_symbol
_atom_site_label
_atom_site_fract_x
_atom_site_fract_y
_atom_site_fract_z
Si Si1 0.419670 0.092367 0.203053
Si Si2 0.417613 0.183515 0.060314
Si Si3 0.418561 0.316049 0.703267
Si Si4 0.577723 0.546031 0.614709
Si Si5 0.578523 0.573390 0.415136
Si Si6 0.077134 0.849264 0.118946
Si Si7 0.581594 0.018591 0.911526
O O1 0.250000 0.107408 0.203369
O O2 0.490611 0.141985 0.137929
O O3 0.476989 0.090855 0.306237
O O4 0.454379 0.027230 0.166707
O O5 0.250000 0.164633 0.038975
O O6 0.424153 0.250000 0.097466
O O7 0.510850 0.179730 0.969981
O O8 0.250000 0.327537 0.728369
O O9 0.438349 0.250000 0.661538
O O10 0.472431 0.365379 0.631566
O O11 0.512560 0.318162 0.793607
O O12 0.750000 0.534572 0.623697
O O13 0.535892 0.576746 0.520632
O O14 0.502778 0.482352 0.628368
O O15 0.750000 0.563098 0.403233
O O16 0.250000 0.839730 0.117782
O O17 0.030240 0.917729 0.122969
O O18 0.750000 0.019398 0.937588
O O19 0.500000 0.000000 0.000000
#
# Coordination Sequence:
#
# PCOD8240782 Si02
#       7
#     8   8   8   8   8   8   8
#     4   9  17  31  50  72  99 128 161 201 243 292
#     4  10  20  34  51  69  95 135 174 204 241 294
#     4  10  21  36  52  72 102 140 176 209 251 304
#     4   9  17  32  55  78 102 131 161 203 259 306
#     4   9  18  33  53  78 103 129 164 207 252 302
#     4  11  22  34  51  76 101 130 170 212 255 300
#     4  10  19  31  48  71  98 128 161 200 247 291
#
# _framework density 18.202898000000001
#
# number of rings (size 3 to 8) (size 9 to 14) (size 15 to 20)
#    0.000    2.286    1.429    1.714    0.000    4.571 
#    0.000    2.143    0.000    4.286    0.000    0.000 
#    0.000    3.429    0.000    0.000    0.000    0.000 
#
# Total GULP energy -694224.360031 kJ/mol
# GULP energy per Si atom -12396.863572 kJ/mol
# Density = 1.816147 g / cm^3
# Si number density = 18.202898 Si / 1000 Ang^3
#
#
#
# Elastic Constant Matrix: (Units=GPa)
#
#
# Indices 1 2 3 4 5 6 
#
# 1 37.2580 28.0470 31.1610 0.0000 0.0000 0.0000
# 2 28.0470 116.8850 56.1148 0.0000 0.0000 0.0000
# 3 31.1610 56.1148 122.6010 0.0000 0.0000 0.0000
# 4 0.0000 0.0000 0.0000 24.9499 0.0000 0.0000
# 5 0.0000 0.0000 0.0000 0.0000 18.9500 0.0000
# 6 0.0000 0.0000 0.0000 0.0000 0.0000 23.3556
#
#
#
# Elastic Compliance Matrix: (Units=1/GPa)
#
#
# Indices 1 2 3 4 5 6 
#
# 1 0.036691 -0.005546 -0.006787 0.000000 0.000000 0.000000
# 2 -0.005546 0.011803 -0.003993 0.000000 0.000000 0.000000
# 3 -0.006787 -0.003993 0.011709 0.000000 0.000000 0.000000
# 4 0.000000 0.000000 0.000000 0.040080 0.000000 0.000000
# 5 0.000000 0.000000 0.000000 0.000000 0.052771 0.000000
# 6 0.000000 0.000000 0.000000 0.000000 0.000000 0.042816
#
#
# Mechanical properties :
#
#
# Convention : Reuss Voigt Hill
#
# Bulk Modulus (GPa) = 36.29530 56.37661 46.33596
# Shear Modulus (GPa) = 21.03438 24.21250 22.62344
#
# Velocity S-wave (km/s) = 3.40303 3.65107 3.52923
# Velocity P-wave (km/s) = 5.95175 6.98658 6.48982
#
# Compressibility (1/GPa) = 0.02755178
#
# Stress axis : x y z
#
# Youngs Moduli (GPa) = 27.25444 84.72449 85.40330
#
# Poissons Ratio (x) = 0.46985 0.57967
# Poissons Ratio (y) = 0.15114 0.34099
# Poissons Ratio (z) = 0.18499 0.33828
#
# Static dielectric constant tensor:
#      x y z
#    x 3.090320 0.000000 0.000000 
#    y 0.000000 3.514330 0.000000 
#    z 0.000000 0.000000 3.440430 
# 
# 
# High freq. dielectric constant tensor:
#      x y z
#    x 1.684140 0.000000 0.000000 
#    y 0.000000 1.707350 0.000000 
#    z 0.000000 0.000000 1.706250 
# 
# From -- ./inp_files/20912.got.cif
#   From: 2010.03.12/outbox.cif.g09.slc.cpg/sg59_11_cif.got.tgz:20912.got - 2010.04.16 16:29:54.
