data_PCOD8240070
_publ_section_title
;
Structure prediction by ZEFSAII (Michael W. Deem and Ramdas Pophale) SiO2 
 PCOD8240070
Probable space group: P M M N
;
_chemical_formula_sum "Si O2"
_cell_formula_units_Z 64
_cell_length_a 9.144143
_cell_length_b 23.975990
_cell_length_c 15.331084
_cell_angle_alpha 90.000000
_cell_angle_beta 90.000000
_cell_angle_gamma 90.000000
_cell_volume 3361.185034
_symmetry_space_group_name_H-M "P M M N"
_symmetry_group_IT_number 59
_space_group.IT_coordinate_system_code '2'
_symmetry_cell_setting 'orthorhombic'
loop_
_space_group_symop_operation_xyz
x,y,z
1/2-x,1/2-y,z
1/2+x,-y,-z
-x,1/2+y,-z
-x,-y,-z
1/2+x,1/2+y,-z
1/2-x,y,z
x,1/2-y,z
loop_
_atom_site_type_symbol
_atom_site_label
_atom_site_fract_x
_atom_site_fract_y
_atom_site_fract_z
Si Si1 0.418068 0.501376 0.351157
Si Si2 0.082594 0.618932 0.094376
Si Si3 0.922512 0.887689 0.397780
Si Si4 0.577500 0.617583 0.590624
Si Si5 0.423378 0.186622 0.761383
Si Si6 0.581663 0.387193 0.103907
Si Si7 0.576246 0.813771 0.753670
Si Si8 0.082234 0.496836 0.145599
O O1 0.250000 0.511148 0.377199
O O2 0.511052 0.551409 0.389536
O O3 0.483177 0.444569 0.392005
O O4 0.437524 0.497342 0.248458
O O5 0.250000 0.623123 0.126327
O O6 0.027108 0.555733 0.107781
O O7 0.986813 0.661176 0.150410
O O8 0.066318 0.636466 0.993858
O O9 0.750000 0.893997 0.389310
O O10 0.965553 0.862834 0.492954
O O11 0.983557 0.846656 0.323077
O O12 0.750000 0.615009 0.602530
O O13 0.516246 0.660869 0.662361
O O14 0.250000 0.183049 0.766622
O O15 0.477257 0.250000 0.752281
O O16 0.750000 0.388719 0.133519
O O17 0.492043 0.346654 0.166069
O O18 0.519456 0.449593 0.104854
O O19 0.750000 0.819357 0.760806
O O20 0.524819 0.750000 0.757950
O O21 0.250000 0.484934 0.119194
#
# Coordination Sequence:
#
# PCOD8240070 Si02
#       8
#     8   8   8   8   8   8   8   8
#     4  10  18  32  56  81 112 145 178 222 271 326
#     4  10  22  39  58  82 110 146 184 223 275 331
#     4  10  20  34  55  82 113 143 179 225 274 326
#     4   9  18  34  55  82 111 142 180 223 270 324
#     4  10  22  38  55  79 110 144 185 232 275 318
#     4  11  23  37  57  85 115 143 178 226 281 332
#     4  10  21  39  61  81 106 147 194 231 270 324
#     4  10  19  35  59  83 112 145 182 224 269 329
#
# _framework density 19.040904000000001
#
# number of rings (size 3 to 8) (size 9 to 14) (size 15 to 20)
#    0.000    2.000    2.500    1.125    0.000    3.500 
#    0.000    5.625    0.000    0.000    0.000    1.750 
#    0.000    0.000    0.000    0.000    0.000    0.000 
#
# Total GULP energy -793695.343888 kJ/mol
# GULP energy per Si atom -12401.489748 kJ/mol
# Density = 1.899757 g / cm^3
# Si number density = 19.040904 Si / 1000 Ang^3
#
#
#
# Elastic Constant Matrix: (Units=GPa)
#
#
# Indices 1 2 3 4 5 6 
#
# 1 29.7059 28.3244 25.0954 0.0000 0.0000 0.0000
# 2 28.3244 130.3337 53.8465 0.0000 0.0000 0.0000
# 3 25.0954 53.8465 108.1556 0.0000 0.0000 0.0000
# 4 0.0000 0.0000 0.0000 13.5222 0.0000 0.0000
# 5 0.0000 0.0000 0.0000 0.0000 22.0948 0.0000
# 6 0.0000 0.0000 0.0000 0.0000 0.0000 27.9064
#
#
#
# Elastic Compliance Matrix: (Units=1/GPa)
#
#
# Indices 1 2 3 4 5 6 
#
# 1 0.046593 -0.007125 -0.007264 0.000000 0.000000 0.000000
# 2 -0.007125 0.010749 -0.003698 0.000000 0.000000 0.000000
# 3 -0.007264 -0.003698 0.012773 0.000000 0.000000 0.000000
# 4 0.000000 0.000000 0.000000 0.073952 0.000000 0.000000
# 5 0.000000 0.000000 0.000000 0.000000 0.045260 0.000000
# 6 0.000000 0.000000 0.000000 0.000000 0.000000 0.035834
#
#
# Mechanical properties :
#
#
# Convention : Reuss Voigt Hill
#
# Bulk Modulus (GPa) = 29.46302 53.63642 41.54972
# Shear Modulus (GPa) = 18.33864 23.43326 20.88595
#
# Velocity S-wave (km/s) = 3.10678 3.51191 3.31554
# Velocity P-wave (km/s) = 5.32697 6.68393 6.04365
#
# Compressibility (1/GPa) = 0.03394085
#
# Stress axis : x y z
#
# Youngs Moduli (GPa) = 21.46236 93.03291 78.29230
#
# Poissons Ratio (x) = 0.66283 0.56871
# Poissons Ratio (y) = 0.15291 0.28955
# Poissons Ratio (z) = 0.15590 0.34406
#
# Static dielectric constant tensor:
#      x y z
#    x 3.272710 0.000000 0.000000 
#    y 0.000000 3.573240 0.000000 
#    z 0.000000 0.000000 3.686500 
# 
# 
# High freq. dielectric constant tensor:
#      x y z
#    x 1.716860 0.000000 0.000000 
#    y 0.000000 1.739160 0.000000 
#    z 0.000000 0.000000 1.755470 
# 
# From -- ./inp_files/21547.got.cif
#   From: 2010.03.12/outbox.cif.g09.slc.cpg/sg59_11_cif.got.tgz:21547.got - 2010.04.16 16:29:54.
