data_PCOD8240988
_publ_section_title
;
Structure prediction by ZEFSAII (Michael W. Deem and Ramdas Pophale) SiO2 
 PCOD8240988
Probable space group: P M M N
;
_chemical_formula_sum "Si O2"
_cell_formula_units_Z 48
_cell_length_a 7.753637
_cell_length_b 9.425539
_cell_length_c 34.375342
_cell_angle_alpha 90.000000
_cell_angle_beta 90.000000
_cell_angle_gamma 90.000000
_cell_volume 2512.225892
_symmetry_space_group_name_H-M "P M M N"
_symmetry_group_IT_number 59
_space_group.IT_coordinate_system_code '2'
_symmetry_cell_setting 'orthorhombic'
loop_
_space_group_symop_operation_xyz
x,y,z
1/2-x,1/2-y,z
1/2+x,-y,-z
-x,1/2+y,-z
-x,-y,-z
1/2+x,1/2+y,-z
1/2-x,y,z
x,1/2-y,z
loop_
_atom_site_type_symbol
_atom_site_label
_atom_site_fract_x
_atom_site_fract_y
_atom_site_fract_z
Si Si1 0.950999 0.591359 0.963238
Si Si2 0.052208 0.083972 0.461850
Si Si3 0.250000 0.917807 0.594336
Si Si4 0.946801 0.094164 0.810123
Si Si5 0.446232 0.909916 0.879771
Si Si6 0.250000 0.582286 0.680737
Si Si7 0.049852 0.416031 0.262529
O O1 0.750000 0.587269 0.955749
O O2 0.017806 0.750000 0.971580
O O3 0.039307 0.532389 0.923962
O O4 0.000000 0.500000 0.000000
O O5 0.250000 0.050898 0.449765
O O6 0.026713 0.250000 0.470502
O O7 0.923998 0.032250 0.427668
O O8 0.000000 0.000000 0.500000
O O9 0.250000 0.750000 0.597568
O O10 0.250000 0.985660 0.637545
O O11 0.750000 0.118396 0.799935
O O12 0.038003 0.250000 0.811960
O O13 0.022228 0.997677 0.775502
O O14 0.955702 0.015671 0.851371
O O15 0.250000 0.908395 0.866315
O O16 0.524810 0.750000 0.877390
O O17 0.250000 0.750000 0.677526
O O18 0.425750 0.533847 0.702393
O O19 0.250000 0.450670 0.272902
O O20 0.027733 0.250000 0.253601
#
# Coordination Sequence:
#
# PCOD8240988 Si02
#       7
#     8   8   4   8   8   4   8
#     4  10  21  37  57  79 104 137 174 211 255 307
#     4  10  19  31  51  77 106 143 183 224 275 328
#     4   9  18  32  49  77 111 139 177 233 279 319
#     4  10  21  36  54  78 107 138 172 214 264 315
#     4  10  21  36  55  79 106 136 173 216 259 308
#     4   9  18  32  53  79 107 139 181 225 271 327
#     4   9  18  33  54  78 104 137 177 222 269 321
#
# _framework density 19.106563000000001
#
# number of rings (size 3 to 8) (size 9 to 14) (size 15 to 20)
#    0.000    2.333    0.833    1.500    1.167    4.333 
#    0.000    3.333    0.000    2.000    0.000    2.333 
#    0.000    0.000    0.000    0.000    0.000    0.000 
#
# Total GULP energy -595034.912507 kJ/mol
# GULP energy per Si atom -12396.560677 kJ/mol
# Density = 1.906308 g / cm^3
# Si number density = 19.106563 Si / 1000 Ang^3
#
#
#
# Elastic Constant Matrix: (Units=GPa)
#
#
# Indices 1 2 3 4 5 6 
#
# 1 99.2599 30.7536 55.5441 0.0000 0.0000 0.0000
# 2 30.7536 71.1867 64.5715 0.0000 0.0000 0.0000
# 3 55.5441 64.5715 172.7146 0.0000 0.0000 0.0000
# 4 0.0000 0.0000 0.0000 23.7732 0.0000 0.0000
# 5 0.0000 0.0000 0.0000 0.0000 33.8525 0.0000
# 6 0.0000 0.0000 0.0000 0.0000 0.0000 16.5017
#
#
#
# Elastic Compliance Matrix: (Units=1/GPa)
#
#
# Indices 1 2 3 4 5 6 
#
# 1 0.012614 -0.002678 -0.003055 0.000000 0.000000 0.000000
# 2 -0.002678 0.021824 -0.007298 0.000000 0.000000 0.000000
# 3 -0.003055 -0.007298 0.009501 0.000000 0.000000 0.000000
# 4 0.000000 0.000000 0.000000 0.042064 0.000000 0.000000
# 5 0.000000 0.000000 0.000000 0.000000 0.029540 0.000000
# 6 0.000000 0.000000 0.000000 0.000000 0.000000 0.060600
#
#
# Mechanical properties :
#
#
# Convention : Reuss Voigt Hill
#
# Bulk Modulus (GPa) = 55.93945 71.65552 63.79749
# Shear Modulus (GPa) = 24.01941 27.64495 25.83218
#
# Velocity S-wave (km/s) = 3.54945 3.80792 3.68095
# Velocity P-wave (km/s) = 6.79259 7.54441 7.17835
#
# Compressibility (1/GPa) = 0.01787647
#
# Stress axis : x y z
#
# Youngs Moduli (GPa) = 79.27685 45.82036 105.25212
#
# Poissons Ratio (x) = 0.12270 0.32159
# Poissons Ratio (y) = 0.21230 0.76814
# Poissons Ratio (z) = 0.24222 0.33440
#
# Static dielectric constant tensor:
#      x y z
#    x 3.716370 0.000000 0.000000 
#    y 0.000000 3.343030 0.000000 
#    z 0.000000 0.000000 3.547600 
# 
# 
# High freq. dielectric constant tensor:
#      x y z
#    x 1.750820 0.000000 0.000000 
#    y 0.000000 1.717540 0.000000 
#    z 0.000000 0.000000 1.740410 
# 
# From -- ./inp_files/33072.got.cif
#   From: 2010.03.12/outbox.cif.g09.slc.cpg/sg59_17_cif.got.tgz:33072.got - 2010.04.16 16:29:54.
