data_PCOD8240256
_publ_section_title
;
Structure prediction by ZEFSAII (Michael W. Deem and Ramdas Pophale) SiO2 
 PCOD8240256
Probable space group: P M M N
;
_chemical_formula_sum "Si O2"
_cell_formula_units_Z 64
_cell_length_a 9.223810
_cell_length_b 26.999076
_cell_length_c 16.717307
_cell_angle_alpha 90.000000
_cell_angle_beta 90.000000
_cell_angle_gamma 90.000000
_cell_volume 4163.183636
_symmetry_space_group_name_H-M "P M M N"
_symmetry_group_IT_number 59
_space_group.IT_coordinate_system_code '2'
_symmetry_cell_setting 'orthorhombic'
loop_
_space_group_symop_operation_xyz
x,y,z
1/2-x,1/2-y,z
1/2+x,-y,-z
-x,1/2+y,-z
-x,-y,-z
1/2+x,1/2+y,-z
1/2-x,y,z
x,1/2-y,z
loop_
_atom_site_type_symbol
_atom_site_label
_atom_site_fract_x
_atom_site_fract_y
_atom_site_fract_z
Si Si1 0.581577 0.450895 0.524910
Si Si2 0.916650 0.058346 0.833620
Si Si3 0.414766 0.574178 0.647197
Si Si4 0.417358 0.615798 0.014400
Si Si5 0.088195 0.374836 0.225214
Si Si6 0.421717 0.193128 0.084427
Si Si7 0.421806 0.460972 0.676167
Si Si8 0.087279 0.044582 0.094467
O O1 0.500000 0.500000 0.500000
O O2 0.750000 0.461824 0.543696
O O3 0.567818 0.414705 0.447893
O O4 0.500737 0.430495 0.604146
O O5 0.750000 0.053127 0.804551
O O6 0.022550 0.063129 0.758286
O O7 0.961537 0.011033 0.886782
O O8 0.936152 0.106414 0.890486
O O9 0.250000 0.578312 0.674632
O O10 0.498375 0.617559 0.693789
O O11 0.468915 0.518696 0.669979
O O12 0.250000 0.622737 0.991470
O O13 0.503770 0.665253 0.989946
O O14 0.475910 0.567702 0.968094
O O15 0.250000 0.360815 0.251650
O O16 0.025650 0.331007 0.168385
O O17 0.082635 0.426038 0.177528
O O18 0.250000 0.185813 0.075350
O O19 0.469208 0.250000 0.082771
O O20 0.250000 0.454174 0.668555
O O21 0.250000 0.046704 0.058353
#
# Coordination Sequence:
#
# PCOD8240256 Si02
#       8
#     8   8   8   8   8   8   8   8
#     4   9  17  28  40  56  81 115 152 184 215 251
#     4  10  19  30  42  59  87 120 150 182 219 259
#     4   9  17  27  39  59  85 112 144 180 215 251
#     4  10  20  30  44  66  87 110 144 184 225 265
#     4   9  16  26  44  65  82 109 146 180 215 258
#     4   9  19  36  52  64  84 114 146 181 224 272
#     4  10  19  28  40  60  84 117 155 186 219 252
#     4   9  17  29  42  58  84 119 152 177 213 258
#
# _framework density 15.37285
#
# number of rings (size 3 to 8) (size 9 to 14) (size 15 to 20)
#    0.000    2.625    1.250    3.000    0.000    6.250 
#    0.000    0.000    0.000    0.000    0.000    0.000 
#    0.000    1.000    0.000    7.500    0.000    3.875 
#
# Total GULP energy -793277.401551 kJ/mol
# GULP energy per Si atom -12394.959399 kJ/mol
# Density = 1.533786 g / cm^3
# Si number density = 15.372850 Si / 1000 Ang^3
#
#
#
# Elastic Constant Matrix: (Units=GPa)
#
#
# Indices 1 2 3 4 5 6 
#
# 1 76.2269 28.3855 54.3547 0.0000 0.0000 0.0000
# 2 28.3855 64.2526 39.6710 0.0000 0.0000 0.0000
# 3 54.3547 39.6710 100.7140 0.0000 0.0000 0.0000
# 4 0.0000 0.0000 0.0000 12.7119 0.0000 0.0000
# 5 0.0000 0.0000 0.0000 0.0000 30.2847 0.0000
# 6 0.0000 0.0000 0.0000 0.0000 0.0000 15.9904
#
#
#
# Elastic Compliance Matrix: (Units=1/GPa)
#
#
# Indices 1 2 3 4 5 6 
#
# 1 0.021791 -0.003126 -0.010529 0.000000 0.000000 0.000000
# 2 -0.003126 0.021013 -0.006590 0.000000 0.000000 0.000000
# 3 -0.010529 -0.006590 0.018207 0.000000 0.000000 0.000000
# 4 0.000000 0.000000 0.000000 0.078666 0.000000 0.000000
# 5 0.000000 0.000000 0.000000 0.000000 0.033020 0.000000
# 6 0.000000 0.000000 0.000000 0.000000 0.000000 0.062538
#
#
# Mechanical properties :
#
#
# Convention : Reuss Voigt Hill
#
# Bulk Modulus (GPa) = 48.72947 54.00176 51.36562
# Shear Modulus (GPa) = 17.69502 19.71622 18.70562
#
# Velocity S-wave (km/s) = 3.39640 3.58514 3.49204
# Velocity P-wave (km/s) = 6.86644 7.23477 7.05301
#
# Compressibility (1/GPa) = 0.02052146
#
# Stress axis : x y z
#
# Youngs Moduli (GPa) = 45.89146 47.58869 54.92289
#
# Poissons Ratio (x) = 0.14875 0.57828
# Poissons Ratio (y) = 0.14345 0.36195
# Poissons Ratio (z) = 0.48319 0.31362
#
# Static dielectric constant tensor:
#      x y z
#    x 2.996760 0.000000 0.000000 
#    y 0.000000 2.578680 0.000000 
#    z 0.000000 0.000000 3.209520 
# 
# 
# High freq. dielectric constant tensor:
#      x y z
#    x 1.598430 0.000000 0.000000 
#    y 0.000000 1.529970 0.000000 
#    z 0.000000 0.000000 1.588990 
# 
# From -- ./inp_files/26691.got.cif
#   From: 2010.03.12/outbox.cif.g09.slc.cpg/sg59_14_cif.got.tgz:26691.got - 2010.04.16 16:29:54.
