data_PCOD8240303
_publ_section_title
;
Structure prediction by ZEFSAII (Michael W. Deem and Ramdas Pophale) SiO2 
 PCOD8240303
Probable space group: P M M N
;
_chemical_formula_sum "Si O2"
_cell_formula_units_Z 64
_cell_length_a 24.677953
_cell_length_b 9.094257
_cell_length_c 18.456617
_cell_angle_alpha 90.000000
_cell_angle_beta 90.000000
_cell_angle_gamma 90.000000
_cell_volume 4142.175121
_symmetry_space_group_name_H-M "P M M N"
_symmetry_group_IT_number 59
_space_group.IT_coordinate_system_code '2'
_symmetry_cell_setting 'orthorhombic'
loop_
_space_group_symop_operation_xyz
x,y,z
1/2-x,1/2-y,z
1/2+x,-y,-z
-x,1/2+y,-z
-x,-y,-z
1/2+x,1/2+y,-z
1/2-x,y,z
x,1/2-y,z
loop_
_atom_site_type_symbol
_atom_site_label
_atom_site_fract_x
_atom_site_fract_y
_atom_site_fract_z
Si Si1 0.537953 0.418192 0.105769
Si Si2 0.191191 0.423002 0.285060
Si Si3 0.562485 0.082445 0.953960
Si Si4 0.997885 0.420957 0.388400
Si Si5 0.609643 0.412632 0.810550
Si Si6 0.916353 0.420749 0.517857
Si Si7 0.188266 0.423074 0.448426
Si Si8 0.012886 0.081698 0.759127
O O1 0.535880 0.250000 0.132050
O O2 0.481213 0.461066 0.068776
O O3 0.551045 0.516993 0.176367
O O4 0.580674 0.440013 0.038477
O O5 0.250000 0.484415 0.261023
O O6 0.192719 0.250000 0.286819
O O7 0.146838 0.470233 0.227928
O O8 0.178437 0.477256 0.366143
O O9 0.539104 0.250000 0.944331
O O10 0.612698 0.064468 0.897889
O O11 0.011424 0.250000 0.377449
O O12 0.052671 0.499218 0.416050
O O13 0.949116 0.445896 0.444191
O O14 0.977637 0.490647 0.313691
O O15 0.629753 0.250000 0.789004
O O16 0.548498 0.436666 0.784590
O O17 0.911576 0.250000 0.537926
O O18 0.856510 0.489054 0.505039
O O19 0.250000 0.462166 0.472801
O O20 0.178296 0.250000 0.457716
O O21 0.029163 0.250000 0.745193
#
# Coordination Sequence:
#
# PCOD8240303 Si02
#       8
#     8   8   8   8   8   8   8   8
#     4   9  15  24  39  56  77 107 137 164 198 238
#     4   9  18  30  41  56  79 105 135 171 206 240
#     4   8  15  26  37  53  79 107 135 167 198 231
#     4  10  20  32  45  62  86 117 149 177 212 262
#     4   9  17  27  39  57  80 106 137 171 204 239
#     4  10  20  32  46  65  88 113 143 181 220 257
#     4   9  18  32  48  64  84 113 147 181 217 258
#     4  10  19  29  41  60  85 109 138 176 211 246
#
# _framework density 15.450818
#
# number of rings (size 3 to 8) (size 9 to 14) (size 15 to 20)
#    0.000    2.750    0.000    3.750    0.000    7.500 
#    0.000    1.250    0.000    0.000    0.000    0.000 
#    0.000    1.000    0.000    9.500    0.000    5.750 
#
# Total GULP energy -793101.785311 kJ/mol
# GULP energy per Si atom -12392.215395 kJ/mol
# Density = 1.541565 g / cm^3
# Si number density = 15.450818 Si / 1000 Ang^3
#
#
#
# Elastic Constant Matrix: (Units=GPa)
#
#
# Indices 1 2 3 4 5 6 
#
# 1 58.2525 29.5310 19.4635 0.0000 0.0000 0.0000
# 2 29.5310 76.6010 38.7580 0.0000 0.0000 0.0000
# 3 19.4635 38.7580 82.6864 0.0000 0.0000 0.0000
# 4 0.0000 0.0000 0.0000 26.9159 0.0000 0.0000
# 5 0.0000 0.0000 0.0000 0.0000 15.7741 0.0000
# 6 0.0000 0.0000 0.0000 0.0000 0.0000 21.2051
#
#
#
# Elastic Compliance Matrix: (Units=1/GPa)
#
#
# Indices 1 2 3 4 5 6 
#
# 1 0.021485 -0.007504 -0.001540 0.000000 0.000000 0.000000
# 2 -0.007504 0.019734 -0.007484 0.000000 0.000000 0.000000
# 3 -0.001540 -0.007484 0.015964 0.000000 0.000000 0.000000
# 4 0.000000 0.000000 0.000000 0.037153 0.000000 0.000000
# 5 0.000000 0.000000 0.000000 0.000000 0.063395 0.000000
# 6 0.000000 0.000000 0.000000 0.000000 0.000000 0.047158
#
#
# Mechanical properties :
#
#
# Convention : Reuss Voigt Hill
#
# Bulk Modulus (GPa) = 41.44488 43.67165 42.55827
# Shear Modulus (GPa) = 20.32623 21.43152 20.87887
#
# Velocity S-wave (km/s) = 3.63098 3.72839 3.68001
# Velocity P-wave (km/s) = 6.66788 6.84550 6.75727
#
# Compressibility (1/GPa) = 0.02412843
#
# Stress axis : x y z
#
# Youngs Moduli (GPa) = 46.54371 50.67403 62.63975
#
# Poissons Ratio (x) = 0.38024 0.09648
# Poissons Ratio (y) = 0.34925 0.46878
# Poissons Ratio (z) = 0.07169 0.37923
#
# Static dielectric constant tensor:
#      x y z
#    x 2.696090 0.000000 0.000000 
#    y 0.000000 3.019910 0.000000 
#    z 0.000000 0.000000 3.171890 
# 
# 
# High freq. dielectric constant tensor:
#      x y z
#    x 1.541680 0.000000 0.000000 
#    y 0.000000 1.604300 0.000000 
#    z 0.000000 0.000000 1.592660 
# 
# From -- ./inp_files/26641.got.cif
#   From: 2010.03.12/outbox.cif.g09.slc.cpg/sg59_14_cif.got.tgz:26641.got - 2010.04.16 16:29:54.
