data_PCOD8240613
_publ_section_title
;
Structure prediction by ZEFSAII (Michael W. Deem and Ramdas Pophale) SiO2 
 PCOD8240613
Probable space group: P M M N
;
_chemical_formula_sum "Si O2"
_cell_formula_units_Z 64
_cell_length_a 9.323643
_cell_length_b 17.289668
_cell_length_c 22.632070
_cell_angle_alpha 90.000000
_cell_angle_beta 90.000000
_cell_angle_gamma 90.000000
_cell_volume 3648.350610
_symmetry_space_group_name_H-M "P M M N"
_symmetry_group_IT_number 59
_space_group.IT_coordinate_system_code '2'
_symmetry_cell_setting 'orthorhombic'
loop_
_space_group_symop_operation_xyz
x,y,z
1/2-x,1/2-y,z
1/2+x,-y,-z
-x,1/2+y,-z
-x,-y,-z
1/2+x,1/2+y,-z
1/2-x,y,z
x,1/2-y,z
loop_
_atom_site_type_symbol
_atom_site_label
_atom_site_fract_x
_atom_site_fract_y
_atom_site_fract_z
Si Si1 0.415974 0.660787 0.965148
Si Si2 0.081415 0.990923 0.243354
Si Si3 0.912059 0.052180 0.137913
Si Si4 0.914809 0.607510 0.075348
Si Si5 0.914627 0.335434 0.817591
Si Si6 0.414801 0.068545 0.529839
Si Si7 0.587029 0.474738 0.359965
Si Si8 0.084555 0.662325 0.552488
O O1 0.250000 0.647202 0.981788
O O2 0.458076 0.750000 0.965014
O O3 0.447837 0.628711 0.899509
O O4 0.513176 0.616383 0.011923
O O5 0.250000 0.002878 0.246061
O O6 0.038602 0.901625 0.229048
O O7 0.019276 0.047093 0.192984
O O8 0.018099 0.015470 0.305633
O O9 0.750000 0.053890 0.162899
O O10 0.932692 0.981115 0.093444
O O11 0.750000 0.633120 0.071459
O O12 0.991665 0.661751 0.123300
O O13 0.750000 0.349077 0.836263
O O14 0.935416 0.250000 0.788895
O O15 0.250000 0.068576 0.509142
O O16 0.490711 0.147203 0.507085
O O17 0.500000 0.000000 0.500000
O O18 0.425377 0.052670 0.600049
O O19 0.750000 0.465266 0.337377
O O20 0.540388 0.397357 0.395720
O O21 0.250000 0.648966 0.535429
O O22 0.056577 0.750000 0.574096
#
# Coordination Sequence:
#
# PCOD8240613 Si02
#       8
#     8   8   8   8   8   8   8   8
#     4  10  20  33  49  69  93 123 158 194 236 289
#     4  10  20  33  52  74  94 124 167 207 241 282
#     4   9  19  35  51  67  92 126 161 197 239 290
#     4  10  19  30  48  73  96 119 150 191 242 296
#     4   9  18  33  50  68  93 123 155 195 242 291
#     4   9  17  30  50  75 102 132 164 199 242 291
#     4   9  18  33  52  73 100 134 168 201 240 289
#     4   9  18  33  53  78 106 135 169 209 251 293
#
# _framework density 17.542173999999999
#
# number of rings (size 3 to 8) (size 9 to 14) (size 15 to 20)
#    0.000    2.625    0.000    2.625    0.000    6.250 
#    0.000    1.250    0.000    6.000    0.000    0.000 
#    0.000    0.000    0.000    0.000    0.000    0.000 
#
# Total GULP energy -793435.096514 kJ/mol
# GULP energy per Si atom -12397.423383 kJ/mol
# Density = 1.750225 g / cm^3
# Si number density = 17.542174 Si / 1000 Ang^3
#
#
#
# Elastic Constant Matrix: (Units=GPa)
#
#
# Indices 1 2 3 4 5 6 
#
# 1 97.4033 36.0284 64.9308 0.0000 0.0000 0.0000
# 2 36.0284 61.4662 43.5680 0.0000 0.0000 0.0000
# 3 64.9308 43.5680 106.8856 0.0000 0.0000 0.0000
# 4 0.0000 0.0000 0.0000 17.1397 0.0000 0.0000
# 5 0.0000 0.0000 0.0000 0.0000 34.9368 0.0000
# 6 0.0000 0.0000 0.0000 0.0000 0.0000 23.1707
#
#
#
# Elastic Compliance Matrix: (Units=1/GPa)
#
#
# Indices 1 2 3 4 5 6 
#
# 1 0.017900 -0.003916 -0.009277 0.000000 0.000000 0.000000
# 2 -0.003916 0.023736 -0.007296 0.000000 0.000000 0.000000
# 3 -0.009277 -0.007296 0.017966 0.000000 0.000000 0.000000
# 4 0.000000 0.000000 0.000000 0.058344 0.000000 0.000000
# 5 0.000000 0.000000 0.000000 0.000000 0.028623 0.000000
# 6 0.000000 0.000000 0.000000 0.000000 0.000000 0.043158
#
#
# Mechanical properties :
#
#
# Convention : Reuss Voigt Hill
#
# Bulk Modulus (GPa) = 53.69964 61.64550 57.67257
# Shear Modulus (GPa) = 21.10477 23.13130 22.11804
#
# Velocity S-wave (km/s) = 3.47232 3.63521 3.55470
# Velocity P-wave (km/s) = 6.83770 7.26892 7.05661
#
# Compressibility (1/GPa) = 0.01862210
#
# Stress axis : x y z
#
# Youngs Moduli (GPa) = 55.86732 42.12983 55.66142
#
# Poissons Ratio (x) = 0.16497 0.51640
# Poissons Ratio (y) = 0.21877 0.40613
# Poissons Ratio (z) = 0.51831 0.30739
#
# Static dielectric constant tensor:
#      x y z
#    x 3.424370 0.000000 0.000000 
#    y 0.000000 3.477950 0.000000 
#    z 0.000000 0.000000 3.160290 
# 
# 
# High freq. dielectric constant tensor:
#      x y z
#    x 1.685330 0.000000 0.000000 
#    y 0.000000 1.670200 0.000000 
#    z 0.000000 0.000000 1.659040 
# 
# From -- ./inp_files/29429.got.cif
#   From: 2010.03.12/outbox.cif.g09.slc.cpg/sg59_15_cif.got.tgz:29429.got - 2010.04.16 16:29:54.
