data_PCOD8240520
_publ_section_title
;
Structure prediction by ZEFSAII (Michael W. Deem and Ramdas Pophale) SiO2 
 PCOD8240520
Probable space group: P M M N
;
_chemical_formula_sum "Si O2"
_cell_formula_units_Z 40
_cell_length_a 20.809367
_cell_length_b 9.402217
_cell_length_c 12.519720
_cell_angle_alpha 90.000000
_cell_angle_beta 90.000000
_cell_angle_gamma 90.000000
_cell_volume 2449.535603
_symmetry_space_group_name_H-M "P M M N"
_symmetry_group_IT_number 59
_space_group.IT_coordinate_system_code '2'
_symmetry_cell_setting 'orthorhombic'
loop_
_space_group_symop_operation_xyz
x,y,z
1/2-x,1/2-y,z
1/2+x,-y,-z
-x,1/2+y,-z
-x,-y,-z
1/2+x,1/2+y,-z
1/2-x,y,z
x,1/2-y,z
loop_
_atom_site_type_symbol
_atom_site_label
_atom_site_fract_x
_atom_site_fract_y
_atom_site_fract_z
Si Si1 0.056408 0.912683 0.375890
Si Si2 0.080605 0.586418 0.915322
Si Si3 0.457985 0.585868 0.142674
Si Si4 0.409443 0.415217 0.572031
Si Si5 0.823974 0.084744 0.264148
O O1 0.071925 0.750000 0.407465
O O2 0.078299 0.947889 0.254189
O O3 0.980183 0.941094 0.381426
O O4 0.095263 0.016073 0.454130
O O5 0.061409 0.750000 0.902084
O O6 0.146343 0.552167 0.852970
O O7 0.023734 0.499626 0.861819
O O8 0.087870 0.548062 0.041604
O O9 0.478451 0.750000 0.141605
O O10 0.392014 0.250000 0.563155
O O11 0.357798 0.490544 0.646620
O O12 0.750000 0.040558 0.258362
O O13 0.832839 0.250000 0.294436
#
# Coordination Sequence:
#
# PCOD8240520 Si02
#       5
#     8   8   8   8   8
#     4   9  17  29  46  68  97 125 150 191 242 287
#     4   9  17  28  45  68  93 122 156 191 231 278
#     4   9  16  28  46  69  96 122 148 190 240 283
#     4  10  19  30  46  69  94 123 160 196 235 279
#     4  10  20  33  48  67  95 128 159 192 230 277
#
# _framework density 16.329626000000001
#
# number of rings (size 3 to 8) (size 9 to 14) (size 15 to 20)
#    0.000    2.600    2.000    0.600    0.000    2.000 
#    0.000    0.000    0.000    1.200    0.000    5.600 
#    0.000    0.000    0.000    0.000    0.000    0.000 
#
# Total GULP energy -495857.527314 kJ/mol
# GULP energy per Si atom -12396.438183 kJ/mol
# Density = 1.629246 g / cm^3
# Si number density = 16.329626 Si / 1000 Ang^3
#
#
#
# Elastic Constant Matrix: (Units=GPa)
#
#
# Indices 1 2 3 4 5 6 
#
# 1 76.6418 45.1053 58.9243 0.0000 0.0000 0.0000
# 2 45.1053 72.8277 64.2809 0.0000 0.0000 0.0000
# 3 58.9243 64.2809 150.1676 0.0000 0.0000 0.0000
# 4 0.0000 0.0000 0.0000 23.3918 0.0000 0.0000
# 5 0.0000 0.0000 0.0000 0.0000 22.0783 0.0000
# 6 0.0000 0.0000 0.0000 0.0000 0.0000 19.5876
#
#
#
# Elastic Compliance Matrix: (Units=1/GPa)
#
#
# Indices 1 2 3 4 5 6 
#
# 1 0.022323 -0.009795 -0.004567 0.000000 0.000000 0.000000
# 2 -0.009795 0.026367 -0.007443 0.000000 0.000000 0.000000
# 3 -0.004567 -0.007443 0.011637 0.000000 0.000000 0.000000
# 4 0.000000 0.000000 0.000000 0.042750 0.000000 0.000000
# 5 0.000000 0.000000 0.000000 0.000000 0.045293 0.000000
# 6 0.000000 0.000000 0.000000 0.000000 0.000000 0.051053
#
#
# Mechanical properties :
#
#
# Convention : Reuss Voigt Hill
#
# Bulk Modulus (GPa) = 59.81597 70.69535 65.25566
# Shear Modulus (GPa) = 20.11209 21.76664 20.93936
#
# Velocity S-wave (km/s) = 3.51327 3.65492 3.58480
# Velocity P-wave (km/s) = 7.29159 7.82291 7.56192
#
# Compressibility (1/GPa) = 0.01671794
#
# Stress axis : x y z
#
# Youngs Moduli (GPa) = 44.79640 37.92565 85.93078
#
# Poissons Ratio (x) = 0.37149 0.39240
# Poissons Ratio (y) = 0.43879 0.63961
# Poissons Ratio (z) = 0.20456 0.28229
#
# Static dielectric constant tensor:
#      x y z
#    x 2.730960 0.000000 0.000000 
#    y 0.000000 3.143620 0.000000 
#    z 0.000000 0.000000 3.438850 
# 
# 
# High freq. dielectric constant tensor:
#      x y z
#    x 1.576930 0.000000 0.000000 
#    y 0.000000 1.633210 0.000000 
#    z 0.000000 0.000000 1.645780 
# 
# From -- ./inp_files/14057.got.cif
#   From: 2010.03.12/outbox.cif.g09.slc.cpg/sg59_8_cif.got.tgz:14057.got - 2010.04.16 16:29:54.
