data_PCOD8240863
_publ_section_title
;
Structure prediction by ZEFSAII (Michael W. Deem and Ramdas Pophale) SiO2 
 PCOD8240863
Probable space group: P M M N
;
_chemical_formula_sum "Si O2"
_cell_formula_units_Z 64
_cell_length_a 19.834399
_cell_length_b 8.844282
_cell_length_c 20.144051
_cell_angle_alpha 90.000000
_cell_angle_beta 90.000000
_cell_angle_gamma 90.000000
_cell_volume 3533.689934
_symmetry_space_group_name_H-M "P M M N"
_symmetry_group_IT_number 59
_space_group.IT_coordinate_system_code '2'
_symmetry_cell_setting 'orthorhombic'
loop_
_space_group_symop_operation_xyz
x,y,z
1/2-x,1/2-y,z
1/2+x,-y,-z
-x,1/2+y,-z
-x,-y,-z
1/2+x,1/2+y,-z
1/2-x,y,z
x,1/2-y,z
loop_
_atom_site_type_symbol
_atom_site_label
_atom_site_fract_x
_atom_site_fract_y
_atom_site_fract_z
Si Si1 0.174969 0.570317 0.926601
Si Si2 0.067734 0.925693 0.821783
Si Si3 0.325252 0.929654 0.074237
Si Si4 0.426104 0.570950 0.185094
Si Si5 0.422710 0.427297 0.323788
Si Si6 0.327003 0.424823 0.568566
Si Si7 0.076733 0.576960 0.670068
Si Si8 0.328238 0.574406 0.431035
O O1 0.250000 0.508563 0.910706
O O2 0.175803 0.750000 0.922849
O O3 0.123296 0.506693 0.871954
O O4 0.152708 0.516799 0.000337
O O5 0.051882 0.750000 0.835130
O O6 0.094395 0.948075 0.747147
O O7 0.000405 0.018961 0.834338
O O8 0.250000 0.989428 0.090026
O O9 0.325700 0.750000 0.076579
O O10 0.376173 0.995396 0.128921
O O11 0.423410 0.750000 0.188324
O O12 0.401956 0.508083 0.255743
O O13 0.416557 0.250000 0.311671
O O14 0.499254 0.469164 0.343870
O O15 0.372494 0.478374 0.380785
O O16 0.250000 0.458170 0.589650
O O17 0.337273 0.250000 0.550313
O O18 0.375068 0.467780 0.629048
O O19 0.347336 0.523858 0.505055
O O20 0.089959 0.750000 0.649026
O O21 0.250000 0.540622 0.416238
O O22 0.345518 0.750000 0.422869
#
# Coordination Sequence:
#
# PCOD8240863 Si02
#       8
#     8   8   8   8   8   8   8   8
#     4   8  14  27  48  72  97 128 168 211 252 295
#     4   9  18  32  50  73 100 129 165 209 252 297
#     4   8  15  28  46  70  99 129 165 209 251 294
#     4  10  19  31  49  73 101 133 167 205 252 304
#     4  10  21  37  55  76 103 134 170 212 254 297
#     4  10  21  36  54  77 104 134 168 206 249 297
#     4   9  19  34  51  73 101 133 169 209 253 300
#     4  10  21  37  57  80 105 134 168 205 247 298
#
# _framework density 18.11138
#
# number of rings (size 3 to 8) (size 9 to 14) (size 15 to 20)
#    0.000    2.750    0.000    3.000    0.000    6.000 
#    0.000    2.500    0.000    2.250    0.000    3.500 
#    0.000    0.000    0.000    0.000    0.000    0.000 
#
# Total GULP energy -793574.620457 kJ/mol
# GULP energy per Si atom -12399.603445 kJ/mol
# Density = 1.807016 g / cm^3
# Si number density = 18.111380 Si / 1000 Ang^3
#
#
#
# Elastic Constant Matrix: (Units=GPa)
#
#
# Indices 1 2 3 4 5 6 
#
# 1 95.2386 29.2581 79.7096 0.0000 0.0000 0.0000
# 2 29.2581 44.8302 27.7377 0.0000 0.0000 0.0000
# 3 79.7096 27.7377 116.2009 0.0000 0.0000 0.0000
# 4 0.0000 0.0000 0.0000 21.8420 0.0000 0.0000
# 5 0.0000 0.0000 0.0000 0.0000 41.8450 0.0000
# 6 0.0000 0.0000 0.0000 0.0000 0.0000 25.4005
#
#
#
# Elastic Compliance Matrix: (Units=1/GPa)
#
#
# Indices 1 2 3 4 5 6 
#
# 1 0.026440 -0.007080 -0.016447 0.000000 0.000000 0.000000
# 2 -0.007080 0.028067 -0.001843 0.000000 0.000000 0.000000
# 3 -0.016447 -0.001843 0.020328 0.000000 0.000000 0.000000
# 4 0.000000 0.000000 0.000000 0.045783 0.000000 0.000000
# 5 0.000000 0.000000 0.000000 0.000000 0.023898 0.000000
# 6 0.000000 0.000000 0.000000 0.000000 0.000000 0.039369
#
#
# Mechanical properties :
#
#
# Convention : Reuss Voigt Hill
#
# Bulk Modulus (GPa) = 41.50203 58.85338 50.17770
# Shear Modulus (GPa) = 20.60513 25.78845 23.19679
#
# Velocity S-wave (km/s) = 3.37662 3.77753 3.58269
# Velocity P-wave (km/s) = 6.17793 7.18276 6.69921
#
# Compressibility (1/GPa) = 0.02409521
#
# Stress axis : x y z
#
# Youngs Moduli (GPa) = 37.82122 35.62844 49.19346
#
# Poissons Ratio (x) = 0.25224 0.80909
# Poissons Ratio (y) = 0.26776 0.09068
# Poissons Ratio (z) = 0.62205 0.06568
#
# Static dielectric constant tensor:
#      x y z
#    x 3.471200 0.000000 0.000000 
#    y 0.000000 3.110520 0.000000 
#    z 0.000000 0.000000 3.472030 
# 
# 
# High freq. dielectric constant tensor:
#      x y z
#    x 1.702250 0.000000 0.000000 
#    y 0.000000 1.682490 0.000000 
#    z 0.000000 0.000000 1.707730 
# 
# From -- ./inp_files/26259.got.cif
#   From: 2010.03.12/outbox.cif.g09.slc.cpg/sg59_14_cif.got.tgz:26259.got - 2010.04.16 16:29:54.
