data_PCOD8240093
_publ_section_title
;
Structure prediction by ZEFSAII (Michael W. Deem and Ramdas Pophale) SiO2 
 PCOD8240093
Probable space group: P M M N
;
_chemical_formula_sum "Si O2"
_cell_formula_units_Z 64
_cell_length_a 8.931571
_cell_length_b 15.177576
_cell_length_c 24.072023
_cell_angle_alpha 90.000000
_cell_angle_beta 90.000000
_cell_angle_gamma 90.000000
_cell_volume 3263.193753
_symmetry_space_group_name_H-M "P M M N"
_symmetry_group_IT_number 59
_space_group.IT_coordinate_system_code '2'
_symmetry_cell_setting 'orthorhombic'
loop_
_space_group_symop_operation_xyz
x,y,z
1/2-x,1/2-y,z
1/2+x,-y,-z
-x,1/2+y,-z
-x,-y,-z
1/2+x,1/2+y,-z
1/2-x,y,z
x,1/2-y,z
loop_
_atom_site_type_symbol
_atom_site_label
_atom_site_fract_x
_atom_site_fract_y
_atom_site_fract_z
Si Si1 0.426198 0.906575 0.004113
Si Si2 0.424847 0.149291 0.395321
Si Si3 0.926716 0.498669 0.690404
Si Si4 0.572285 0.500105 0.191271
Si Si5 0.922163 0.149702 0.875147
Si Si6 0.926091 0.647461 0.381713
Si Si7 0.572660 0.154765 0.113204
Si Si8 0.082306 0.854469 0.493505
O O1 0.250000 0.918933 0.002207
O O2 0.482202 0.852089 0.950596
O O3 0.475061 0.858634 0.060849
O O4 0.500000 0.000000 0.000000
O O5 0.250000 0.145780 0.408395
O O6 0.473592 0.250000 0.380804
O O7 0.507943 0.111703 0.449735
O O8 0.469501 0.085236 0.345061
O O9 0.750000 0.485185 0.693995
O O10 0.993928 0.515108 0.750444
O O11 0.997168 0.409513 0.666138
O O12 0.750000 0.496900 0.198854
O O13 0.526972 0.593093 0.164888
O O14 0.508048 0.423166 0.151268
O O15 0.750000 0.119067 0.868726
O O16 0.941856 0.250000 0.856158
O O17 0.750000 0.632148 0.380255
O O18 0.966945 0.750000 0.371791
O O19 0.987332 0.612903 0.440831
O O20 0.750000 0.148325 0.115089
O O21 0.518202 0.250000 0.135970
O O22 0.250000 0.892812 0.488641
O O23 0.083610 0.750000 0.494609
#
# Coordination Sequence:
#
# PCOD8240093 Si02
#       8
#     8   8   8   8   8   8   8   8
#     4  10  18  32  57  86 117 149 182 224 276 331
#     4   9  19  37  59  83 113 149 187 228 278 334
#     4  11  24  40  59  82 110 148 191 236 283 334
#     4  11  23  39  58  81 110 146 188 237 284 329
#     4  10  21  37  59  85 113 149 189 229 277 334
#     4  10  21  38  60  85 114 148 186 231 282 335
#     4   9  18  34  57  84 113 147 185 224 273 333
#     4   9  17  31  55  87 119 149 183 226 277 333
#
# _framework density 19.612687000000001
#
# number of rings (size 3 to 8) (size 9 to 14) (size 15 to 20)
#    0.000    2.125    1.250    1.875    0.000    6.500 
#    0.000    0.000    0.000    3.750    0.000    0.000 
#    0.000    0.000    0.000    0.000    0.000    0.000 
#
# Total GULP energy -793613.049707 kJ/mol
# GULP energy per Si atom -12400.203902 kJ/mol
# Density = 1.956805 g / cm^3
# Si number density = 19.612687 Si / 1000 Ang^3
#
#
#
# Elastic Constant Matrix: (Units=GPa)
#
#
# Indices 1 2 3 4 5 6 
#
# 1 58.7495 25.9227 31.7799 0.0000 0.0000 0.0000
# 2 25.9227 93.0920 34.0019 0.0000 0.0000 0.0000
# 3 31.7799 34.0019 109.9061 0.0000 0.0000 0.0000
# 4 0.0000 0.0000 0.0000 14.4358 0.0000 0.0000
# 5 0.0000 0.0000 0.0000 0.0000 23.6486 0.0000
# 6 0.0000 0.0000 0.0000 0.0000 0.0000 24.8568
#
#
#
# Elastic Compliance Matrix: (Units=1/GPa)
#
#
# Indices 1 2 3 4 5 6 
#
# 1 0.021540 -0.004198 -0.004930 0.000000 0.000000 0.000000
# 2 -0.004198 0.012929 -0.002786 0.000000 0.000000 0.000000
# 3 -0.004930 -0.002786 0.011386 0.000000 0.000000 0.000000
# 4 0.000000 0.000000 0.000000 0.069272 0.000000 0.000000
# 5 0.000000 0.000000 0.000000 0.000000 0.042286 0.000000
# 6 0.000000 0.000000 0.000000 0.000000 0.000000 0.040230
#
#
# Mechanical properties :
#
#
# Convention : Reuss Voigt Hill
#
# Bulk Modulus (GPa) = 45.39657 49.46183 47.42920
# Shear Modulus (GPa) = 21.85194 23.92446 22.88820
#
# Velocity S-wave (km/s) = 3.34155 3.49642 3.41986
# Velocity P-wave (km/s) = 6.17128 6.44779 6.31105
#
# Compressibility (1/GPa) = 0.02202809
#
# Stress axis : x y z
#
# Youngs Moduli (GPa) = 46.42453 77.34847 87.82648
#
# Poissons Ratio (x) = 0.32467 0.43298
# Poissons Ratio (y) = 0.19487 0.24468
# Poissons Ratio (z) = 0.22887 0.21549
#
# Static dielectric constant tensor:
#      x y z
#    x 3.488400 0.000000 0.000000 
#    y 0.000000 3.621490 0.000000 
#    z 0.000000 0.000000 3.777840 
# 
# 
# High freq. dielectric constant tensor:
#      x y z
#    x 1.752460 0.000000 0.000000 
#    y 0.000000 1.767620 0.000000 
#    z 0.000000 0.000000 1.766100 
# 
# From -- ./inp_files/31543.got.cif
#   From: 2010.03.12/outbox.cif.g09.slc.cpg/sg59_16_cif.got.tgz:31543.got - 2010.04.16 16:29:54.
