data_PCOD8240522
_publ_section_title
;
Structure prediction by ZEFSAII (Michael W. Deem and Ramdas Pophale) SiO2 
 PCOD8240522
Probable space group: P M M N
;
_chemical_formula_sum "Si O2"
_cell_formula_units_Z 64
_cell_length_a 15.044354
_cell_length_b 14.369577
_cell_length_c 16.633571
_cell_angle_alpha 90.000000
_cell_angle_beta 90.000000
_cell_angle_gamma 90.000000
_cell_volume 3595.862066
_symmetry_space_group_name_H-M "P M M N"
_symmetry_group_IT_number 59
_space_group.IT_coordinate_system_code '2'
_symmetry_cell_setting 'orthorhombic'
loop_
_space_group_symop_operation_xyz
x,y,z
1/2-x,1/2-y,z
1/2+x,-y,-z
-x,1/2+y,-z
-x,-y,-z
1/2+x,1/2+y,-z
1/2-x,y,z
x,1/2-y,z
loop_
_atom_site_type_symbol
_atom_site_label
_atom_site_fract_x
_atom_site_fract_y
_atom_site_fract_z
Si Si1 0.462059 0.001001 0.841836
Si Si2 0.350125 0.143713 0.289698
Si Si3 0.152002 0.144575 0.937096
Si Si4 0.149542 0.546633 0.601583
Si Si5 0.150845 0.849204 0.757612
Si Si6 0.852169 0.356842 0.566040
Si Si7 0.094547 0.146014 0.110943
Si Si8 0.473509 0.976733 0.326858
O O1 0.421456 0.079984 0.897266
O O2 0.514277 0.048133 0.767343
O O3 0.388154 0.935387 0.804034
O O4 0.521265 0.934357 0.897020
O O5 0.250000 0.118295 0.318560
O O6 0.373334 0.250000 0.314041
O O7 0.351060 0.132231 0.193179
O O8 0.422356 0.076780 0.332619
O O9 0.250000 0.119172 0.904097
O O10 0.127157 0.250000 0.913661
O O11 0.156569 0.132973 0.033440
O O12 0.250000 0.500662 0.605130
O O13 0.147660 0.633561 0.662150
O O14 0.128989 0.583288 0.513109
O O15 0.069132 0.477460 0.627178
O O16 0.250000 0.839565 0.789243
O O17 0.101102 0.750000 0.773580
O O18 0.750000 0.366075 0.593032
O O19 0.877487 0.250000 0.549949
O O20 0.913570 0.395564 0.636986
O O21 0.051795 0.250000 0.109587
#
# Coordination Sequence:
#
# PCOD8240522 Si02
#       8
#     8   8   8   8   8   8   8   8
#     4  10  19  30  46  69  95 121 150 190 236 281
#     4   9  17  30  49  74 102 128 155 192 240 290
#     4  10  20  33  48  65  88 122 161 195 226 268
#     4   9  18  32  50  72  97 126 160 198 239 281
#     4   9  16  27  45  69  96 123 150 185 232 282
#     4  10  20  34  52  72  95 126 164 202 236 276
#     4   9  17  30  49  71  93 118 151 191 235 281
#     4  10  20  32  50  73  99 128 158 196 241 288
#
# _framework density 17.798235999999999
#
# number of rings (size 3 to 8) (size 9 to 14) (size 15 to 20)
#    0.000    2.500    0.000    2.625    0.000    7.500 
#    0.000    0.000    0.000    0.375    0.000    0.000 
#    0.000    4.000    0.000    0.000    0.000    0.000 
#
# Total GULP energy -793081.052322 kJ/mol
# GULP energy per Si atom -12391.891443 kJ/mol
# Density = 1.775773 g / cm^3
# Si number density = 17.798236 Si / 1000 Ang^3
#
#
#
# Elastic Constant Matrix: (Units=GPa)
#
#
# Indices 1 2 3 4 5 6 
#
# 1 88.9171 35.2796 25.9641 0.0000 0.0000 0.0000
# 2 35.2796 60.9822 23.6280 0.0000 0.0000 0.0000
# 3 25.9641 23.6280 54.3539 0.0000 0.0000 0.0000
# 4 0.0000 0.0000 0.0000 16.9098 0.0000 0.0000
# 5 0.0000 0.0000 0.0000 0.0000 22.8645 0.0000
# 6 0.0000 0.0000 0.0000 0.0000 0.0000 11.8748
#
#
#
# Elastic Compliance Matrix: (Units=1/GPa)
#
#
# Indices 1 2 3 4 5 6 
#
# 1 0.015346 -0.007261 -0.004174 0.000000 0.000000 0.000000
# 2 -0.007261 0.023155 -0.006597 0.000000 0.000000 0.000000
# 3 -0.004174 -0.006597 0.023260 0.000000 0.000000 0.000000
# 4 0.000000 0.000000 0.000000 0.059137 0.000000 0.000000
# 5 0.000000 0.000000 0.000000 0.000000 0.043736 0.000000
# 6 0.000000 0.000000 0.000000 0.000000 0.000000 0.084212
#
#
# Mechanical properties :
#
#
# Convention : Reuss Voigt Hill
#
# Bulk Modulus (GPa) = 38.91617 41.55515 40.23566
# Shear Modulus (GPa) = 17.03719 18.28862 17.66290
#
# Velocity S-wave (km/s) = 3.09729 3.20902 3.15365
# Velocity P-wave (km/s) = 5.89097 6.09336 5.99302
#
# Compressibility (1/GPa) = 0.02569626
#
# Stress axis : x y z
#
# Youngs Moduli (GPa) = 65.16273 43.18749 42.99257
#
# Poissons Ratio (x) = 0.31357 0.17947
# Poissons Ratio (y) = 0.47313 0.28363
# Poissons Ratio (z) = 0.27201 0.28492
#
# Static dielectric constant tensor:
#      x y z
#    x 3.422730 0.000000 0.000000 
#    y 0.000000 3.149620 0.000000 
#    z 0.000000 0.000000 3.199390 
# 
# 
# High freq. dielectric constant tensor:
#      x y z
#    x 1.694890 0.000000 0.000000 
#    y 0.000000 1.669530 0.000000 
#    z 0.000000 0.000000 1.675740 
# 
# From -- ./inp_files/27675.got.cif
#   From: 2010.03.12/outbox.cif.g09.slc.cpg/sg59_14_cif.got.tgz:27675.got - 2010.04.16 16:29:54.
