data_PCOD8240189
_publ_section_title
;
Structure prediction by ZEFSAII (Michael W. Deem and Ramdas Pophale) SiO2 
 PCOD8240189
Probable space group: P M M N
;
_chemical_formula_sum "Si O2"
_cell_formula_units_Z 64
_cell_length_a 18.596838
_cell_length_b 19.244826
_cell_length_c 9.592041
_cell_angle_alpha 90.000000
_cell_angle_beta 90.000000
_cell_angle_gamma 90.000000
_cell_volume 3432.923480
_symmetry_space_group_name_H-M "P M M N"
_symmetry_group_IT_number 59
_space_group.IT_coordinate_system_code '2'
_symmetry_cell_setting 'orthorhombic'
loop_
_space_group_symop_operation_xyz
x,y,z
1/2-x,1/2-y,z
1/2+x,-y,-z
-x,1/2+y,-z
-x,-y,-z
1/2+x,1/2+y,-z
1/2-x,y,z
x,1/2-y,z
loop_
_atom_site_type_symbol
_atom_site_label
_atom_site_fract_x
_atom_site_fract_y
_atom_site_fract_z
Si Si1 0.939356 0.670997 0.801964
Si Si2 0.832487 0.422031 0.341926
Si Si3 0.942275 0.598185 0.517760
Si Si4 0.598517 0.330450 0.120484
Si Si5 0.833337 0.921746 0.290796
Si Si6 0.911548 0.055611 0.608025
Si Si7 0.833708 0.427699 0.893981
Si Si8 0.668271 0.917095 0.979143
O O1 0.913528 0.750000 0.817242
O O2 0.948200 0.655943 0.637397
O O3 0.880110 0.621524 0.867870
O O4 0.012841 0.659088 0.887473
O O5 0.750000 0.407590 0.310199
O O6 0.877748 0.362836 0.266872
O O7 0.856577 0.497547 0.286711
O O8 0.848375 0.418975 0.505837
O O9 0.879541 0.618338 0.407738
O O10 0.925147 0.526382 0.596223
O O11 0.015400 0.595885 0.428973
O O12 0.619968 0.250000 0.118335
O O13 0.639403 0.366823 0.993931
O O14 0.750000 0.914319 0.332686
O O15 0.848562 0.891367 0.136685
O O16 0.885039 0.074956 0.760679
O O17 0.750000 0.415983 0.854630
O O18 0.844212 0.500437 0.972660
O O19 0.750000 0.899315 0.939446
#
# Coordination Sequence:
#
# PCOD8240189 Si02
#       8
#     8   8   8   8   8   8   8   8
#     4  11  24  42  60  84 119 160 201 245 297 357
#     4  10  18  34  57  82 117 153 187 237 290 345
#     4  10  20  36  58  88 117 153 189 243 299 351
#     4  11  24  40  58  85 120 160 204 244 293 358
#     4   9  19  34  58  91 117 142 187 241 296 351
#     4  10  20  34  57  90 117 145 195 246 294 345
#     4  11  22  37  60  91 123 156 197 251 302 351
#     4  10  21  38  61  91 121 153 195 245 301 360
#
# _framework density 18.643003
#
# number of rings (size 3 to 8) (size 9 to 14) (size 15 to 20)
#    0.000    1.750    3.750    0.750    1.750    2.750 
#    0.000    1.875    0.000    2.250    0.000    0.000 
#    0.000    0.000    0.000    0.000    0.000    0.000 
#
# Total GULP energy -793686.584894 kJ/mol
# GULP energy per Si atom -12401.352889 kJ/mol
# Density = 1.860057 g / cm^3
# Si number density = 18.643003 Si / 1000 Ang^3
#
#
#
# Elastic Constant Matrix: (Units=GPa)
#
#
# Indices 1 2 3 4 5 6 
#
# 1 78.1379 29.7986 32.4724 0.0000 0.0000 0.0000
# 2 29.7986 56.0914 15.2911 0.0000 0.0000 0.0000
# 3 32.4724 15.2911 84.0584 0.0000 0.0000 0.0000
# 4 0.0000 0.0000 0.0000 21.4425 0.0000 0.0000
# 5 0.0000 0.0000 0.0000 0.0000 39.7679 0.0000
# 6 0.0000 0.0000 0.0000 0.0000 0.0000 18.2494
#
#
#
# Elastic Compliance Matrix: (Units=1/GPa)
#
#
# Indices 1 2 3 4 5 6 
#
# 1 0.018220 -0.008165 -0.005553 0.000000 0.000000 0.000000
# 2 -0.008165 0.022418 -0.000924 0.000000 0.000000 0.000000
# 3 -0.005553 -0.000924 0.014210 0.000000 0.000000 0.000000
# 4 0.000000 0.000000 0.000000 0.046636 0.000000 0.000000
# 5 0.000000 0.000000 0.000000 0.000000 0.025146 0.000000
# 6 0.000000 0.000000 0.000000 0.000000 0.000000 0.054796
#
#
# Mechanical properties :
#
#
# Convention : Reuss Voigt Hill
#
# Bulk Modulus (GPa) = 39.11920 41.49022 40.30471
# Shear Modulus (GPa) = 22.80705 25.27367 24.04036
#
# Velocity S-wave (km/s) = 3.50145 3.68593 3.59487
# Velocity P-wave (km/s) = 6.11357 6.35753 6.23674
#
# Compressibility (1/GPa) = 0.02556289
#
# Stress axis : x y z
#
# Youngs Moduli (GPa) = 54.88616 44.60755 70.37458
#
# Poissons Ratio (x) = 0.36424 0.39079
# Poissons Ratio (y) = 0.44817 0.06500
# Poissons Ratio (z) = 0.30478 0.04120
#
# Static dielectric constant tensor:
#      x y z
#    x 3.534130 0.000000 0.000000 
#    y 0.000000 3.145700 0.000000 
#    z 0.000000 0.000000 3.428670 
# 
# 
# High freq. dielectric constant tensor:
#      x y z
#    x 1.734940 0.000000 0.000000 
#    y 0.000000 1.691690 0.000000 
#    z 0.000000 0.000000 1.731210 
# 
# From -- ./inp_files/10681.got.cif
#   From: 2010.03.12/outbox.cif.g09.slc.cpg/sg59_6_cif.got.tgz:10681.got - 2010.04.16 16:29:54.
