data_PCOD8240559
_publ_section_title
;
Structure prediction by ZEFSAII (Michael W. Deem and Ramdas Pophale) SiO2 
 PCOD8240559
Probable space group: P M M N
;
_chemical_formula_sum "Si O2"
_cell_formula_units_Z 56
_cell_length_a 9.204240
_cell_length_b 17.207559
_cell_length_c 20.265538
_cell_angle_alpha 90.000000
_cell_angle_beta 90.000000
_cell_angle_gamma 90.000000
_cell_volume 3209.706630
_symmetry_space_group_name_H-M "P M M N"
_symmetry_group_IT_number 59
_space_group.IT_coordinate_system_code '2'
_symmetry_cell_setting 'orthorhombic'
loop_
_space_group_symop_operation_xyz
x,y,z
1/2-x,1/2-y,z
1/2+x,-y,-z
-x,1/2+y,-z
-x,-y,-z
1/2+x,1/2+y,-z
1/2-x,y,z
x,1/2-y,z
loop_
_atom_site_type_symbol
_atom_site_label
_atom_site_fract_x
_atom_site_fract_y
_atom_site_fract_z
Si Si1 0.416735 0.568949 0.465437
Si Si2 0.587271 0.387812 0.974225
Si Si3 0.084160 0.024937 0.342407
Si Si4 0.584225 0.664789 0.146030
Si Si5 0.417475 0.337636 0.440284
Si Si6 0.913456 0.556214 0.910543
Si Si7 0.421174 0.006522 0.789643
O O1 0.500000 0.500000 0.500000
O O2 0.250000 0.568821 0.487646
O O3 0.430147 0.553360 0.387004
O O4 0.491404 0.647928 0.492004
O O5 0.750000 0.356968 0.987251
O O6 0.511591 0.334272 0.919803
O O7 0.591959 0.474934 0.947800
O O8 0.497284 0.382824 0.042488
O O9 0.250000 0.033372 0.317263
O O10 0.037240 0.102253 0.382769
O O11 0.975333 0.016489 0.282200
O O12 0.750000 0.649852 0.124085
O O13 0.566303 0.750000 0.179867
O O14 0.537120 0.596981 0.196701
O O15 0.250000 0.350758 0.458609
O O16 0.447569 0.250000 0.415640
O O17 0.750000 0.586182 0.896256
O O18 0.000546 0.548997 0.842270
O O19 0.250000 0.992328 0.794261
#
# Coordination Sequence:
#
# PCOD8240559 Si02
#       7
#     8   8   8   8   8   8   8
#     4   9  17  30  49  72  98 127 160 198 238 282
#     4   9  16  26  43  67  90 112 145 190 235 277
#     4   9  18  32  49  70  98 130 161 195 239 291
#     4   9  18  32  47  64  90 124 161 200 244 293
#     4   9  18  33  53  76 100 126 159 201 248 296
#     4   9  16  27  44  65  90 118 148 186 233 282
#     4  10  19  30  47  70  95 126 165 205 240 281
#
# _framework density 17.447077
#
# number of rings (size 3 to 8) (size 9 to 14) (size 15 to 20)
#    0.000    2.857    0.000    2.571    0.000    7.429 
#    0.000    0.714    0.000    3.429    0.000    2.000 
#    0.000    0.000    0.000    0.000    0.000    0.000 
#
# Total GULP energy -694081.516931 kJ/mol
# GULP energy per Si atom -12394.312802 kJ/mol
# Density = 1.740737 g / cm^3
# Si number density = 17.447077 Si / 1000 Ang^3
#
#
#
# Elastic Constant Matrix: (Units=GPa)
#
#
# Indices 1 2 3 4 5 6 
#
# 1 112.2761 31.2164 61.2223 0.0000 0.0000 0.0000
# 2 31.2164 70.2227 39.0431 0.0000 0.0000 0.0000
# 3 61.2223 39.0431 104.6248 0.0000 0.0000 0.0000
# 4 0.0000 0.0000 0.0000 16.3733 0.0000 0.0000
# 5 0.0000 0.0000 0.0000 0.0000 35.0021 0.0000
# 6 0.0000 0.0000 0.0000 0.0000 0.0000 19.9264
#
#
#
# Elastic Compliance Matrix: (Units=1/GPa)
#
#
# Indices 1 2 3 4 5 6 
#
# 1 0.013299 -0.002000 -0.007036 0.000000 0.000000 0.000000
# 2 -0.002000 0.018269 -0.005647 0.000000 0.000000 0.000000
# 3 -0.007036 -0.005647 0.015782 0.000000 0.000000 0.000000
# 4 0.000000 0.000000 0.000000 0.061075 0.000000 0.000000
# 5 0.000000 0.000000 0.000000 0.000000 0.028570 0.000000
# 6 0.000000 0.000000 0.000000 0.000000 0.000000 0.050185
#
#
# Mechanical properties :
#
#
# Convention : Reuss Voigt Hill
#
# Bulk Modulus (GPa) = 55.60283 61.12081 58.36182
# Shear Modulus (GPa) = 22.46772 24.63648 23.55210
#
# Velocity S-wave (km/s) = 3.59244 3.76183 3.67811
# Velocity P-wave (km/s) = 7.01043 7.34688 7.18062
#
# Compressibility (1/GPa) = 0.01798470
#
# Stress axis : x y z
#
# Youngs Moduli (GPa) = 75.19249 54.73657 63.36165
#
# Poissons Ratio (x) = 0.10948 0.44580
# Poissons Ratio (y) = 0.15039 0.35782
# Poissons Ratio (z) = 0.52904 0.30911
#
# Static dielectric constant tensor:
#      x y z
#    x 3.499230 0.000000 0.000000 
#    y 0.000000 3.857240 0.000000 
#    z 0.000000 0.000000 3.264360 
# 
# 
# High freq. dielectric constant tensor:
#      x y z
#    x 1.687880 0.000000 0.000000 
#    y 0.000000 1.643880 0.000000 
#    z 0.000000 0.000000 1.654560 
# 
# From -- ./inp_files/29292.got.cif
#   From: 2010.03.12/outbox.cif.g09.slc.cpg/sg59_15_cif.got.tgz:29292.got - 2010.04.16 16:29:54.
