data_PCOD8240151
_publ_section_title
;
Structure prediction by ZEFSAII (Michael W. Deem and Ramdas Pophale) SiO2 
 PCOD8240151
Probable space group: P M M N
;
_chemical_formula_sum "Si O2"
_cell_formula_units_Z 64
_cell_length_a 30.725155
_cell_length_b 8.922943
_cell_length_c 11.884149
_cell_angle_alpha 90.000000
_cell_angle_beta 90.000000
_cell_angle_gamma 90.000000
_cell_volume 3258.144109
_symmetry_space_group_name_H-M "P M M N"
_symmetry_group_IT_number 59
_space_group.IT_coordinate_system_code '2'
_symmetry_cell_setting 'orthorhombic'
loop_
_space_group_symop_operation_xyz
x,y,z
1/2-x,1/2-y,z
1/2+x,-y,-z
-x,1/2+y,-z
-x,-y,-z
1/2+x,1/2+y,-z
1/2-x,y,z
x,1/2-y,z
loop_
_atom_site_type_symbol
_atom_site_label
_atom_site_fract_x
_atom_site_fract_y
_atom_site_fract_z
Si Si1 0.952737 0.074068 0.727796
Si Si2 0.298918 0.420559 0.261982
Si Si3 0.799747 0.077476 0.266745
Si Si4 0.924732 0.925303 0.504289
Si Si5 0.549149 0.926445 0.261792
Si Si6 0.872361 0.426495 0.874515
Si Si7 0.628707 0.572161 0.116019
Si Si8 0.324377 0.077905 0.509556
O O1 0.947265 0.250000 0.712923
O O2 0.915621 0.012454 0.811467
O O3 0.000291 0.032511 0.778540
O O4 0.949948 0.004492 0.604711
O O5 0.250000 0.444583 0.216583
O O6 0.314722 0.250000 0.239425
O O7 0.330212 0.535353 0.198999
O O8 0.298510 0.452617 0.394980
O O9 0.750000 0.055377 0.228083
O O10 0.813940 0.250000 0.256221
O O11 0.829579 0.977523 0.186776
O O12 0.804333 0.027442 0.395647
O O13 0.933675 0.750000 0.515260
O O14 0.942455 0.991604 0.386542
O O15 0.874146 0.964298 0.513050
O O16 0.556292 0.750000 0.268747
O O17 0.584634 0.991247 0.174553
O O18 0.874560 0.250000 0.893966
O O19 0.868527 0.507075 0.992498
O O20 0.628626 0.750000 0.108780
O O21 0.319932 0.250000 0.549491
#
# Coordination Sequence:
#
# PCOD8240151 Si02
#       8
#     8   8   8   8   8   8   8   8
#     4  10  21  37  58  85 120 156 190 231 288 350
#     4  10  21  38  61  87 115 152 197 240 283 339
#     4  11  24  40  60  89 123 154 187 234 292 351
#     4  10  18  33  59  88 119 151 190 237 284 336
#     4   9  19  37  59  86 117 151 191 238 286 338
#     4  11  24  40  58  84 117 153 192 242 296 346
#     4  11  23  42  65  84 109 152 200 246 289 338
#     4  10  19  35  61  90 120 155 195 237 283 339
#
# _framework density 19.643084000000002
#
# number of rings (size 3 to 8) (size 9 to 14) (size 15 to 20)
#    0.000    1.750    2.500    1.875    0.000    4.250 
#    0.000    1.250    0.000    0.000    0.000    0.000 
#    0.000    0.000    0.000    0.000    0.000    0.000 
#
# Total GULP energy -793755.212267 kJ/mol
# GULP energy per Si atom -12402.425192 kJ/mol
# Density = 1.959838 g / cm^3
# Si number density = 19.643084 Si / 1000 Ang^3
#
#
#
# Elastic Constant Matrix: (Units=GPa)
#
#
# Indices 1 2 3 4 5 6 
#
# 1 122.0325 35.7977 47.8688 0.0000 0.0000 0.0000
# 2 35.7977 54.8749 33.8143 0.0000 0.0000 0.0000
# 3 47.8688 33.8143 107.8077 0.0000 0.0000 0.0000
# 4 0.0000 0.0000 0.0000 30.8922 0.0000 0.0000
# 5 0.0000 0.0000 0.0000 0.0000 7.6109 0.0000
# 6 0.0000 0.0000 0.0000 0.0000 0.0000 24.5822
#
#
#
# Elastic Compliance Matrix: (Units=1/GPa)
#
#
# Indices 1 2 3 4 5 6 
#
# 1 0.010987 -0.005158 -0.003260 0.000000 0.000000 0.000000
# 2 -0.005158 0.025011 -0.005554 0.000000 0.000000 0.000000
# 3 -0.003260 -0.005554 0.012466 0.000000 0.000000 0.000000
# 4 0.000000 0.000000 0.000000 0.032371 0.000000 0.000000
# 5 0.000000 0.000000 0.000000 0.000000 0.131390 0.000000
# 6 0.000000 0.000000 0.000000 0.000000 0.000000 0.040680
#
#
# Mechanical properties :
#
#
# Convention : Reuss Voigt Hill
#
# Bulk Modulus (GPa) = 48.73955 57.74184 53.24070
# Shear Modulus (GPa) = 17.37990 23.76601 20.57295
#
# Velocity S-wave (km/s) = 2.97776 3.48212 3.23977
# Velocity P-wave (km/s) = 6.05716 6.75472 6.41543
#
# Compressibility (1/GPa) = 0.02051722
#
# Stress axis : x y z
#
# Youngs Moduli (GPa) = 91.02029 39.98274 80.22035
#
# Poissons Ratio (x) = 0.20623 0.26155
# Poissons Ratio (y) = 0.46948 0.44558
# Poissons Ratio (z) = 0.29677 0.22208
#
# Static dielectric constant tensor:
#      x y z
#    x 3.809780 0.000000 0.000000 
#    y 0.000000 3.404650 0.000000 
#    z 0.000000 0.000000 3.545850 
# 
# 
# High freq. dielectric constant tensor:
#      x y z
#    x 1.781560 0.000000 0.000000 
#    y 0.000000 1.748480 0.000000 
#    z 0.000000 0.000000 1.762720 
# 
# From -- ./inp_files/14868.got.cif
#   From: 2010.03.12/outbox.cif.g09.slc.cpg/sg59_8_cif.got.tgz:14868.got - 2010.04.16 16:29:54.
