data_PCOD8240653
_publ_section_title
;
Structure prediction by ZEFSAII (Michael W. Deem and Ramdas Pophale) SiO2 
 PCOD8240653
Probable space group: P M M N
;
_chemical_formula_sum "Si O2"
_cell_formula_units_Z 64
_cell_length_a 28.172246
_cell_length_b 9.321464
_cell_length_c 13.292243
_cell_angle_alpha 90.000000
_cell_angle_beta 90.000000
_cell_angle_gamma 90.000000
_cell_volume 3490.630433
_symmetry_space_group_name_H-M "P M M N"
_symmetry_group_IT_number 59
_space_group.IT_coordinate_system_code '2'
_symmetry_cell_setting 'orthorhombic'
loop_
_space_group_symop_operation_xyz
x,y,z
1/2-x,1/2-y,z
1/2+x,-y,-z
-x,1/2+y,-z
-x,-y,-z
1/2+x,1/2+y,-z
1/2-x,y,z
x,1/2-y,z
loop_
_atom_site_type_symbol
_atom_site_label
_atom_site_fract_x
_atom_site_fract_y
_atom_site_fract_z
Si Si1 0.564492 0.090389 0.240607
Si Si2 0.872408 0.586920 0.107514
Si Si3 0.303769 0.915397 0.033078
Si Si4 0.640148 0.407806 0.414901
Si Si5 0.619026 0.915852 0.604257
Si Si6 0.801549 0.907777 0.290184
Si Si7 0.988445 0.583093 0.603228
Si Si8 0.303809 0.914576 0.269360
O O1 0.552590 0.250000 0.199513
O O2 0.607182 0.100537 0.318506
O O3 0.519992 0.025171 0.303029
O O4 0.579067 0.992302 0.144249
O O5 0.884711 0.750000 0.075216
O O6 0.837560 0.581954 0.200233
O O7 0.845510 0.508238 0.016716
O O8 0.250000 0.964288 0.002507
O O9 0.310815 0.750000 0.001505
O O10 0.310275 0.935799 0.151265
O O11 0.649916 0.250000 0.460059
O O12 0.616955 0.509747 0.496487
O O13 0.689335 0.477688 0.378333
O O14 0.632561 0.750000 0.592523
O O15 0.565280 0.935267 0.643330
O O16 0.657734 0.987153 0.676078
O O17 0.750000 0.939176 0.244332
O O18 0.804462 0.750000 0.339650
O O19 0.000771 0.750000 0.582153
O O20 0.000000 0.500000 0.500000
O O21 0.250000 0.958393 0.300900
O O22 0.313102 0.750000 0.299523
#
# Coordination Sequence:
#
# PCOD8240653 Si02
#       8
#     8   8   8   8   8   8   8   8
#     4   9  18  33  50  72 103 138 174 211 253 306
#     4  10  19  30  49  77 106 134 166 210 263 315
#     4   9  18  34  56  79 102 133 174 218 264 315
#     4  10  19  31  48  68  94 132 174 212 251 302
#     4  11  22  34  53  80 107 136 171 217 269 313
#     4   9  18  31  44  63  97 135 167 204 252 306
#     4  10  20  34  54  79 107 139 178 220 262 308
#     4   9  20  39  59  78 103 137 178 220 260 310
#
# _framework density 18.334797999999999
#
# number of rings (size 3 to 8) (size 9 to 14) (size 15 to 20)
#    0.000    2.375    1.250    2.250    0.000    4.250 
#    0.000    1.250    0.000    0.750    0.000    0.000 
#    0.000    0.000    0.000    0.000    0.000    0.000 
#
# Total GULP energy -793128.219660 kJ/mol
# GULP energy per Si atom -12392.628432 kJ/mol
# Density = 1.829307 g / cm^3
# Si number density = 18.334798 Si / 1000 Ang^3
#
#
#
# Elastic Constant Matrix: (Units=GPa)
#
#
# Indices 1 2 3 4 5 6 
#
# 1 76.0105 40.8887 17.4845 0.0000 0.0000 0.0000
# 2 40.8887 105.4068 30.1357 0.0000 0.0000 0.0000
# 3 17.4845 30.1357 32.7052 0.0000 0.0000 0.0000
# 4 0.0000 0.0000 0.0000 30.4327 0.0000 0.0000
# 5 0.0000 0.0000 0.0000 0.0000 27.5862 0.0000
# 6 0.0000 0.0000 0.0000 0.0000 0.0000 16.6643
#
#
#
# Elastic Compliance Matrix: (Units=1/GPa)
#
#
# Indices 1 2 3 4 5 6 
#
# 1 0.017020 -0.005432 -0.004094 0.000000 0.000000 0.000000
# 2 -0.005432 0.014614 -0.010562 0.000000 0.000000 0.000000
# 3 -0.004094 -0.010562 0.042497 0.000000 0.000000 0.000000
# 4 0.000000 0.000000 0.000000 0.032859 0.000000 0.000000
# 5 0.000000 0.000000 0.000000 0.000000 0.036250 0.000000
# 6 0.000000 0.000000 0.000000 0.000000 0.000000 0.060008
#
#
# Mechanical properties :
#
#
# Convention : Reuss Voigt Hill
#
# Bulk Modulus (GPa) = 29.45033 43.46003 36.45518
# Shear Modulus (GPa) = 19.62777 23.31087 21.46932
#
# Velocity S-wave (km/s) = 3.27543 3.56954 3.42564
# Velocity P-wave (km/s) = 5.51380 6.38309 5.96430
#
# Compressibility (1/GPa) = 0.03395548
#
# Stress axis : x y z
#
# Youngs Moduli (GPa) = 58.75541 68.42898 23.53121
#
# Poissons Ratio (x) = 0.37169 0.09633
# Poissons Ratio (y) = 0.31914 0.24853
# Poissons Ratio (z) = 0.24054 0.72273
#
# Static dielectric constant tensor:
#      x y z
#    x 3.371880 0.000000 0.000000 
#    y 0.000000 3.703210 0.000000 
#    z 0.000000 0.000000 3.124960 
# 
# 
# High freq. dielectric constant tensor:
#      x y z
#    x 1.705680 0.000000 0.000000 
#    y 0.000000 1.716760 0.000000 
#    z 0.000000 0.000000 1.685460 
# 
# From -- ./inp_files/19380.got.cif
#   From: 2010.03.12/outbox.cif.g09.slc.cpg/sg59_10_cif.got.tgz:19380.got - 2010.04.16 16:29:54.
