data_PCOD8240883
_publ_section_title
;
Structure prediction by ZEFSAII (Michael W. Deem and Ramdas Pophale) SiO2 
 PCOD8240883
Probable space group: P M M N
;
_chemical_formula_sum "Si O2"
_cell_formula_units_Z 64
_cell_length_a 8.927498
_cell_length_b 24.144165
_cell_length_c 15.208239
_cell_angle_alpha 90.000000
_cell_angle_beta 90.000000
_cell_angle_gamma 90.000000
_cell_volume 3278.090060
_symmetry_space_group_name_H-M "P M M N"
_symmetry_group_IT_number 59
_space_group.IT_coordinate_system_code '2'
_symmetry_cell_setting 'orthorhombic'
loop_
_space_group_symop_operation_xyz
x,y,z
1/2-x,1/2-y,z
1/2+x,-y,-z
-x,1/2+y,-z
-x,-y,-z
1/2+x,1/2+y,-z
1/2-x,y,z
x,1/2-y,z
loop_
_atom_site_type_symbol
_atom_site_label
_atom_site_fract_x
_atom_site_fract_y
_atom_site_fract_z
Si Si1 0.576649 0.312661 0.929483
Si Si2 0.414464 0.348211 0.096570
Si Si3 0.426339 0.387316 0.286392
Si Si4 0.925175 0.005323 0.247517
Si Si5 0.918595 0.315120 0.627480
Si Si6 0.578407 0.185474 0.427968
Si Si7 0.426011 0.380392 0.774896
Si Si8 0.084500 0.470070 0.075044
O O1 0.750000 0.328285 0.931182
O O2 0.551358 0.250000 0.893795
O O3 0.498780 0.356464 0.864013
O O4 0.518787 0.313431 0.030674
O O5 0.250000 0.319560 0.103891
O O6 0.482729 0.357996 0.195124
O O7 0.394529 0.406785 0.048147
O O8 0.250000 0.396431 0.277079
O O9 0.495788 0.448274 0.309237
O O10 0.465424 0.347470 0.366401
O O11 0.750000 0.007599 0.266608
O O12 0.984641 0.941935 0.252196
O O13 0.966998 0.027215 0.152705
O O14 0.750000 0.332345 0.655321
O O15 0.937373 0.250000 0.634714
O O16 0.950606 0.334129 0.527794
O O17 0.037755 0.342364 0.691863
O O18 0.750000 0.173301 0.401027
O O19 0.542411 0.250000 0.417812
O O20 0.250000 0.381893 0.792114
O O21 0.250000 0.495838 0.095415
O O22 0.000000 0.500000 0.000000
#
# Coordination Sequence:
#
# PCOD8240883 Si02
#       8
#     8   8   8   8   8   8   8   8
#     4  11  24  38  53  77 108 144 187 230 273 328
#     4   9  20  36  51  72 104 139 175 217 264 313
#     4  10  21  37  58  85 115 147 185 229 277 328
#     4  10  21  36  53  76 108 144 184 228 274 329
#     4   9  19  37  60  85 112 143 182 227 275 330
#     4   9  19  37  61  87 114 145 180 221 273 330
#     4  11  23  37  56  82 110 144 185 229 279 331
#     4  10  19  31  49  74 101 132 175 222 267 316
#
# _framework density 19.523564
#
# number of rings (size 3 to 8) (size 9 to 14) (size 15 to 20)
#    0.000    2.125    0.000    4.500    0.000   12.000 
#    0.000    4.375    0.000    0.000    0.000    0.000 
#    0.000    0.000    0.000    0.000    0.000    0.000 
#
# Total GULP energy -793042.353513 kJ/mol
# GULP energy per Si atom -12391.286774 kJ/mol
# Density = 1.947913 g / cm^3
# Si number density = 19.523564 Si / 1000 Ang^3
#
#
#
# Elastic Constant Matrix: (Units=GPa)
#
#
# Indices 1 2 3 4 5 6 
#
# 1 70.4474 34.4803 31.5705 0.0000 0.0000 0.0000
# 2 34.4803 70.1545 36.4461 0.0000 0.0000 0.0000
# 3 31.5705 36.4461 80.6769 0.0000 0.0000 0.0000
# 4 0.0000 0.0000 0.0000 30.0654 0.0000 0.0000
# 5 0.0000 0.0000 0.0000 0.0000 33.2549 0.0000
# 6 0.0000 0.0000 0.0000 0.0000 0.0000 29.4338
#
#
#
# Elastic Compliance Matrix: (Units=1/GPa)
#
#
# Indices 1 2 3 4 5 6 
#
# 1 0.019810 -0.007460 -0.004382 0.000000 0.000000 0.000000
# 2 -0.007460 0.021435 -0.006764 0.000000 0.000000 0.000000
# 3 -0.004382 -0.006764 0.017166 0.000000 0.000000 0.000000
# 4 0.000000 0.000000 0.000000 0.033261 0.000000 0.000000
# 5 0.000000 0.000000 0.000000 0.000000 0.030071 0.000000
# 6 0.000000 0.000000 0.000000 0.000000 0.000000 0.033975
#
#
# Mechanical properties :
#
#
# Convention : Reuss Voigt Hill
#
# Bulk Modulus (GPa) = 47.17331 47.36358 47.26844
# Shear Modulus (GPa) = 25.00071 26.46962 25.73516
#
# Velocity S-wave (km/s) = 3.58235 3.68608 3.63458
# Velocity P-wave (km/s) = 6.42850 6.51373 6.47125
#
# Compressibility (1/GPa) = 0.02119843
#
# Stress axis : x y z
#
# Youngs Moduli (GPa) = 50.47958 46.65329 58.25622
#
# Poissons Ratio (x) = 0.34803 0.25528
# Poissons Ratio (y) = 0.37657 0.39404
# Poissons Ratio (z) = 0.22120 0.31556
#
# Static dielectric constant tensor:
#      x y z
#    x 3.590970 0.000000 0.000000 
#    y 0.000000 3.568450 0.000000 
#    z 0.000000 0.000000 3.338070 
# 
# 
# High freq. dielectric constant tensor:
#      x y z
#    x 1.761000 0.000000 0.000000 
#    y 0.000000 1.761180 0.000000 
#    z 0.000000 0.000000 1.748500 
# 
# From -- ./inp_files/21582.got.cif
#   From: 2010.03.12/outbox.cif.g09.slc.cpg/sg59_11_cif.got.tgz:21582.got - 2010.04.16 16:29:54.
