data_PCOD8240363
_publ_section_title
;
Structure prediction by ZEFSAII (Michael W. Deem and Ramdas Pophale) SiO2 
 PCOD8240363
Probable space group: P M M N
;
_chemical_formula_sum "Si O2"
_cell_formula_units_Z 64
_cell_length_a 9.071307
_cell_length_b 13.746782
_cell_length_c 31.363209
_cell_angle_alpha 90.000000
_cell_angle_beta 90.000000
_cell_angle_gamma 90.000000
_cell_volume 3911.032300
_symmetry_space_group_name_H-M "P M M N"
_symmetry_group_IT_number 59
_space_group.IT_coordinate_system_code '2'
_symmetry_cell_setting 'orthorhombic'
loop_
_space_group_symop_operation_xyz
x,y,z
1/2-x,1/2-y,z
1/2+x,-y,-z
-x,1/2+y,-z
-x,-y,-z
1/2+x,1/2+y,-z
1/2-x,y,z
x,1/2-y,z
loop_
_atom_site_type_symbol
_atom_site_label
_atom_site_fract_x
_atom_site_fract_y
_atom_site_fract_z
Si Si1 0.422917 0.137387 0.312686
Si Si2 0.078993 0.951728 0.936170
Si Si3 0.081465 0.140115 0.986548
Si Si4 0.917030 0.364943 0.477983
Si Si5 0.915995 0.134569 0.228148
Si Si6 0.580007 0.857488 0.439129
Si Si7 0.923451 0.862843 0.856851
Si Si8 0.578955 0.457635 0.390931
O O1 0.250000 0.122745 0.306822
O O2 0.463104 0.250000 0.320905
O O3 0.501603 0.096690 0.270301
O O4 0.479135 0.074054 0.351867
O O5 0.250000 0.929880 0.927401
O O6 0.985811 0.929122 0.894400
O O7 0.051482 0.064971 0.948025
O O8 0.026000 0.882427 0.974329
O O9 0.250000 0.128652 0.002669
O O10 0.051411 0.250000 0.970259
O O11 0.750000 0.401322 0.482777
O O12 0.931036 0.250000 0.476844
O O13 0.980151 0.404317 0.433388
O O14 0.004596 0.404630 0.519056
O O15 0.750000 0.092709 0.227288
O O16 0.914968 0.250000 0.228617
O O17 0.003185 0.098373 0.186588
O O18 0.750000 0.850688 0.450970
O O19 0.516343 0.750000 0.428154
O O20 0.555961 0.926787 0.398281
O O21 0.750000 0.877934 0.853075
O O22 0.962990 0.750000 0.865605
O O23 0.750000 0.431501 0.381716
#
# Coordination Sequence:
#
# PCOD8240363 Si02
#       8
#     8   8   8   8   8   8   8   8
#     4  10  20  32  46  67  94 119 143 174 214 262
#     4  10  19  29  44  67  91 118 157 198 231 269
#     4   9  18  32  46  61  88 125 159 193 235 276
#     4   9  17  28  42  61  85 113 145 180 217 257
#     4   9  17  30  48  68  91 119 148 178 214 259
#     4   9  18  31  45  62  85 113 147 186 222 254
#     4  10  19  30  45  66  94 125 153 183 221 264
#     4  10  19  30  45  64  87 117 149 179 214 258
#
# _framework density 16.363966000000001
#
# number of rings (size 3 to 8) (size 9 to 14) (size 15 to 20)
#    0.000    2.500    0.000    2.625    0.000    6.750 
#    0.000    1.250    0.000    0.000    0.000    0.875 
#    0.000    7.000    0.000    0.000    0.000    0.000 
#
# Total GULP energy -793570.919025 kJ/mol
# GULP energy per Si atom -12399.545610 kJ/mol
# Density = 1.632672 g / cm^3
# Si number density = 16.363966 Si / 1000 Ang^3
#
#
#
# Elastic Constant Matrix: (Units=GPa)
#
#
# Indices 1 2 3 4 5 6 
#
# 1 84.1416 32.3387 59.3784 0.0000 0.0000 0.0000
# 2 32.3387 64.0005 45.9093 0.0000 0.0000 0.0000
# 3 59.3784 45.9093 124.2740 0.0000 0.0000 0.0000
# 4 0.0000 0.0000 0.0000 21.1186 0.0000 0.0000
# 5 0.0000 0.0000 0.0000 0.0000 35.1849 0.0000
# 6 0.0000 0.0000 0.0000 0.0000 0.0000 18.4703
#
#
#
# Elastic Compliance Matrix: (Units=1/GPa)
#
#
# Indices 1 2 3 4 5 6 
#
# 1 0.018702 -0.004136 -0.007408 0.000000 0.000000 0.000000
# 2 -0.004136 0.022173 -0.006215 0.000000 0.000000 0.000000
# 3 -0.007408 -0.006215 0.013882 0.000000 0.000000 0.000000
# 4 0.000000 0.000000 0.000000 0.047352 0.000000 0.000000
# 5 0.000000 0.000000 0.000000 0.000000 0.028421 0.000000
# 6 0.000000 0.000000 0.000000 0.000000 0.000000 0.054141
#
#
# Mechanical properties :
#
#
# Convention : Reuss Voigt Hill
#
# Bulk Modulus (GPa) = 51.97672 60.85210 56.41441
# Shear Modulus (GPa) = 22.06511 23.94074 23.00293
#
# Velocity S-wave (km/s) = 3.67604 3.82909 3.75334
# Velocity P-wave (km/s) = 7.06042 7.53768 7.30295
#
# Compressibility (1/GPa) = 0.01923938
#
# Stress axis : x y z
#
# Youngs Moduli (GPa) = 53.46979 45.10012 72.03472
#
# Poissons Ratio (x) = 0.18654 0.53363
# Poissons Ratio (y) = 0.22115 0.44769
# Poissons Ratio (z) = 0.39610 0.28029
#
# Static dielectric constant tensor:
#      x y z
#    x 3.197760 0.000000 0.000000 
#    y 0.000000 3.061120 0.000000 
#    z 0.000000 0.000000 3.038410 
# 
# 
# High freq. dielectric constant tensor:
#      x y z
#    x 1.638170 0.000000 0.000000 
#    y 0.000000 1.606640 0.000000 
#    z 0.000000 0.000000 1.618630 
# 
# From -- ./inp_files/33256.got.cif
#   From: 2010.03.12/outbox.cif.g09.slc.cpg/sg59_17_cif.got.tgz:33256.got - 2010.04.16 16:29:54.
