data_PCOD8240687
_publ_section_title
;
Structure prediction by ZEFSAII (Michael W. Deem and Ramdas Pophale) SiO2 
 PCOD8240687
Probable space group: P M M N
;
_chemical_formula_sum "Si O2"
_cell_formula_units_Z 48
_cell_length_a 25.773260
_cell_length_b 9.371556
_cell_length_c 11.786611
_cell_angle_alpha 90.000000
_cell_angle_beta 90.000000
_cell_angle_gamma 90.000000
_cell_volume 2846.885563
_symmetry_space_group_name_H-M "P M M N"
_symmetry_group_IT_number 59
_space_group.IT_coordinate_system_code '2'
_symmetry_cell_setting 'orthorhombic'
loop_
_space_group_symop_operation_xyz
x,y,z
1/2-x,1/2-y,z
1/2+x,-y,-z
-x,1/2+y,-z
-x,-y,-z
1/2+x,1/2+y,-z
1/2-x,y,z
x,1/2-y,z
loop_
_atom_site_type_symbol
_atom_site_label
_atom_site_fract_x
_atom_site_fract_y
_atom_site_fract_z
Si Si1 0.052280 0.580912 0.462683
Si Si2 0.038191 0.590062 0.865836
Si Si3 0.380180 0.912021 0.673299
Si Si4 0.808844 0.581550 0.173531
Si Si5 0.110056 0.415295 0.010466
Si Si6 0.571302 0.913395 0.759324
O O1 0.040294 0.750000 0.456461
O O2 0.099514 0.548333 0.548231
O O3 0.074131 0.523649 0.343408
O O4 0.000000 0.500000 0.500000
O O5 0.045487 0.750000 0.910659
O O6 0.070797 0.562487 0.752775
O O7 0.057446 0.488248 0.965878
O O8 0.979798 0.557891 0.832257
O O9 0.360002 0.750000 0.678037
O O10 0.332877 0.012223 0.712836
O O11 0.750000 0.528833 0.159011
O O12 0.811813 0.750000 0.189110
O O13 0.839837 0.530091 0.060366
O O14 0.101566 0.250000 0.986964
O O15 0.116787 0.442491 0.146581
O O16 0.573153 0.750000 0.713546
#
# Coordination Sequence:
#
# PCOD8240687 Si02
#       6
#     8   8   8   8   8   8
#     4  11  21  33  49  70 100 136 171 204 239 288
#     4   9  16  28  44  64  96 128 158 200 238 280
#     4   9  18  32  48  70  98 127 162 204 245 286
#     4   9  18  33  53  76  98 121 157 206 254 298
#     4   9  18  30  46  69  96 127 162 199 243 290
#     4  10  19  31  45  66  99 134 167 199 236 285
#
# _framework density 16.860530000000001
#
# number of rings (size 3 to 8) (size 9 to 14) (size 15 to 20)
#    0.000    2.500    1.667    1.000    0.000    3.000 
#    0.000    0.000    0.000    1.000    0.000    2.333 
#    0.000    0.000    0.000    0.000    0.000    0.000 
#
# Total GULP energy -594956.614093 kJ/mol
# GULP energy per Si atom -12394.929460 kJ/mol
# Density = 1.682215 g / cm^3
# Si number density = 16.860530 Si / 1000 Ang^3
#
#
#
# Elastic Constant Matrix: (Units=GPa)
#
#
# Indices 1 2 3 4 5 6 
#
# 1 53.4664 44.9762 40.0596 0.0000 0.0000 0.0000
# 2 44.9762 59.3220 56.8037 0.0000 0.0000 0.0000
# 3 40.0596 56.8037 119.4466 0.0000 0.0000 0.0000
# 4 0.0000 0.0000 0.0000 31.5171 0.0000 0.0000
# 5 0.0000 0.0000 0.0000 0.0000 9.7296 0.0000
# 6 0.0000 0.0000 0.0000 0.0000 0.0000 20.1193
#
#
#
# Elastic Compliance Matrix: (Units=1/GPa)
#
#
# Indices 1 2 3 4 5 6 
#
# 1 0.052008 -0.041733 0.002404 0.000000 0.000000 0.000000
# 2 -0.041733 0.064440 -0.016648 0.000000 0.000000 0.000000
# 3 0.002404 -0.016648 0.015483 0.000000 0.000000 0.000000
# 4 0.000000 0.000000 0.000000 0.031729 0.000000 0.000000
# 5 0.000000 0.000000 0.000000 0.000000 0.102779 0.000000
# 6 0.000000 0.000000 0.000000 0.000000 0.000000 0.049704
#
#
# Mechanical properties :
#
#
# Convention : Reuss Voigt Hill
#
# Bulk Modulus (GPa) = 50.06023 57.32377 53.69200
# Shear Modulus (GPa) = 11.50072 18.29956 14.90014
#
# Velocity S-wave (km/s) = 2.61456 3.29804 2.97598
# Velocity P-wave (km/s) = 6.23456 6.96960 6.61230
#
# Compressibility (1/GPa) = 0.01997594
#
# Stress axis : x y z
#
# Youngs Moduli (GPa) = 19.22776 15.51841 64.58739
#
# Poissons Ratio (x) = 0.64763 -0.15528
# Poissons Ratio (y) = 0.80243 1.07528
# Poissons Ratio (z) = -0.04623 0.25836
#
# Static dielectric constant tensor:
#      x y z
#    x 3.071350 0.000000 0.000000 
#    y 0.000000 3.191460 0.000000 
#    z 0.000000 0.000000 3.523650 
# 
# 
# High freq. dielectric constant tensor:
#      x y z
#    x 1.617630 0.000000 0.000000 
#    y 0.000000 1.650360 0.000000 
#    z 0.000000 0.000000 1.652480 
# 
# From -- ./inp_files/14464.got.cif
#   From: 2010.03.12/outbox.cif.g09.slc.cpg/sg59_8_cif.got.tgz:14464.got - 2010.04.16 16:29:54.
