data_PCOD8240590
_publ_section_title
;
Structure prediction by ZEFSAII (Michael W. Deem and Ramdas Pophale) SiO2 
 PCOD8240590
Probable space group: P M M N
;
_chemical_formula_sum "Si O2"
_cell_formula_units_Z 48
_cell_length_a 8.989422
_cell_length_b 26.443877
_cell_length_c 11.748482
_cell_angle_alpha 90.000000
_cell_angle_beta 90.000000
_cell_angle_gamma 90.000000
_cell_volume 2792.792392
_symmetry_space_group_name_H-M "P M M N"
_symmetry_group_IT_number 59
_space_group.IT_coordinate_system_code '2'
_symmetry_cell_setting 'orthorhombic'
loop_
_space_group_symop_operation_xyz
x,y,z
1/2-x,1/2-y,z
1/2+x,-y,-z
-x,1/2+y,-z
-x,-y,-z
1/2+x,1/2+y,-z
1/2-x,y,z
x,1/2-y,z
loop_
_atom_site_type_symbol
_atom_site_label
_atom_site_fract_x
_atom_site_fract_y
_atom_site_fract_z
Si Si1 0.925753 0.692654 0.830969
Si Si2 0.583333 0.889247 0.653052
Si Si3 0.423714 0.876440 0.000757
Si Si4 0.425140 0.565827 0.212261
Si Si5 0.926623 0.052863 0.534517
Si Si6 0.917780 0.540632 0.860931
O O1 0.750000 0.687756 0.842946
O O2 0.978456 0.750000 0.811814
O O3 0.979987 0.659117 0.723669
O O4 0.992387 0.672084 0.949738
O O5 0.750000 0.877566 0.608095
O O6 0.475939 0.901422 0.547821
O O7 0.586649 0.938076 0.733089
O O8 0.250000 0.867413 0.983928
O O9 0.469678 0.927440 0.936573
O O10 0.464574 0.884956 0.134874
O O11 0.250000 0.558098 0.219390
O O12 0.485818 0.570059 0.340646
O O13 0.485886 0.515667 0.148166
O O14 0.750000 0.046507 0.529324
O O15 0.000000 0.000000 0.500000
O O16 0.750000 0.542761 0.912280
#
# Coordination Sequence:
#
# PCOD8240590 Si02
#       6
#     8   8   8   8   8   8
#     4   9  19  37  58  74  94 126 158 198 257 309
#     4   9  17  31  50  73  98 125 163 205 244 286
#     4  10  19  30  47  73  99 124 160 204 244 286
#     4   9  18  31  45  64  99 139 165 191 237 286
#     4  11  20  32  48  68  99 138 173 201 235 284
#     4   9  16  30  47  64  97 137 165 194 233 286
#
# _framework density 17.187097999999999
#
# number of rings (size 3 to 8) (size 9 to 14) (size 15 to 20)
#    0.000    2.500    1.667    2.500    0.000    3.000 
#    0.000    4.167    0.000    1.000    0.000    4.667 
#    0.000    0.000    0.000    0.000    0.000    0.000 
#
# Total GULP energy -594927.871122 kJ/mol
# GULP energy per Si atom -12394.330648 kJ/mol
# Density = 1.714798 g / cm^3
# Si number density = 17.187098 Si / 1000 Ang^3
#
#
#
# Elastic Constant Matrix: (Units=GPa)
#
#
# Indices 1 2 3 4 5 6 
#
# 1 42.9875 25.8614 33.2212 0.0000 0.0000 0.0000
# 2 25.8614 106.2705 50.8816 0.0000 0.0000 0.0000
# 3 33.2212 50.8816 105.7009 0.0000 0.0000 0.0000
# 4 0.0000 0.0000 0.0000 16.0823 0.0000 0.0000
# 5 0.0000 0.0000 0.0000 0.0000 23.4479 0.0000
# 6 0.0000 0.0000 0.0000 0.0000 0.0000 22.2641
#
#
#
# Elastic Compliance Matrix: (Units=1/GPa)
#
#
# Indices 1 2 3 4 5 6 
#
# 1 0.031893 -0.003849 -0.008171 0.000000 0.000000 0.000000
# 2 -0.003849 0.012693 -0.004900 0.000000 0.000000 0.000000
# 3 -0.008171 -0.004900 0.014388 0.000000 0.000000 0.000000
# 4 0.000000 0.000000 0.000000 0.062180 0.000000 0.000000
# 5 0.000000 0.000000 0.000000 0.000000 0.042648 0.000000
# 6 0.000000 0.000000 0.000000 0.000000 0.000000 0.044915
#
#
# Mechanical properties :
#
#
# Convention : Reuss Voigt Hill
#
# Bulk Modulus (GPa) = 39.78872 52.76525 46.27699
# Shear Modulus (GPa) = 19.92553 22.02518 20.97536
#
# Velocity S-wave (km/s) = 3.40859 3.58368 3.49723
# Velocity P-wave (km/s) = 6.22028 6.92032 6.57962
#
# Compressibility (1/GPa) = 0.02513275
#
# Stress axis : x y z
#
# Youngs Moduli (GPa) = 31.35511 78.78455 69.50454
#
# Poissons Ratio (x) = 0.30325 0.56791
# Poissons Ratio (y) = 0.12069 0.34059
# Poissons Ratio (z) = 0.25620 0.38606
#
# Static dielectric constant tensor:
#      x y z
#    x 3.055880 0.000000 0.000000 
#    y 0.000000 3.127440 0.000000 
#    z 0.000000 0.000000 3.387860 
# 
# 
# High freq. dielectric constant tensor:
#      x y z
#    x 1.651380 0.000000 0.000000 
#    y 0.000000 1.635760 0.000000 
#    z 0.000000 0.000000 1.661290 
# 
# From -- ./inp_files/14478.got.cif
#   From: 2010.03.12/outbox.cif.g09.slc.cpg/sg59_8_cif.got.tgz:14478.got - 2010.04.16 16:29:54.
