data_PCOD8240262
_publ_section_title
;
Structure prediction by ZEFSAII (Michael W. Deem and Ramdas Pophale) SiO2 
 PCOD8240262
Probable space group: P M M N
;
_chemical_formula_sum "Si O2"
_cell_formula_units_Z 64
_cell_length_a 9.411847
_cell_length_b 19.271044
_cell_length_c 21.222292
_cell_angle_alpha 90.000000
_cell_angle_beta 90.000000
_cell_angle_gamma 90.000000
_cell_volume 3849.216931
_symmetry_space_group_name_H-M "P M M N"
_symmetry_group_IT_number 59
_space_group.IT_coordinate_system_code '2'
_symmetry_cell_setting 'orthorhombic'
loop_
_space_group_symop_operation_xyz
x,y,z
1/2-x,1/2-y,z
1/2+x,-y,-z
-x,1/2+y,-z
-x,-y,-z
1/2+x,1/2+y,-z
1/2-x,y,z
x,1/2-y,z
loop_
_atom_site_type_symbol
_atom_site_label
_atom_site_fract_x
_atom_site_fract_y
_atom_site_fract_z
Si Si1 0.405942 0.479810 0.307047
Si Si2 0.585006 0.330307 0.959191
Si Si3 0.918693 0.326620 0.101955
Si Si4 0.418545 0.530561 0.441333
Si Si5 0.418279 0.675255 0.393452
Si Si6 0.415562 0.944345 0.805651
Si Si7 0.916153 0.598383 0.147571
Si Si8 0.092620 0.635208 0.260412
O O1 0.250000 0.444487 0.305739
O O2 0.459719 0.485719 0.379371
O O3 0.512573 0.436290 0.263161
O O4 0.393610 0.555535 0.278429
O O5 0.750000 0.349850 0.949677
O O6 0.559385 0.250000 0.941169
O O7 0.488605 0.381102 0.917824
O O8 0.535063 0.344080 0.030765
O O9 0.750000 0.326795 0.104570
O O10 0.975482 0.250000 0.121308
O O11 0.980053 0.384307 0.149562
O O12 0.500000 0.500000 0.500000
O O13 0.250000 0.528393 0.453013
O O14 0.475520 0.610102 0.433541
O O15 0.250000 0.666596 0.389587
O O16 0.462374 0.750000 0.423723
O O17 0.472548 0.674619 0.321062
O O18 0.250000 0.933838 0.793756
O O19 0.446282 0.017500 0.839316
O O20 0.750000 0.614868 0.144633
O O21 0.985652 0.645589 0.202362
O O22 0.250000 0.663396 0.241652
#
# Coordination Sequence:
#
# PCOD8240262 Si02
#       8
#     8   8   8   8   8   8   8   8
#     4   8  15  28  44  64  90 116 142 174 213 256
#     4   9  18  32  47  60  78 112 155 189 218 262
#     4   8  15  30  50  67  83 108 147 193 232 264
#     4   9  17  29  47  70  94 121 151 181 215 257
#     4   8  14  26  45  67  88 112 148 191 222 245
#     4   9  17  29  47  70  91 112 142 182 226 267
#     4  10  19  28  40  64  96 120 139 174 224 269
#     4   8  14  26  43  61  83 114 149 178 207 252
#
# _framework density 16.626757999999999
#
# number of rings (size 3 to 8) (size 9 to 14) (size 15 to 20)
#    0.000    3.375    0.000    2.625    0.000    2.250 
#    0.000    3.750    0.000    3.000    0.000    5.250 
#    0.000    0.000    0.000    0.000    0.000    0.000 
#
# Total GULP energy -793049.262496 kJ/mol
# GULP energy per Si atom -12391.394726 kJ/mol
# Density = 1.658892 g / cm^3
# Si number density = 16.626758 Si / 1000 Ang^3
#
#
#
# Elastic Constant Matrix: (Units=GPa)
#
#
# Indices 1 2 3 4 5 6 
#
# 1 58.7549 36.6343 53.0820 0.0000 0.0000 0.0000
# 2 36.6343 83.4374 66.7359 0.0000 0.0000 0.0000
# 3 53.0820 66.7359 132.1778 0.0000 0.0000 0.0000
# 4 0.0000 0.0000 0.0000 18.6965 0.0000 0.0000
# 5 0.0000 0.0000 0.0000 0.0000 28.0645 0.0000
# 6 0.0000 0.0000 0.0000 0.0000 0.0000 15.1177
#
#
#
# Elastic Compliance Matrix: (Units=1/GPa)
#
#
# Indices 1 2 3 4 5 6 
#
# 1 0.028174 -0.005570 -0.008503 0.000000 0.000000 0.000000
# 2 -0.005570 0.021204 -0.008469 0.000000 0.000000 0.000000
# 3 -0.008503 -0.008469 0.015256 0.000000 0.000000 0.000000
# 4 0.000000 0.000000 0.000000 0.053486 0.000000 0.000000
# 5 0.000000 0.000000 0.000000 0.000000 0.035632 0.000000
# 6 0.000000 0.000000 0.000000 0.000000 0.000000 0.066148
#
#
# Mechanical properties :
#
#
# Convention : Reuss Voigt Hill
#
# Bulk Modulus (GPa) = 51.14574 65.25271 58.19922
# Shear Modulus (GPa) = 18.41616 20.23695 19.32656
#
# Velocity S-wave (km/s) = 3.33171 3.49253 3.41306
# Velocity P-wave (km/s) = 6.75487 7.45617 7.11416
#
# Compressibility (1/GPa) = 0.01955197
#
# Stress axis : x y z
#
# Youngs Moduli (GPa) = 35.49347 47.15994 65.54695
#
# Poissons Ratio (x) = 0.26266 0.55732
# Poissons Ratio (y) = 0.19769 0.55513
# Poissons Ratio (z) = 0.30179 0.39941
#
# Static dielectric constant tensor:
#      x y z
#    x 3.027320 0.000000 0.000000 
#    y 0.000000 3.206770 0.000000 
#    z 0.000000 0.000000 3.197760 
# 
# 
# High freq. dielectric constant tensor:
#      x y z
#    x 1.613550 0.000000 0.000000 
#    y 0.000000 1.623240 0.000000 
#    z 0.000000 0.000000 1.634090 
# 
# From -- ./inp_files/29799.got.cif
#   From: 2010.03.12/outbox.cif.g09.slc.cpg/sg59_15_cif.got.tgz:29799.got - 2010.04.16 16:29:54.
