data_PCOD8240073
_publ_section_title
;
Structure prediction by ZEFSAII (Michael W. Deem and Ramdas Pophale) SiO2 
 PCOD8240073
Probable space group: P M M N
;
_chemical_formula_sum "Si O2"
_cell_formula_units_Z 56
_cell_length_a 14.941181
_cell_length_b 9.254901
_cell_length_c 21.781527
_cell_angle_alpha 90.000000
_cell_angle_beta 90.000000
_cell_angle_gamma 90.000000
_cell_volume 3011.931061
_symmetry_space_group_name_H-M "P M M N"
_symmetry_group_IT_number 59
_space_group.IT_coordinate_system_code '2'
_symmetry_cell_setting 'orthorhombic'
loop_
_space_group_symop_operation_xyz
x,y,z
1/2-x,1/2-y,z
1/2+x,-y,-z
-x,1/2+y,-z
-x,-y,-z
1/2+x,1/2+y,-z
1/2-x,y,z
x,1/2-y,z
loop_
_atom_site_type_symbol
_atom_site_label
_atom_site_fract_x
_atom_site_fract_y
_atom_site_fract_z
Si Si1 0.054491 0.081981 0.948203
Si Si2 0.750000 0.580908 0.015218
Si Si3 0.750000 0.082716 0.887925
Si Si4 0.654455 0.579794 0.619167
Si Si5 0.503754 0.922343 0.709178
Si Si6 0.147693 0.415947 0.644432
Si Si7 0.090523 0.081325 0.510549
Si Si8 0.560185 0.417737 0.830037
O O1 0.044047 0.250000 0.963120
O O2 0.159805 0.036330 0.947590
O O3 0.010682 0.044341 0.883119
O O4 0.000000 0.000000 0.000000
O O5 0.750000 0.750000 0.002434
O O6 0.750000 0.505720 0.949947
O O7 0.750000 0.250000 0.906448
O O8 0.838554 0.043460 0.849467
O O9 0.750000 0.521430 0.644354
O O10 0.649457 0.750000 0.627602
O O11 0.573365 0.514287 0.658590
O O12 0.652011 0.539301 0.547253
O O13 0.498862 0.750000 0.710794
O O14 0.407487 0.984577 0.690910
O O15 0.534356 0.979350 0.774586
O O16 0.250000 0.434754 0.663795
O O17 0.116824 0.250000 0.651610
O O18 0.136626 0.467696 0.573883
O O19 0.069810 0.250000 0.511538
O O20 0.000000 0.000000 0.500000
O O21 0.552842 0.250000 0.810930
#
# Coordination Sequence:
#
# PCOD8240073 Si02
#       8
#     8   4   4   8   8   8   8   8
#     4  10  20  36  59  85 116 149 187 234 284 332
#     4  10  20  34  58  92 118 142 183 238 289 338
#     4  10  20  36  60  88 116 152 189 226 279 338
#     4   9  18  33  53  79 110 143 179 222 277 337
#     4  11  23  38  58  83 113 150 191 238 287 333
#     4  10  21  38  61  84 108 148 195 238 289 350
#     4  10  18  32  56  82 110 142 181 231 286 340
#     4  10  22  39  57  81 116 155 192 231 279 340
#
# _framework density 18.592724
#
# number of rings (size 3 to 8) (size 9 to 14) (size 15 to 20)
#    0.000    2.000    2.857    0.857    1.000    3.143 
#    1.286    0.000    0.000    3.000    0.000    0.000 
#    0.000    0.000    0.000    0.000    0.000    0.000 
#
# Total GULP energy -694281.721350 kJ/mol
# GULP energy per Si atom -12397.887881 kJ/mol
# Density = 1.855041 g / cm^3
# Si number density = 18.592724 Si / 1000 Ang^3
#
#
#
# Elastic Constant Matrix: (Units=GPa)
#
#
# Indices 1 2 3 4 5 6 
#
# 1 154.9511 46.8328 69.2585 0.0000 0.0000 0.0000
# 2 46.8328 48.8899 46.8927 0.0000 0.0000 0.0000
# 3 69.2585 46.8927 109.8170 0.0000 0.0000 0.0000
# 4 0.0000 0.0000 0.0000 30.0593 0.0000 0.0000
# 5 0.0000 0.0000 0.0000 0.0000 23.1764 0.0000
# 6 0.0000 0.0000 0.0000 0.0000 0.0000 25.5125
#
#
#
# Elastic Compliance Matrix: (Units=1/GPa)
#
#
# Indices 1 2 3 4 5 6 
#
# 1 0.009906 -0.005922 -0.003718 0.000000 0.000000 0.000000
# 2 -0.005922 0.038183 -0.012569 0.000000 0.000000 0.000000
# 3 -0.003718 -0.012569 0.016818 0.000000 0.000000 0.000000
# 4 0.000000 0.000000 0.000000 0.033268 0.000000 0.000000
# 5 0.000000 0.000000 0.000000 0.000000 0.043147 0.000000
# 6 0.000000 0.000000 0.000000 0.000000 0.000000 0.039197
#
#
# Mechanical properties :
#
#
# Convention : Reuss Voigt Hill
#
# Bulk Modulus (GPa) = 48.81157 71.06955 59.94056
# Shear Modulus (GPa) = 21.57329 25.79456 23.68393
#
# Velocity S-wave (km/s) = 3.41003 3.72875 3.57294
# Velocity P-wave (km/s) = 6.46641 7.53960 7.02353
#
# Compressibility (1/GPa) = 0.02048695
#
# Stress axis : x y z
#
# Youngs Moduli (GPa) = 100.95269 26.18941 59.45901
#
# Poissons Ratio (x) = 0.15511 0.22108
# Poissons Ratio (y) = 0.59789 0.74737
# Poissons Ratio (z) = 0.37537 0.32919
#
# Static dielectric constant tensor:
#      x y z
#    x 3.761960 0.000000 0.000000 
#    y 0.000000 3.254650 0.000000 
#    z 0.000000 0.000000 0.699250 
# 
# 
# High freq. dielectric constant tensor:
#      x y z
#    x 1.738210 0.000000 0.000000 
#    y 0.000000 1.703050 0.000000 
#    z 0.000000 0.000000 1.716960 
# 
# From -- ./inp_files/30471.got.cif
#   From: 2010.03.12/outbox.cif.g09.slc.cpg/sg59_16_cif.got.tgz:30471.got - 2010.04.16 16:29:54.
