data_PCOD8240611
_publ_section_title
;
Structure prediction by ZEFSAII (Michael W. Deem and Ramdas Pophale) SiO2 
 PCOD8240611
Probable space group: P M M N
;
_chemical_formula_sum "Si O2"
_cell_formula_units_Z 40
_cell_length_a 21.588115
_cell_length_b 9.061918
_cell_length_c 11.398606
_cell_angle_alpha 90.000000
_cell_angle_beta 90.000000
_cell_angle_gamma 90.000000
_cell_volume 2229.906190
_symmetry_space_group_name_H-M "P M M N"
_symmetry_group_IT_number 59
_space_group.IT_coordinate_system_code '2'
_symmetry_cell_setting 'orthorhombic'
loop_
_space_group_symop_operation_xyz
x,y,z
1/2-x,1/2-y,z
1/2+x,-y,-z
-x,1/2+y,-z
-x,-y,-z
1/2+x,1/2+y,-z
1/2-x,y,z
x,1/2-y,z
loop_
_atom_site_type_symbol
_atom_site_label
_atom_site_fract_x
_atom_site_fract_y
_atom_site_fract_z
Si Si1 0.588854 0.415159 0.039619
Si Si2 0.817785 0.924799 0.634360
Si Si3 0.498435 0.916463 0.184738
Si Si4 0.952375 0.925104 0.588638
Si Si5 0.679359 0.587919 0.895807
O O1 0.599824 0.250000 0.085772
O O2 0.563839 0.511237 0.148655
O O3 0.543210 0.416515 0.929773
O O4 0.652811 0.483056 0.996048
O O5 0.750000 0.983078 0.584982
O O6 0.813114 0.750000 0.643531
O O7 0.879646 0.967912 0.559340
O O8 0.827847 0.985053 0.766618
O O9 0.509078 0.750000 0.232323
O O10 0.466532 0.017756 0.281777
O O11 0.961484 0.750000 0.583200
O O12 0.000000 0.000000 0.500000
O O13 0.750000 0.607347 0.928795
O O14 0.646671 0.750000 0.899180
#
# Coordination Sequence:
#
# PCOD8240611 Si02
#       5
#     8   8   8   8   8
#     4  10  19  30  48  73 103 133 163 205 253 303
#     4   8  15  29  50  74  99 131 170 210 252 302
#     4  10  20  33  49  71 100 133 170 205 249 306
#     4  11  21  34  54  77 106 136 172 219 264 311
#     4   9  16  28  48  73 101 133 169 206 249 306
#
# _framework density 17.937973
#
# number of rings (size 3 to 8) (size 9 to 14) (size 15 to 20)
#    0.000    2.400    2.000    3.000    0.000    2.000 
#    0.000    0.000    0.000    3.600    0.000    2.800 
#    0.000    0.000    0.000    0.000    0.000    0.000 
#
# Total GULP energy -495564.718464 kJ/mol
# GULP energy per Si atom -12389.117962 kJ/mol
# Density = 1.789715 g / cm^3
# Si number density = 17.937973 Si / 1000 Ang^3
#
#
#
# Elastic Constant Matrix: (Units=GPa)
#
#
# Indices 1 2 3 4 5 6 
#
# 1 133.9396 45.4808 38.5051 0.0000 0.0000 0.0000
# 2 45.4808 94.1673 24.4168 0.0000 0.0000 0.0000
# 3 38.5051 24.4168 28.8465 0.0000 0.0000 0.0000
# 4 0.0000 0.0000 0.0000 26.7606 0.0000 0.0000
# 5 0.0000 0.0000 0.0000 0.0000 27.6779 0.0000
# 6 0.0000 0.0000 0.0000 0.0000 0.0000 25.4552
#
#
#
# Elastic Compliance Matrix: (Units=1/GPa)
#
#
# Indices 1 2 3 4 5 6 
#
# 1 0.012456 -0.002184 -0.014778 0.000000 0.000000 0.000000
# 2 -0.002184 0.013988 -0.008925 0.000000 0.000000 0.000000
# 3 -0.014778 -0.008925 0.061947 0.000000 0.000000 0.000000
# 4 0.000000 0.000000 0.000000 0.037368 0.000000 0.000000
# 5 0.000000 0.000000 0.000000 0.000000 0.036130 0.000000
# 6 0.000000 0.000000 0.000000 0.000000 0.000000 0.039285
#
#
# Mechanical properties :
#
#
# Convention : Reuss Voigt Hill
#
# Bulk Modulus (GPa) = 27.30957 52.63986 39.97472
# Shear Modulus (GPa) = 18.85697 25.88212 22.36954
#
# Velocity S-wave (km/s) = 3.24579 3.80263 3.53519
# Velocity P-wave (km/s) = 5.41335 6.97776 6.24474
#
# Compressibility (1/GPa) = 0.03661720
#
# Stress axis : x y z
#
# Youngs Moduli (GPa) = 80.28186 71.48743 16.14292
#
# Poissons Ratio (x) = 0.15614 0.23856
# Poissons Ratio (y) = 0.17535 0.14407
# Poissons Ratio (z) = 1.18640 0.63801
#
# Static dielectric constant tensor:
#      x y z
#    x 3.602690 0.000000 0.000000 
#    y 0.000000 3.462150 0.000000 
#    z 0.000000 0.000000 3.002130 
# 
# 
# High freq. dielectric constant tensor:
#      x y z
#    x 1.699210 0.000000 0.000000 
#    y 0.000000 1.686680 0.000000 
#    z 0.000000 0.000000 1.647180 
# 
# From -- ./inp_files/14037.got.cif
#   From: 2010.03.12/outbox.cif.g09.slc.cpg/sg59_8_cif.got.tgz:14037.got - 2010.04.16 16:29:54.
