data_PCOD8240415
_publ_section_title
;
Structure prediction by ZEFSAII (Michael W. Deem and Ramdas Pophale) SiO2 
 PCOD8240415
Probable space group: P M M N
;
_chemical_formula_sum "Si O2"
_cell_formula_units_Z 64
_cell_length_a 9.436415
_cell_length_b 21.783918
_cell_length_c 16.441983
_cell_angle_alpha 90.000000
_cell_angle_beta 90.000000
_cell_angle_gamma 90.000000
_cell_volume 3379.848399
_symmetry_space_group_name_H-M "P M M N"
_symmetry_group_IT_number 59
_space_group.IT_coordinate_system_code '2'
_symmetry_cell_setting 'orthorhombic'
loop_
_space_group_symop_operation_xyz
x,y,z
1/2-x,1/2-y,z
1/2+x,-y,-z
-x,1/2+y,-z
-x,-y,-z
1/2+x,1/2+y,-z
1/2-x,y,z
x,1/2-y,z
loop_
_atom_site_type_symbol
_atom_site_label
_atom_site_fract_x
_atom_site_fract_y
_atom_site_fract_z
Si Si1 0.586440 0.443113 0.535691
Si Si2 0.088630 0.318546 0.784302
Si Si3 0.590391 0.179102 0.269735
Si Si4 0.919016 0.318968 0.449257
Si Si5 0.411650 0.134534 0.956186
Si Si6 0.586634 0.427292 0.723720
Si Si7 0.912292 0.515178 0.140124
Si Si8 0.585373 0.122104 0.108037
O O1 0.500000 0.500000 0.500000
O O2 0.750000 0.450194 0.509252
O O3 0.529467 0.375644 0.505984
O O4 0.568316 0.448122 0.631644
O O5 0.250000 0.341182 0.770005
O O6 0.066221 0.250000 0.752154
O O7 0.056128 0.320518 0.880740
O O8 0.982909 0.360534 0.733564
O O9 0.750000 0.154012 0.275575
O O10 0.586508 0.250000 0.246945
O O11 0.519031 0.167822 0.358165
O O12 0.517011 0.143534 0.194363
O O13 0.750000 0.316498 0.445857
O O14 0.971109 0.250000 0.478133
O O15 0.250000 0.139421 0.985056
O O16 0.449859 0.065756 0.927213
O O17 0.507544 0.154345 0.032440
O O18 0.750000 0.422649 0.749235
O O19 0.509716 0.476999 0.780411
O O20 0.750000 0.522049 0.169182
O O21 0.940797 0.450116 0.099400
O O22 0.750000 0.140609 0.103409
#
# Coordination Sequence:
#
# PCOD8240415 Si02
#       8
#     8   8   8   8   8   8   8   8
#     4  10  22  36  55  84 114 143 177 222 274 325
#     4   9  19  37  58  77 102 141 183 215 253 316
#     4   8  15  28  46  71  99 124 161 212 254 297
#     4   8  15  31  54  76 101 138 179 215 257 313
#     4   9  18  32  47  69 101 134 169 212 260 309
#     4  10  21  35  51  79 110 134 170 220 270 315
#     4   9  19  34  51  70  97 137 179 211 255 318
#     4  10  19  29  48  75  97 128 175 218 258 307
#
# _framework density 18.935759999999998
#
# number of rings (size 3 to 8) (size 9 to 14) (size 15 to 20)
#    0.000    2.875    0.000    2.250    1.750    4.750 
#    0.000    1.250    0.000    0.375    0.000    1.750 
#    0.000    0.000    0.000    0.000    0.000    0.000 
#
# Total GULP energy -793201.458327 kJ/mol
# GULP energy per Si atom -12393.772786 kJ/mol
# Density = 1.889266 g / cm^3
# Si number density = 18.935760 Si / 1000 Ang^3
#
#
#
# Elastic Constant Matrix: (Units=GPa)
#
#
# Indices 1 2 3 4 5 6 
#
# 1 66.2337 25.2917 42.5816 0.0000 0.0000 0.0000
# 2 25.2917 64.3464 19.2175 0.0000 0.0000 0.0000
# 3 42.5816 19.2175 73.5066 0.0000 0.0000 0.0000
# 4 0.0000 0.0000 0.0000 20.1295 0.0000 0.0000
# 5 0.0000 0.0000 0.0000 0.0000 26.2218 0.0000
# 6 0.0000 0.0000 0.0000 0.0000 0.0000 22.3299
#
#
#
# Elastic Compliance Matrix: (Units=1/GPa)
#
#
# Indices 1 2 3 4 5 6 
#
# 1 0.026187 -0.006250 -0.013536 0.000000 0.000000 0.000000
# 2 -0.006250 0.018349 -0.001176 0.000000 0.000000 0.000000
# 3 -0.013536 -0.001176 0.021753 0.000000 0.000000 0.000000
# 4 0.000000 0.000000 0.000000 0.049678 0.000000 0.000000
# 5 0.000000 0.000000 0.000000 0.000000 0.038136 0.000000
# 6 0.000000 0.000000 0.000000 0.000000 0.000000 0.044783
#
#
# Mechanical properties :
#
#
# Convention : Reuss Voigt Hill
#
# Bulk Modulus (GPa) = 41.04445 42.02983 41.53714
# Shear Modulus (GPa) = 20.08576 21.53595 20.81086
#
# Velocity S-wave (km/s) = 3.26042 3.37607 3.31875
# Velocity P-wave (km/s) = 5.99137 6.11893 6.05549
#
# Compressibility (1/GPa) = 0.02436383
#
# Stress axis : x y z
#
# Youngs Moduli (GPa) = 38.18707 54.49903 45.97095
#
# Poissons Ratio (x) = 0.34064 0.62225
# Poissons Ratio (y) = 0.23868 0.05408
# Poissons Ratio (z) = 0.51689 0.06411
#
# Static dielectric constant tensor:
#      x y z
#    x 3.174290 0.000000 0.000000 
#    y 0.000000 3.684310 0.000000 
#    z 0.000000 0.000000 3.448850 
# 
# 
# High freq. dielectric constant tensor:
#      x y z
#    x 1.698180 0.000000 0.000000 
#    y 0.000000 1.737100 0.000000 
#    z 0.000000 0.000000 1.736510 
# 
# From -- ./inp_files/21411.got.cif
#   From: 2010.03.12/outbox.cif.g09.slc.cpg/sg59_11_cif.got.tgz:21411.got - 2010.04.16 16:29:54.
