data_PCOD8240511
_publ_section_title
;
Structure prediction by ZEFSAII (Michael W. Deem and Ramdas Pophale) SiO2 
 PCOD8240511
Probable space group: P M M N
;
_chemical_formula_sum "Si O2"
_cell_formula_units_Z 48
_cell_length_a 23.538925
_cell_length_b 8.970730
_cell_length_c 13.645049
_cell_angle_alpha 90.000000
_cell_angle_beta 90.000000
_cell_angle_gamma 90.000000
_cell_volume 2881.306840
_symmetry_space_group_name_H-M "P M M N"
_symmetry_group_IT_number 59
_space_group.IT_coordinate_system_code '2'
_symmetry_cell_setting 'orthorhombic'
loop_
_space_group_symop_operation_xyz
x,y,z
1/2-x,1/2-y,z
1/2+x,-y,-z
-x,1/2+y,-z
-x,-y,-z
1/2+x,1/2+y,-z
1/2-x,y,z
x,1/2-y,z
loop_
_atom_site_type_symbol
_atom_site_label
_atom_site_fract_x
_atom_site_fract_y
_atom_site_fract_z
Si Si1 0.413161 0.424794 0.470188
Si Si2 0.980624 0.922397 0.153670
Si Si3 0.686512 0.921017 0.843401
Si Si4 0.078041 0.079500 0.042711
Si Si5 0.184434 0.923739 0.356737
Si Si6 0.025874 0.924597 0.643238
O O1 0.406223 0.250000 0.484287
O O2 0.353600 0.491864 0.435857
O O3 0.428496 0.495090 0.574523
O O4 0.461960 0.463916 0.391038
O O5 0.984430 0.750000 0.183796
O O6 0.040971 0.971584 0.110215
O O7 0.964331 0.018912 0.247297
O O8 0.932060 0.952025 0.072081
O O9 0.750000 0.960348 0.880017
O O10 0.682521 0.750000 0.808324
O O11 0.644026 0.952032 0.933564
O O12 0.668599 0.021615 0.751816
O O13 0.061064 0.250000 0.067823
O O14 0.250000 0.959786 0.380547
O O15 0.171090 0.750000 0.362923
O O16 0.037429 0.750000 0.638171
#
# Coordination Sequence:
#
# PCOD8240511 Si02
#       6
#     8   8   8   8   8   8
#     4  10  20  33  50  71  94 122 157 194 232 278
#     4  10  19  30  46  68  94 124 156 190 230 278
#     4   9  17  30  48  68  91 121 155 190 228 270
#     4   9  18  31  46  67  94 122 154 192 232 274
#     4  10  20  32  47  70  99 127 154 188 232 279
#     4  10  20  33  49  70  96 124 154 192 238 283
#
# _framework density 16.659106999999999
#
# number of rings (size 3 to 8) (size 9 to 14) (size 15 to 20)
#    0.000    2.333    0.000    3.000    0.000    8.333 
#    0.000    0.000    0.000    1.000    0.000    2.333 
#    0.000    0.000    0.000    0.000    0.000    0.000 
#
# Total GULP energy -595314.492353 kJ/mol
# GULP energy per Si atom -12402.385257 kJ/mol
# Density = 1.662119 g / cm^3
# Si number density = 16.659107 Si / 1000 Ang^3
#
#
#
# Elastic Constant Matrix: (Units=GPa)
#
#
# Indices 1 2 3 4 5 6 
#
# 1 95.3569 41.3137 56.7047 0.0000 0.0000 0.0000
# 2 41.3137 75.1059 46.0066 0.0000 0.0000 0.0000
# 3 56.7047 46.0066 107.6494 0.0000 0.0000 0.0000
# 4 0.0000 0.0000 0.0000 30.9900 0.0000 0.0000
# 5 0.0000 0.0000 0.0000 0.0000 27.4879 0.0000
# 6 0.0000 0.0000 0.0000 0.0000 0.0000 25.4688
#
#
#
# Elastic Compliance Matrix: (Units=1/GPa)
#
#
# Indices 1 2 3 4 5 6 
#
# 1 0.016604 -0.005115 -0.006560 0.000000 0.000000 0.000000
# 2 -0.005115 0.019612 -0.005687 0.000000 0.000000 0.000000
# 3 -0.006560 -0.005687 0.015176 0.000000 0.000000 0.000000
# 4 0.000000 0.000000 0.000000 0.032268 0.000000 0.000000
# 5 0.000000 0.000000 0.000000 0.000000 0.036380 0.000000
# 6 0.000000 0.000000 0.000000 0.000000 0.000000 0.039264
#
#
# Mechanical properties :
#
#
# Convention : Reuss Voigt Hill
#
# Bulk Modulus (GPa) = 60.00007 62.90691 61.45349
# Shear Modulus (GPa) = 25.05209 25.72849 25.39029
#
# Velocity S-wave (km/s) = 3.88210 3.93416 3.90822
# Velocity P-wave (km/s) = 7.49592 7.64723 7.57195
#
# Compressibility (1/GPa) = 0.01666665
#
# Stress axis : x y z
#
# Youngs Moduli (GPa) = 60.22610 50.98935 65.89482
#
# Poissons Ratio (x) = 0.26081 0.43229
# Poissons Ratio (y) = 0.30805 0.37477
# Poissons Ratio (z) = 0.39510 0.28999
#
# Static dielectric constant tensor:
#      x y z
#    x 3.123570 0.000000 0.000000 
#    y 0.000000 3.252400 0.000000 
#    z 0.000000 0.000000 3.051820 
# 
# 
# High freq. dielectric constant tensor:
#      x y z
#    x 1.630300 0.000000 0.000000 
#    y 0.000000 1.655740 0.000000 
#    z 0.000000 0.000000 1.629680 
# 
# From -- ./inp_files/14344.got.cif
#   From: 2010.03.12/outbox.cif.g09.slc.cpg/sg59_8_cif.got.tgz:14344.got - 2010.04.16 16:29:54.
