data_PCOD8240770
_publ_section_title
;
Structure prediction by ZEFSAII (Michael W. Deem and Ramdas Pophale) SiO2 
 PCOD8240770
Probable space group: P M M N
;
_chemical_formula_sum "Si O2"
_cell_formula_units_Z 64
_cell_length_a 19.002422
_cell_length_b 8.861135
_cell_length_c 20.664556
_cell_angle_alpha 90.000000
_cell_angle_beta 90.000000
_cell_angle_gamma 90.000000
_cell_volume 3479.560484
_symmetry_space_group_name_H-M "P M M N"
_symmetry_group_IT_number 59
_space_group.IT_coordinate_system_code '2'
_symmetry_cell_setting 'orthorhombic'
loop_
_space_group_symop_operation_xyz
x,y,z
1/2-x,1/2-y,z
1/2+x,-y,-z
-x,1/2+y,-z
-x,-y,-z
1/2+x,1/2+y,-z
1/2-x,y,z
x,1/2-y,z
loop_
_atom_site_type_symbol
_atom_site_label
_atom_site_fract_x
_atom_site_fract_y
_atom_site_fract_z
Si Si1 0.831460 0.073571 0.110972
Si Si2 0.576217 0.572842 0.362421
Si Si3 0.672107 0.570985 0.884691
Si Si4 0.076562 0.070713 0.999200
Si Si5 0.669009 0.574462 0.245717
Si Si6 0.082610 0.572917 0.369806
Si Si7 0.924162 0.926975 0.503334
Si Si8 0.332890 0.421295 0.259613
O O1 0.750000 0.035995 0.095819
O O2 0.847378 0.250000 0.103677
O O3 0.880376 0.980253 0.063151
O O4 0.851261 0.021817 0.182977
O O5 0.573031 0.750000 0.351674
O O6 0.623881 0.505045 0.305115
O O7 0.496466 0.509350 0.358329
O O8 0.611201 0.537738 0.433113
O O9 0.750000 0.504044 0.899486
O O10 0.676975 0.750000 0.887938
O O11 0.647206 0.523652 0.812816
O O12 0.617073 0.509263 0.937195
O O13 0.070200 0.250000 0.999293
O O14 0.000000 0.000000 0.000000
O O15 0.750000 0.551937 0.264563
O O16 0.652479 0.750000 0.231945
O O17 0.082162 0.750000 0.380595
O O18 0.116214 0.498960 0.435141
O O19 0.129688 0.533024 0.308705
O O20 0.930762 0.750000 0.514655
O O21 0.000000 0.000000 0.500000
O O22 0.250000 0.432262 0.269973
O O23 0.358671 0.250000 0.271363
#
# Coordination Sequence:
#
# PCOD8240770 Si02
#       8
#     8   8   8   8   8   8   8   8
#     4  10  21  37  55  76 104 137 173 211 251 301
#     4   8  16  30  48  72  99 128 167 213 253 292
#     4   8  16  33  56  77  97 128 171 212 249 298
#     4  11  22  36  55  80 109 137 169 211 259 306
#     4   9  17  32  54  76  99 131 170 209 251 300
#     4  10  19  31  48  71 101 134 167 205 250 302
#     4   9  16  29  48  70  98 131 169 211 254 300
#     4   9  18  34  54  74  96 123 160 207 253 297
#
# _framework density 18.393127
#
# number of rings (size 3 to 8) (size 9 to 14) (size 15 to 20)
#    0.000    2.750    0.000    3.375    0.000    2.500 
#    0.000    8.125    0.000    3.750    0.000    0.000 
#    0.000    0.000    0.000    0.000    0.000    0.000 
#
# Total GULP energy -793292.158098 kJ/mol
# GULP energy per Si atom -12395.189970 kJ/mol
# Density = 1.835126 g / cm^3
# Si number density = 18.393127 Si / 1000 Ang^3
#
#
#
# Elastic Constant Matrix: (Units=GPa)
#
#
# Indices 1 2 3 4 5 6 
#
# 1 74.9148 30.6908 72.3886 0.0000 0.0000 0.0000
# 2 30.6908 62.7443 43.6112 0.0000 0.0000 0.0000
# 3 72.3886 43.6112 158.9700 0.0000 0.0000 0.0000
# 4 0.0000 0.0000 0.0000 25.2863 0.0000 0.0000
# 5 0.0000 0.0000 0.0000 0.0000 29.4247 0.0000
# 6 0.0000 0.0000 0.0000 0.0000 0.0000 24.4768
#
#
#
# Elastic Compliance Matrix: (Units=1/GPa)
#
#
# Indices 1 2 3 4 5 6 
#
# 1 0.025226 -0.005381 -0.010011 0.000000 0.000000 0.000000
# 2 -0.005381 0.020841 -0.003267 0.000000 0.000000 0.000000
# 3 -0.010011 -0.003267 0.011745 0.000000 0.000000 0.000000
# 4 0.000000 0.000000 0.000000 0.039547 0.000000 0.000000
# 5 0.000000 0.000000 0.000000 0.000000 0.033985 0.000000
# 6 0.000000 0.000000 0.000000 0.000000 0.000000 0.040855
#
#
# Mechanical properties :
#
#
# Convention : Reuss Voigt Hill
#
# Bulk Modulus (GPa) = 48.79393 65.55670 57.17531
# Shear Modulus (GPa) = 23.11087 25.83346 24.47216
#
# Velocity S-wave (km/s) = 3.54855 3.75175 3.65157
# Velocity P-wave (km/s) = 6.58601 7.38152 6.99509
#
# Compressibility (1/GPa) = 0.02049435
#
# Stress axis : x y z
#
# Youngs Moduli (GPa) = 39.64128 47.98335 85.14058
#
# Poissons Ratio (x) = 0.25820 0.85233
# Poissons Ratio (y) = 0.21331 0.27815
# Poissons Ratio (z) = 0.39684 0.15676
#
# Static dielectric constant tensor:
#      x y z
#    x 3.187420 0.000000 0.000000 
#    y 0.000000 3.229350 0.000000 
#    z 0.000000 0.000000 3.864890 
# 
# 
# High freq. dielectric constant tensor:
#      x y z
#    x 1.690720 0.000000 0.000000 
#    y 0.000000 1.695480 0.000000 
#    z 0.000000 0.000000 1.732730 
# 
# From -- ./inp_files/30807.got.cif
#   From: 2010.03.12/outbox.cif.g09.slc.cpg/sg59_16_cif.got.tgz:30807.got - 2010.04.16 16:29:54.
