data_PCOD8240041
_publ_section_title
;
Structure prediction by ZEFSAII (Michael W. Deem and Ramdas Pophale) SiO2 
 PCOD8240041
Probable space group: P M M N
;
_chemical_formula_sum "Si O2"
_cell_formula_units_Z 64
_cell_length_a 9.019142
_cell_length_b 19.899616
_cell_length_c 20.034377
_cell_angle_alpha 90.000000
_cell_angle_beta 90.000000
_cell_angle_gamma 90.000000
_cell_volume 3595.719146
_symmetry_space_group_name_H-M "P M M N"
_symmetry_group_IT_number 59
_space_group.IT_coordinate_system_code '2'
_symmetry_cell_setting 'orthorhombic'
loop_
_space_group_symop_operation_xyz
x,y,z
1/2-x,1/2-y,z
1/2+x,-y,-z
-x,1/2+y,-z
-x,-y,-z
1/2+x,1/2+y,-z
1/2-x,y,z
x,1/2-y,z
loop_
_atom_site_type_symbol
_atom_site_label
_atom_site_fract_x
_atom_site_fract_y
_atom_site_fract_z
Si Si1 0.923819 0.091816 0.953051
Si Si2 0.577240 0.589274 0.557410
Si Si3 0.576169 0.672653 0.158070
Si Si4 0.575725 0.572816 0.269114
Si Si5 0.922359 0.951764 0.413872
Si Si6 0.576074 0.941459 0.914003
Si Si7 0.925854 0.427976 0.222101
Si Si8 0.076662 0.826544 0.663010
O O1 0.750000 0.102039 0.963407
O O2 0.988521 0.150944 0.907725
O O3 0.960616 0.020650 0.918410
O O4 0.002644 0.097306 0.024361
O O5 0.750000 0.591475 0.572283
O O6 0.543368 0.594797 0.477942
O O7 0.515391 0.519646 0.585175
O O8 0.502020 0.651599 0.594474
O O9 0.750000 0.659170 0.146431
O O10 0.543274 0.750000 0.173192
O O11 0.511635 0.630852 0.221246
O O12 0.750000 0.572058 0.260512
O O13 0.533295 0.588117 0.346332
O O14 0.514684 0.499817 0.248073
O O15 0.750000 0.973138 0.412328
O O16 0.750000 0.927431 0.914861
O O17 0.505275 0.911085 0.847283
O O18 0.750000 0.427310 0.211162
O O19 0.976721 0.371904 0.275138
O O20 0.250000 0.835593 0.651228
O O21 0.033456 0.750000 0.678999
#
# Coordination Sequence:
#
# PCOD8240041 Si02
#       8
#     8   8   8   8   8   8   8   8
#     4  10  20  34  53  77 105 138 174 211 254 310
#     4  10  19  30  50  79 108 135 172 222 269 311
#     4  10  20  34  53  77 105 137 172 213 264 316
#     4   9  16  30  53  77 102 135 176 217 257 308
#     4   9  17  32  52  76 105 138 176 216 261 312
#     4  10  20  33  53  81 108 132 169 220 266 305
#     4  10  18  32  55  78 102 136 177 220 262 313
#     4  10  21  37  55  74 102 143 183 217 264 326
#
# _framework density 17.798943999999999
#
# number of rings (size 3 to 8) (size 9 to 14) (size 15 to 20)
#    0.000    2.250    2.500    1.125    0.000    2.500 
#    0.000    1.875    0.000    4.500    0.000    0.000 
#    0.000    0.000    0.000    0.000    0.000    0.000 
#
# Total GULP energy -793635.558608 kJ/mol
# GULP energy per Si atom -12400.555603 kJ/mol
# Density = 1.775843 g / cm^3
# Si number density = 17.798944 Si / 1000 Ang^3
#
#
#
# Elastic Constant Matrix: (Units=GPa)
#
#
# Indices 1 2 3 4 5 6 
#
# 1 53.2951 37.8146 49.3205 0.0000 0.0000 0.0000
# 2 37.8146 106.7445 73.0613 0.0000 0.0000 0.0000
# 3 49.3205 73.0613 162.6253 0.0000 0.0000 0.0000
# 4 0.0000 0.0000 0.0000 28.4726 0.0000 0.0000
# 5 0.0000 0.0000 0.0000 0.0000 30.1033 0.0000
# 6 0.0000 0.0000 0.0000 0.0000 0.0000 20.2377
#
#
#
# Elastic Compliance Matrix: (Units=1/GPa)
#
#
# Indices 1 2 3 4 5 6 
#
# 1 0.028554 -0.006048 -0.005943 0.000000 0.000000 0.000000
# 2 -0.006048 0.014809 -0.004819 0.000000 0.000000 0.000000
# 3 -0.005943 -0.004819 0.010116 0.000000 0.000000 0.000000
# 4 0.000000 0.000000 0.000000 0.035121 0.000000 0.000000
# 5 0.000000 0.000000 0.000000 0.000000 0.033219 0.000000
# 6 0.000000 0.000000 0.000000 0.000000 0.000000 0.049413
#
#
# Mechanical properties :
#
#
# Convention : Reuss Voigt Hill
#
# Bulk Modulus (GPa) = 50.35147 71.45084 60.90115
# Shear Modulus (GPa) = 23.64381 26.59396 25.11888
#
# Velocity S-wave (km/s) = 3.64865 3.86959 3.76075
# Velocity P-wave (km/s) = 6.78975 7.75857 7.29027
#
# Compressibility (1/GPa) = 0.01986039
#
# Stress axis : x y z
#
# Youngs Moduli (GPa) = 35.02114 67.52670 98.84992
#
# Poissons Ratio (x) = 0.40840 0.58744
# Poissons Ratio (y) = 0.21180 0.47635
# Poissons Ratio (z) = 0.20812 0.32540
#
# Static dielectric constant tensor:
#      x y z
#    x 3.153370 0.000000 0.000000 
#    y 0.000000 3.142810 0.000000 
#    z 0.000000 0.000000 3.521620 
# 
# 
# High freq. dielectric constant tensor:
#      x y z
#    x 1.677320 0.000000 0.000000 
#    y 0.000000 1.659520 0.000000 
#    z 0.000000 0.000000 1.703850 
# 
# From -- ./inp_files/29571.got.cif
#   From: 2010.03.12/outbox.cif.g09.slc.cpg/sg59_15_cif.got.tgz:29571.got - 2010.04.16 16:29:54.
