data_PCOD8240665
_publ_section_title
;
Structure prediction by ZEFSAII (Michael W. Deem and Ramdas Pophale) SiO2 
 PCOD8240665
Probable space group: P M M N
;
_chemical_formula_sum "Si O2"
_cell_formula_units_Z 64
_cell_length_a 9.414521
_cell_length_b 23.860493
_cell_length_c 15.357259
_cell_angle_alpha 90.000000
_cell_angle_beta 90.000000
_cell_angle_gamma 90.000000
_cell_volume 3449.779602
_symmetry_space_group_name_H-M "P M M N"
_symmetry_group_IT_number 59
_space_group.IT_coordinate_system_code '2'
_symmetry_cell_setting 'orthorhombic'
loop_
_space_group_symop_operation_xyz
x,y,z
1/2-x,1/2-y,z
1/2+x,-y,-z
-x,1/2+y,-z
-x,-y,-z
1/2+x,1/2+y,-z
1/2-x,y,z
x,1/2-y,z
loop_
_atom_site_type_symbol
_atom_site_label
_atom_site_fract_x
_atom_site_fract_y
_atom_site_fract_z
Si Si1 0.414052 0.006210 0.307666
Si Si2 0.090173 0.518544 0.860720
Si Si3 0.581651 0.602872 0.316426
Si Si4 0.090307 0.391744 0.880746
Si Si5 0.081444 0.312974 0.536292
Si Si6 0.413664 0.126622 0.363108
Si Si7 0.083370 0.685921 0.786445
Si Si8 0.587378 0.128594 0.038587
O O1 0.250000 0.988724 0.295923
O O2 0.502111 0.953903 0.345934
O O3 0.475519 0.025657 0.215046
O O4 0.428577 0.059329 0.372534
O O5 0.250000 0.526982 0.822162
O O6 0.078175 0.457443 0.903265
O O7 0.060018 0.564274 0.934467
O O8 0.750000 0.591428 0.322373
O O9 0.536866 0.619012 0.218010
O O10 0.530783 0.653095 0.378664
O O11 0.250000 0.369675 0.890323
O O12 0.997569 0.357487 0.950312
O O13 0.250000 0.310750 0.534626
O O14 0.018101 0.250000 0.539709
O O15 0.025265 0.344614 0.450356
O O16 0.250000 0.143560 0.347955
O O17 0.502516 0.147557 0.281523
O O18 0.250000 0.674523 0.775207
O O19 0.042625 0.750000 0.769480
O O20 0.035547 0.669136 0.883814
O O21 0.750000 0.140213 0.016266
#
# Coordination Sequence:
#
# PCOD8240665 Si02
#       8
#     8   8   8   8   8   8   8   8
#     4  10  19  30  49  80 113 140 169 209 263 317
#     4   9  17  31  49  72 102 137 174 209 251 307
#     4   9  19  36  55  76 105 140 177 217 261 313
#     4   9  18  30  47  73 102 129 168 215 257 300
#     4   9  18  35  59  81 101 133 178 221 261 310
#     4  10  20  34  55  83 109 134 171 217 263 313
#     4  10  21  36  53  74 104 142 179 213 254 313
#     4  10  19  31  49  72 100 136 175 209 252 306
#
# _framework density 18.551908000000001
#
# number of rings (size 3 to 8) (size 9 to 14) (size 15 to 20)
#    0.000    2.500    1.250    1.875    0.000    4.750 
#    0.000    1.250    0.000    1.875    0.000    0.000 
#    0.000    0.000    0.000    0.000    0.000    0.000 
#
# Total GULP energy -793495.332999 kJ/mol
# GULP energy per Si atom -12398.364578 kJ/mol
# Density = 1.850968 g / cm^3
# Si number density = 18.551908 Si / 1000 Ang^3
#
#
#
# Elastic Constant Matrix: (Units=GPa)
#
#
# Indices 1 2 3 4 5 6 
#
# 1 56.9018 38.1945 43.9819 0.0000 0.0000 0.0000
# 2 38.1945 88.8162 62.2456 0.0000 0.0000 0.0000
# 3 43.9819 62.2456 109.8374 0.0000 0.0000 0.0000
# 4 0.0000 0.0000 0.0000 24.9037 0.0000 0.0000
# 5 0.0000 0.0000 0.0000 0.0000 21.5850 0.0000
# 6 0.0000 0.0000 0.0000 0.0000 0.0000 18.3678
#
#
#
# Elastic Compliance Matrix: (Units=1/GPa)
#
#
# Indices 1 2 3 4 5 6 
#
# 1 0.027777 -0.006884 -0.007221 0.000000 0.000000 0.000000
# 2 -0.006884 0.020383 -0.008795 0.000000 0.000000 0.000000
# 3 -0.007221 -0.008795 0.016980 0.000000 0.000000 0.000000
# 4 0.000000 0.000000 0.000000 0.040155 0.000000 0.000000
# 5 0.000000 0.000000 0.000000 0.000000 0.046329 0.000000
# 6 0.000000 0.000000 0.000000 0.000000 0.000000 0.054443
#
#
# Mechanical properties :
#
#
# Convention : Reuss Voigt Hill
#
# Bulk Modulus (GPa) = 51.70723 60.48882 56.09802
# Shear Modulus (GPa) = 19.35635 20.38019 19.86827
#
# Velocity S-wave (km/s) = 3.23361 3.31803 3.27610
# Velocity P-wave (km/s) = 6.47100 6.88150 6.67941
#
# Compressibility (1/GPa) = 0.01933966
#
# Stress axis : x y z
#
# Youngs Moduli (GPa) = 36.00153 49.05950 58.89278
#
# Poissons Ratio (x) = 0.33773 0.42528
# Poissons Ratio (y) = 0.24784 0.51795
# Poissons Ratio (z) = 0.25997 0.43147
#
# Static dielectric constant tensor:
#      x y z
#    x 3.252010 0.000000 0.000000 
#    y 0.000000 3.474530 0.000000 
#    z 0.000000 0.000000 3.310360 
# 
# 
# High freq. dielectric constant tensor:
#      x y z
#    x 1.701960 0.000000 0.000000 
#    y 0.000000 1.711570 0.000000 
#    z 0.000000 0.000000 1.712960 
# 
# From -- ./inp_files/21434.got.cif
#   From: 2010.03.12/outbox.cif.g09.slc.cpg/sg59_11_cif.got.tgz:21434.got - 2010.04.16 16:29:54.
