data_PCOD8240215
_publ_section_title
;
Structure prediction by ZEFSAII (Michael W. Deem and Ramdas Pophale) SiO2 
 PCOD8240215
Probable space group: P M M N
;
_chemical_formula_sum "Si O2"
_cell_formula_units_Z 56
_cell_length_a 14.433435
_cell_length_b 21.776544
_cell_length_c 8.934877
_cell_angle_alpha 90.000000
_cell_angle_beta 90.000000
_cell_angle_gamma 90.000000
_cell_volume 2808.324159
_symmetry_space_group_name_H-M "P M M N"
_symmetry_group_IT_number 59
_space_group.IT_coordinate_system_code '2'
_symmetry_cell_setting 'orthorhombic'
loop_
_space_group_symop_operation_xyz
x,y,z
1/2-x,1/2-y,z
1/2+x,-y,-z
-x,1/2+y,-z
-x,-y,-z
1/2+x,1/2+y,-z
1/2-x,y,z
x,1/2-y,z
loop_
_atom_site_type_symbol
_atom_site_label
_atom_site_fract_x
_atom_site_fract_y
_atom_site_fract_z
Si Si1 0.022987 0.403468 0.594141
Si Si2 0.477366 0.819892 0.137672
Si Si3 0.146596 0.021905 0.162255
Si Si4 0.642303 0.407560 0.044548
Si Si5 0.354578 0.348839 0.055115
Si Si6 0.541025 0.033443 0.319731
Si Si7 0.143164 0.319653 0.386728
O O1 0.074118 0.462241 0.671569
O O2 0.096614 0.362206 0.508857
O O3 0.969684 0.361290 0.713889
O O4 0.947126 0.431313 0.477987
O O5 0.449062 0.750000 0.175535
O O6 0.407533 0.845901 0.011917
O O7 0.581991 0.820465 0.074094
O O8 0.250000 0.019631 0.234713
O O9 0.142295 0.077290 0.042206
O O10 0.069932 0.033007 0.288393
O O11 0.123008 0.959812 0.076727
O O12 0.750000 0.393823 0.068129
O O13 0.599342 0.429085 0.200228
O O14 0.250000 0.323634 0.032117
O O15 0.394615 0.329632 0.218235
O O16 0.250000 0.337831 0.384566
O O17 0.125635 0.250000 0.436762
#
# Coordination Sequence:
#
# PCOD8240215 Si02
#       7
#     8   8   8   8   8   8   8
#     4  11  23  36  58  87 126 159 192 238 301 370
#     4  12  24  39  60  85 121 161 199 248 297 349
#     4  10  18  34  64  92 117 147 187 247 300 346
#     4  11  23  41  64  88 114 151 204 258 302 345
#     4  10  20  36  62  92 118 154 200 244 295 353
#     4  11  21  39  63  90 122 154 195 246 301 363
#     4  10  20  35  54  79 118 164 204 237 280 354
#
# _framework density 19.940716999999999
#
# number of rings (size 3 to 8) (size 9 to 14) (size 15 to 20)
#    0.000    1.286    4.286    2.143    0.000    2.286 
#    0.000    3.571    0.000    0.000    0.000    0.000 
#    0.000    0.000    0.000    0.000    0.000    0.000 
#
# Total GULP energy -694357.027860 kJ/mol
# GULP energy per Si atom -12399.232640 kJ/mol
# Density = 1.989533 g / cm^3
# Si number density = 19.940717 Si / 1000 Ang^3
#
#
#
# Elastic Constant Matrix: (Units=GPa)
#
#
# Indices 1 2 3 4 5 6 
#
# 1 85.2951 30.2391 43.2311 0.0000 0.0000 0.0000
# 2 30.2391 137.6439 52.8604 0.0000 0.0000 0.0000
# 3 43.2311 52.8604 102.4349 0.0000 0.0000 0.0000
# 4 0.0000 0.0000 0.0000 26.3158 0.0000 0.0000
# 5 0.0000 0.0000 0.0000 0.0000 19.7586 0.0000
# 6 0.0000 0.0000 0.0000 0.0000 0.0000 22.1495
#
#
#
# Elastic Compliance Matrix: (Units=1/GPa)
#
#
# Indices 1 2 3 4 5 6 
#
# 1 0.015042 -0.001081 -0.005791 0.000000 0.000000 0.000000
# 2 -0.001081 0.009138 -0.004260 0.000000 0.000000 0.000000
# 3 -0.005791 -0.004260 0.014404 0.000000 0.000000 0.000000
# 4 0.000000 0.000000 0.000000 0.038000 0.000000 0.000000
# 5 0.000000 0.000000 0.000000 0.000000 0.050611 0.000000
# 6 0.000000 0.000000 0.000000 0.000000 0.000000 0.045148
#
#
# Mechanical properties :
#
#
# Convention : Reuss Voigt Hill
#
# Bulk Modulus (GPa) = 61.26418 64.22611 62.74515
# Shear Modulus (GPa) = 24.99421 26.91433 25.95427
#
# Velocity S-wave (km/s) = 3.54422 3.67784 3.61164
# Velocity P-wave (km/s) = 6.89482 7.09322 6.99472
#
# Compressibility (1/GPa) = 0.01632275
#
# Stress axis : x y z
#
# Youngs Moduli (GPa) = 66.48030 109.42802 69.42403
#
# Poissons Ratio (x) = 0.11827 0.40200
# Poissons Ratio (y) = 0.07185 0.29572
# Poissons Ratio (z) = 0.38496 0.46612
#
# Static dielectric constant tensor:
#      x y z
#    x 3.450680 0.000000 0.000000 
#    y 0.000000 3.839030 0.000000 
#    z 0.000000 0.000000 3.599560 
# 
# 
# High freq. dielectric constant tensor:
#      x y z
#    x 1.751630 0.000000 0.000000 
#    y 0.000000 1.791810 0.000000 
#    z 0.000000 0.000000 1.772150 
# 
# From -- ./inp_files/9369.got.cif
#   From: 2010.03.12/outbox.cif.g09.slc.cpg/sg59_5_cif.got.tgz:9369.got - 2010.04.16 16:29:54.
