data_PCOD8240040
_publ_section_title
;
Structure prediction by ZEFSAII (Michael W. Deem and Ramdas Pophale) SiO2 
 PCOD8240040
Probable space group: P M M N
;
_chemical_formula_sum "Si O2"
_cell_formula_units_Z 64
_cell_length_a 8.997708
_cell_length_b 14.642102
_cell_length_c 25.986591
_cell_angle_alpha 90.000000
_cell_angle_beta 90.000000
_cell_angle_gamma 90.000000
_cell_volume 3423.612742
_symmetry_space_group_name_H-M "P M M N"
_symmetry_group_IT_number 59
_space_group.IT_coordinate_system_code '2'
_symmetry_cell_setting 'orthorhombic'
loop_
_space_group_symop_operation_xyz
x,y,z
1/2-x,1/2-y,z
1/2+x,-y,-z
-x,1/2+y,-z
-x,-y,-z
1/2+x,1/2+y,-z
1/2-x,y,z
x,1/2-y,z
loop_
_atom_site_type_symbol
_atom_site_label
_atom_site_fract_x
_atom_site_fract_y
_atom_site_fract_z
Si Si1 0.583645 0.647528 0.112236
Si Si2 0.075810 0.355966 0.362848
Si Si3 0.925511 0.848253 0.890420
Si Si4 0.925464 0.008190 0.819731
Si Si5 0.075548 0.507049 0.445329
Si Si6 0.077085 0.144242 0.627628
Si Si7 0.423621 0.993576 0.710665
Si Si8 0.075329 0.095964 0.999878
O O1 0.750000 0.604787 0.117506
O O2 0.585926 0.750000 0.132473
O O3 0.465112 0.597517 0.147918
O O4 0.531898 0.647830 0.052549
O O5 0.250000 0.360664 0.350963
O O6 0.024944 0.250000 0.369830
O O7 0.036370 0.414559 0.413786
O O8 0.992037 0.402800 0.315148
O O9 0.750000 0.861079 0.891178
O O10 0.971849 0.750000 0.867807
O O11 0.992588 0.924104 0.852712
O O12 0.984719 0.852928 0.949176
O O13 0.750000 0.002401 0.811121
O O14 0.004203 0.009920 0.765379
O O15 0.250000 0.517973 0.452457
O O16 0.000000 0.500000 0.500000
O O17 0.015547 0.598676 0.418293
O O18 0.250000 0.138551 0.612932
O O19 0.028211 0.250000 0.635634
O O20 0.043275 0.086113 0.678884
O O21 0.250000 0.976242 0.716768
O O22 0.250000 0.083462 0.003720
O O23 0.000000 0.000000 0.000000
#
# Coordination Sequence:
#
# PCOD8240040 Si02
#       8
#     8   8   8   8   8   8   8   8
#     4  10  21  36  55  78 105 139 177 218 267 323
#     4   9  19  37  59  81 108 147 192 232 273 324
#     4   9  18  33  53  76 102 135 174 212 256 318
#     4  11  22  36  55  80 108 140 177 222 273 324
#     4  10  20  34  54  84 120 154 188 228 272 319
#     4   9  19  37  59  80 105 143 188 231 278 329
#     4  10  21  37  57  81 109 141 180 230 281 330
#     4  10  18  32  55  78 102 134 172 214 263 319
#
# _framework density 18.693702999999999
#
# number of rings (size 3 to 8) (size 9 to 14) (size 15 to 20)
#    0.000    2.250    1.250    1.500    0.000    4.750 
#    0.000    3.750    0.000    3.750    0.000    0.000 
#    0.000    0.000    0.000    0.000    0.000    0.000 
#
# Total GULP energy -793401.576275 kJ/mol
# GULP energy per Si atom -12396.899629 kJ/mol
# Density = 1.865116 g / cm^3
# Si number density = 18.693703 Si / 1000 Ang^3
#
#
#
# Elastic Constant Matrix: (Units=GPa)
#
#
# Indices 1 2 3 4 5 6 
#
# 1 47.7750 39.4013 50.8604 0.0000 0.0000 0.0000
# 2 39.4013 144.5725 61.7587 0.0000 0.0000 0.0000
# 3 50.8604 61.7587 142.2488 0.0000 0.0000 0.0000
# 4 0.0000 0.0000 0.0000 58.7291 0.0000 0.0000
# 5 0.0000 0.0000 0.0000 0.0000 28.2373 0.0000
# 6 0.0000 0.0000 0.0000 0.0000 0.0000 28.6263
#
#
#
# Elastic Compliance Matrix: (Units=1/GPa)
#
#
# Indices 1 2 3 4 5 6 
#
# 1 0.036978 -0.005439 -0.010860 0.000000 0.000000 0.000000
# 2 -0.005439 0.009292 -0.002090 0.000000 0.000000 0.000000
# 3 -0.010860 -0.002090 0.011820 0.000000 0.000000 0.000000
# 4 0.000000 0.000000 0.000000 0.017027 0.000000 0.000000
# 5 0.000000 0.000000 0.000000 0.000000 0.035414 0.000000
# 6 0.000000 0.000000 0.000000 0.000000 0.000000 0.034933
#
#
# Mechanical properties :
#
#
# Convention : Reuss Voigt Hill
#
# Bulk Modulus (GPa) = 46.91860 70.95968 58.93914
# Shear Modulus (GPa) = 26.40665 35.29026 30.84846
#
# Velocity S-wave (km/s) = 3.76253 4.34961 4.06668
# Velocity P-wave (km/s) = 6.63540 7.95406 7.32447
#
# Compressibility (1/GPa) = 0.02131351
#
# Stress axis : x y z
#
# Youngs Moduli (GPa) = 27.04276 107.62163 84.60135
#
# Poissons Ratio (x) = 0.58532 0.91879
# Poissons Ratio (y) = 0.14708 0.17678
# Poissons Ratio (z) = 0.29369 0.22488
#
# Static dielectric constant tensor:
#      x y z
#    x 3.339550 0.000000 0.000000 
#    y 0.000000 3.565930 0.000000 
#    z 0.000000 0.000000 3.077250 
# 
# 
# High freq. dielectric constant tensor:
#      x y z
#    x 1.713290 0.000000 0.000000 
#    y 0.000000 1.731520 0.000000 
#    z 0.000000 0.000000 1.727700 
# 
# From -- ./inp_files/31469.got.cif
#   From: 2010.03.12/outbox.cif.g09.slc.cpg/sg59_16_cif.got.tgz:31469.got - 2010.04.16 16:29:54.
