data_PCOD8240758
_publ_section_title
;
Structure prediction by ZEFSAII (Michael W. Deem and Ramdas Pophale) SiO2 
 PCOD8240758
Probable space group: P M M N
;
_chemical_formula_sum "Si O2"
_cell_formula_units_Z 56
_cell_length_a 9.206330
_cell_length_b 19.182731
_cell_length_c 18.042239
_cell_angle_alpha 90.000000
_cell_angle_beta 90.000000
_cell_angle_gamma 90.000000
_cell_volume 3186.305449
_symmetry_space_group_name_H-M "P M M N"
_symmetry_group_IT_number 59
_space_group.IT_coordinate_system_code '2'
_symmetry_cell_setting 'orthorhombic'
loop_
_space_group_symop_operation_xyz
x,y,z
1/2-x,1/2-y,z
1/2+x,-y,-z
-x,1/2+y,-z
-x,-y,-z
1/2+x,1/2+y,-z
1/2-x,y,z
x,1/2-y,z
loop_
_atom_site_type_symbol
_atom_site_label
_atom_site_fract_x
_atom_site_fract_y
_atom_site_fract_z
Si Si1 0.418362 0.831760 0.655976
Si Si2 0.087933 0.919006 0.072047
Si Si3 0.589204 0.167175 0.508846
Si Si4 0.919853 0.828957 0.350639
Si Si5 0.577470 0.570309 0.218062
Si Si6 0.589735 0.915433 0.934935
Si Si7 0.922044 0.925444 0.771318
O O1 0.250000 0.849949 0.672405
O O2 0.445390 0.750000 0.665539
O O3 0.461199 0.857192 0.572971
O O4 0.525723 0.870540 0.711209
O O5 0.250000 0.888471 0.083087
O O6 0.987463 0.899360 0.141734
O O7 0.094521 0.001392 0.063249
O O8 0.020110 0.885950 0.996962
O O9 0.750000 0.138323 0.524884
O O10 0.589821 0.250000 0.508579
O O11 0.486553 0.138595 0.574012
O O12 0.750000 0.830591 0.362595
O O13 0.975218 0.750000 0.336807
O O14 0.966799 0.874858 0.280988
O O15 0.750000 0.561314 0.209521
O O16 0.506757 0.497334 0.240832
O O17 0.750000 0.885781 0.952708
O O18 0.540289 0.893178 0.852343
O O19 0.750000 0.939579 0.764647
#
# Coordination Sequence:
#
# PCOD8240758 Si02
#       7
#     8   8   8   8   8   8   8
#     4   9  18  33  52  73  97 125 157 192 234 285
#     4   9  16  26  43  67  92 119 155 195 231 274
#     4   8  15  29  49  71  93 120 155 193 232 276
#     4   9  18  32  50  72  95 121 157 197 235 279
#     4  10  19  31  48  69  97 129 156 190 240 288
#     4   8  15  27  42  63  91 121 153 190 232 275
#     4  10  20  32  48  72  99 125 158 198 235 276
#
# _framework density 17.575215
#
# number of rings (size 3 to 8) (size 9 to 14) (size 15 to 20)
#    0.000    3.000    0.000    3.000    0.000    6.000 
#    0.000    2.143    0.000    0.857    0.000    2.000 
#    0.000    0.000    0.000    0.000    0.000    0.000 
#
# Total GULP energy -694117.367168 kJ/mol
# GULP energy per Si atom -12394.952985 kJ/mol
# Density = 1.753521 g / cm^3
# Si number density = 17.575215 Si / 1000 Ang^3
#
#
#
# Elastic Constant Matrix: (Units=GPa)
#
#
# Indices 1 2 3 4 5 6 
#
# 1 93.4097 32.9597 78.0123 0.0000 0.0000 0.0000
# 2 32.9597 35.4679 45.4682 0.0000 0.0000 0.0000
# 3 78.0123 45.4682 165.1169 0.0000 0.0000 0.0000
# 4 0.0000 0.0000 0.0000 -184.7644 0.0000 0.0000
# 5 0.0000 0.0000 0.0000 0.0000 38.1377 0.0000
# 6 0.0000 0.0000 0.0000 0.0000 0.0000 16.2982
#
#
#
# Elastic Compliance Matrix: (Units=1/GPa)
#
#
# Indices 1 2 3 4 5 6 
#
# 1 0.019681 -0.009844 -0.006588 0.000000 0.000000 0.000000
# 2 -0.009844 0.048501 -0.008705 0.000000 0.000000 0.000000
# 3 -0.006588 -0.008705 0.011566 0.000000 0.000000 0.000000
# 4 0.000000 0.000000 0.000000 -0.005412 0.000000 0.000000
# 5 0.000000 0.000000 0.000000 0.000000 0.026221 0.000000
# 6 0.000000 0.000000 0.000000 0.000000 0.000000 0.061356
#
#
# Mechanical properties :
#
#
# Convention : Reuss Voigt Hill
#
# Bulk Modulus (GPa) = 33.92697 67.43053 50.67875
# Shear Modulus (GPa) = 22.52139 -16.89540 2.81300
#
# Velocity S-wave (km/s) = 3.58359 -3.10388 1.26650
# Velocity P-wave (km/s) = 6.03892 5.06011 5.57105
#
# Compressibility (1/GPa) = 0.02947507
#
# Stress axis : x y z
#
# Youngs Moduli (GPa) = 50.81080 20.61797 86.46044
#
# Poissons Ratio (x) = 0.20296 0.56959
# Poissons Ratio (y) = 0.50016 0.75264
# Poissons Ratio (z) = 0.33474 0.17948
#
# Static dielectric constant tensor:
#      x y z
#    x 3.416730 0.000000 0.000000 
#    y 0.000000 2.820590 0.000000 
#    z 0.000000 0.000000 3.606770 
# 
# 
# High freq. dielectric constant tensor:
#      x y z
#    x 1.685780 0.000000 0.000000 
#    y 0.000000 1.622810 0.000000 
#    z 0.000000 0.000000 1.696360 
# 
# From -- ./inp_files/26125.got.cif
#   From: 2010.03.12/outbox.cif.g09.slc.cpg/sg59_14_cif.got.tgz:26125.got - 2010.04.16 16:29:54.
