data_PCOD8240960
_publ_section_title
;
Structure prediction by ZEFSAII (Michael W. Deem and Ramdas Pophale) SiO2 
 PCOD8240960
Probable space group: P M M N
;
_chemical_formula_sum "Si O2"
_cell_formula_units_Z 56
_cell_length_a 22.411927
_cell_length_b 8.911314
_cell_length_c 14.863630
_cell_angle_alpha 90.000000
_cell_angle_beta 90.000000
_cell_angle_gamma 90.000000
_cell_volume 2968.560005
_symmetry_space_group_name_H-M "P M M N"
_symmetry_group_IT_number 59
_space_group.IT_coordinate_system_code '2'
_symmetry_cell_setting 'orthorhombic'
loop_
_space_group_symop_operation_xyz
x,y,z
1/2-x,1/2-y,z
1/2+x,-y,-z
-x,1/2+y,-z
-x,-y,-z
1/2+x,1/2+y,-z
1/2-x,y,z
x,1/2-y,z
loop_
_atom_site_type_symbol
_atom_site_label
_atom_site_fract_x
_atom_site_fract_y
_atom_site_fract_z
Si Si1 0.319000 0.920887 0.580043
Si Si2 0.146271 0.926110 0.385932
Si Si3 0.094440 0.427063 0.715036
Si Si4 0.444686 0.573533 0.891326
Si Si5 0.079309 0.073189 0.077455
Si Si6 0.317067 0.926346 0.193999
Si Si7 0.513138 0.074908 0.593446
O O1 0.250000 0.924507 0.603167
O O2 0.343847 0.750000 0.584236
O O3 0.329917 0.992992 0.480596
O O4 0.350131 0.021607 0.655138
O O5 0.156023 0.750000 0.393354
O O6 0.181011 0.984464 0.297777
O O7 0.077789 0.972511 0.371124
O O8 0.097576 0.250000 0.729923
O O9 0.094814 0.508410 0.810649
O O10 0.033953 0.479953 0.666665
O O11 0.435445 0.750000 0.897030
O O12 0.514862 0.531999 0.879171
O O13 0.416901 0.501961 0.980339
O O14 0.086396 0.250000 0.066295
O O15 0.133709 0.013141 0.136927
O O16 0.250000 0.958272 0.157491
O O17 0.332310 0.750000 0.189610
O O18 0.508196 0.250000 0.576858
O O19 0.500000 0.000000 0.500000
#
# Coordination Sequence:
#
# PCOD8240960 Si02
#       7
#     8   8   8   8   8   8   8
#     4  10  20  35  55  76 104 148 196 234 268 319
#     4   9  17  32  54  79 108 145 189 231 270 319
#     4  11  22  35  54  83 115 146 180 228 284 330
#     4  10  21  38  62  87 111 144 183 226 278 340
#     4  10  21  38  60  87 116 144 177 227 285 336
#     4  10  20  35  57  84 115 153 194 232 273 331
#     4  10  19  31  50  77 109 144 181 225 274 322
#
# _framework density 18.864366
#
# number of rings (size 3 to 8) (size 9 to 14) (size 15 to 20)
#    0.000    2.000    1.429    2.571    0.000    5.714 
#    0.000    2.143    0.000    6.000    0.000    0.000 
#    0.000    0.000    0.000    0.000    0.000    0.000 
#
# Total GULP energy -694359.592947 kJ/mol
# GULP energy per Si atom -12399.278445 kJ/mol
# Density = 1.882143 g / cm^3
# Si number density = 18.864366 Si / 1000 Ang^3
#
#
#
# Elastic Constant Matrix: (Units=GPa)
#
#
# Indices 1 2 3 4 5 6 
#
# 1 88.0083 32.7818 55.3806 0.0000 0.0000 0.0000
# 2 32.7818 60.3192 48.8566 0.0000 0.0000 0.0000
# 3 55.3806 48.8566 140.5195 0.0000 0.0000 0.0000
# 4 0.0000 0.0000 0.0000 29.7451 0.0000 0.0000
# 5 0.0000 0.0000 0.0000 0.0000 25.4961 0.0000
# 6 0.0000 0.0000 0.0000 0.0000 0.0000 28.7072
#
#
#
# Elastic Compliance Matrix: (Units=1/GPa)
#
#
# Indices 1 2 3 4 5 6 
#
# 1 0.016140 -0.005038 -0.004609 0.000000 0.000000 0.000000
# 2 -0.005038 0.024650 -0.006585 0.000000 0.000000 0.000000
# 3 -0.004609 -0.006585 0.011222 0.000000 0.000000 0.000000
# 4 0.000000 0.000000 0.000000 0.033619 0.000000 0.000000
# 5 0.000000 0.000000 0.000000 0.000000 0.039222 0.000000
# 6 0.000000 0.000000 0.000000 0.000000 0.000000 0.034834
#
#
# Mechanical properties :
#
#
# Convention : Reuss Voigt Hill
#
# Bulk Modulus (GPa) = 51.15670 62.54278 56.84974
# Shear Modulus (GPa) = 25.16768 26.91156 26.03962
#
# Velocity S-wave (km/s) = 3.65655 3.78111 3.71935
# Velocity P-wave (km/s) = 6.70851 7.23106 6.97468
#
# Compressibility (1/GPa) = 0.01954778
#
# Stress axis : x y z
#
# Youngs Moduli (GPa) = 61.95949 40.56775 89.10731
#
# Poissons Ratio (x) = 0.20439 0.41071
# Poissons Ratio (y) = 0.31216 0.58676
# Poissons Ratio (z) = 0.28558 0.26713
#
# Static dielectric constant tensor:
#      x y z
#    x 3.477550 0.000000 0.000000 
#    y 0.000000 3.280450 0.000000 
#    z 0.000000 0.000000 3.477200 
# 
# 
# High freq. dielectric constant tensor:
#      x y z
#    x 1.731680 0.000000 0.000000 
#    y 0.000000 1.716890 0.000000 
#    z 0.000000 0.000000 1.737420 
# 
# From -- ./inp_files/21043.got.cif
#   From: 2010.03.12/outbox.cif.g09.slc.cpg/sg59_11_cif.got.tgz:21043.got - 2010.04.16 16:29:54.
