data_PCOD8240160
_publ_section_title
;
Structure prediction by ZEFSAII (Michael W. Deem and Ramdas Pophale) SiO2 
 PCOD8240160
Probable space group: P M M N
;
_chemical_formula_sum "Si O2"
_cell_formula_units_Z 64
_cell_length_a 17.657363
_cell_length_b 15.638194
_cell_length_c 11.845189
_cell_angle_alpha 90.000000
_cell_angle_beta 90.000000
_cell_angle_gamma 90.000000
_cell_volume 3270.803369
_symmetry_space_group_name_H-M "P M M N"
_symmetry_group_IT_number 59
_space_group.IT_coordinate_system_code '2'
_symmetry_cell_setting 'orthorhombic'
loop_
_space_group_symop_operation_xyz
x,y,z
1/2-x,1/2-y,z
1/2+x,-y,-z
-x,1/2+y,-z
-x,-y,-z
1/2+x,1/2+y,-z
1/2-x,y,z
x,1/2-y,z
loop_
_atom_site_type_symbol
_atom_site_label
_atom_site_fract_x
_atom_site_fract_y
_atom_site_fract_z
Si Si1 0.602183 0.547044 0.778384
Si Si2 0.665236 0.983813 0.542300
Si Si3 0.580960 0.346389 0.999345
Si Si4 0.563086 0.847539 0.409075
Si Si5 0.405309 0.848574 0.530724
Si Si6 0.974203 0.347078 0.244481
Si Si7 0.534141 0.581914 0.168316
Si Si8 0.663778 0.510749 0.008206
O O1 0.654062 0.515619 0.677167
O O2 0.564467 0.637346 0.744778
O O3 0.525620 0.490469 0.795749
O O4 0.651083 0.561169 0.891134
O O5 0.750000 0.955073 0.513594
O O6 0.611165 0.917199 0.478299
O O7 0.656699 0.083691 0.510272
O O8 0.612490 0.250000 0.994792
O O9 0.555347 0.375190 0.123106
O O10 0.648460 0.411941 0.971159
O O11 0.509616 0.353655 0.915358
O O12 0.593200 0.750000 0.428370
O O13 0.476794 0.854106 0.448056
O O14 0.566019 0.867855 0.275982
O O15 0.374093 0.750000 0.532144
O O16 0.427184 0.888732 0.653061
O O17 0.959775 0.250000 0.268491
O O18 0.606821 0.542752 0.104330
O O19 0.750000 0.522059 0.050328
#
# Coordination Sequence:
#
# PCOD8240160 Si02
#       8
#     8   8   8   8   8   8   8   8
#     4  11  19  39  61  85 115 154 208 249 285 354
#     4  12  25  39  61  89 125 165 196 248 315 363
#     4  10  20  36  60  87 113 149 199 246 291 349
#     4  11  23  39  63  90 116 155 207 250 291 355
#     4  10  21  39  63  90 118 154 202 252 295 353
#     4  10  18  33  62  88 106 141 200 255 289 332
#     4  11  20  38  63  86 114 159 203 246 291 349
#     4  11  23  37  56  87 123 158 192 239 309 365
#
# _framework density 19.567057999999999
#
# number of rings (size 3 to 8) (size 9 to 14) (size 15 to 20)
#    0.000    1.250    5.000    2.625    0.000    1.250 
#    0.000    0.000    0.000    7.500    0.000    0.000 
#    0.000    0.000    0.000    0.000    0.000    0.000 
#
# Total GULP energy -793119.573212 kJ/mol
# GULP energy per Si atom -12392.493331 kJ/mol
# Density = 1.952252 g / cm^3
# Si number density = 19.567058 Si / 1000 Ang^3
#
#
#
# Elastic Constant Matrix: (Units=GPa)
#
#
# Indices 1 2 3 4 5 6 
#
# 1 84.2574 22.7366 21.6413 0.0000 0.0000 0.0000
# 2 22.7366 44.9567 28.1493 0.0000 0.0000 0.0000
# 3 21.6413 28.1493 121.0500 0.0000 0.0000 0.0000
# 4 0.0000 0.0000 0.0000 26.5956 0.0000 0.0000
# 5 0.0000 0.0000 0.0000 0.0000 19.0229 0.0000
# 6 0.0000 0.0000 0.0000 0.0000 0.0000 15.7395
#
#
#
# Elastic Compliance Matrix: (Units=1/GPa)
#
#
# Indices 1 2 3 4 5 6 
#
# 1 0.013845 -0.006381 -0.000991 0.000000 0.000000 0.000000
# 2 -0.006381 0.028976 -0.005597 0.000000 0.000000 0.000000
# 3 -0.000991 -0.005597 0.009740 0.000000 0.000000 0.000000
# 4 0.000000 0.000000 0.000000 0.037600 0.000000 0.000000
# 5 0.000000 0.000000 0.000000 0.000000 0.052568 0.000000
# 6 0.000000 0.000000 0.000000 0.000000 0.000000 0.063535
#
#
# Mechanical properties :
#
#
# Convention : Reuss Voigt Hill
#
# Bulk Modulus (GPa) = 37.56460 43.92427 40.74443
# Shear Modulus (GPa) = 20.74029 24.12072 22.43051
#
# Velocity S-wave (km/s) = 3.25923 3.51482 3.38944
# Velocity P-wave (km/s) = 5.77954 6.24250 6.01547
#
# Compressibility (1/GPa) = 0.02662081
#
# Stress axis : x y z
#
# Youngs Moduli (GPa) = 72.22832 34.51176 102.67085
#
# Poissons Ratio (x) = 0.22023 0.10177
# Poissons Ratio (y) = 0.46091 0.57467
# Poissons Ratio (z) = 0.07160 0.19317
#
# Static dielectric constant tensor:
#      x y z
#    x 3.214720 0.000000 0.000000 
#    y 0.000000 3.679450 0.000000 
#    z 0.000000 0.000000 4.176010 
# 
# 
# High freq. dielectric constant tensor:
#      x y z
#    x 1.727000 0.000000 0.000000 
#    y 0.000000 1.765370 0.000000 
#    z 0.000000 0.000000 1.782120 
# 
# From -- ./inp_files/17186.got.cif
#   From: 2010.03.12/outbox.cif.g09.slc.cpg/sg59_9_cif.got.tgz:17186.got - 2010.04.16 16:29:54.
