data_PCOD8240974
_publ_section_title
;
Structure prediction by ZEFSAII (Michael W. Deem and Ramdas Pophale) SiO2 
 PCOD8240974
Probable space group: P M M N
;
_chemical_formula_sum "Si O2"
_cell_formula_units_Z 64
_cell_length_a 20.018641
_cell_length_b 10.332199
_cell_length_c 17.453407
_cell_angle_alpha 90.000000
_cell_angle_beta 90.000000
_cell_angle_gamma 90.000000
_cell_volume 3610.003057
_symmetry_space_group_name_H-M "P M M N"
_symmetry_group_IT_number 59
_space_group.IT_coordinate_system_code '2'
_symmetry_cell_setting 'orthorhombic'
loop_
_space_group_symop_operation_xyz
x,y,z
1/2-x,1/2-y,z
1/2+x,-y,-z
-x,1/2+y,-z
-x,-y,-z
1/2+x,1/2+y,-z
1/2-x,y,z
x,1/2-y,z
loop_
_atom_site_type_symbol
_atom_site_label
_atom_site_fract_x
_atom_site_fract_y
_atom_site_fract_z
Si Si1 0.675405 0.893897 0.551835
Si Si2 0.173612 0.100120 0.887927
Si Si3 0.377471 0.107554 0.289174
Si Si4 0.909296 0.102041 0.828716
Si Si5 0.444071 0.399473 0.775938
Si Si6 0.325925 0.896704 0.021452
Si Si7 0.579419 0.110537 0.511623
Si Si8 0.006370 0.527801 0.630265
O O1 0.750000 0.904825 0.520945
O O2 0.646387 0.750000 0.535875
O O3 0.674987 0.921472 0.643033
O O4 0.633125 0.997186 0.505088
O O5 0.250000 0.083138 0.858602
O O6 0.160992 0.250000 0.912847
O O7 0.121900 0.057264 0.822084
O O8 0.159313 0.004196 0.957952
O O9 0.364363 0.250000 0.252353
O O10 0.450654 0.111088 0.326709
O O11 0.369457 0.994713 0.226999
O O12 0.895760 0.250000 0.802352
O O13 0.880456 0.078231 0.912924
O O14 0.988649 0.071136 0.825544
O O15 0.439714 0.250000 0.756355
O O16 0.443862 0.472024 0.694597
O O17 0.250000 0.913063 0.052873
O O18 0.334844 0.750000 0.988877
O O19 0.613398 0.250000 0.526733
O O20 0.544141 0.119595 0.429146
O O21 0.527662 0.087496 0.581044
#
# Coordination Sequence:
#
# PCOD8240974 Si02
#       8
#     8   8   8   8   8   8   8   8
#     4   9  19  34  48  65  94 130 162 194 239 292
#     4   9  18  33  52  72  93 121 160 201 237 277
#     4   9  17  30  48  69  95 125 156 192 234 283
#     4   9  18  31  47  70  98 126 157 193 235 283
#     4   9  17  31  50  71  97 126 157 196 239 283
#     4   9  18  33  50  68  95 129 160 191 233 286
#     4  10  19  31  51  75  96 123 162 203 239 283
#     4   9  18  31  49  71  99 126 154 192 244 294
#
# _framework density 17.728517
#
# number of rings (size 3 to 8) (size 9 to 14) (size 15 to 20)
#    0.000    2.875    0.000    0.750    0.000    8.250 
#    0.000    3.750    0.000    1.500    0.000    0.000 
#    0.000    0.000    0.000    0.000    0.000    0.000 
#
# Total GULP energy -793179.470757 kJ/mol
# GULP energy per Si atom -12393.429231 kJ/mol
# Density = 1.768817 g / cm^3
# Si number density = 17.728517 Si / 1000 Ang^3
#
#
#
# Elastic Constant Matrix: (Units=GPa)
#
#
# Indices 1 2 3 4 5 6 
#
# 1 64.1209 32.6481 34.4847 0.0000 0.0000 0.0000
# 2 32.6481 100.5856 40.3953 0.0000 0.0000 0.0000
# 3 34.4847 40.3953 80.1629 0.0000 0.0000 0.0000
# 4 0.0000 0.0000 0.0000 16.8211 0.0000 0.0000
# 5 0.0000 0.0000 0.0000 0.0000 22.6122 0.0000
# 6 0.0000 0.0000 0.0000 0.0000 0.0000 19.6638
#
#
#
# Elastic Compliance Matrix: (Units=1/GPa)
#
#
# Indices 1 2 3 4 5 6 
#
# 1 0.021561 -0.004104 -0.007207 0.000000 0.000000 0.000000
# 2 -0.004104 0.013245 -0.004909 0.000000 0.000000 0.000000
# 3 -0.007207 -0.004909 0.018049 0.000000 0.000000 0.000000
# 4 0.000000 0.000000 0.000000 0.059449 0.000000 0.000000
# 5 0.000000 0.000000 0.000000 0.000000 0.044224 0.000000
# 6 0.000000 0.000000 0.000000 0.000000 0.000000 0.050855
#
#
# Mechanical properties :
#
#
# Convention : Reuss Voigt Hill
#
# Bulk Modulus (GPa) = 48.98394 51.10284 50.04339
# Shear Modulus (GPa) = 20.27338 20.97549 20.62443
#
# Velocity S-wave (km/s) = 3.38530 3.44343 3.41449
# Velocity P-wave (km/s) = 6.55518 6.68561 6.62072
#
# Compressibility (1/GPa) = 0.02041486
#
# Stress axis : x y z
#
# Youngs Moduli (GPa) = 46.37960 75.49835 55.40538
#
# Poissons Ratio (x) = 0.30984 0.39932
# Poissons Ratio (y) = 0.19034 0.27199
# Poissons Ratio (z) = 0.33427 0.37063
#
# Static dielectric constant tensor:
#      x y z
#    x 3.296340 0.000000 0.000000 
#    y 0.000000 3.362390 0.000000 
#    z 0.000000 0.000000 3.100130 
# 
# 
# High freq. dielectric constant tensor:
#      x y z
#    x 1.674350 0.000000 0.000000 
#    y 0.000000 1.692220 0.000000 
#    z 0.000000 0.000000 1.663270 
# 
# From -- ./inp_files/27964.got.cif
#   From: 2010.03.12/outbox.cif.g09.slc.cpg/sg59_14_cif.got.tgz:27964.got - 2010.04.16 16:29:54.
