data_PCOD8240484
_publ_section_title
;
Structure prediction by ZEFSAII (Michael W. Deem and Ramdas Pophale) SiO2 
 PCOD8240484
Probable space group: P M M N
;
_chemical_formula_sum "Si O2"
_cell_formula_units_Z 64
_cell_length_a 29.903615
_cell_length_b 8.954887
_cell_length_c 14.943430
_cell_angle_alpha 90.000000
_cell_angle_beta 90.000000
_cell_angle_gamma 90.000000
_cell_volume 4001.603886
_symmetry_space_group_name_H-M "P M M N"
_symmetry_group_IT_number 59
_space_group.IT_coordinate_system_code '2'
_symmetry_cell_setting 'orthorhombic'
loop_
_space_group_symop_operation_xyz
x,y,z
1/2-x,1/2-y,z
1/2+x,-y,-z
-x,1/2+y,-z
-x,-y,-z
1/2+x,1/2+y,-z
1/2-x,y,z
x,1/2-y,z
loop_
_atom_site_type_symbol
_atom_site_label
_atom_site_fract_x
_atom_site_fract_y
_atom_site_fract_z
Si Si1 0.436359 0.422148 0.940742
Si Si2 0.613310 0.076524 0.201529
Si Si3 0.964923 0.575582 0.675076
Si Si4 0.557432 0.572630 0.356736
Si Si5 0.476436 0.421569 0.123267
Si Si6 0.299486 0.919831 0.699612
Si Si7 0.106710 0.072970 0.464843
Si Si8 0.298843 0.426584 0.514926
O O1 0.428034 0.250000 0.919626
O O2 0.395571 0.516151 0.898672
O O3 0.482076 0.470182 0.892375
O O4 0.438962 0.452771 0.047360
O O5 0.601721 0.250000 0.206725
O O6 0.664958 0.042335 0.223306
O O7 0.580572 0.993023 0.269247
O O8 0.973971 0.750000 0.656928
O O9 0.955518 0.544604 0.779775
O O10 0.921071 0.518704 0.621521
O O11 0.006799 0.484383 0.637864
O O12 0.557525 0.750000 0.350731
O O13 0.583455 0.513303 0.444485
O O14 0.493118 0.250000 0.116272
O O15 0.250000 0.943681 0.740495
O O16 0.305701 0.750000 0.665425
O O17 0.307639 0.028938 0.617082
O O18 0.107558 0.250000 0.469028
O O19 0.158405 0.013644 0.457963
O O20 0.250000 0.490390 0.482221
O O21 0.297187 0.250000 0.510498
#
# Coordination Sequence:
#
# PCOD8240484 Si02
#       8
#     8   8   8   8   8   8   8   8
#     4  10  19  30  46  66  89 115 147 189 228 266
#     4  11  20  30  46  67  91 121 152 182 224 276
#     4  10  19  32  47  62  88 123 156 187 222 263
#     4  11  20  30  43  64  93 122 155 186 215 257
#     4   9  18  31  46  65  87 116 152 187 225 264
#     4   9  18  31  46  65  89 116 148 186 225 267
#     4   9  18  30  44  65  91 120 152 185 220 263
#     4   9  16  28  46  66  89 116 147 183 223 265
#
# _framework density 15.993586000000001
#
# number of rings (size 3 to 8) (size 9 to 14) (size 15 to 20)
#    0.000    2.250    2.500    1.500    0.000    1.000 
#    0.000    1.250    0.000    0.000    0.000    0.875 
#    0.000    3.000    0.000    0.000    0.000    0.000 
#
# Total GULP energy -793298.844648 kJ/mol
# GULP energy per Si atom -12395.294448 kJ/mol
# Density = 1.595718 g / cm^3
# Si number density = 15.993586 Si / 1000 Ang^3
#
#
#
# Elastic Constant Matrix: (Units=GPa)
#
#
# Indices 1 2 3 4 5 6 
#
# 1 135.8434 30.5281 59.4493 0.0000 0.0000 0.0000
# 2 30.5281 41.5783 22.0872 0.0000 0.0000 0.0000
# 3 59.4493 22.0872 86.0689 0.0000 0.0000 0.0000
# 4 0.0000 0.0000 0.0000 15.9328 0.0000 0.0000
# 5 0.0000 0.0000 0.0000 0.0000 21.9492 0.0000
# 6 0.0000 0.0000 0.0000 0.0000 0.0000 15.7129
#
#
#
# Elastic Compliance Matrix: (Units=1/GPa)
#
#
# Indices 1 2 3 4 5 6 
#
# 1 0.011327 -0.004817 -0.006587 0.000000 0.000000 0.000000
# 2 -0.004817 0.029896 -0.004345 0.000000 0.000000 0.000000
# 3 -0.006587 -0.004345 0.017284 0.000000 0.000000 0.000000
# 4 0.000000 0.000000 0.000000 0.062764 0.000000 0.000000
# 5 0.000000 0.000000 0.000000 0.000000 0.045560 0.000000
# 6 0.000000 0.000000 0.000000 0.000000 0.000000 0.063642
#
#
# Mechanical properties :
#
#
# Convention : Reuss Voigt Hill
#
# Bulk Modulus (GPa) = 37.02634 54.17997 45.60315
# Shear Modulus (GPa) = 18.45203 20.81405 19.63304
#
# Velocity S-wave (km/s) = 3.40032 3.61141 3.50745
# Velocity P-wave (km/s) = 6.21428 7.16514 6.70658
#
# Compressibility (1/GPa) = 0.02700780
#
# Stress axis : x y z
#
# Youngs Moduli (GPa) = 88.28577 33.44940 57.85823
#
# Poissons Ratio (x) = 0.16113 0.38114
# Poissons Ratio (y) = 0.42528 0.25138
# Poissons Ratio (z) = 0.58158 0.14533
#
# Static dielectric constant tensor:
#      x y z
#    x 3.365800 0.000000 0.000000 
#    y 0.000000 3.000400 0.000000 
#    z 0.000000 0.000000 3.072540 
# 
# 
# High freq. dielectric constant tensor:
#      x y z
#    x 1.606220 0.000000 0.000000 
#    y 0.000000 1.610640 0.000000 
#    z 0.000000 0.000000 1.593650 
# 
# From -- ./inp_files/21930.got.cif
#   From: 2010.03.12/outbox.cif.g09.slc.cpg/sg59_11_cif.got.tgz:21930.got - 2010.04.16 16:29:54.
