data_PCOD8240043
_publ_section_title
;
Structure prediction by ZEFSAII (Michael W. Deem and Ramdas Pophale) SiO2 
 PCOD8240043
Probable space group: P M M N
;
_chemical_formula_sum "Si O2"
_cell_formula_units_Z 64
_cell_length_a 19.535553
_cell_length_b 9.082953
_cell_length_c 20.032069
_cell_angle_alpha 90.000000
_cell_angle_beta 90.000000
_cell_angle_gamma 90.000000
_cell_volume 3554.500534
_symmetry_space_group_name_H-M "P M M N"
_symmetry_group_IT_number 59
_space_group.IT_coordinate_system_code '2'
_symmetry_cell_setting 'orthorhombic'
loop_
_space_group_symop_operation_xyz
x,y,z
1/2-x,1/2-y,z
1/2+x,-y,-z
-x,1/2+y,-z
-x,-y,-z
1/2+x,1/2+y,-z
1/2-x,y,z
x,1/2-y,z
loop_
_atom_site_type_symbol
_atom_site_label
_atom_site_fract_x
_atom_site_fract_y
_atom_site_fract_z
Si Si1 0.575422 0.421486 0.786658
Si Si2 0.673454 0.921944 0.268301
Si Si3 0.571045 0.074559 0.018448
Si Si4 0.946570 0.923700 0.650198
Si Si5 0.567998 0.420312 0.522913
Si Si6 0.601866 0.417511 0.379666
Si Si7 0.927675 0.577709 0.154164
Si Si8 0.673275 0.075683 0.903769
O O1 0.579755 0.250000 0.767339
O O2 0.581547 0.517114 0.720066
O O3 0.505556 0.454447 0.825937
O O4 0.637212 0.472041 0.834665
O O5 0.750000 0.965212 0.246470
O O6 0.664250 0.750000 0.276512
O O7 0.621125 0.981102 0.212903
O O8 0.657615 0.989397 0.340303
O O9 0.562133 0.250000 0.016877
O O10 0.593781 0.018886 0.090830
O O11 0.628977 0.020043 0.966627
O O12 0.500000 0.000000 0.000000
O O13 0.935831 0.750000 0.646218
O O14 0.025543 0.971032 0.640407
O O15 0.903488 0.999633 0.589576
O O16 0.500000 0.500000 0.500000
O O17 0.552903 0.250000 0.538944
O O18 0.618194 0.434903 0.458857
O O19 0.609617 0.250000 0.357062
O O20 0.916201 0.750000 0.138566
O O21 0.750000 0.008000 0.906723
O O22 0.677006 0.250000 0.906574
#
# Coordination Sequence:
#
# PCOD8240043 Si02
#       8
#     8   8   8   8   8   8   8   8
#     4  10  18  32  55  78 102 139 175 214 265 311
#     4  10  21  35  51  72 103 143 180 216 265 322
#     4  11  21  35  57  83 108 139 176 217 264 314
#     4  10  19  30  48  78 108 135 172 218 265 311
#     4   9  17  29  46  73 105 135 170 214 265 313
#     4   9  18  31  48  72 102 135 174 220 262 306
#     4  10  20  35  53  78 106 136 177 220 262 313
#     4   9  19  36  56  79 106 136 176 219 261 316
#
# _framework density 18.005341999999999
#
# number of rings (size 3 to 8) (size 9 to 14) (size 15 to 20)
#    0.000    2.250    2.500    1.875    0.000    4.250 
#    0.000    0.000    0.000    3.750    0.000    1.750 
#    0.000    0.000    0.000    0.000    0.000    0.000 
#
# Total GULP energy -793473.656028 kJ/mol
# GULP energy per Si atom -12398.025875 kJ/mol
# Density = 1.796436 g / cm^3
# Si number density = 18.005342 Si / 1000 Ang^3
#
#
#
# Elastic Constant Matrix: (Units=GPa)
#
#
# Indices 1 2 3 4 5 6 
#
# 1 98.7461 33.8338 53.8213 0.0000 0.0000 0.0000
# 2 33.8338 65.6447 57.1079 0.0000 0.0000 0.0000
# 3 53.8213 57.1079 149.2059 0.0000 0.0000 0.0000
# 4 0.0000 0.0000 0.0000 38.0326 0.0000 0.0000
# 5 0.0000 0.0000 0.0000 0.0000 19.8726 0.0000
# 6 0.0000 0.0000 0.0000 0.0000 0.0000 16.4871
#
#
#
# Elastic Compliance Matrix: (Units=1/GPa)
#
#
# Indices 1 2 3 4 5 6 
#
# 1 0.013275 -0.004012 -0.003253 0.000000 0.000000 0.000000
# 2 -0.004012 0.024050 -0.007758 0.000000 0.000000 0.000000
# 3 -0.003253 -0.007758 0.010845 0.000000 0.000000 0.000000
# 4 0.000000 0.000000 0.000000 0.026293 0.000000 0.000000
# 5 0.000000 0.000000 0.000000 0.000000 0.050320 0.000000
# 6 0.000000 0.000000 0.000000 0.000000 0.000000 0.060653
#
#
# Mechanical properties :
#
#
# Convention : Reuss Voigt Hill
#
# Bulk Modulus (GPa) = 55.17481 67.01363 61.09422
# Shear Modulus (GPa) = 22.57091 26.13405 24.35248
#
# Velocity S-wave (km/s) = 3.54442 3.81394 3.68164
# Velocity P-wave (km/s) = 6.88917 7.52957 7.21647
#
# Compressibility (1/GPa) = 0.01812421
#
# Stress axis : x y z
#
# Youngs Moduli (GPa) = 75.33198 41.57920 92.20984
#
# Poissons Ratio (x) = 0.16682 0.29994
# Poissons Ratio (y) = 0.30224 0.71536
# Poissons Ratio (z) = 0.24504 0.32257
#
# Static dielectric constant tensor:
#      x y z
#    x 3.232360 0.000000 0.000000 
#    y 0.000000 3.240860 0.000000 
#    z 0.000000 0.000000 4.007320 
# 
# 
# High freq. dielectric constant tensor:
#      x y z
#    x 1.662640 0.000000 0.000000 
#    y 0.000000 1.687870 0.000000 
#    z 0.000000 0.000000 1.713910 
# 
# From -- ./inp_files/30673.got.cif
#   From: 2010.03.12/outbox.cif.g09.slc.cpg/sg59_16_cif.got.tgz:30673.got - 2010.04.16 16:29:54.
