data_PCOD8240572
_publ_section_title
;
Structure prediction by ZEFSAII (Michael W. Deem and Ramdas Pophale) SiO2 
 PCOD8240572
Probable space group: P M M N
;
_chemical_formula_sum "Si O2"
_cell_formula_units_Z 64
_cell_length_a 8.945133
_cell_length_b 13.868352
_cell_length_c 30.596402
_cell_angle_alpha 90.000000
_cell_angle_beta 90.000000
_cell_angle_gamma 90.000000
_cell_volume 3795.613799
_symmetry_space_group_name_H-M "P M M N"
_symmetry_group_IT_number 59
_space_group.IT_coordinate_system_code '2'
_symmetry_cell_setting 'orthorhombic'
loop_
_space_group_symop_operation_xyz
x,y,z
1/2-x,1/2-y,z
1/2+x,-y,-z
-x,1/2+y,-z
-x,-y,-z
1/2+x,1/2+y,-z
1/2-x,y,z
x,1/2-y,z
loop_
_atom_site_type_symbol
_atom_site_label
_atom_site_fract_x
_atom_site_fract_y
_atom_site_fract_z
Si Si1 0.426542 0.359321 0.762909
Si Si2 0.423143 0.044805 0.934080
Si Si3 0.572793 0.513037 0.546617
Si Si4 0.923179 0.147310 0.608917
Si Si5 0.421565 0.859317 0.986562
Si Si6 0.077785 0.978195 0.309920
Si Si7 0.923432 0.360125 0.854567
Si Si8 0.571975 0.641726 0.624936
O O1 0.250000 0.365880 0.763697
O O2 0.477111 0.250000 0.748843
O O3 0.485655 0.446042 0.732354
O O4 0.487675 0.382587 0.810645
O O5 0.250000 0.064327 0.924229
O O6 0.518435 0.067137 0.891268
O O7 0.453033 0.932963 0.946744
O O8 0.472461 0.115256 0.973063
O O9 0.500000 0.500000 0.500000
O O10 0.750000 0.512664 0.540933
O O11 0.506510 0.423282 0.573484
O O12 0.523029 0.605269 0.576276
O O13 0.750000 0.156654 0.597669
O O14 0.005279 0.250000 0.604942
O O15 0.942469 0.111017 0.657797
O O16 0.250000 0.870083 0.002312
O O17 0.454915 0.750000 0.970798
O O18 0.250000 0.994216 0.296536
O O19 0.014016 0.073867 0.335057
O O20 0.750000 0.380097 0.845813
O O21 0.950564 0.250000 0.869928
O O22 0.750000 0.637099 0.626587
O O23 0.510361 0.750000 0.631707
#
# Coordination Sequence:
#
# PCOD8240572 Si02
#       8
#     8   8   8   8   8   8   8   8
#     4  10  20  32  47  70  99 125 146 177 227 280
#     4  10  19  30  47  71  97 125 159 201 243 278
#     4   9  17  28  42  61  85 114 147 182 220 262
#     4   8  14  25  41  60  82 109 140 172 208 254
#     4   9  18  32  48  67  94 129 165 197 234 283
#     4   9  16  28  49  71  88 112 148 187 222 263
#     4  10  20  33  49  69  95 127 159 189 225 276
#     4   8  15  29  48  68  90 119 155 192 230 271
#
# _framework density 16.861567000000001
#
# number of rings (size 3 to 8) (size 9 to 14) (size 15 to 20)
#    0.000    2.875    0.000    3.375    0.000    4.750 
#    0.000    2.500    0.000    2.625    0.000    0.000 
#    0.000    0.000    0.000    0.000    0.000    0.000 
#
# Total GULP energy -793054.439592 kJ/mol
# GULP energy per Si atom -12391.475619 kJ/mol
# Density = 1.682319 g / cm^3
# Si number density = 16.861567 Si / 1000 Ang^3
#
#
#
# Elastic Constant Matrix: (Units=GPa)
#
#
# Indices 1 2 3 4 5 6 
#
# 1 41.2591 26.5263 30.3266 0.0000 0.0000 0.0000
# 2 26.5263 127.3440 53.0755 0.0000 0.0000 0.0000
# 3 30.3266 53.0755 97.9488 0.0000 0.0000 0.0000
# 4 0.0000 0.0000 0.0000 23.2318 0.0000 0.0000
# 5 0.0000 0.0000 0.0000 0.0000 30.5653 0.0000
# 6 0.0000 0.0000 0.0000 0.0000 0.0000 17.2661
#
#
#
# Elastic Compliance Matrix: (Units=1/GPa)
#
#
# Indices 1 2 3 4 5 6 
#
# 1 0.032429 -0.003320 -0.008242 0.000000 0.000000 0.000000
# 2 -0.003320 0.010484 -0.004653 0.000000 0.000000 0.000000
# 3 -0.008242 -0.004653 0.015282 0.000000 0.000000 0.000000
# 4 0.000000 0.000000 0.000000 0.043044 0.000000 0.000000
# 5 0.000000 0.000000 0.000000 0.000000 0.032717 0.000000
# 6 0.000000 0.000000 0.000000 0.000000 0.000000 0.057917
#
#
# Mechanical properties :
#
#
# Convention : Reuss Voigt Hill
#
# Bulk Modulus (GPa) = 38.81036 54.04541 46.42789
# Shear Modulus (GPa) = 21.46923 24.65420 23.06171
#
# Velocity S-wave (km/s) = 3.57215 3.82796 3.70227
# Velocity P-wave (km/s) = 6.33093 7.18747 6.77276
#
# Compressibility (1/GPa) = 0.02576631
#
# Stress axis : x y z
#
# Youngs Moduli (GPa) = 30.83615 95.38739 65.43507
#
# Poissons Ratio (x) = 0.31671 0.53929
# Poissons Ratio (y) = 0.10238 0.30445
# Poissons Ratio (z) = 0.25414 0.44381
#
# Static dielectric constant tensor:
#      x y z
#    x 2.923910 0.000000 0.000000 
#    y 0.000000 3.449420 0.000000 
#    z 0.000000 0.000000 3.086430 
# 
# 
# High freq. dielectric constant tensor:
#      x y z
#    x 1.629450 0.000000 0.000000 
#    y 0.000000 1.646260 0.000000 
#    z 0.000000 0.000000 1.642360 
# 
# From -- ./inp_files/33242.got.cif
#   From: 2010.03.12/outbox.cif.g09.slc.cpg/sg59_17_cif.got.tgz:33242.got - 2010.04.16 16:29:54.
