data_PCOD8240232
_publ_section_title
;
Structure prediction by ZEFSAII (Michael W. Deem and Ramdas Pophale) SiO2 
 PCOD8240232
Probable space group: P M M N
;
_chemical_formula_sum "Si O2"
_cell_formula_units_Z 56
_cell_length_a 8.918192
_cell_length_b 23.371069
_cell_length_c 15.446247
_cell_angle_alpha 90.000000
_cell_angle_beta 90.000000
_cell_angle_gamma 90.000000
_cell_volume 3219.425436
_symmetry_space_group_name_H-M "P M M N"
_symmetry_group_IT_number 59
_space_group.IT_coordinate_system_code '2'
_symmetry_cell_setting 'orthorhombic'
loop_
_space_group_symop_operation_xyz
x,y,z
1/2-x,1/2-y,z
1/2+x,-y,-z
-x,1/2+y,-z
-x,-y,-z
1/2+x,1/2+y,-z
1/2-x,y,z
x,1/2-y,z
loop_
_atom_site_type_symbol
_atom_site_label
_atom_site_fract_x
_atom_site_fract_y
_atom_site_fract_z
Si Si1 0.427223 0.370064 0.156414
Si Si2 0.577562 0.430831 0.682806
Si Si3 0.073362 0.136552 0.831728
Si Si4 0.426904 0.063933 0.322628
Si Si5 0.073452 0.060818 0.993564
Si Si6 0.927087 0.750000 0.911108
Si Si7 0.077285 0.939753 0.508691
Si Si8 0.928496 0.250000 0.899957
O O1 0.250000 0.376302 0.158501
O O2 0.492791 0.398819 0.243180
O O3 0.474922 0.303995 0.147343
O O4 0.491562 0.402265 0.072722
O O5 0.750000 0.424673 0.712755
O O6 0.472530 0.390807 0.740397
O O7 0.528056 0.497414 0.690909
O O8 0.557994 0.408033 0.583780
O O9 0.250000 0.149265 0.833240
O O10 0.026058 0.091439 0.905168
O O11 0.985663 0.195138 0.847362
O O12 0.250000 0.069892 0.332049
O O13 0.499661 0.091441 0.409572
O O14 0.250000 0.053639 0.000201
O O15 0.000000 0.000000 0.000000
O O16 0.750000 0.750000 0.932259
O O17 0.009665 0.750000 0.002690
O O18 0.250000 0.949051 0.530699
O O19 0.000000 0.000000 0.500000
O O20 0.750000 0.250000 0.902533
#
# Coordination Sequence:
#
# PCOD8240232 Si02
#       8
#     8   8   8   8   8   4   8   4
#     4   9  17  31  52  73  99 135 171 212 257 300
#     4   9  18  32  50  74 106 137 169 212 263 315
#     4  11  22  36  55  76 101 135 176 218 257 305
#     4   9  17  30  50  77 107 139 173 209 257 314
#     4  10  20  33  49  72 103 136 166 204 255 308
#     4  10  18  36  58  73  98 135 180 219 252 302
#     4   9  17  30  49  73 104 139 171 209 257 310
#     4  12  24  38  56  75 100 135 176 221 264 306
#
# _framework density 17.394409
#
# number of rings (size 3 to 8) (size 9 to 14) (size 15 to 20)
#    0.000    2.286    1.429    3.214    0.000    5.143 
#    0.000    1.429    0.000    0.857    0.000    3.000 
#    0.000    0.000    0.000    0.000    0.000    0.000 
#
# Total GULP energy -694218.057301 kJ/mol
# GULP energy per Si atom -12396.751023 kJ/mol
# Density = 1.735482 g / cm^3
# Si number density = 17.394409 Si / 1000 Ang^3
#
#
#
# Elastic Constant Matrix: (Units=GPa)
#
#
# Indices 1 2 3 4 5 6 
#
# 1 62.4167 37.2335 44.0788 0.0000 0.0000 0.0000
# 2 37.2335 110.8235 55.5959 0.0000 0.0000 0.0000
# 3 44.0788 55.5959 138.1150 0.0000 0.0000 0.0000
# 4 0.0000 0.0000 0.0000 13.3468 0.0000 0.0000
# 5 0.0000 0.0000 0.0000 0.0000 30.0314 0.0000
# 6 0.0000 0.0000 0.0000 0.0000 0.0000 23.2334
#
#
#
# Elastic Compliance Matrix: (Units=1/GPa)
#
#
# Indices 1 2 3 4 5 6 
#
# 1 0.022699 -0.005002 -0.005231 0.000000 0.000000 0.000000
# 2 -0.005002 0.012409 -0.003399 0.000000 0.000000 0.000000
# 3 -0.005231 -0.003399 0.010278 0.000000 0.000000 0.000000
# 4 0.000000 0.000000 0.000000 0.074924 0.000000 0.000000
# 5 0.000000 0.000000 0.000000 0.000000 0.033298 0.000000
# 6 0.000000 0.000000 0.000000 0.000000 0.000000 0.043041
#
#
# Mechanical properties :
#
#
# Convention : Reuss Voigt Hill
#
# Bulk Modulus (GPa) = 55.17916 65.01907 60.09911
# Shear Modulus (GPa) = 21.74343 24.95213 23.34778
#
# Velocity S-wave (km/s) = 3.53940 3.79158 3.66766
# Velocity P-wave (km/s) = 6.96379 7.52519 7.24993
#
# Compressibility (1/GPa) = 0.01812278
#
# Stress axis : x y z
#
# Youngs Moduli (GPa) = 44.05412 80.58745 97.29736
#
# Poissons Ratio (x) = 0.40312 0.50895
# Poissons Ratio (y) = 0.22037 0.33067
# Poissons Ratio (z) = 0.23044 0.27388
#
# Static dielectric constant tensor:
#      x y z
#    x 3.168160 0.000000 0.000000 
#    y 0.000000 3.130180 0.000000 
#    z 0.000000 0.000000 3.625490 
# 
# 
# High freq. dielectric constant tensor:
#      x y z
#    x 1.660740 0.000000 0.000000 
#    y 0.000000 1.649080 0.000000 
#    z 0.000000 0.000000 1.683120 
# 
# From -- ./inp_files/21196.got.cif
#   From: 2010.03.12/outbox.cif.g09.slc.cpg/sg59_11_cif.got.tgz:21196.got - 2010.04.16 16:29:54.
