data_PCOD8240767
_publ_section_title
;
Structure prediction by ZEFSAII (Michael W. Deem and Ramdas Pophale) SiO2 
 PCOD8240767
Probable space group: P M M N
;
_chemical_formula_sum "Si O2"
_cell_formula_units_Z 64
_cell_length_a 20.288354
_cell_length_b 20.303394
_cell_length_c 8.666922
_cell_angle_alpha 90.000000
_cell_angle_beta 90.000000
_cell_angle_gamma 90.000000
_cell_volume 3570.099700
_symmetry_space_group_name_H-M "P M M N"
_symmetry_group_IT_number 59
_space_group.IT_coordinate_system_code '2'
_symmetry_cell_setting 'orthorhombic'
loop_
_space_group_symop_operation_xyz
x,y,z
1/2-x,1/2-y,z
1/2+x,-y,-z
-x,1/2+y,-z
-x,-y,-z
1/2+x,1/2+y,-z
1/2-x,y,z
x,1/2-y,z
loop_
_atom_site_type_symbol
_atom_site_label
_atom_site_fract_x
_atom_site_fract_y
_atom_site_fract_z
Si Si1 0.885222 0.055581 0.838076
Si Si2 0.489057 0.399787 0.664896
Si Si3 0.066899 0.822311 0.570688
Si Si4 0.055666 0.615575 0.879711
Si Si5 0.933523 0.828738 0.051925
Si Si6 0.327221 0.436855 0.978979
Si Si7 0.176327 0.900525 0.455478
Si Si8 0.112921 0.997223 0.698992
O O1 0.827532 0.079050 0.723657
O O2 0.954281 0.055722 0.745134
O O3 0.865027 0.983017 0.896929
O O4 0.893431 0.109335 0.976538
O O5 0.512918 0.371181 0.501773
O O6 0.463681 0.341808 0.778525
O O7 0.427779 0.444908 0.618367
O O8 0.041335 0.750000 0.536753
O O9 0.079252 0.831443 0.753347
O O10 0.135742 0.833654 0.482367
O O11 0.058645 0.544601 0.795670
O O12 0.982808 0.637220 0.929806
O O13 0.925890 0.750000 0.025316
O O14 0.863225 0.865397 0.027658
O O15 0.250000 0.427166 0.020982
O O16 0.332211 0.472370 0.812990
O O17 0.250000 0.885517 0.503265
O O18 0.148192 0.957302 0.565429
#
# Coordination Sequence:
#
# PCOD8240767 Si02
#       8
#     8   8   8   8   8   8   8   8
#     4   9  18  32  50  73  98 123 158 202 247 286
#     4   9  18  32  51  74  97 122 157 203 250 287
#     4  10  20  33  51  73  98 128 160 197 239 287
#     4   9  18  32  50  73  98 123 158 202 247 286
#     4  10  19  31  48  70  99 132 163 197 236 284
#     4  10  19  31  48  70  99 132 163 197 236 284
#     4  10  20  33  51  73  98 128 160 197 239 287
#     4   9  18  32  51  74  97 122 157 203 250 287
#
# _framework density 17.926670000000001
#
# number of rings (size 3 to 8) (size 9 to 14) (size 15 to 20)
#    0.000    2.500    0.000    2.250    0.000    9.000 
#    0.000    1.250    0.000    0.000    0.000    0.000 
#    0.000    6.000    0.000    0.000    0.000    0.000 
#
# Total GULP energy -792998.954187 kJ/mol
# GULP energy per Si atom -12390.608659 kJ/mol
# Density = 1.788587 g / cm^3
# Si number density = 17.926670 Si / 1000 Ang^3
#
#
#
# Elastic Constant Matrix: (Units=GPa)
#
#
# Indices 1 2 3 4 5 6 
#
# 1 68.3768 21.4217 6.9105 0.0000 0.0000 0.0000
# 2 21.4217 71.3007 12.3098 0.0000 0.0000 0.0000
# 3 6.9105 12.3098 74.5263 0.0000 0.0000 0.0000
# 4 0.0000 0.0000 0.0000 12.3242 0.0000 0.0000
# 5 0.0000 0.0000 0.0000 0.0000 18.3980 0.0000
# 6 0.0000 0.0000 0.0000 0.0000 0.0000 14.1132
#
#
#
# Elastic Compliance Matrix: (Units=1/GPa)
#
#
# Indices 1 2 3 4 5 6 
#
# 1 0.016182 -0.004738 -0.000718 0.000000 0.000000 0.000000
# 2 -0.004738 0.015824 -0.002174 0.000000 0.000000 0.000000
# 3 -0.000718 -0.002174 0.013844 0.000000 0.000000 0.000000
# 4 0.000000 0.000000 0.000000 0.081141 0.000000 0.000000
# 5 0.000000 0.000000 0.000000 0.000000 0.054354 0.000000
# 6 0.000000 0.000000 0.000000 0.000000 0.000000 0.070855
#
#
# Mechanical properties :
#
#
# Convention : Reuss Voigt Hill
#
# Bulk Modulus (GPa) = 32.69106 32.83195 32.76151
# Shear Modulus (GPa) = 18.00788 20.53788 19.27288
#
# Velocity S-wave (km/s) = 3.17287 3.38843 3.28242
# Velocity P-wave (km/s) = 5.63013 5.80198 5.71670
#
# Compressibility (1/GPa) = 0.03058940
#
# Stress axis : x y z
#
# Youngs Moduli (GPa) = 61.79837 63.19552 72.23450
#
# Poissons Ratio (x) = 0.29940 0.05186
# Poissons Ratio (y) = 0.29278 0.15707
# Poissons Ratio (z) = 0.04437 0.13741
#
# Static dielectric constant tensor:
#      x y z
#    x 3.165470 0.000000 0.000000 
#    y 0.000000 3.171600 0.000000 
#    z 0.000000 0.000000 3.453270 
# 
# 
# High freq. dielectric constant tensor:
#      x y z
#    x 1.675450 0.000000 0.000000 
#    y 0.000000 1.677610 0.000000 
#    z 0.000000 0.000000 1.701330 
# 
# From -- ./inp_files/10679.got.cif
#   From: 2010.03.12/outbox.cif.g09.slc.cpg/sg59_6_cif.got.tgz:10679.got - 2010.04.16 16:29:54.
