data_PCOD8240561
_publ_section_title
;
Structure prediction by ZEFSAII (Michael W. Deem and Ramdas Pophale) SiO2 
 PCOD8240561
Probable space group: P M M N
;
_chemical_formula_sum "Si O2"
_cell_formula_units_Z 48
_cell_length_a 18.079278
_cell_length_b 13.750168
_cell_length_c 9.407831
_cell_angle_alpha 90.000000
_cell_angle_beta 90.000000
_cell_angle_gamma 90.000000
_cell_volume 2338.721965
_symmetry_space_group_name_H-M "P M M N"
_symmetry_group_IT_number 59
_space_group.IT_coordinate_system_code '2'
_symmetry_cell_setting 'orthorhombic'
loop_
_space_group_symop_operation_xyz
x,y,z
1/2-x,1/2-y,z
1/2+x,-y,-z
-x,1/2+y,-z
-x,-y,-z
1/2+x,1/2+y,-z
1/2-x,y,z
x,1/2-y,z
loop_
_atom_site_type_symbol
_atom_site_label
_atom_site_fract_x
_atom_site_fract_y
_atom_site_fract_z
Si Si1 0.537266 0.136615 0.544047
Si Si2 0.093148 0.361661 0.736301
Si Si3 0.037833 0.142705 0.263249
Si Si4 0.583653 0.970509 0.981600
Si Si5 0.167249 0.965038 0.586095
Si Si6 0.123569 0.856646 0.860280
O O1 0.556007 0.250000 0.516283
O O2 0.493485 0.121327 0.691898
O O3 0.482017 0.098841 0.417867
O O4 0.613027 0.075127 0.538098
O O5 0.116028 0.250000 0.711817
O O6 0.102958 0.388824 0.900536
O O7 0.144805 0.427077 0.636152
O O8 0.073242 0.250000 0.279533
O O9 0.963185 0.148892 0.172085
O O10 0.095735 0.074236 0.176420
O O11 0.635066 0.065835 0.010609
O O12 0.500000 0.000000 0.000000
O O13 0.250000 0.968549 0.523564
O O14 0.165804 0.892084 0.720002
O O15 0.153418 0.750000 0.905641
#
# Coordination Sequence:
#
# PCOD8240561 Si02
#       6
#     8   8   8   8   8   8
#     4   9  18  32  50  74 101 127 160 205 251 293
#     4  10  20  33  49  72 102 130 160 205 254 292
#     4   8  13  24  43  67  94 121 151 187 230 284
#     4   9  16  26  43  69  96 123 154 190 235 287
#     4  10  19  30  47  70  97 131 166 201 245 297
#     4   8  15  26  39  60  90 118 148 190 233 274
#
# _framework density 20.52403
#
# number of rings (size 3 to 8) (size 9 to 14) (size 15 to 20)
#    0.000    3.000    0.000    3.500    0.000    2.333 
#    0.000    0.000    0.000    0.000    0.000   42.000 
#    0.000   80.000    0.000    0.000    0.000    0.000 
#
# Total GULP energy -594769.809025 kJ/mol
# GULP energy per Si atom -12391.037688 kJ/mol
# Density = 2.047732 g / cm^3
# Si number density = 20.524030 Si / 1000 Ang^3
#
#
#
# Elastic Constant Matrix: (Units=GPa)
#
#
# Indices 1 2 3 4 5 6 
#
# 1 60.3018 37.7538 14.2276 0.0000 0.0000 0.0000
# 2 37.7538 124.6231 26.3667 0.0000 0.0000 0.0000
# 3 14.2276 26.3667 45.3502 0.0000 0.0000 0.0000
# 4 0.0000 0.0000 0.0000 18.4677 0.0000 0.0000
# 5 0.0000 0.0000 0.0000 0.0000 10.2589 0.0000
# 6 0.0000 0.0000 0.0000 0.0000 0.0000 10.0213
#
#
#
# Elastic Compliance Matrix: (Units=1/GPa)
#
#
# Indices 1 2 3 4 5 6 
#
# 1 0.020883 -0.005633 -0.003276 0.000000 0.000000 0.000000
# 2 -0.005633 0.010669 -0.004436 0.000000 0.000000 0.000000
# 3 -0.003276 -0.004436 0.025658 0.000000 0.000000 0.000000
# 4 0.000000 0.000000 0.000000 0.054149 0.000000 0.000000
# 5 0.000000 0.000000 0.000000 0.000000 0.097476 0.000000
# 6 0.000000 0.000000 0.000000 0.000000 0.000000 0.099787
#
#
# Mechanical properties :
#
#
# Convention : Reuss Voigt Hill
#
# Bulk Modulus (GPa) = 32.76655 42.99681 37.88168
# Shear Modulus (GPa) = 14.47235 17.87804 16.17520
#
# Velocity S-wave (km/s) = 2.65833 2.95461 2.81038
# Velocity P-wave (km/s) = 5.04202 5.71267 5.38779
#
# Compressibility (1/GPa) = 0.03051893
#
# Stress axis : x y z
#
# Youngs Moduli (GPa) = 47.88554 93.72742 38.97492
#
# Poissons Ratio (x) = 0.52799 0.12770
# Poissons Ratio (y) = 0.26975 0.17289
# Poissons Ratio (z) = 0.15689 0.41576
#
# Static dielectric constant tensor:
#      x y z
#    x 3.132870 0.000000 0.000000 
#    y 0.000000 4.482550 0.000000 
#    z 0.000000 0.000000 3.890210 
# 
# 
# High freq. dielectric constant tensor:
#      x y z
#    x 1.728260 0.000000 0.000000 
#    y 0.000000 1.827850 0.000000 
#    z 0.000000 0.000000 1.775710 
# 
# From -- ./inp_files/10255.got.cif
#   From: 2010.03.12/outbox.cif.g09.slc.cpg/sg59_6_cif.got.tgz:10255.got - 2010.04.16 16:29:54.
