data_PCOD8240618
_publ_section_title
;
Structure prediction by ZEFSAII (Michael W. Deem and Ramdas Pophale) SiO2 
 PCOD8240618
Probable space group: P M M N
;
_chemical_formula_sum "Si O2"
_cell_formula_units_Z 64
_cell_length_a 9.195350
_cell_length_b 17.313793
_cell_length_c 22.955247
_cell_angle_alpha 90.000000
_cell_angle_beta 90.000000
_cell_angle_gamma 90.000000
_cell_volume 3654.621925
_symmetry_space_group_name_H-M "P M M N"
_symmetry_group_IT_number 59
_space_group.IT_coordinate_system_code '2'
_symmetry_cell_setting 'orthorhombic'
loop_
_space_group_symop_operation_xyz
x,y,z
1/2-x,1/2-y,z
1/2+x,-y,-z
-x,1/2+y,-z
-x,-y,-z
1/2+x,1/2+y,-z
1/2-x,y,z
x,1/2-y,z
loop_
_atom_site_type_symbol
_atom_site_label
_atom_site_fract_x
_atom_site_fract_y
_atom_site_fract_z
Si Si1 0.579633 0.337629 0.067975
Si Si2 0.078709 0.029229 0.139801
Si Si3 0.918978 0.661619 0.535626
Si Si4 0.083887 0.892740 0.425637
Si Si5 0.079012 0.490282 0.742004
Si Si6 0.083065 0.335392 0.681466
Si Si7 0.414508 0.051805 0.363592
Si Si8 0.915382 0.063084 0.965850
O O1 0.750000 0.347658 0.083003
O O2 0.528271 0.250000 0.079473
O O3 0.487473 0.395122 0.108453
O O4 0.552630 0.355183 0.998155
O O5 0.250000 0.043034 0.148708
O O6 0.047120 0.949612 0.102643
O O7 0.003354 0.017343 0.201029
O O8 0.750000 0.651458 0.520174
O O9 0.967842 0.750000 0.536036
O O10 0.951895 0.628422 0.599946
O O11 0.010224 0.615957 0.487971
O O12 0.250000 0.866335 0.430206
O O13 0.008642 0.838838 0.377544
O O14 0.067606 0.981427 0.408120
O O15 0.250000 0.500596 0.751319
O O16 0.035612 0.401196 0.727664
O O17 0.027097 0.545129 0.689446
O O18 0.250000 0.349306 0.663845
O O19 0.060516 0.250000 0.709415
O O20 0.250000 0.054163 0.338559
O O21 0.750000 0.040306 0.974645
O O22 0.000000 0.000000 0.000000
#
# Coordination Sequence:
#
# PCOD8240618 Si02
#       8
#     8   8   8   8   8   8   8   8
#     4   9  17  31  52  77 104 132 165 207 249 286
#     4  10  19  32  51  74 102 135 170 204 240 289
#     4  10  20  33  49  69  94 124 156 192 239 294
#     4  10  19  30  48  73  97 121 152 193 242 296
#     4  10  20  34  53  73  94 127 170 208 243 287
#     4   9  18  33  51  70  94 124 158 199 247 297
#     4   9  19  35  51  68  93 125 161 201 244 291
#     4   8  15  28  47  71  97 126 157 190 232 280
#
# _framework density 17.512072
#
# number of rings (size 3 to 8) (size 9 to 14) (size 15 to 20)
#    0.000    2.625    0.000    1.875    0.000    4.250 
#    0.000    1.250    0.000    3.000    0.000    0.000 
#    0.000    0.000    0.000    0.000    0.000    0.000 
#
# Total GULP energy -793120.593866 kJ/mol
# GULP energy per Si atom -12392.509279 kJ/mol
# Density = 1.747221 g / cm^3
# Si number density = 17.512072 Si / 1000 Ang^3
#
#
#
# Elastic Constant Matrix: (Units=GPa)
#
#
# Indices 1 2 3 4 5 6 
#
# 1 77.1073 36.6396 57.2526 0.0000 0.0000 0.0000
# 2 36.6396 64.9248 51.6050 0.0000 0.0000 0.0000
# 3 57.2526 51.6050 117.9378 0.0000 0.0000 0.0000
# 4 0.0000 0.0000 0.0000 18.5153 0.0000 0.0000
# 5 0.0000 0.0000 0.0000 0.0000 25.0255 0.0000
# 6 0.0000 0.0000 0.0000 0.0000 0.0000 21.1480
#
#
#
# Elastic Compliance Matrix: (Units=1/GPa)
#
#
# Indices 1 2 3 4 5 6 
#
# 1 0.021672 -0.005931 -0.007925 0.000000 0.000000 0.000000
# 2 -0.005931 0.025239 -0.008164 0.000000 0.000000 0.000000
# 3 -0.007925 -0.008164 0.015899 0.000000 0.000000 0.000000
# 4 0.000000 0.000000 0.000000 0.054009 0.000000 0.000000
# 5 0.000000 0.000000 0.000000 0.000000 0.039959 0.000000
# 6 0.000000 0.000000 0.000000 0.000000 0.000000 0.047286
#
#
# Mechanical properties :
#
#
# Convention : Reuss Voigt Hill
#
# Bulk Modulus (GPa) = 53.28168 61.21825 57.24997
# Shear Modulus (GPa) = 19.65707 20.56927 20.11317
#
# Velocity S-wave (km/s) = 3.35399 3.43093 3.39268
# Velocity P-wave (km/s) = 6.74468 7.12241 6.93611
#
# Compressibility (1/GPa) = 0.01876818
#
# Stress axis : x y z
#
# Youngs Moduli (GPa) = 46.14291 39.62148 62.89755
#
# Poissons Ratio (x) = 0.23499 0.49849
# Poissons Ratio (y) = 0.27366 0.51352
# Poissons Ratio (z) = 0.36570 0.32349
#
# Static dielectric constant tensor:
#      x y z
#    x 3.341820 0.000000 0.000000 
#    y 0.000000 3.492450 0.000000 
#    z 0.000000 0.000000 3.306910 
# 
# 
# High freq. dielectric constant tensor:
#      x y z
#    x 1.683390 0.000000 0.000000 
#    y 0.000000 1.666520 0.000000 
#    z 0.000000 0.000000 1.665870 
# 
# From -- ./inp_files/29393.got.cif
#   From: 2010.03.12/outbox.cif.g09.slc.cpg/sg59_15_cif.got.tgz:29393.got - 2010.04.16 16:29:54.
