data_PCOD8240367
_publ_section_title
;
Structure prediction by ZEFSAII (Michael W. Deem and Ramdas Pophale) SiO2 
 PCOD8240367
Probable space group: P M M N
;
_chemical_formula_sum "Si O2"
_cell_formula_units_Z 64
_cell_length_a 17.757885
_cell_length_b 9.059845
_cell_length_c 22.798593
_cell_angle_alpha 90.000000
_cell_angle_beta 90.000000
_cell_angle_gamma 90.000000
_cell_volume 3667.921669
_symmetry_space_group_name_H-M "P M M N"
_symmetry_group_IT_number 59
_space_group.IT_coordinate_system_code '2'
_symmetry_cell_setting 'orthorhombic'
loop_
_space_group_symop_operation_xyz
x,y,z
1/2-x,1/2-y,z
1/2+x,-y,-z
-x,1/2+y,-z
-x,-y,-z
1/2+x,1/2+y,-z
1/2-x,y,z
x,1/2-y,z
loop_
_atom_site_type_symbol
_atom_site_label
_atom_site_fract_x
_atom_site_fract_y
_atom_site_fract_z
Si Si1 0.665180 0.424359 0.548259
Si Si2 0.514730 0.078729 0.249883
Si Si3 0.332798 0.574527 0.695276
Si Si4 0.606181 0.075327 0.425752
Si Si5 0.059527 0.576743 0.958663
Si Si6 0.666563 0.077489 0.942357
Si Si7 0.449219 0.080889 0.376419
Si Si8 0.526050 0.074651 0.865311
O O1 0.750000 0.477793 0.555961
O O2 0.658137 0.250000 0.546815
O O3 0.634244 0.493138 0.487101
O O4 0.620961 0.482773 0.604624
O O5 0.514103 0.250000 0.230572
O O6 0.600820 0.021939 0.260846
O O7 0.466580 0.054717 0.308390
O O8 0.474332 0.978320 0.201502
O O9 0.250000 0.522711 0.717624
O O10 0.338298 0.750000 0.692155
O O11 0.345812 0.512366 0.629354
O O12 0.616307 0.250000 0.427002
O O13 0.519574 0.031438 0.416305
O O14 0.042937 0.750000 0.952820
O O15 0.048331 0.498911 0.895599
O O16 0.140515 0.548975 0.989871
O O17 0.000000 0.500000 0.000000
O O18 0.750000 0.005155 0.932954
O O19 0.673266 0.250000 0.931032
O O20 0.603638 0.017259 0.896378
O O21 0.429111 0.250000 0.388154
O O22 0.519118 0.250000 0.869770
#
# Coordination Sequence:
#
# PCOD8240367 Si02
#       8
#     8   8   8   8   8   8   8   8
#     4  10  19  29  44  68  94 118 148 190 238 286
#     4   9  18  32  49  68  91 121 159 198 230 269
#     4   8  13  24  45  70  91 113 147 192 238 281
#     4   8  14  26  45  68  91 114 145 189 239 289
#     4   9  16  28  49  73  97 123 149 183 226 271
#     4   8  15  29  49  73  96 118 151 193 229 259
#     4   9  18  32  48  65  88 121 156 191 236 285
#     4  10  19  31  50  72  95 127 161 192 229 273
#
# _framework density 17.448573
#
# number of rings (size 3 to 8) (size 9 to 14) (size 15 to 20)
#    0.000    3.125    0.000    3.750    0.000    2.250 
#    0.000    1.250    0.000   20.625    0.000    0.000 
#    0.000    0.000    0.000    0.000    0.000    0.000 
#
# Total GULP energy -792996.054593 kJ/mol
# GULP energy per Si atom -12390.563353 kJ/mol
# Density = 1.740886 g / cm^3
# Si number density = 17.448573 Si / 1000 Ang^3
#
#
#
# Elastic Constant Matrix: (Units=GPa)
#
#
# Indices 1 2 3 4 5 6 
#
# 1 123.4636 32.6779 64.3336 0.0000 0.0000 0.0000
# 2 32.6779 39.6144 29.0401 0.0000 0.0000 0.0000
# 3 64.3336 29.0401 87.3398 0.0000 0.0000 0.0000
# 4 0.0000 0.0000 0.0000 27.1042 0.0000 0.0000
# 5 0.0000 0.0000 0.0000 0.0000 19.9486 0.0000
# 6 0.0000 0.0000 0.0000 0.0000 0.0000 19.4601
#
#
#
# Elastic Compliance Matrix: (Units=1/GPa)
#
#
# Indices 1 2 3 4 5 6 
#
# 1 0.013923 -0.005246 -0.008511 0.000000 0.000000 0.000000
# 2 -0.005246 0.035356 -0.007892 0.000000 0.000000 0.000000
# 3 -0.008511 -0.007892 0.020343 0.000000 0.000000 0.000000
# 4 0.000000 0.000000 0.000000 0.036895 0.000000 0.000000
# 5 0.000000 0.000000 0.000000 0.000000 0.050129 0.000000
# 6 0.000000 0.000000 0.000000 0.000000 0.000000 0.051387
#
#
# Mechanical properties :
#
#
# Convention : Reuss Voigt Hill
#
# Bulk Modulus (GPa) = 37.98806 55.83567 46.91187
# Shear Modulus (GPa) = 19.22303 21.59365 20.40834
#
# Velocity S-wave (km/s) = 3.32278 3.52171 3.42369
# Velocity P-wave (km/s) = 6.04482 6.97182 6.52480
#
# Compressibility (1/GPa) = 0.02632406
#
# Stress axis : x y z
#
# Youngs Moduli (GPa) = 71.82343 28.28401 49.15715
#
# Poissons Ratio (x) = 0.14837 0.41840
# Poissons Ratio (y) = 0.37676 0.38793
# Poissons Ratio (z) = 0.61132 0.22321
#
# Static dielectric constant tensor:
#      x y z
#    x 3.476530 0.000000 0.000000 
#    y 0.000000 2.911100 0.000000 
#    z 0.000000 0.000000 3.331030 
# 
# 
# High freq. dielectric constant tensor:
#      x y z
#    x 1.669400 0.000000 0.000000 
#    y 0.000000 1.636950 0.000000 
#    z 0.000000 0.000000 1.668270 
# 
# From -- ./inp_files/30747.got.cif
#   From: 2010.03.12/outbox.cif.g09.slc.cpg/sg59_16_cif.got.tgz:30747.got - 2010.04.16 16:29:54.
