data_PCOD8240944
_publ_section_title
;
Structure prediction by ZEFSAII (Michael W. Deem and Ramdas Pophale) SiO2 
 PCOD8240944
Probable space group: P M M N
;
_chemical_formula_sum "Si O2"
_cell_formula_units_Z 56
_cell_length_a 21.444334
_cell_length_b 8.715472
_cell_length_c 16.802942
_cell_angle_alpha 90.000000
_cell_angle_beta 90.000000
_cell_angle_gamma 90.000000
_cell_volume 3140.427727
_symmetry_space_group_name_H-M "P M M N"
_symmetry_group_IT_number 59
_space_group.IT_coordinate_system_code '2'
_symmetry_cell_setting 'orthorhombic'
loop_
_space_group_symop_operation_xyz
x,y,z
1/2-x,1/2-y,z
1/2+x,-y,-z
-x,1/2+y,-z
-x,-y,-z
1/2+x,1/2+y,-z
1/2-x,y,z
x,1/2-y,z
loop_
_atom_site_type_symbol
_atom_site_label
_atom_site_fract_x
_atom_site_fract_y
_atom_site_fract_z
Si Si1 0.873690 0.568020 0.796610
Si Si2 0.411289 0.571898 0.480338
Si Si3 0.015642 0.930886 0.792129
Si Si4 0.029293 0.429048 0.624090
Si Si5 0.676884 0.576851 0.631881
Si Si6 0.180556 0.432527 0.040158
Si Si7 0.557628 0.568172 0.049688
O O1 0.869273 0.750000 0.794539
O O2 0.845494 0.501677 0.714973
O O3 0.944822 0.513800 0.804636
O O4 0.834303 0.504664 0.871167
O O5 0.415132 0.750000 0.501372
O O6 0.463828 0.523661 0.416125
O O7 0.417083 0.477375 0.562110
O O8 0.345855 0.527667 0.441001
O O9 0.022839 0.750000 0.802671
O O10 0.039580 0.978794 0.705320
O O11 0.056344 0.015306 0.858958
O O12 0.033282 0.250000 0.642895
O O13 0.750000 0.577647 0.629782
O O14 0.650343 0.750000 0.622611
O O15 0.250000 0.492389 0.014520
O O16 0.180770 0.250000 0.040610
O O17 0.124888 0.490852 0.982860
O O18 0.552857 0.750000 0.042393
O O19 0.500000 0.500000 0.000000
#
# Coordination Sequence:
#
# PCOD8240944 Si02
#       7
#     8   8   8   8   8   8   8
#     4   9  16  28  48  76 106 136 174 214 257 309
#     4  10  20  33  51  75 104 138 173 213 261 311
#     4  11  20  33  54  79 108 142 176 218 270 320
#     4  10  20  34  53  77 103 134 171 217 265 312
#     4  10  19  31  50  76 107 143 179 215 255 310
#     4   9  17  31  52  77 104 138 182 225 263 311
#     4  11  21  34  53  80 109 141 180 225 274 323
#
# _framework density 17.831966000000001
#
# number of rings (size 3 to 8) (size 9 to 14) (size 15 to 20)
#    0.000    2.000    2.857    2.143    0.000    3.143 
#    0.000    0.000    0.000    2.571    0.000    2.000 
#    0.000    0.000    0.000    0.000    0.000    0.000 
#
# Total GULP energy -694361.357472 kJ/mol
# GULP energy per Si atom -12399.309955 kJ/mol
# Density = 1.779138 g / cm^3
# Si number density = 17.831966 Si / 1000 Ang^3
#
#
#
# Elastic Constant Matrix: (Units=GPa)
#
#
# Indices 1 2 3 4 5 6 
#
# 1 107.0730 24.2008 58.8192 0.0000 0.0000 0.0000
# 2 24.2008 42.0761 23.6385 0.0000 0.0000 0.0000
# 3 58.8192 23.6385 118.8474 0.0000 0.0000 0.0000
# 4 0.0000 0.0000 0.0000 28.0520 0.0000 0.0000
# 5 0.0000 0.0000 0.0000 0.0000 25.1091 0.0000
# 6 0.0000 0.0000 0.0000 0.0000 0.0000 21.0041
#
#
#
# Elastic Compliance Matrix: (Units=1/GPa)
#
#
# Indices 1 2 3 4 5 6 
#
# 1 0.013554 -0.004534 -0.005806 0.000000 0.000000 0.000000
# 2 -0.004534 0.028273 -0.003380 0.000000 0.000000 0.000000
# 3 -0.005806 -0.003380 0.011960 0.000000 0.000000 0.000000
# 4 0.000000 0.000000 0.000000 0.035648 0.000000 0.000000
# 5 0.000000 0.000000 0.000000 0.000000 0.039826 0.000000
# 6 0.000000 0.000000 0.000000 0.000000 0.000000 0.047610
#
#
# Mechanical properties :
#
#
# Convention : Reuss Voigt Hill
#
# Bulk Modulus (GPa) = 37.95442 53.47930 45.71686
# Shear Modulus (GPa) = 23.46406 25.58890 24.52648
#
# Velocity S-wave (km/s) = 3.63139 3.79225 3.71269
# Velocity P-wave (km/s) = 6.23806 7.01646 6.63868
#
# Compressibility (1/GPa) = 0.02634739
#
# Stress axis : x y z
#
# Youngs Moduli (GPa) = 73.78070 35.36975 83.61278
#
# Poissons Ratio (x) = 0.16036 0.48547
# Poissons Ratio (y) = 0.33450 0.28258
# Poissons Ratio (z) = 0.42838 0.11954
#
# Static dielectric constant tensor:
#      x y z
#    x 3.289230 0.000000 0.000000 
#    y 0.000000 3.108280 0.000000 
#    z 0.000000 0.000000 3.419830 
# 
# 
# High freq. dielectric constant tensor:
#      x y z
#    x 1.671280 0.000000 0.000000 
#    y 0.000000 1.670240 0.000000 
#    z 0.000000 0.000000 1.693320 
# 
# From -- ./inp_files/21025.got.cif
#   From: 2010.03.12/outbox.cif.g09.slc.cpg/sg59_11_cif.got.tgz:21025.got - 2010.04.16 16:29:54.
