data_PCOD8240738
_publ_section_title
;
Structure prediction by ZEFSAII (Michael W. Deem and Ramdas Pophale) SiO2 
 PCOD8240738
Probable space group: P M M N
;
_chemical_formula_sum "Si O2"
_cell_formula_units_Z 56
_cell_length_a 8.953040
_cell_length_b 14.715728
_cell_length_c 21.110143
_cell_angle_alpha 90.000000
_cell_angle_beta 90.000000
_cell_angle_gamma 90.000000
_cell_volume 2781.271925
_symmetry_space_group_name_H-M "P M M N"
_symmetry_group_IT_number 59
_space_group.IT_coordinate_system_code '2'
_symmetry_cell_setting 'orthorhombic'
loop_
_space_group_symop_operation_xyz
x,y,z
1/2-x,1/2-y,z
1/2+x,-y,-z
-x,1/2+y,-z
-x,-y,-z
1/2+x,1/2+y,-z
1/2-x,y,z
x,1/2-y,z
loop_
_atom_site_type_symbol
_atom_site_label
_atom_site_fract_x
_atom_site_fract_y
_atom_site_fract_z
Si Si1 0.088618 0.093896 0.349404
Si Si2 0.924524 0.485084 0.094219
Si Si3 0.080581 0.149836 0.718646
Si Si4 0.921253 0.852526 0.520032
Si Si5 0.924522 0.356111 0.977671
Si Si6 0.087162 0.605311 0.399924
Si Si7 0.071285 0.018231 0.223991
O O1 0.250000 0.142345 0.341568
O O2 0.004550 0.141971 0.408733
O O3 0.011586 0.088348 0.279598
O O4 0.111703 0.990805 0.368676
O O5 0.750000 0.498391 0.105789
O O6 0.988957 0.583970 0.074521
O O7 0.003006 0.449660 0.157891
O O8 0.958177 0.404543 0.044639
O O9 0.250000 0.112847 0.716134
O O10 0.074550 0.250000 0.749780
O O11 0.020448 0.160816 0.646782
O O12 0.981712 0.084226 0.762050
O O13 0.750000 0.888987 0.523523
O O14 0.926690 0.750000 0.495660
O O15 0.014370 0.909560 0.469159
O O16 0.750000 0.360678 0.961437
O O17 0.978195 0.250000 0.978666
O O18 0.250000 0.653029 0.406866
O O19 0.250000 0.019748 0.221635
#
# Coordination Sequence:
#
# PCOD8240738 Si02
#       7
#     8   8   8   8   8   8   8
#     4   8  17  33  49  67  91 123 164 203 242 293
#     4  10  20  35  57  85 115 145 179 220 263 308
#     4  10  20  33  49  71  99 130 168 214 262 313
#     4  10  19  31  48  68  91 120 157 205 256 301
#     4   9  19  37  60  85 114 148 183 218 258 305
#     4  10  19  31  48  68  93 125 160 203 255 312
#     4  10  20  35  54  74 101 138 175 210 252 305
#
# _framework density 20.134672999999999
#
# number of rings (size 3 to 8) (size 9 to 14) (size 15 to 20)
#    0.000    2.429    0.000    3.429    0.000    4.571 
#    0.000    4.286    0.000    0.857    0.000    0.000 
#    0.000    0.000    0.000    0.000    0.000    0.000 
#
# Total GULP energy -693750.668805 kJ/mol
# GULP energy per Si atom -12388.404800 kJ/mol
# Density = 2.008885 g / cm^3
# Si number density = 20.134673 Si / 1000 Ang^3
#
#
#
# Elastic Constant Matrix: (Units=GPa)
#
#
# Indices 1 2 3 4 5 6 
#
# 1 79.9935 9.4107 38.9073 0.0000 0.0000 0.0000
# 2 9.4107 46.9430 2.6292 0.0000 0.0000 0.0000
# 3 38.9073 2.6292 122.9075 0.0000 0.0000 0.0000
# 4 0.0000 0.0000 0.0000 197.7562 0.0000 0.0000
# 5 0.0000 0.0000 0.0000 0.0000 29.6189 0.0000
# 6 0.0000 0.0000 0.0000 0.0000 0.0000 16.1884
#
#
#
# Elastic Compliance Matrix: (Units=1/GPa)
#
#
# Indices 1 2 3 4 5 6 
#
# 1 0.015127 -0.002768 -0.004729 0.000000 0.000000 0.000000
# 2 -0.002768 0.021834 0.000409 0.000000 0.000000 0.000000
# 3 -0.004729 0.000409 0.009625 0.000000 0.000000 0.000000
# 4 0.000000 0.000000 0.000000 0.005057 0.000000 0.000000
# 5 0.000000 0.000000 0.000000 0.000000 0.033762 0.000000
# 6 0.000000 0.000000 0.000000 0.000000 0.000000 0.061773
#
#
# Mechanical properties :
#
#
# Convention : Reuss Voigt Hill
#
# Bulk Modulus (GPa) = 30.85469 39.08205 34.96837
# Shear Modulus (GPa) = 29.04332 61.97248 45.50790
#
# Velocity S-wave (km/s) = 3.80208 5.55390 4.75929
# Velocity P-wave (km/s) = 5.88489 7.78333 6.89971
#
# Compressibility (1/GPa) = 0.03240998
#
# Stress axis : x y z
#
# Youngs Moduli (GPa) = 66.10757 45.79937 103.90087
#
# Poissons Ratio (x) = 0.12675 0.49138
# Poissons Ratio (y) = 0.18296 -0.04250
# Poissons Ratio (z) = 0.31264 -0.01873
#
# Static dielectric constant tensor:
#      x y z
#    x 3.625990 0.000000 0.000000 
#    y 0.000000 3.485630 0.000000 
#    z 0.000000 0.000000 3.879550 
# 
# 
# High freq. dielectric constant tensor:
#      x y z
#    x 1.770470 0.000000 0.000000 
#    y 0.000000 1.766800 0.000000 
#    z 0.000000 0.000000 1.791000 
# 
# From -- ./inp_files/29072.got.cif
#   From: 2010.03.12/outbox.cif.g09.slc.cpg/sg59_15_cif.got.tgz:29072.got - 2010.04.16 16:29:54.
