data_PCOD8240407
_publ_section_title
;
Structure prediction by ZEFSAII (Michael W. Deem and Ramdas Pophale) SiO2 
 PCOD8240407
Probable space group: P M M N
;
_chemical_formula_sum "Si O2"
_cell_formula_units_Z 64
_cell_length_a 9.035282
_cell_length_b 23.810431
_cell_length_c 16.328597
_cell_angle_alpha 90.000000
_cell_angle_beta 90.000000
_cell_angle_gamma 90.000000
_cell_volume 3512.835711
_symmetry_space_group_name_H-M "P M M N"
_symmetry_group_IT_number 59
_space_group.IT_coordinate_system_code '2'
_symmetry_cell_setting 'orthorhombic'
loop_
_space_group_symop_operation_xyz
x,y,z
1/2-x,1/2-y,z
1/2+x,-y,-z
-x,1/2+y,-z
-x,-y,-z
1/2+x,1/2+y,-z
1/2-x,y,z
x,1/2-y,z
loop_
_atom_site_type_symbol
_atom_site_label
_atom_site_fract_x
_atom_site_fract_y
_atom_site_fract_z
Si Si1 0.912795 0.816300 0.088580
Si Si2 0.079715 0.905808 0.539001
Si Si3 0.575140 0.619552 0.784932
Si Si4 0.075269 0.523116 0.694906
Si Si5 0.423882 0.312394 0.374355
Si Si6 0.922465 0.315544 0.071290
Si Si7 0.424157 0.314582 0.729121
Si Si8 0.077203 0.585357 0.353269
O O1 0.750000 0.841469 0.067380
O O2 0.897899 0.750000 0.091975
O O3 0.964268 0.835711 0.178865
O O4 0.031458 0.834540 0.020276
O O5 0.250000 0.890483 0.550874
O O6 0.046219 0.928411 0.448555
O O7 0.990073 0.848464 0.551872
O O8 0.030750 0.951796 0.606083
O O9 0.750000 0.610257 0.791221
O O10 0.497008 0.560012 0.767258
O O11 0.530387 0.662114 0.712919
O O12 0.515907 0.645983 0.868197
O O13 0.250000 0.520502 0.708487
O O14 0.008382 0.460824 0.700549
O O15 0.250000 0.311715 0.385404
O O16 0.490435 0.250000 0.379009
O O17 0.750000 0.327325 0.083504
O O18 0.960799 0.250000 0.086175
O O19 0.250000 0.321423 0.712907
O O20 0.472531 0.250000 0.715089
O O21 0.515681 0.352936 0.666687
O O22 0.250000 0.582691 0.332687
#
# Coordination Sequence:
#
# PCOD8240407 Si02
#       8
#     8   8   8   8   8   8   8   8
#     4   8  15  30  51  73  99 132 168 205 245 290
#     4   9  20  35  50  71  98 130 168 211 255 297
#     4  10  19  32  50  72 101 135 171 210 251 296
#     4  10  20  36  55  73  97 130 170 213 255 297
#     4   9  18  31  47  69  98 133 170 206 247 296
#     4  10  19  29  46  76 109 138 170 206 245 293
#     4   9  19  36  56  78 104 134 168 205 248 298
#     4  11  22  35  53  77 102 129 165 207 253 304
#
# _framework density 18.218900000000001
#
# number of rings (size 3 to 8) (size 9 to 14) (size 15 to 20)
#    0.000    2.500    0.000    3.000    0.000    4.750 
#    0.000    3.750    0.000    0.750    0.000    0.000 
#    0.000    0.000    0.000    0.000    0.000    0.000 
#
# Total GULP energy -793598.338785 kJ/mol
# GULP energy per Si atom -12399.974044 kJ/mol
# Density = 1.817743 g / cm^3
# Si number density = 18.218900 Si / 1000 Ang^3
#
#
#
# Elastic Constant Matrix: (Units=GPa)
#
#
# Indices 1 2 3 4 5 6 
#
# 1 69.7051 35.6073 30.5456 0.0000 0.0000 0.0000
# 2 35.6073 87.1039 19.9021 0.0000 0.0000 0.0000
# 3 30.5456 19.9021 60.7185 0.0000 0.0000 0.0000
# 4 0.0000 0.0000 0.0000 19.1251 0.0000 0.0000
# 5 0.0000 0.0000 0.0000 0.0000 29.4179 0.0000
# 6 0.0000 0.0000 0.0000 0.0000 0.0000 30.5844
#
#
#
# Elastic Compliance Matrix: (Units=1/GPa)
#
#
# Indices 1 2 3 4 5 6 
#
# 1 0.021641 -0.006874 -0.008634 0.000000 0.000000 0.000000
# 2 -0.006874 0.014593 -0.001325 0.000000 0.000000 0.000000
# 3 -0.008634 -0.001325 0.021247 0.000000 0.000000 0.000000
# 4 0.000000 0.000000 0.000000 0.052287 0.000000 0.000000
# 5 0.000000 0.000000 0.000000 0.000000 0.033993 0.000000
# 6 0.000000 0.000000 0.000000 0.000000 0.000000 0.032696
#
#
# Mechanical properties :
#
#
# Convention : Reuss Voigt Hill
#
# Bulk Modulus (GPa) = 41.98941 43.29307 42.64124
# Shear Modulus (GPa) = 22.92921 24.59034 23.75977
#
# Velocity S-wave (km/s) = 3.55144 3.67783 3.61519
# Velocity P-wave (km/s) = 6.31777 6.46913 6.39389
#
# Compressibility (1/GPa) = 0.02381553
#
# Stress axis : x y z
#
# Youngs Moduli (GPa) = 46.20867 68.52435 47.06499
#
# Poissons Ratio (x) = 0.47103 0.40635
# Poissons Ratio (y) = 0.31764 0.06237
# Poissons Ratio (z) = 0.39896 0.09081
#
# Static dielectric constant tensor:
#      x y z
#    x 3.330140 0.000000 0.000000 
#    y 0.000000 3.239070 0.000000 
#    z 0.000000 0.000000 3.381060 
# 
# 
# High freq. dielectric constant tensor:
#      x y z
#    x 1.709490 0.000000 0.000000 
#    y 0.000000 1.688310 0.000000 
#    z 0.000000 0.000000 1.696340 
# 
# From -- ./inp_files/26333.got.cif
#   From: 2010.03.12/outbox.cif.g09.slc.cpg/sg59_14_cif.got.tgz:26333.got - 2010.04.16 16:29:54.
