data_PCOD8240854
_publ_section_title
;
Structure prediction by ZEFSAII (Michael W. Deem and Ramdas Pophale) SiO2 
 PCOD8240854
Probable space group: P M M N
;
_chemical_formula_sum "Si O2"
_cell_formula_units_Z 48
_cell_length_a 8.913712
_cell_length_b 20.194086
_cell_length_c 15.136264
_cell_angle_alpha 90.000000
_cell_angle_beta 90.000000
_cell_angle_gamma 90.000000
_cell_volume 2724.592102
_symmetry_space_group_name_H-M "P M M N"
_symmetry_group_IT_number 59
_space_group.IT_coordinate_system_code '2'
_symmetry_cell_setting 'orthorhombic'
loop_
_space_group_symop_operation_xyz
x,y,z
1/2-x,1/2-y,z
1/2+x,-y,-z
-x,1/2+y,-z
-x,-y,-z
1/2+x,1/2+y,-z
1/2-x,y,z
x,1/2-y,z
loop_
_atom_site_type_symbol
_atom_site_label
_atom_site_fract_x
_atom_site_fract_y
_atom_site_fract_z
Si Si1 0.077842 0.674847 0.903572
Si Si2 0.915997 0.911496 0.562175
Si Si3 0.572130 0.960133 0.220871
Si Si4 0.916734 0.433974 0.604424
Si Si5 0.426799 0.935893 0.043429
Si Si6 0.573109 0.899378 0.754717
O O1 0.250000 0.663764 0.875365
O O2 0.047886 0.750000 0.933443
O O3 0.973492 0.659703 0.819265
O O4 0.034680 0.628061 0.984980
O O5 0.750000 0.886980 0.536813
O O6 0.969686 0.877930 0.654137
O O7 0.022387 0.892751 0.480026
O O8 0.915017 0.989539 0.579391
O O9 0.750000 0.958765 0.214071
O O10 0.521186 0.923046 0.310319
O O11 0.499733 0.921595 0.138580
O O12 0.516876 0.035593 0.216472
O O13 0.750000 0.408395 0.626220
O O14 0.250000 0.947755 0.052982
O O15 0.500000 0.000000 0.000000
O O16 0.750000 0.914945 0.760646
#
# Coordination Sequence:
#
# PCOD8240854 Si02
#       6
#     8   8   8   8   8   8
#     4  10  22  38  54  74 102 136 172 212 260 313
#     4   8  15  26  40  63  95 129 161 197 243 294
#     4  11  20  30  47  71 101 135 169 210 257 306
#     4   9  16  26  41  65  96 129 164 203 245 295
#     4  11  21  34  53  76 102 133 172 216 261 313
#     4  10  19  31  49  72  99 132 170 209 252 304
#
# _framework density 17.617317
#
# number of rings (size 3 to 8) (size 9 to 14) (size 15 to 20)
#    0.000    2.167    1.667    4.000    0.000    5.667 
#    0.000    0.000    0.000    0.000    0.000    1.167 
#    0.000    6.667    0.000    0.000    0.000    0.000 
#
# Total GULP energy -595127.762397 kJ/mol
# GULP energy per Si atom -12398.495050 kJ/mol
# Density = 1.757722 g / cm^3
# Si number density = 17.617317 Si / 1000 Ang^3
#
#
#
# Elastic Constant Matrix: (Units=GPa)
#
#
# Indices 1 2 3 4 5 6 
#
# 1 118.9772 34.6219 70.4794 0.0000 0.0000 0.0000
# 2 34.6219 61.3042 48.6326 0.0000 0.0000 0.0000
# 3 70.4794 48.6326 152.9222 0.0000 0.0000 0.0000
# 4 0.0000 0.0000 0.0000 15.2817 0.0000 0.0000
# 5 0.0000 0.0000 0.0000 0.0000 37.0528 0.0000
# 6 0.0000 0.0000 0.0000 0.0000 0.0000 14.8157
#
#
#
# Elastic Compliance Matrix: (Units=1/GPa)
#
#
# Indices 1 2 3 4 5 6 
#
# 1 0.012013 -0.003199 -0.004519 0.000000 0.000000 0.000000
# 2 -0.003199 0.022668 -0.005734 0.000000 0.000000 0.000000
# 3 -0.004519 -0.005734 0.010446 0.000000 0.000000 0.000000
# 4 0.000000 0.000000 0.000000 0.065438 0.000000 0.000000
# 5 0.000000 0.000000 0.000000 0.000000 0.026988 0.000000
# 6 0.000000 0.000000 0.000000 0.000000 0.000000 0.067496
#
#
# Mechanical properties :
#
#
# Convention : Reuss Voigt Hill
#
# Bulk Modulus (GPa) = 54.88179 71.18573 63.03376
# Shear Modulus (GPa) = 21.00588 25.39468 23.20028
#
# Velocity S-wave (km/s) = 3.45678 3.80078 3.63285
# Velocity P-wave (km/s) = 6.86675 7.73018 7.31122
#
# Compressibility (1/GPa) = 0.01822098
#
# Stress axis : x y z
#
# Youngs Moduli (GPa) = 83.24299 44.11488 95.73286
#
# Poissons Ratio (x) = 0.14114 0.43263
# Poissons Ratio (y) = 0.26633 0.54897
# Poissons Ratio (z) = 0.37619 0.25297
#
# Static dielectric constant tensor:
#      x y z
#    x 3.416100 0.000000 0.000000 
#    y 0.000000 2.771040 0.000000 
#    z 0.000000 0.000000 3.678310 
# 
# 
# High freq. dielectric constant tensor:
#      x y z
#    x 1.693210 0.000000 0.000000 
#    y 0.000000 1.610460 0.000000 
#    z 0.000000 0.000000 1.700040 
# 
# From -- ./inp_files/20450.got.cif
#   From: 2010.03.12/outbox.cif.g09.slc.cpg/sg59_11_cif.got.tgz:20450.got - 2010.04.16 16:29:54.
