data_PCOD8240837
_publ_section_title
;
Structure prediction by ZEFSAII (Michael W. Deem and Ramdas Pophale) SiO2 
 PCOD8240837
Probable space group: P M M N
;
_chemical_formula_sum "Si O2"
_cell_formula_units_Z 48
_cell_length_a 9.137432
_cell_length_b 17.928369
_cell_length_c 15.614879
_cell_angle_alpha 90.000000
_cell_angle_beta 90.000000
_cell_angle_gamma 90.000000
_cell_volume 2558.017807
_symmetry_space_group_name_H-M "P M M N"
_symmetry_group_IT_number 59
_space_group.IT_coordinate_system_code '2'
_symmetry_cell_setting 'orthorhombic'
loop_
_space_group_symop_operation_xyz
x,y,z
1/2-x,1/2-y,z
1/2+x,-y,-z
-x,1/2+y,-z
-x,-y,-z
1/2+x,1/2+y,-z
1/2-x,y,z
x,1/2-y,z
loop_
_atom_site_type_symbol
_atom_site_label
_atom_site_fract_x
_atom_site_fract_y
_atom_site_fract_z
Si Si1 0.916685 0.402623 0.833707
Si Si2 0.087840 0.420144 0.182084
Si Si3 0.422698 0.078976 0.996109
Si Si4 0.922903 0.600623 0.335506
Si Si5 0.417837 0.664241 0.494189
Si Si6 0.420837 0.571189 0.654552
O O1 0.750000 0.373227 0.835267
O O2 0.923746 0.491461 0.830507
O O3 0.001546 0.374067 0.919362
O O4 0.999687 0.370096 0.750868
O O5 0.250000 0.397671 0.211225
O O6 0.982176 0.392948 0.257659
O O7 0.051802 0.382275 0.089532
O O8 0.250000 0.068901 0.977716
O O9 0.500000 0.000000 0.000000
O O10 0.750000 0.610493 0.325568
O O11 0.966603 0.514992 0.354530
O O12 0.981331 0.650804 0.412346
O O13 0.250000 0.641816 0.472987
O O14 0.428516 0.750000 0.521569
O O15 0.481830 0.615219 0.572384
O O16 0.250000 0.582174 0.660299
#
# Coordination Sequence:
#
# PCOD8240837 Si02
#       6
#     8   8   8   8   8   8
#     4   9  16  26  41  63  92 125 157 189 231 281
#     4   8  15  25  39  62  92 124 154 188 230 275
#     4   9  15  23  36  59  92 126 157 190 231 277
#     4  10  19  31  49  72  96 122 156 197 237 281
#     4  10  21  36  51  68  93 124 157 194 237 284
#     4   9  18  31  48  70  94 123 158 195 235 279
#
# _framework density 18.764529
#
# number of rings (size 3 to 8) (size 9 to 14) (size 15 to 20)
#    0.000    2.833    0.000    3.000    0.000    6.333 
#    0.000    0.000    0.000    0.000    0.000    1.167 
#    0.000    4.000    0.000    0.000    0.000    0.000 
#
# Total GULP energy -594944.821581 kJ/mol
# GULP energy per Si atom -12394.683783 kJ/mol
# Density = 1.872182 g / cm^3
# Si number density = 18.764529 Si / 1000 Ang^3
#
#
#
# Elastic Constant Matrix: (Units=GPa)
#
#
# Indices 1 2 3 4 5 6 
#
# 1 87.7212 13.5393 53.5852 0.0000 0.0000 0.0000
# 2 13.5393 22.4688 15.3742 0.0000 0.0000 0.0000
# 3 53.5852 15.3742 142.2655 0.0000 0.0000 0.0000
# 4 0.0000 0.0000 0.0000 2.9258 0.0000 0.0000
# 5 0.0000 0.0000 0.0000 0.0000 41.8974 0.0000
# 6 0.0000 0.0000 0.0000 0.0000 0.0000 12.2636
#
#
#
# Elastic Compliance Matrix: (Units=1/GPa)
#
#
# Indices 1 2 3 4 5 6 
#
# 1 0.015467 -0.005760 -0.005203 0.000000 0.000000 0.000000
# 2 -0.005760 0.050205 -0.003256 0.000000 0.000000 0.000000
# 3 -0.005203 -0.003256 0.009341 0.000000 0.000000 0.000000
# 4 0.000000 0.000000 0.000000 0.341784 0.000000 0.000000
# 5 0.000000 0.000000 0.000000 0.000000 0.023868 0.000000
# 6 0.000000 0.000000 0.000000 0.000000 0.000000 0.081542
#
#
# Mechanical properties :
#
#
# Convention : Reuss Voigt Hill
#
# Bulk Modulus (GPa) = 21.47101 46.38366 33.92734
# Shear Modulus (GPa) = 8.83127 22.74781 15.78954
#
# Velocity S-wave (km/s) = 2.17177 3.48555 2.90393
# Velocity P-wave (km/s) = 4.21378 6.40088 5.41882
#
# Compressibility (1/GPa) = 0.04657442
#
# Stress axis : x y z
#
# Youngs Moduli (GPa) = 64.65249 19.91841 107.05637
#
# Poissons Ratio (x) = 0.11473 0.55706
# Poissons Ratio (y) = 0.37239 0.34857
# Poissons Ratio (z) = 0.33641 0.06485
#
# Static dielectric constant tensor:
#      x y z
#    x 3.488890 0.000000 0.000000 
#    y 0.000000 2.835850 0.000000 
#    z 0.000000 0.000000 4.156090 
# 
# 
# High freq. dielectric constant tensor:
#      x y z
#    x 1.733410 0.000000 0.000000 
#    y 0.000000 1.656040 0.000000 
#    z 0.000000 0.000000 1.752010 
# 
# From -- ./inp_files/20474.got.cif
#   From: 2010.03.12/outbox.cif.g09.slc.cpg/sg59_11_cif.got.tgz:20474.got - 2010.04.16 16:29:54.
