data_PCOD8240986
_publ_section_title
;
Structure prediction by ZEFSAII (Michael W. Deem and Ramdas Pophale) SiO2 
 PCOD8240986
Probable space group: P M M N
;
_chemical_formula_sum "Si O2"
_cell_formula_units_Z 48
_cell_length_a 8.729104
_cell_length_b 19.224405
_cell_length_c 14.886066
_cell_angle_alpha 90.000000
_cell_angle_beta 90.000000
_cell_angle_gamma 90.000000
_cell_volume 2498.057986
_symmetry_space_group_name_H-M "P M M N"
_symmetry_group_IT_number 59
_space_group.IT_coordinate_system_code '2'
_symmetry_cell_setting 'orthorhombic'
loop_
_space_group_symop_operation_xyz
x,y,z
1/2-x,1/2-y,z
1/2+x,-y,-z
-x,1/2+y,-z
-x,-y,-z
1/2+x,1/2+y,-z
1/2-x,y,z
x,1/2-y,z
loop_
_atom_site_type_symbol
_atom_site_label
_atom_site_fract_x
_atom_site_fract_y
_atom_site_fract_z
Si Si1 0.069947 0.428061 0.821508
Si Si2 0.429045 0.825309 0.717794
Si Si3 0.074501 0.583997 0.558156
Si Si4 0.074631 0.949959 0.365965
Si Si5 0.932345 0.420819 0.125721
Si Si6 0.431683 0.829470 0.040462
O O1 0.250000 0.421080 0.833682
O O2 0.008537 0.499414 0.868817
O O3 0.032355 0.427259 0.715912
O O4 0.990373 0.361408 0.866251
O O5 0.250000 0.819851 0.738603
O O6 0.506077 0.750000 0.733692
O O7 0.457756 0.846318 0.614468
O O8 0.499116 0.881524 0.786591
O O9 0.250000 0.558363 0.572181
O O10 0.044431 0.599864 0.452690
O O11 0.961419 0.526773 0.598570
O O12 0.250000 0.946311 0.333564
O O13 0.750000 0.421391 0.126078
O O14 0.995460 0.379351 0.039010
O O15 0.250000 0.829079 0.040224
O O16 0.492083 0.750000 0.029067
#
# Coordination Sequence:
#
# PCOD8240986 Si02
#       6
#     8   8   8   8   8   8
#     4  11  21  35  56  80 108 140 179 225 266 320
#     4   9  15  26  49  79 108 136 171 216 265 318
#     4   9  17  31  50  76 107 138 177 220 266 317
#     4  10  19  31  51  77 106 140 179 222 267 313
#     4   9  17  31  53  81 107 135 172 217 268 319
#     4  10  21  37  56  79 107 138 176 222 270 322
#
# _framework density 19.214926999999999
#
# number of rings (size 3 to 8) (size 9 to 14) (size 15 to 20)
#    0.000    2.333    1.667    2.000    0.000    3.000 
#    0.000    1.667    0.000    3.500    0.000    0.000 
#    0.000    0.000    0.000    0.000    0.000    0.000 
#
# Total GULP energy -594969.684089 kJ/mol
# GULP energy per Si atom -12395.201752 kJ/mol
# Density = 1.917119 g / cm^3
# Si number density = 19.214927 Si / 1000 Ang^3
#
#
#
# Elastic Constant Matrix: (Units=GPa)
#
#
# Indices 1 2 3 4 5 6 
#
# 1 17.6533 18.7070 12.1357 0.0000 0.0000 0.0000
# 2 18.7070 97.1461 48.0291 0.0000 0.0000 0.0000
# 3 12.1357 48.0291 117.5843 0.0000 0.0000 0.0000
# 4 0.0000 0.0000 0.0000 23.4708 0.0000 0.0000
# 5 0.0000 0.0000 0.0000 0.0000 25.0754 0.0000
# 6 0.0000 0.0000 0.0000 0.0000 0.0000 19.0210
#
#
#
# Elastic Compliance Matrix: (Units=1/GPa)
#
#
# Indices 1 2 3 4 5 6 
#
# 1 0.071622 -0.012703 -0.002203 0.000000 0.000000 0.000000
# 2 -0.012703 0.015151 -0.004878 0.000000 0.000000 0.000000
# 3 -0.002203 -0.004878 0.010724 0.000000 0.000000 0.000000
# 4 0.000000 0.000000 0.000000 0.042606 0.000000 0.000000
# 5 0.000000 0.000000 0.000000 0.000000 0.039880 0.000000
# 6 0.000000 0.000000 0.000000 0.000000 0.000000 0.052573
#
#
# Mechanical properties :
#
#
# Convention : Reuss Voigt Hill
#
# Bulk Modulus (GPa) = 17.26211 43.34748 30.30480
# Shear Modulus (GPa) = 17.15646 23.74757 20.45202
#
# Velocity S-wave (km/s) = 2.99134 3.51934 3.26603
# Velocity P-wave (km/s) = 4.57537 6.25480 5.47981
#
# Compressibility (1/GPa) = 0.05793033
#
# Stress axis : x y z
#
# Youngs Moduli (GPa) = 13.96213 66.00024 93.24552
#
# Poissons Ratio (x) = 0.83838 0.20546
# Poissons Ratio (y) = 0.17736 0.45484
# Poissons Ratio (z) = 0.03077 0.32194
#
# Static dielectric constant tensor:
#      x y z
#    x 3.135500 0.000000 0.000000 
#    y 0.000000 3.576290 0.000000 
#    z 0.000000 0.000000 3.718320 
# 
# 
# High freq. dielectric constant tensor:
#      x y z
#    x 1.709660 0.000000 0.000000 
#    y 0.000000 1.731770 0.000000 
#    z 0.000000 0.000000 1.759850 
# 
# From -- ./inp_files/20451.got.cif
#   From: 2010.03.12/outbox.cif.g09.slc.cpg/sg59_11_cif.got.tgz:20451.got - 2010.04.16 16:29:54.
