data_PCOD8240604
_publ_section_title
;
Structure prediction by ZEFSAII (Michael W. Deem and Ramdas Pophale) SiO2 
 PCOD8240604
Probable space group: P M M N
;
_chemical_formula_sum "Si O2"
_cell_formula_units_Z 56
_cell_length_a 23.123690
_cell_length_b 9.461962
_cell_length_c 15.616102
_cell_angle_alpha 90.000000
_cell_angle_beta 90.000000
_cell_angle_gamma 90.000000
_cell_volume 3416.732472
_symmetry_space_group_name_H-M "P M M N"
_symmetry_group_IT_number 59
_space_group.IT_coordinate_system_code '2'
_symmetry_cell_setting 'orthorhombic'
loop_
_space_group_symop_operation_xyz
x,y,z
1/2-x,1/2-y,z
1/2+x,-y,-z
-x,1/2+y,-z
-x,-y,-z
1/2+x,1/2+y,-z
1/2-x,y,z
x,1/2-y,z
loop_
_atom_site_type_symbol
_atom_site_label
_atom_site_fract_x
_atom_site_fract_y
_atom_site_fract_z
Si Si1 0.504303 0.913542 0.413172
Si Si2 0.814468 0.582633 0.985490
Si Si3 0.118546 0.913749 0.345115
Si Si4 0.315712 0.082111 0.830769
Si Si5 0.318043 0.084399 0.200006
Si Si6 0.626463 0.916763 0.340112
Si Si7 0.816729 0.088934 0.485573
O O1 0.507158 0.750000 0.439852
O O2 0.449871 0.942597 0.351624
O O3 0.560605 0.960243 0.359737
O O4 0.500000 0.000000 0.500000
O O5 0.750000 0.521776 0.988254
O O6 0.812229 0.750000 0.982527
O O7 0.841821 0.534117 0.894518
O O8 0.842862 0.532649 0.076325
O O9 0.132841 0.750000 0.329078
O O10 0.147165 0.965906 0.433345
O O11 0.143960 0.001350 0.267476
O O12 0.250000 0.024768 0.818397
O O13 0.313691 0.250000 0.828828
O O14 0.357064 0.027042 0.754791
O O15 0.250000 0.048725 0.209884
O O16 0.328377 0.250000 0.214402
O O17 0.636034 0.750000 0.348362
O O18 0.669793 0.990577 0.405555
O O19 0.750000 0.075644 0.509884
O O20 0.833820 0.250000 0.462968
#
# Coordination Sequence:
#
# PCOD8240604 Si02
#       7
#     8   8   8   8   8   8   8
#     4  10  20  34  50  66  87 119 161 198 227 264
#     4   7  11  22  41  65  93 120 143 174 222 277
#     4  10  20  33  47  63  89 126 159 185 223 277
#     4   8  13  23  42  69  97 119 140 176 231 283
#     4   9  17  29  47  72  95 115 148 192 230 265
#     4  10  19  30  48  72  92 114 152 199 234 261
#     4  10  20  32  45  63  91 126 154 178 222 283
#
# _framework density 16.389928999999999
#
# number of rings (size 3 to 8) (size 9 to 14) (size 15 to 20)
#    0.000    2.857    1.429    2.571    0.000    2.857 
#    0.000    0.000    0.000    1.714    0.000    2.000 
#    0.000    0.000    0.000    0.000    0.000    0.000 
#
# Total GULP energy -693849.386693 kJ/mol
# GULP energy per Si atom -12390.167620 kJ/mol
# Density = 1.635262 g / cm^3
# Si number density = 16.389929 Si / 1000 Ang^3
#
#
#
# Elastic Constant Matrix: (Units=GPa)
#
#
# Indices 1 2 3 4 5 6 
#
# 1 70.5570 22.7176 46.9972 0.0000 0.0000 0.0000
# 2 22.7176 29.9375 41.1043 0.0000 0.0000 0.0000
# 3 46.9972 41.1043 155.1860 0.0000 0.0000 0.0000
# 4 0.0000 0.0000 0.0000 13.2372 0.0000 0.0000
# 5 0.0000 0.0000 0.0000 0.0000 11.7906 0.0000
# 6 0.0000 0.0000 0.0000 0.0000 0.0000 19.7402
#
#
#
# Elastic Compliance Matrix: (Units=1/GPa)
#
#
# Indices 1 2 3 4 5 6 
#
# 1 0.019690 -0.010614 -0.003152 0.000000 0.000000 0.000000
# 2 -0.010614 0.058215 -0.012205 0.000000 0.000000 0.000000
# 3 -0.003152 -0.012205 0.010631 0.000000 0.000000 0.000000
# 4 0.000000 0.000000 0.000000 0.075544 0.000000 0.000000
# 5 0.000000 0.000000 0.000000 0.000000 0.084813 0.000000
# 6 0.000000 0.000000 0.000000 0.000000 0.000000 0.050658
#
#
# Mechanical properties :
#
#
# Convention : Reuss Voigt Hill
#
# Bulk Modulus (GPa) = 27.32679 53.03541 40.18110
# Shear Modulus (GPa) = 13.74797 18.61103 16.17950
#
# Velocity S-wave (km/s) = 2.89936 3.37340 3.14532
# Velocity P-wave (km/s) = 5.28370 6.89941 6.14489
#
# Compressibility (1/GPa) = 0.03659412
#
# Stress axis : x y z
#
# Youngs Moduli (GPa) = 50.78815 17.17783 94.06418
#
# Poissons Ratio (x) = 0.18233 0.29645
# Poissons Ratio (y) = 0.53907 1.14805
# Poissons Ratio (z) = 0.16006 0.20965
#
# Static dielectric constant tensor:
#      x y z
#    x 3.056540 0.000000 0.000000 
#    y 0.000000 2.815960 0.000000 
#    z 0.000000 0.000000 3.505510 
# 
# 
# High freq. dielectric constant tensor:
#      x y z
#    x 1.610230 0.000000 0.000000 
#    y 0.000000 1.599260 0.000000 
#    z 0.000000 0.000000 1.643670 
# 
# From -- ./inp_files/24225.got.cif
#   From: 2010.03.12/outbox.cif.g09.slc.cpg/sg59_13_cif.got.tgz:24225.got - 2010.04.16 16:29:54.
