data_PCOD8240588
_publ_section_title
;
Structure prediction by ZEFSAII (Michael W. Deem and Ramdas Pophale) SiO2 
 PCOD8240588
Probable space group: P M M N
;
_chemical_formula_sum "Si O2"
_cell_formula_units_Z 64
_cell_length_a 24.979986
_cell_length_b 9.460938
_cell_length_c 15.587572
_cell_angle_alpha 90.000000
_cell_angle_beta 90.000000
_cell_angle_gamma 90.000000
_cell_volume 3683.874781
_symmetry_space_group_name_H-M "P M M N"
_symmetry_group_IT_number 59
_space_group.IT_coordinate_system_code '2'
_symmetry_cell_setting 'orthorhombic'
loop_
_space_group_symop_operation_xyz
x,y,z
1/2-x,1/2-y,z
1/2+x,-y,-z
-x,1/2+y,-z
-x,-y,-z
1/2+x,1/2+y,-z
1/2-x,y,z
x,1/2-y,z
loop_
_atom_site_type_symbol
_atom_site_label
_atom_site_fract_x
_atom_site_fract_y
_atom_site_fract_z
Si Si1 0.449991 0.090871 0.693304
Si Si2 0.109042 0.914233 0.561119
Si Si3 0.583234 0.414340 0.972127
Si Si4 0.935241 0.408895 0.620134
Si Si5 0.689937 0.597014 0.521769
Si Si6 0.188725 0.914145 0.132526
Si Si7 0.472864 0.085225 0.885357
Si Si8 0.651149 0.585085 0.706159
O O1 0.426935 0.250000 0.695355
O O2 0.502503 0.084247 0.636097
O O3 0.462452 0.036958 0.788523
O O4 0.408254 0.987144 0.649161
O O5 0.112148 0.750000 0.579864
O O6 0.072057 0.953218 0.479232
O O7 0.166944 0.974070 0.537467
O O8 0.582890 0.250000 0.996412
O O9 0.642048 0.457449 0.935583
O O10 0.535238 0.449993 0.905282
O O11 0.570277 0.502151 0.057421
O O12 0.912748 0.250000 0.635374
O O13 0.906278 0.514215 0.686478
O O14 0.750000 0.610596 0.492268
O O15 0.660932 0.750000 0.506984
O O16 0.687315 0.559568 0.622433
O O17 0.250000 0.938825 0.097293
O O18 0.180852 0.750000 0.157305
O O19 0.181134 0.009474 0.216033
O O20 0.462012 0.250000 0.899655
O O21 0.643134 0.750000 0.728421
#
# Coordination Sequence:
#
# PCOD8240588 Si02
#       8
#     8   8   8   8   8   8   8   8
#     4  10  19  32  50  70  97 131 163 197 240 290
#     4  10  20  31  46  71  99 126 161 202 241 284
#     4   9  18  34  53  73  98 125 157 198 243 291
#     4   9  18  32  48  68  99 136 166 196 237 284
#     4   9  18  33  50  66  90 127 166 201 240 285
#     4  10  20  33  50  72 100 134 165 193 235 294
#     4   9  18  32  52  75  96 123 159 200 244 289
#     4  10  19  30  47  73 102 130 163 201 237 278
#
# _framework density 17.373011000000002
#
# number of rings (size 3 to 8) (size 9 to 14) (size 15 to 20)
#    0.000    2.500    0.000    2.250    0.000    5.500 
#    0.000    2.500    0.000    0.750    0.000    3.500 
#    0.000    0.000    0.000    0.000    0.000    0.000 
#
# Total GULP energy -793307.881657 kJ/mol
# GULP energy per Si atom -12395.435651 kJ/mol
# Density = 1.733347 g / cm^3
# Si number density = 17.373011 Si / 1000 Ang^3
#
#
#
# Elastic Constant Matrix: (Units=GPa)
#
#
# Indices 1 2 3 4 5 6 
#
# 1 86.0173 42.2198 46.5036 0.0000 0.0000 0.0000
# 2 42.2198 74.5195 45.2242 0.0000 0.0000 0.0000
# 3 46.5036 45.2242 91.3029 0.0000 0.0000 0.0000
# 4 0.0000 0.0000 0.0000 31.2332 0.0000 0.0000
# 5 0.0000 0.0000 0.0000 0.0000 18.6765 0.0000
# 6 0.0000 0.0000 0.0000 0.0000 0.0000 23.3269
#
#
#
# Elastic Compliance Matrix: (Units=1/GPa)
#
#
# Indices 1 2 3 4 5 6 
#
# 1 0.018093 -0.006660 -0.005917 0.000000 0.000000 0.000000
# 2 -0.006660 0.021639 -0.007326 0.000000 0.000000 0.000000
# 3 -0.005917 -0.007326 0.017595 0.000000 0.000000 0.000000
# 4 0.000000 0.000000 0.000000 0.032017 0.000000 0.000000
# 5 0.000000 0.000000 0.000000 0.000000 0.053543 0.000000
# 6 0.000000 0.000000 0.000000 0.000000 0.000000 0.042869
#
#
# Mechanical properties :
#
#
# Convention : Reuss Voigt Hill
#
# Bulk Modulus (GPa) = 57.07316 57.74833 57.41075
# Shear Modulus (GPa) = 21.60744 22.50678 22.05711
#
# Velocity S-wave (km/s) = 3.53049 3.60321 3.56704
# Velocity P-wave (km/s) = 7.03861 7.11500 7.07691
#
# Compressibility (1/GPa) = 0.01752137
#
# Stress axis : x y z
#
# Youngs Moduli (GPa) = 55.26895 46.21362 56.83550
#
# Poissons Ratio (x) = 0.30780 0.33627
# Poissons Ratio (y) = 0.36811 0.41636
# Poissons Ratio (z) = 0.32700 0.33855
#
# Static dielectric constant tensor:
#      x y z
#    x 3.168040 0.000000 0.000000 
#    y 0.000000 3.370080 0.000000 
#    z 0.000000 0.000000 3.067740 
# 
# 
# High freq. dielectric constant tensor:
#      x y z
#    x 1.656940 0.000000 0.000000 
#    y 0.000000 1.676990 0.000000 
#    z 0.000000 0.000000 1.652190 
# 
# From -- ./inp_files/24796.got.cif
#   From: 2010.03.12/outbox.cif.g09.slc.cpg/sg59_13_cif.got.tgz:24796.got - 2010.04.16 16:29:54.
