data_PCOD8240065
_publ_section_title
;
Structure prediction by ZEFSAII (Michael W. Deem and Ramdas Pophale) SiO2 
 PCOD8240065
Probable space group: P M M N
;
_chemical_formula_sum "Si O2"
_cell_formula_units_Z 48
_cell_length_a 9.361801
_cell_length_b 16.400071
_cell_length_c 16.664850
_cell_angle_alpha 90.000000
_cell_angle_beta 90.000000
_cell_angle_gamma 90.000000
_cell_volume 2558.624431
_symmetry_space_group_name_H-M "P M M N"
_symmetry_group_IT_number 59
_space_group.IT_coordinate_system_code '2'
_symmetry_cell_setting 'orthorhombic'
loop_
_space_group_symop_operation_xyz
x,y,z
1/2-x,1/2-y,z
1/2+x,-y,-z
-x,1/2+y,-z
-x,-y,-z
1/2+x,1/2+y,-z
1/2-x,y,z
x,1/2-y,z
loop_
_atom_site_type_symbol
_atom_site_label
_atom_site_fract_x
_atom_site_fract_y
_atom_site_fract_z
Si Si1 0.919063 0.561477 0.225353
Si Si2 0.586570 0.153389 0.475261
Si Si3 0.080582 0.425587 0.955144
Si Si4 0.580319 0.250000 0.196637
Si Si5 0.919940 0.102861 0.303761
Si Si6 0.909409 0.845685 0.375608
Si Si7 0.916362 0.750000 0.967627
O O1 0.750000 0.558847 0.217564
O O2 0.979291 0.574324 0.136147
O O3 0.979341 0.479255 0.264830
O O4 0.969330 0.631913 0.287184
O O5 0.750000 0.128716 0.487978
O O6 0.569377 0.250000 0.466709
O O7 0.521881 0.113208 0.394445
O O8 0.502823 0.117638 0.552086
O O9 0.250000 0.442834 0.960802
O O10 0.044654 0.334113 0.985911
O O11 0.000000 0.500000 0.000000
O O12 0.750000 0.250000 0.185487
O O13 0.523241 0.326930 0.245814
O O14 0.510578 0.250000 0.110628
O O15 0.750000 0.106769 0.307695
O O16 0.750000 0.882389 0.384916
O O17 0.908375 0.750000 0.382665
O O18 0.750000 0.750000 0.945781
#
# Coordination Sequence:
#
# PCOD8240065 Si02
#       7
#     8   8   8   4   8   8   4
#     4   9  18  31  50  74  99 130 170 212 251 297
#     4   9  16  29  48  70  98 130 162 203 255 299
#     4  10  21  38  58  81 110 143 179 225 277 328
#     4  10  18  32  56  79 100 130 176 217 254 314
#     4   9  16  28  49  76  99 126 168 213 249 295
#     4   9  18  31  48  70  97 130 170 209 243 293
#     4  10  22  36  54  81 112 142 172 217 284 336
#
# _framework density 18.760079000000001
#
# number of rings (size 3 to 8) (size 9 to 14) (size 15 to 20)
#    0.000    2.667    0.833    1.000    1.167    2.667 
#    0.000    1.667    0.000    2.000    0.000    0.000 
#    0.000    0.000    0.000    0.000    0.000    0.000 
#
# Total GULP energy -594847.686897 kJ/mol
# GULP energy per Si atom -12392.660144 kJ/mol
# Density = 1.871738 g / cm^3
# Si number density = 18.760079 Si / 1000 Ang^3
#
#
#
# Elastic Constant Matrix: (Units=GPa)
#
#
# Indices 1 2 3 4 5 6 
#
# 1 38.7802 29.1998 51.5348 0.0000 0.0000 0.0000
# 2 29.1998 75.9697 56.8080 0.0000 0.0000 0.0000
# 3 51.5348 56.8080 205.3529 0.0000 0.0000 0.0000
# 4 0.0000 0.0000 0.0000 30.8550 0.0000 0.0000
# 5 0.0000 0.0000 0.0000 0.0000 30.9256 0.0000
# 6 0.0000 0.0000 0.0000 0.0000 0.0000 14.1381
#
#
#
# Elastic Compliance Matrix: (Units=1/GPa)
#
#
# Indices 1 2 3 4 5 6 
#
# 1 0.045165 -0.011201 -0.008236 0.000000 0.000000 0.000000
# 2 -0.011201 0.019374 -0.002549 0.000000 0.000000 0.000000
# 3 -0.008236 -0.002549 0.007642 0.000000 0.000000 0.000000
# 4 0.000000 0.000000 0.000000 0.032410 0.000000 0.000000
# 5 0.000000 0.000000 0.000000 0.000000 0.032336 0.000000
# 6 0.000000 0.000000 0.000000 0.000000 0.000000 0.070731
#
#
# Mechanical properties :
#
#
# Convention : Reuss Voigt Hill
#
# Bulk Modulus (GPa) = 35.44907 66.13201 50.79054
# Shear Modulus (GPa) = 19.15482 27.35441 23.25461
#
# Velocity S-wave (km/s) = 3.19884 3.82267 3.52459
# Velocity P-wave (km/s) = 5.70793 7.40350 6.61030
#
# Compressibility (1/GPa) = 0.02820948
#
# Stress axis : x y z
#
# Youngs Moduli (GPa) = 22.14115 51.61502 130.86378
#
# Poissons Ratio (x) = 0.57815 1.07777
# Poissons Ratio (y) = 0.24801 0.33352
# Poissons Ratio (z) = 0.18235 0.13155
#
# Static dielectric constant tensor:
#      x y z
#    x 3.176830 0.000000 0.000000 
#    y 0.000000 3.554920 0.000000 
#    z 0.000000 0.000000 3.772230 
# 
# 
# High freq. dielectric constant tensor:
#      x y z
#    x 1.678980 0.000000 0.000000 
#    y 0.000000 1.732690 0.000000 
#    z 0.000000 0.000000 1.748390 
# 
# From -- ./inp_files/20535.got.cif
#   From: 2010.03.12/outbox.cif.g09.slc.cpg/sg59_11_cif.got.tgz:20535.got - 2010.04.16 16:29:54.
