data_PCOD8240971
_publ_section_title
;
Structure prediction by ZEFSAII (Michael W. Deem and Ramdas Pophale) SiO2 
 PCOD8240971
Probable space group: P M M N
;
_chemical_formula_sum "Si O2"
_cell_formula_units_Z 64
_cell_length_a 8.849697
_cell_length_b 17.619873
_cell_length_c 22.646902
_cell_angle_alpha 90.000000
_cell_angle_beta 90.000000
_cell_angle_gamma 90.000000
_cell_volume 3531.343595
_symmetry_space_group_name_H-M "P M M N"
_symmetry_group_IT_number 59
_space_group.IT_coordinate_system_code '2'
_symmetry_cell_setting 'orthorhombic'
loop_
_space_group_symop_operation_xyz
x,y,z
1/2-x,1/2-y,z
1/2+x,-y,-z
-x,1/2+y,-z
-x,-y,-z
1/2+x,1/2+y,-z
1/2-x,y,z
x,1/2-y,z
loop_
_atom_site_type_symbol
_atom_site_label
_atom_site_fract_x
_atom_site_fract_y
_atom_site_fract_z
Si Si1 0.923322 0.013588 0.245990
Si Si2 0.076174 0.834402 0.812058
Si Si3 0.926595 0.061674 0.458539
Si Si4 0.922089 0.337357 0.959611
Si Si5 0.072171 0.974384 0.363608
Si Si6 0.425562 0.455509 0.883292
Si Si7 0.572563 0.166270 0.559582
Si Si8 0.427664 0.394744 0.075488
O O1 0.750000 0.006226 0.265959
O O2 0.967775 0.102414 0.236666
O O3 0.954839 0.968563 0.185816
O O4 0.027846 0.975418 0.295203
O O5 0.250000 0.848759 0.831571
O O6 0.054577 0.750000 0.785029
O O7 0.973319 0.841305 0.869870
O O8 0.750000 0.046897 0.452313
O O9 0.959243 0.142119 0.491038
O O10 0.000000 0.000000 0.500000
O O11 0.001812 0.050300 0.394210
O O12 0.750000 0.361055 0.973975
O O13 0.933197 0.250000 0.942498
O O14 0.982746 0.381472 0.902386
O O15 0.027331 0.353445 0.015516
O O16 0.250000 0.978644 0.371044
O O17 0.008499 0.896876 0.394381
O O18 0.250000 0.444567 0.897346
O O19 0.485258 0.525822 0.921489
O O20 0.750000 0.171493 0.570155
O O21 0.499632 0.250000 0.570380
O O22 0.250000 0.409655 0.076814
#
# Coordination Sequence:
#
# PCOD8240971 Si02
#       8
#     8   8   8   8   8   8   8   8
#     4   9  19  35  54  74  98 132 171 210 250 295
#     4   9  18  34  54  75 100 130 167 212 260 308
#     4   9  16  28  49  73  98 127 158 196 241 289
#     4  11  23  37  53  75 104 135 168 210 260 313
#     4  10  19  31  51  75 100 133 169 206 246 293
#     4  10  21  38  57  75  99 133 173 216 261 308
#     4   8  15  29  49  74 100 127 164 206 244 283
#     4  11  21  33  53  79 105 132 165 206 257 318
#
# _framework density 18.123414
#
# number of rings (size 3 to 8) (size 9 to 14) (size 15 to 20)
#    0.000    2.375    0.000    4.875    0.000    5.250 
#    0.000    1.250    0.000   19.500    0.000    0.000 
#    0.000    0.000    0.000    0.000    0.000    0.000 
#
# Total GULP energy -793372.477583 kJ/mol
# GULP energy per Si atom -12396.444962 kJ/mol
# Density = 1.808216 g / cm^3
# Si number density = 18.123414 Si / 1000 Ang^3
#
#
#
# Elastic Constant Matrix: (Units=GPa)
#
#
# Indices 1 2 3 4 5 6 
#
# 1 67.2230 34.0507 35.2558 0.0000 0.0000 0.0000
# 2 34.0507 112.3065 53.8486 0.0000 0.0000 0.0000
# 3 35.2558 53.8486 85.1699 0.0000 0.0000 0.0000
# 4 0.0000 0.0000 0.0000 19.3585 0.0000 0.0000
# 5 0.0000 0.0000 0.0000 0.0000 33.0656 0.0000
# 6 0.0000 0.0000 0.0000 0.0000 0.0000 23.8249
#
#
#
# Elastic Compliance Matrix: (Units=1/GPa)
#
#
# Indices 1 2 3 4 5 6 
#
# 1 0.019661 -0.002954 -0.006271 0.000000 0.000000 0.000000
# 2 -0.002954 0.013222 -0.007136 0.000000 0.000000 0.000000
# 3 -0.006271 -0.007136 0.018849 0.000000 0.000000 0.000000
# 4 0.000000 0.000000 0.000000 0.051657 0.000000 0.000000
# 5 0.000000 0.000000 0.000000 0.000000 0.030243 0.000000
# 6 0.000000 0.000000 0.000000 0.000000 0.000000 0.041973
#
#
# Mechanical properties :
#
#
# Convention : Reuss Voigt Hill
#
# Bulk Modulus (GPa) = 52.60766 56.77883 54.69324
# Shear Modulus (GPa) = 23.29221 24.68608 23.98915
#
# Velocity S-wave (km/s) = 3.58886 3.69468 3.64215
# Velocity P-wave (km/s) = 6.80174 7.04258 6.92321
#
# Compressibility (1/GPa) = 0.01900864
#
# Stress axis : x y z
#
# Youngs Moduli (GPa) = 50.86174 75.63285 53.05326
#
# Poissons Ratio (x) = 0.22346 0.33268
# Poissons Ratio (y) = 0.15027 0.37861
# Poissons Ratio (z) = 0.31894 0.53975
#
# Static dielectric constant tensor:
#      x y z
#    x 3.370280 0.000000 0.000000 
#    y 0.000000 3.563190 0.000000 
#    z 0.000000 0.000000 3.318700 
# 
# 
# High freq. dielectric constant tensor:
#      x y z
#    x 1.699710 0.000000 0.000000 
#    y 0.000000 1.695840 0.000000 
#    z 0.000000 0.000000 1.687760 
# 
# From -- ./inp_files/31754.got.cif
#   From: 2010.03.12/outbox.cif.g09.slc.cpg/sg59_16_cif.got.tgz:31754.got - 2010.04.16 16:29:54.
