data_PCOD8240990
_publ_section_title
;
Structure prediction by ZEFSAII (Michael W. Deem and Ramdas Pophale) SiO2 
 PCOD8240990
Probable space group: P M M N
;
_chemical_formula_sum "Si O2"
_cell_formula_units_Z 48
_cell_length_a 9.111728
_cell_length_b 7.837478
_cell_length_c 34.269500
_cell_angle_alpha 90.000000
_cell_angle_beta 90.000000
_cell_angle_gamma 90.000000
_cell_volume 2447.286698
_symmetry_space_group_name_H-M "P M M N"
_symmetry_group_IT_number 59
_space_group.IT_coordinate_system_code '2'
_symmetry_cell_setting 'orthorhombic'
loop_
_space_group_symop_operation_xyz
x,y,z
1/2-x,1/2-y,z
1/2+x,-y,-z
-x,1/2+y,-z
-x,-y,-z
1/2+x,1/2+y,-z
1/2-x,y,z
x,1/2-y,z
loop_
_atom_site_type_symbol
_atom_site_label
_atom_site_fract_x
_atom_site_fract_y
_atom_site_fract_z
Si Si1 0.077190 0.445195 0.039456
Si Si2 0.421619 0.444795 0.236027
Si Si3 0.924062 0.250000 0.905703
Si Si4 0.408960 0.943280 0.536905
Si Si5 0.423710 0.750000 0.181239
Si Si6 0.914051 0.056125 0.609721
Si Si7 0.582185 0.051096 0.315887
O O1 0.250000 0.462539 0.032865
O O2 0.035425 0.250000 0.051039
O O3 0.022493 0.576918 0.072741
O O4 0.000000 0.500000 0.000000
O O5 0.250000 0.467947 0.245199
O O6 0.455004 0.250000 0.222437
O O7 0.475448 0.577053 0.202966
O O8 0.510325 0.492716 0.274602
O O9 0.750000 0.250000 0.903546
O O10 0.992266 0.250000 0.862195
O O11 0.250000 0.039749 0.539369
O O12 0.372818 0.750000 0.529884
O O13 0.500000 0.000000 0.500000
O O14 0.496815 0.957391 0.577004
O O15 0.250000 0.750000 0.178428
O O16 0.750000 0.978434 0.613511
O O17 0.904907 0.250000 0.595972
O O18 0.994655 0.048291 0.651057
O O19 0.750000 0.988441 0.315273
O O20 0.571233 0.250000 0.325310
#
# Coordination Sequence:
#
# PCOD8240990 Si02
#       7
#     8   8   4   8   4   8   8
#     4  10  19  31  51  77 106 143 185 229 282 339
#     4   9  18  33  54  79 107 141 181 228 279 331
#     4   9  18  32  49  77 111 141 181 237 285 331
#     4  11  24  41  61  85 113 146 185 226 270 324
#     4   9  18  32  53  79 109 143 185 231 279 337
#     4  11  24  39  57  84 115 145 182 227 272 324
#     4  10  21  37  57  82 111 143 180 224 274 328
#
# _framework density 19.613558999999999
#
# number of rings (size 3 to 8) (size 9 to 14) (size 15 to 20)
#    0.000    2.000    0.833    2.500    1.167    8.333 
#    0.000    3.333    0.000    2.000    0.000    2.333 
#    0.000    0.000    0.000    0.000    0.000    0.000 
#
# Total GULP energy -595112.858670 kJ/mol
# GULP energy per Si atom -12398.184556 kJ/mol
# Density = 1.956892 g / cm^3
# Si number density = 19.613559 Si / 1000 Ang^3
#
#
#
# Elastic Constant Matrix: (Units=GPa)
#
#
# Indices 1 2 3 4 5 6 
#
# 1 105.7402 35.8714 61.7400 0.0000 0.0000 0.0000
# 2 35.8714 115.9748 66.5699 0.0000 0.0000 0.0000
# 3 61.7400 66.5699 161.2224 0.0000 0.0000 0.0000
# 4 0.0000 0.0000 0.0000 36.9883 0.0000 0.0000
# 5 0.0000 0.0000 0.0000 0.0000 25.3502 0.0000
# 6 0.0000 0.0000 0.0000 0.0000 0.0000 18.8155
#
#
#
# Elastic Compliance Matrix: (Units=1/GPa)
#
#
# Indices 1 2 3 4 5 6 
#
# 1 0.012364 -0.001450 -0.004136 0.000000 0.000000 0.000000
# 2 -0.001450 0.011471 -0.004181 0.000000 0.000000 0.000000
# 3 -0.004136 -0.004181 0.009513 0.000000 0.000000 0.000000
# 4 0.000000 0.000000 0.000000 0.027036 0.000000 0.000000
# 5 0.000000 0.000000 0.000000 0.000000 0.039447 0.000000
# 6 0.000000 0.000000 0.000000 0.000000 0.000000 0.053148
#
#
# Mechanical properties :
#
#
# Convention : Reuss Voigt Hill
#
# Bulk Modulus (GPa) = 72.39350 79.03333 75.71342
# Shear Modulus (GPa) = 28.22980 30.81455 29.52217
#
# Velocity S-wave (km/s) = 3.79793 3.96799 3.88389
# Velocity P-wave (km/s) = 7.49816 7.83428 7.66806
#
# Compressibility (1/GPa) = 0.01381340
#
# Stress axis : x y z
#
# Youngs Moduli (GPa) = 80.87966 87.17560 105.12008
#
# Poissons Ratio (x) = 0.12642 0.43478
# Poissons Ratio (y) = 0.11729 0.43952
# Poissons Ratio (z) = 0.33452 0.36450
#
# Static dielectric constant tensor:
#      x y z
#    x 3.503620 0.000000 0.000000 
#    y 0.000000 3.783080 0.000000 
#    z 0.000000 0.000000 3.757380 
# 
# 
# High freq. dielectric constant tensor:
#      x y z
#    x 1.753270 0.000000 0.000000 
#    y 0.000000 1.773130 0.000000 
#    z 0.000000 0.000000 1.760780 
# 
# From -- ./inp_files/33032.got.cif
#   From: 2010.03.12/outbox.cif.g09.slc.cpg/sg59_17_cif.got.tgz:33032.got - 2010.04.16 16:29:54.
