data_PCOD8240427
_publ_section_title
;
Structure prediction by ZEFSAII (Michael W. Deem and Ramdas Pophale) SiO2 
 PCOD8240427
Probable space group: P M M N
;
_chemical_formula_sum "Si O2"
_cell_formula_units_Z 56
_cell_length_a 8.896979
_cell_length_b 27.834481
_cell_length_c 15.164743
_cell_angle_alpha 90.000000
_cell_angle_beta 90.000000
_cell_angle_gamma 90.000000
_cell_volume 3755.439311
_symmetry_space_group_name_H-M "P M M N"
_symmetry_group_IT_number 59
_space_group.IT_coordinate_system_code '2'
_symmetry_cell_setting 'orthorhombic'
loop_
_space_group_symop_operation_xyz
x,y,z
1/2-x,1/2-y,z
1/2+x,-y,-z
-x,1/2+y,-z
-x,-y,-z
1/2+x,1/2+y,-z
1/2-x,y,z
x,1/2-y,z
loop_
_atom_site_type_symbol
_atom_site_label
_atom_site_fract_x
_atom_site_fract_y
_atom_site_fract_z
Si Si1 0.072698 0.804865 0.031366
Si Si2 0.079570 0.130656 0.094023
Si Si3 0.079656 0.391843 0.903380
Si Si4 0.072356 0.536037 0.225676
Si Si5 0.583980 0.437790 0.430395
Si Si6 0.416373 0.449153 0.597836
Si Si7 0.428504 0.933554 0.763551
O O1 0.250000 0.813584 0.029432
O O2 0.031866 0.750000 0.052529
O O3 0.996740 0.838764 0.106747
O O4 0.002396 0.819722 0.935846
O O5 0.250000 0.141149 0.125010
O O6 0.985960 0.107902 0.172981
O O7 0.079845 0.095282 0.008241
O O8 0.250000 0.390883 0.866108
O O9 0.980088 0.430832 0.854237
O O10 0.250000 0.531214 0.225703
O O11 0.020504 0.560172 0.317486
O O12 0.002404 0.483860 0.210187
O O13 0.750000 0.417566 0.449853
O O14 0.479327 0.421354 0.511596
O O15 0.589723 0.494976 0.423499
O O16 0.524438 0.418254 0.336188
O O17 0.250000 0.429237 0.618023
O O18 0.250000 0.939885 0.770450
#
# Coordination Sequence:
#
# PCOD8240427 Si02
#       7
#     8   8   8   8   8   8   8
#     4   9  17  31  50  68  86 109 137 172 215 257
#     4   9  19  31  45  64  87 114 144 178 212 253
#     4   9  19  32  45  63  87 113 144 179 212 253
#     4  11  20  29  43  60  85 118 150 182 215 254
#     4   8  15  26  39  57  78 107 144 180 216 250
#     4   9  16  26  40  57  79 108 143 182 217 250
#     4  10  19  30  44  60  86 118 149 183 215 252
#
# _framework density 14.911704
#
# number of rings (size 3 to 8) (size 9 to 14) (size 15 to 20)
#    0.857    1.857    0.000    3.857    0.000    5.714 
#    0.000    0.000    0.000    0.000    0.000    0.000 
#    0.000    1.143    0.000   10.000    0.000    5.571 
#
# Total GULP energy -693880.686078 kJ/mol
# GULP energy per Si atom -12390.726537 kJ/mol
# Density = 1.487776 g / cm^3
# Si number density = 14.911704 Si / 1000 Ang^3
#
#
#
# Elastic Constant Matrix: (Units=GPa)
#
#
# Indices 1 2 3 4 5 6 
#
# 1 91.6550 11.0621 10.8934 0.0000 0.0000 0.0000
# 2 11.0621 18.8216 -7.8270 0.0000 0.0000 0.0000
# 3 10.8934 -7.8270 31.5525 0.0000 0.0000 0.0000
# 4 0.0000 0.0000 0.0000 2.5581 0.0000 0.0000
# 5 0.0000 0.0000 0.0000 0.0000 26.9960 0.0000
# 6 0.0000 0.0000 0.0000 0.0000 0.0000 19.7174
#
#
#
# Elastic Compliance Matrix: (Units=1/GPa)
#
#
# Indices 1 2 3 4 5 6 
#
# 1 0.013043 -0.010635 -0.007141 0.000000 0.000000 0.000000
# 2 -0.010635 0.067914 0.020519 0.000000 0.000000 0.000000
# 3 -0.007141 0.020519 0.039249 0.000000 0.000000 0.000000
# 4 0.000000 0.000000 0.000000 0.390917 0.000000 0.000000
# 5 0.000000 0.000000 0.000000 0.000000 0.037042 0.000000
# 6 0.000000 0.000000 0.000000 0.000000 0.000000 0.050717
#
#
# Mechanical properties :
#
#
# Convention : Reuss Voigt Hill
#
# Bulk Modulus (GPa) = 7.95610 18.92067 13.43838
# Shear Modulus (GPa) = 7.87037 18.38101 13.12569
#
# Velocity S-wave (km/s) = 2.29988 3.51473 2.97008
# Velocity P-wave (km/s) = 3.52131 5.40251 4.55998
#
# Compressibility (1/GPa) = 0.12568980
#
# Stress axis : x y z
#
# Youngs Moduli (GPa) = 76.67038 14.72448 25.47858
#
# Poissons Ratio (x) = 0.15660 0.18195
# Poissons Ratio (y) = 0.81542 -0.52279
# Poissons Ratio (z) = 0.54752 -0.30213
#
# Static dielectric constant tensor:
#      x y z
#    x 3.069130 0.000000 0.000000 
#    y 0.000000 2.438550 0.000000 
#    z 0.000000 0.000000 2.956290 
# 
# 
# High freq. dielectric constant tensor:
#      x y z
#    x 1.592200 0.000000 0.000000 
#    y 0.000000 1.512280 0.000000 
#    z 0.000000 0.000000 1.564580 
# 
# From -- ./inp_files/21716.got.cif
#   From: 2010.03.12/outbox.cif.g09.slc.cpg/sg59_11_cif.got.tgz:21716.got - 2010.04.16 16:29:54.
