data_PCOD8240713
_publ_section_title
;
Structure prediction by ZEFSAII (Michael W. Deem and Ramdas Pophale) SiO2 
 PCOD8240713
Probable space group: P M M N
;
_chemical_formula_sum "Si O2"
_cell_formula_units_Z 64
_cell_length_a 29.354343
_cell_length_b 8.858715
_cell_length_c 15.108287
_cell_angle_alpha 90.000000
_cell_angle_beta 90.000000
_cell_angle_gamma 90.000000
_cell_volume 3928.785522
_symmetry_space_group_name_H-M "P M M N"
_symmetry_group_IT_number 59
_space_group.IT_coordinate_system_code '2'
_symmetry_cell_setting 'orthorhombic'
loop_
_space_group_symop_operation_xyz
x,y,z
1/2-x,1/2-y,z
1/2+x,-y,-z
-x,1/2+y,-z
-x,-y,-z
1/2+x,1/2+y,-z
1/2-x,y,z
x,1/2-y,z
loop_
_atom_site_type_symbol
_atom_site_label
_atom_site_fract_x
_atom_site_fract_y
_atom_site_fract_z
Si Si1 0.384506 0.926671 0.706094
Si Si2 0.463066 0.575774 0.383582
Si Si3 0.699585 0.423276 0.034218
Si Si4 0.065324 0.077063 0.554552
Si Si5 0.540333 0.428772 0.813700
Si Si6 0.801801 0.576710 0.219128
Si Si7 0.895690 0.425902 0.967368
Si Si8 0.058977 0.071087 0.863011
O O1 0.391252 0.750000 0.719077
O O2 0.399118 0.975549 0.608143
O O3 0.331819 0.972040 0.717328
O O4 0.413585 0.013771 0.778873
O O5 0.448792 0.750000 0.393775
O O6 0.434432 0.478191 0.453273
O O7 0.516456 0.554912 0.400538
O O8 0.452217 0.509824 0.285909
O O9 0.750000 0.454239 0.992209
O O10 0.696345 0.250000 0.066622
O O11 0.691407 0.529897 0.117528
O O12 0.658959 0.457139 0.964326
O O13 0.081041 0.250000 0.557292
O O14 0.537638 0.250000 0.806816
O O15 0.492973 0.488468 0.855376
O O16 0.582256 0.483055 0.875304
O O17 0.750000 0.553399 0.249315
O O18 0.817150 0.750000 0.227745
O O19 0.906117 0.250000 0.980915
O O20 0.919151 0.511786 0.047439
O O21 0.061117 0.250000 0.863155
#
# Coordination Sequence:
#
# PCOD8240713 Si02
#       8
#     8   8   8   8   8   8   8   8
#     4  12  22  32  49  72  98 130 164 197 238 294
#     4   9  17  32  49  68  94 125 160 201 246 287
#     4   9  17  29  45  67  95 124 157 198 239 280
#     4  10  19  32  50  71  95 122 157 201 243 290
#     4   9  18  32  48  66  94 129 166 205 243 285
#     4  10  20  33  50  71  96 126 159 197 242 289
#     4  10  19  31  47  68  93 129 167 198 239 290
#     4  11  20  32  46  65  96 131 165 203 240 280
#
# _framework density 16.290020999999999
#
# number of rings (size 3 to 8) (size 9 to 14) (size 15 to 20)
#    0.000    2.000    2.500    2.625    0.000    1.250 
#    0.000    1.250    0.000    0.000    0.000    0.875 
#    0.000    3.000    0.000    0.000    0.000    0.000 
#
# Total GULP energy -793538.404460 kJ/mol
# GULP energy per Si atom -12399.037570 kJ/mol
# Density = 1.625294 g / cm^3
# Si number density = 16.290021 Si / 1000 Ang^3
#
#
#
# Elastic Constant Matrix: (Units=GPa)
#
#
# Indices 1 2 3 4 5 6 
#
# 1 100.6765 29.4387 60.8975 0.0000 0.0000 0.0000
# 2 29.4387 50.5721 27.6607 0.0000 0.0000 0.0000
# 3 60.8975 27.6607 109.0235 0.0000 0.0000 0.0000
# 4 0.0000 0.0000 0.0000 20.5595 0.0000 0.0000
# 5 0.0000 0.0000 0.0000 0.0000 20.4221 0.0000
# 6 0.0000 0.0000 0.0000 0.0000 0.0000 19.8700
#
#
#
# Elastic Compliance Matrix: (Units=1/GPa)
#
#
# Indices 1 2 3 4 5 6 
#
# 1 0.016085 -0.005166 -0.007674 0.000000 0.000000 0.000000
# 2 -0.005166 0.024619 -0.003361 0.000000 0.000000 0.000000
# 3 -0.007674 -0.003361 0.014312 0.000000 0.000000 0.000000
# 4 0.000000 0.000000 0.000000 0.048639 0.000000 0.000000
# 5 0.000000 0.000000 0.000000 0.000000 0.048966 0.000000
# 6 0.000000 0.000000 0.000000 0.000000 0.000000 0.050327
#
#
# Mechanical properties :
#
#
# Convention : Reuss Voigt Hill
#
# Bulk Modulus (GPa) = 44.21961 55.14066 49.68014
# Shear Modulus (GPa) = 20.58557 21.65534 21.12045
#
# Velocity S-wave (km/s) = 3.55870 3.65000 3.60464
# Velocity P-wave (km/s) = 6.64003 7.18931 6.92012
#
# Compressibility (1/GPa) = 0.02261440
#
# Stress axis : x y z
#
# Youngs Moduli (GPa) = 62.16834 40.61893 69.87388
#
# Poissons Ratio (x) = 0.20984 0.53622
# Poissons Ratio (y) = 0.32117 0.23481
# Poissons Ratio (z) = 0.47709 0.13650
#
# Static dielectric constant tensor:
#      x y z
#    x 3.244940 0.000000 0.000000 
#    y 0.000000 3.049340 0.000000 
#    z 0.000000 0.000000 3.123380 
# 
# 
# High freq. dielectric constant tensor:
#      x y z
#    x 1.616870 0.000000 0.000000 
#    y 0.000000 1.625930 0.000000 
#    z 0.000000 0.000000 1.606560 
# 
# From -- ./inp_files/25003.got.cif
#   From: 2010.03.12/outbox.cif.g09.slc.cpg/sg59_13_cif.got.tgz:25003.got - 2010.04.16 16:29:54.
