data_PCOD8240164
_publ_section_title
;
Structure prediction by ZEFSAII (Michael W. Deem and Ramdas Pophale) SiO2 
 PCOD8240164
Probable space group: P M M N
;
_chemical_formula_sum "Si O2"
_cell_formula_units_Z 48
_cell_length_a 9.191489
_cell_length_b 9.975879
_cell_length_c 29.181706
_cell_angle_alpha 90.000000
_cell_angle_beta 90.000000
_cell_angle_gamma 90.000000
_cell_volume 2675.763482
_symmetry_space_group_name_H-M "P M M N"
_symmetry_group_IT_number 59
_space_group.IT_coordinate_system_code '2'
_symmetry_cell_setting 'orthorhombic'
loop_
_space_group_symop_operation_xyz
x,y,z
1/2-x,1/2-y,z
1/2+x,-y,-z
-x,1/2+y,-z
-x,-y,-z
1/2+x,1/2+y,-z
1/2-x,y,z
x,1/2-y,z
loop_
_atom_site_type_symbol
_atom_site_label
_atom_site_fract_x
_atom_site_fract_y
_atom_site_fract_z
Si Si1 0.420988 0.903221 0.796370
Si Si2 0.920557 0.593632 0.463864
Si Si3 0.922746 0.250000 0.035203
Si Si4 0.578426 0.474295 0.103631
Si Si5 0.921212 0.750000 0.061208
Si Si6 0.578466 0.096719 0.726411
Si Si7 0.410171 0.908293 0.375310
O O1 0.250000 0.931963 0.794754
O O2 0.456179 0.750000 0.783309
O O3 0.485386 0.933366 0.846979
O O4 0.497192 0.001022 0.761113
O O5 0.750000 0.567632 0.466865
O O6 0.958546 0.750000 0.473076
O O7 0.000000 0.500000 0.500000
O O8 0.974444 0.547118 0.413647
O O9 0.750000 0.250000 0.028198
O O10 0.979487 0.121471 0.063373
O O11 0.996755 0.250000 0.986374
O O12 0.750000 0.456876 0.106229
O O13 0.530162 0.624032 0.091522
O O14 0.750000 0.750000 0.050917
O O15 0.750000 0.085771 0.734165
O O16 0.526512 0.250000 0.734127
O O17 0.537867 0.045455 0.675112
O O18 0.250000 0.968771 0.386961
O O19 0.395668 0.750000 0.373754
#
# Coordination Sequence:
#
# PCOD8240164 Si02
#       7
#     8   8   4   8   4   8   8
#     4  10  20  35  54  76 102 136 177 213 252 308
#     4  10  20  33  52  79 109 141 180 222 263 310
#     4  10  18  34  54  70  96 132 162 196 249 304
#     4   9  18  33  52  72  97 130 165 203 248 300
#     4  10  20  32  50  76 100 122 162 210 247 294
#     4   9  19  35  55  80 107 134 168 214 266 316
#     4   8  15  31  53  74 101 138 175 213 262 314
#
# _framework density 17.938806
#
# number of rings (size 3 to 8) (size 9 to 14) (size 15 to 20)
#    0.000    2.667    0.833    2.000    1.167    2.333 
#    0.000    4.167    0.000    1.000    0.000    0.000 
#    0.000    0.000    0.000    0.000    0.000    0.000 
#
# Total GULP energy -595055.491840 kJ/mol
# GULP energy per Si atom -12396.989413 kJ/mol
# Density = 1.789798 g / cm^3
# Si number density = 17.938806 Si / 1000 Ang^3
#
#
#
# Elastic Constant Matrix: (Units=GPa)
#
#
# Indices 1 2 3 4 5 6 
#
# 1 60.0341 44.7619 58.2168 0.0000 0.0000 0.0000
# 2 44.7619 108.7041 65.1737 0.0000 0.0000 0.0000
# 3 58.2168 65.1737 144.7356 0.0000 0.0000 0.0000
# 4 0.0000 0.0000 0.0000 55.4565 0.0000 0.0000
# 5 0.0000 0.0000 0.0000 0.0000 34.9646 0.0000
# 6 0.0000 0.0000 0.0000 0.0000 0.0000 22.2679
#
#
#
# Elastic Compliance Matrix: (Units=1/GPa)
#
#
# Indices 1 2 3 4 5 6 
#
# 1 0.030976 -0.007240 -0.009199 0.000000 0.000000 0.000000
# 2 -0.007240 0.014293 -0.003524 0.000000 0.000000 0.000000
# 3 -0.009199 -0.003524 0.012196 0.000000 0.000000 0.000000
# 4 0.000000 0.000000 0.000000 0.018032 0.000000 0.000000
# 5 0.000000 0.000000 0.000000 0.000000 0.028600 0.000000
# 6 0.000000 0.000000 0.000000 0.000000 0.000000 0.044908
#
#
# Mechanical properties :
#
#
# Convention : Reuss Voigt Hill
#
# Bulk Modulus (GPa) = 57.01549 72.19762 64.60656
# Shear Modulus (GPa) = 25.67005 32.22589 28.94797
#
# Velocity S-wave (km/s) = 3.78693 4.24303 4.02145
# Velocity P-wave (km/s) = 7.13957 8.02112 7.59315
#
# Compressibility (1/GPa) = 0.01753909
#
# Stress axis : x y z
#
# Youngs Moduli (GPa) = 32.28283 69.96242 81.99152
#
# Poissons Ratio (x) = 0.50651 0.75428
# Poissons Ratio (y) = 0.23372 0.28895
# Poissons Ratio (z) = 0.29699 0.24656
#
# Static dielectric constant tensor:
#      x y z
#    x 3.036830 0.000000 0.000000 
#    y 0.000000 3.349580 0.000000 
#    z 0.000000 0.000000 3.620770 
# 
# 
# High freq. dielectric constant tensor:
#      x y z
#    x 1.672620 0.000000 0.000000 
#    y 0.000000 1.685500 0.000000 
#    z 0.000000 0.000000 1.706850 
# 
# From -- ./inp_files/33027.got.cif
#   From: 2010.03.12/outbox.cif.g09.slc.cpg/sg59_17_cif.got.tgz:33027.got - 2010.04.16 16:29:54.
