data_PCOD8240062
_publ_section_title
;
Structure prediction by ZEFSAII (Michael W. Deem and Ramdas Pophale) SiO2 
 PCOD8240062
Probable space group: P M M N
;
_chemical_formula_sum "Si O2"
_cell_formula_units_Z 56
_cell_length_a 8.989124
_cell_length_b 21.698465
_cell_length_c 14.706694
_cell_angle_alpha 90.000000
_cell_angle_beta 90.000000
_cell_angle_gamma 90.000000
_cell_volume 2868.543496
_symmetry_space_group_name_H-M "P M M N"
_symmetry_group_IT_number 59
_space_group.IT_coordinate_system_code '2'
_symmetry_cell_setting 'orthorhombic'
loop_
_space_group_symop_operation_xyz
x,y,z
1/2-x,1/2-y,z
1/2+x,-y,-z
-x,1/2+y,-z
-x,-y,-z
1/2+x,1/2+y,-z
1/2-x,y,z
x,1/2-y,z
loop_
_atom_site_type_symbol
_atom_site_label
_atom_site_fract_x
_atom_site_fract_y
_atom_site_fract_z
Si Si1 0.423864 0.552479 0.701246
Si Si2 0.076319 0.820618 0.225027
Si Si3 0.074938 0.179254 0.962434
Si Si4 0.425982 0.750000 0.762595
Si Si5 0.078931 0.373379 0.457490
Si Si6 0.926778 0.250000 0.442580
Si Si7 0.420474 0.416724 0.652502
Si Si8 0.923829 0.368311 0.131598
O O1 0.250000 0.560713 0.678972
O O2 0.509149 0.596167 0.631504
O O3 0.476375 0.482298 0.690635
O O4 0.457089 0.572034 0.805804
O O5 0.250000 0.830295 0.209027
O O6 0.039306 0.750000 0.250680
O O7 0.992578 0.840645 0.133607
O O8 0.022037 0.863136 0.306964
O O9 0.250000 0.171722 0.956885
O O10 0.028677 0.250000 0.985768
O O11 0.012248 0.131147 0.036832
O O12 0.250000 0.750000 0.760061
O O13 0.485296 0.750000 0.660692
O O14 0.486130 0.689910 0.812815
O O15 0.250000 0.358193 0.436733
O O16 0.062809 0.418934 0.543450
O O17 0.993959 0.311178 0.487565
O O18 0.750000 0.250000 0.454234
O O19 0.250000 0.404371 0.680904
O O20 0.750000 0.362192 0.109207
#
# Coordination Sequence:
#
# PCOD8240062 Si02
#       8
#     8   8   8   4   8   4   8   8
#     4  10  21  39  60  83 114 159 200 232 278 342
#     4  10  22  40  62  87 111 142 190 242 290 342
#     4  10  20  34  55  85 117 148 181 226 290 348
#     4   9  16  29  51  78 109 148 185 229 278 322
#     4  11  23  37  56  86 120 153 191 241 294 337
#     4  11  21  37  57  82 115 154 195 237 288 346
#     4  10  23  41  60  82 114 153 195 240 289 340
#     4  10  18  32  55  82 113 148 190 230 273 333
#
# _framework density 19.522102
#
# number of rings (size 3 to 8) (size 9 to 14) (size 15 to 20)
#    0.000    1.857    2.143    1.929    1.000    3.714 
#    0.000    0.714    0.000    0.000    0.000    0.000 
#    0.000    0.000    0.000    0.000    0.000    0.000 
#
# Total GULP energy -694520.509374 kJ/mol
# GULP energy per Si atom -12402.151953 kJ/mol
# Density = 1.947767 g / cm^3
# Si number density = 19.522102 Si / 1000 Ang^3
#
#
#
# Elastic Constant Matrix: (Units=GPa)
#
#
# Indices 1 2 3 4 5 6 
#
# 1 84.8258 36.6305 36.8237 0.0000 0.0000 0.0000
# 2 36.6305 89.6621 25.0915 0.0000 0.0000 0.0000
# 3 36.8237 25.0915 80.2645 0.0000 0.0000 0.0000
# 4 0.0000 0.0000 0.0000 26.5053 0.0000 0.0000
# 5 0.0000 0.0000 0.0000 0.0000 35.3115 0.0000
# 6 0.0000 0.0000 0.0000 0.0000 0.0000 22.4947
#
#
#
# Elastic Compliance Matrix: (Units=1/GPa)
#
#
# Indices 1 2 3 4 5 6 
#
# 1 0.016606 -0.005098 -0.006025 0.000000 0.000000 0.000000
# 2 -0.005098 0.013787 -0.001971 0.000000 0.000000 0.000000
# 3 -0.006025 -0.001971 0.015839 0.000000 0.000000 0.000000
# 4 0.000000 0.000000 0.000000 0.037728 0.000000 0.000000
# 5 0.000000 0.000000 0.000000 0.000000 0.028319 0.000000
# 6 0.000000 0.000000 0.000000 0.000000 0.000000 0.044455
#
#
# Mechanical properties :
#
#
# Convention : Reuss Voigt Hill
#
# Bulk Modulus (GPa) = 49.88960 50.20487 50.04724
# Shear Modulus (GPa) = 26.37074 27.27608 26.82341
#
# Velocity S-wave (km/s) = 3.67933 3.74196 3.71077
# Velocity P-wave (km/s) = 6.60764 6.66651 6.63714
#
# Compressibility (1/GPa) = 0.02004426
#
# Stress axis : x y z
#
# Youngs Moduli (GPa) = 60.22001 72.52996 63.13528
#
# Poissons Ratio (x) = 0.36977 0.38037
# Poissons Ratio (y) = 0.30701 0.12445
# Poissons Ratio (z) = 0.36281 0.14297
#
# Static dielectric constant tensor:
#      x y z
#    x 3.438700 0.000000 0.000000 
#    y 0.000000 3.560650 0.000000 
#    z 0.000000 0.000000 3.518640 
# 
# 
# High freq. dielectric constant tensor:
#      x y z
#    x 1.754800 0.000000 0.000000 
#    y 0.000000 1.748350 0.000000 
#    z 0.000000 0.000000 1.762620 
# 
# From -- ./inp_files/21129.got.cif
#   From: 2010.03.12/outbox.cif.g09.slc.cpg/sg59_11_cif.got.tgz:21129.got - 2010.04.16 16:29:54.
