data_PCOD8240308
_publ_section_title
;
Structure prediction by ZEFSAII (Michael W. Deem and Ramdas Pophale) SiO2 
 PCOD8240308
Probable space group: P M M N
;
_chemical_formula_sum "Si O2"
_cell_formula_units_Z 64
_cell_length_a 18.215508
_cell_length_b 9.137948
_cell_length_c 21.592914
_cell_angle_alpha 90.000000
_cell_angle_beta 90.000000
_cell_angle_gamma 90.000000
_cell_volume 3594.191600
_symmetry_space_group_name_H-M "P M M N"
_symmetry_group_IT_number 59
_space_group.IT_coordinate_system_code '2'
_symmetry_cell_setting 'orthorhombic'
loop_
_space_group_symop_operation_xyz
x,y,z
1/2-x,1/2-y,z
1/2+x,-y,-z
-x,1/2+y,-z
-x,-y,-z
1/2+x,1/2+y,-z
1/2-x,y,z
x,1/2-y,z
loop_
_atom_site_type_symbol
_atom_site_label
_atom_site_fract_x
_atom_site_fract_y
_atom_site_fract_z
Si Si1 0.831618 0.417531 0.628896
Si Si2 0.958913 0.082034 0.323627
Si Si3 0.389691 0.082620 0.257162
Si Si4 0.162850 0.912705 0.900217
Si Si5 0.835764 0.079222 0.860699
Si Si6 0.837372 0.586092 0.982868
Si Si7 0.668451 0.075577 0.235817
Si Si8 0.022064 0.578427 0.437507
O O1 0.750000 0.440212 0.600367
O O2 0.843497 0.250000 0.650133
O O3 0.838261 0.517657 0.689242
O O4 0.892631 0.459026 0.577595
O O5 0.948749 0.250000 0.345377
O O6 0.887275 0.020411 0.288392
O O7 0.025936 0.068953 0.276329
O O8 0.970161 0.981199 0.383222
O O9 0.366157 0.250000 0.246184
O O10 0.380748 0.992878 0.194594
O O11 0.250000 0.902508 0.905857
O O12 0.129331 0.750000 0.908595
O O13 0.142960 0.979087 0.832465
O O14 0.130324 0.015860 0.954064
O O15 0.750000 0.048156 0.850047
O O16 0.853110 0.250000 0.863165
O O17 0.864000 0.008577 0.924500
O O18 0.750000 0.587367 0.985715
O O19 0.868558 0.750000 0.976477
O O20 0.750000 0.016303 0.251993
O O21 0.669113 0.250000 0.233293
O O22 0.008845 0.750000 0.444895
O O23 0.000000 0.500000 0.500000
#
# Coordination Sequence:
#
# PCOD8240308 Si02
#       8
#     8   8   8   8   8   8   8   8
#     4   9  18  33  52  73  96 124 162 202 233 268
#     4   9  18  33  52  74  99 126 156 190 230 277
#     4  10  19  29  44  68  97 126 154 190 238 285
#     4   8  13  23  41  64  88 115 150 191 233 277
#     4  10  19  29  42  61  87 121 160 199 236 277
#     4   9  16  25  38  59  88 119 151 191 240 288
#     4   8  14  27  50  76  97 121 157 197 233 275
#     4  10  20  35  55  76 100 131 163 194 231 277
#
# _framework density 17.806507
#
# number of rings (size 3 to 8) (size 9 to 14) (size 15 to 20)
#    0.000    2.875    0.000    2.625    0.000    5.000 
#    0.000    1.250    0.000    5.625    0.000    0.000 
#    0.000    0.000    0.000    0.000    0.000    0.000 
#
# Total GULP energy -793457.476787 kJ/mol
# GULP energy per Si atom -12397.773075 kJ/mol
# Density = 1.776598 g / cm^3
# Si number density = 17.806507 Si / 1000 Ang^3
#
#
#
# Elastic Constant Matrix: (Units=GPa)
#
#
# Indices 1 2 3 4 5 6 
#
# 1 69.8586 36.4447 62.0941 0.0000 0.0000 0.0000
# 2 36.4447 102.0930 72.0374 0.0000 0.0000 0.0000
# 3 62.0941 72.0374 152.0426 0.0000 0.0000 0.0000
# 4 0.0000 0.0000 0.0000 31.6678 0.0000 0.0000
# 5 0.0000 0.0000 0.0000 0.0000 19.8166 0.0000
# 6 0.0000 0.0000 0.0000 0.0000 0.0000 17.1376
#
#
#
# Elastic Compliance Matrix: (Units=1/GPa)
#
#
# Indices 1 2 3 4 5 6 
#
# 1 0.022845 -0.002361 -0.008211 0.000000 0.000000 0.000000
# 2 -0.002361 0.014958 -0.006123 0.000000 0.000000 0.000000
# 3 -0.008211 -0.006123 0.012831 0.000000 0.000000 0.000000
# 4 0.000000 0.000000 0.000000 0.031578 0.000000 0.000000
# 5 0.000000 0.000000 0.000000 0.000000 0.050463 0.000000
# 6 0.000000 0.000000 0.000000 0.000000 0.000000 0.058351
#
#
# Mechanical properties :
#
#
# Convention : Reuss Voigt Hill
#
# Bulk Modulus (GPa) = 57.99037 73.90519 65.94778
# Shear Modulus (GPa) = 21.72358 23.95229 22.83794
#
# Velocity S-wave (km/s) = 3.49661 3.67160 3.58517
# Velocity P-wave (km/s) = 6.99567 7.71809 7.36574
#
# Compressibility (1/GPa) = 0.01724424
#
# Stress axis : x y z
#
# Youngs Moduli (GPa) = 43.77333 66.85302 77.93339
#
# Poissons Ratio (x) = 0.15786 0.63992
# Poissons Ratio (y) = 0.10336 0.47717
# Poissons Ratio (z) = 0.35943 0.40933
#
# Static dielectric constant tensor:
#      x y z
#    x 3.157470 0.000000 0.000000 
#    y 0.000000 3.360660 0.000000 
#    z 0.000000 0.000000 3.327960 
# 
# 
# High freq. dielectric constant tensor:
#      x y z
#    x 1.657630 0.000000 0.000000 
#    y 0.000000 1.684130 0.000000 
#    z 0.000000 0.000000 1.687480 
# 
# From -- ./inp_files/30846.got.cif
#   From: 2010.03.12/outbox.cif.g09.slc.cpg/sg59_16_cif.got.tgz:30846.got - 2010.04.16 16:29:54.
