data_PCOD8240649
_publ_section_title
;
Structure prediction by ZEFSAII (Michael W. Deem and Ramdas Pophale) SiO2 
 PCOD8240649
Probable space group: P M M N
;
_chemical_formula_sum "Si O2"
_cell_formula_units_Z 40
_cell_length_a 29.034342
_cell_length_b 9.063869
_cell_length_c 7.956429
_cell_angle_alpha 90.000000
_cell_angle_beta 90.000000
_cell_angle_gamma 90.000000
_cell_volume 2093.841483
_symmetry_space_group_name_H-M "P M M N"
_symmetry_group_IT_number 59
_space_group.IT_coordinate_system_code '2'
_symmetry_cell_setting 'orthorhombic'
loop_
_space_group_symop_operation_xyz
x,y,z
1/2-x,1/2-y,z
1/2+x,-y,-z
-x,1/2+y,-z
-x,-y,-z
1/2+x,1/2+y,-z
1/2-x,y,z
x,1/2-y,z
loop_
_atom_site_type_symbol
_atom_site_label
_atom_site_fract_x
_atom_site_fract_y
_atom_site_fract_z
Si Si1 0.950292 0.580996 0.839682
Si Si2 0.644084 0.578348 0.684150
Si Si3 0.302069 0.426170 0.996301
Si Si4 0.947323 0.079968 0.184681
Si Si5 0.638230 0.925342 0.316983
O O1 0.946529 0.750000 0.905812
O O2 0.910275 0.546502 0.706357
O O3 0.000006 0.554277 0.753488
O O4 0.942740 0.471600 0.993411
O O5 0.654677 0.750000 0.692932
O O6 0.674093 0.506813 0.835260
O O7 0.658212 0.520516 0.498260
O O8 0.250000 0.485331 0.988394
O O9 0.303402 0.250000 0.996328
O O10 0.329118 0.485412 0.832002
O O11 0.933129 0.250000 0.194983
O O12 0.913251 0.987435 0.301036
O O13 0.634682 0.750000 0.312453
#
# Coordination Sequence:
#
# PCOD8240649 Si02
#       5
#     8   8   8   8   8
#     4   9  17  32  51  72 101 135 172 209 246 292
#     4   9  17  30  50  74 100 131 164 202 248 296
#     4   9  17  30  50  76 102 126 160 209 254 292
#     4  10  19  30  49  75 102 134 171 208 245 293
#     4  10  19  32  52  75 102 134 164 200 251 302
#
# _framework density 19.103643999999999
#
# number of rings (size 3 to 8) (size 9 to 14) (size 15 to 20)
#    0.000    2.600    2.000    0.600    0.000    2.400 
#    0.000    5.000    0.000    0.600    0.000    0.000 
#    0.000    0.000    0.000    0.000    0.000    0.000 
#
# Total GULP energy -495761.011314 kJ/mol
# GULP energy per Si atom -12394.025283 kJ/mol
# Density = 1.906016 g / cm^3
# Si number density = 19.103644 Si / 1000 Ang^3
#
#
#
# Elastic Constant Matrix: (Units=GPa)
#
#
# Indices 1 2 3 4 5 6 
#
# 1 133.8059 18.6932 82.8787 0.0000 0.0000 0.0000
# 2 18.6932 20.3125 16.7075 0.0000 0.0000 0.0000
# 3 82.8787 16.7075 163.0305 0.0000 0.0000 0.0000
# 4 0.0000 0.0000 0.0000 11.2621 0.0000 0.0000
# 5 0.0000 0.0000 0.0000 0.0000 16.6146 0.0000
# 6 0.0000 0.0000 0.0000 0.0000 0.0000 19.5313
#
#
#
# Elastic Compliance Matrix: (Units=1/GPa)
#
#
# Indices 1 2 3 4 5 6 
#
# 1 0.011617 -0.006370 -0.005253 0.000000 0.000000 0.000000
# 2 -0.006370 0.057256 -0.002629 0.000000 0.000000 0.000000
# 3 -0.005253 -0.002629 0.009074 0.000000 0.000000 0.000000
# 4 0.000000 0.000000 0.000000 0.088793 0.000000 0.000000
# 5 0.000000 0.000000 0.000000 0.000000 0.060188 0.000000
# 6 0.000000 0.000000 0.000000 0.000000 0.000000 0.051200
#
#
# Mechanical properties :
#
#
# Convention : Reuss Voigt Hill
#
# Bulk Modulus (GPa) = 20.22582 61.52305 40.87443
# Shear Modulus (GPa) = 15.47445 22.73957 19.10701
#
# Velocity S-wave (km/s) = 2.84918 3.45385 3.16599
# Velocity P-wave (km/s) = 4.62971 6.94120 5.89977
#
# Compressibility (1/GPa) = 0.04944175
#
# Stress axis : x y z
#
# Youngs Moduli (GPa) = 86.08028 17.46549 110.20968
#
# Poissons Ratio (x) = 0.11126 0.57891
# Poissons Ratio (y) = 0.54836 0.28976
# Poissons Ratio (z) = 0.45217 0.04592
#
# Static dielectric constant tensor:
#      x y z
#    x 3.711910 0.000000 0.000000 
#    y 0.000000 3.047640 0.000000 
#    z 0.000000 0.000000 3.658970 
# 
# 
# High freq. dielectric constant tensor:
#      x y z
#    x 1.745870 0.000000 0.000000 
#    y 0.000000 1.689170 0.000000 
#    z 0.000000 0.000000 1.740360 
# 
# From -- ./inp_files/5832.got.cif
#   From: 2010.03.12/outbox.cif.g09.slc.cpg/sg59_3_cif.got.tgz:5832.got - 2010.04.16 16:29:54.
