data_PCOD8240069
_publ_section_title
;
Structure prediction by ZEFSAII (Michael W. Deem and Ramdas Pophale) SiO2 
 PCOD8240069
Probable space group: P M M N
;
_chemical_formula_sum "Si O2"
_cell_formula_units_Z 56
_cell_length_a 9.195858
_cell_length_b 14.452731
_cell_length_c 22.488324
_cell_angle_alpha 90.000000
_cell_angle_beta 90.000000
_cell_angle_gamma 90.000000
_cell_volume 2988.816593
_symmetry_space_group_name_H-M "P M M N"
_symmetry_group_IT_number 59
_space_group.IT_coordinate_system_code '2'
_symmetry_cell_setting 'orthorhombic'
loop_
_space_group_symop_operation_xyz
x,y,z
1/2-x,1/2-y,z
1/2+x,-y,-z
-x,1/2+y,-z
-x,-y,-z
1/2+x,1/2+y,-z
1/2-x,y,z
x,1/2-y,z
loop_
_atom_site_type_symbol
_atom_site_label
_atom_site_fract_x
_atom_site_fract_y
_atom_site_fract_z
Si Si1 0.082906 0.359637 0.108224
Si Si2 0.077686 0.557098 0.665385
Si Si3 0.580540 0.948118 0.447566
Si Si4 0.413952 0.860060 0.006908
Si Si5 0.583261 0.750000 0.491267
Si Si6 0.082677 0.145168 0.877803
Si Si7 0.580298 0.022878 0.202997
Si Si8 0.922531 0.250000 0.385331
O O1 0.250000 0.390480 0.105173
O O2 0.066953 0.250000 0.112858
O O3 0.003395 0.398712 0.049283
O O4 0.007801 0.402104 0.165821
O O5 0.250000 0.555941 0.666618
O O6 0.020625 0.485211 0.615627
O O7 0.019024 0.526470 0.729822
O O8 0.020663 0.659943 0.649850
O O9 0.750000 0.971294 0.454365
O O10 0.549438 0.838871 0.450575
O O11 0.500000 0.000000 0.500000
O O12 0.250000 0.898476 0.003638
O O13 0.416857 0.750000 0.005780
O O14 0.487959 0.894416 0.067723
O O15 0.750000 0.750000 0.513065
O O16 0.482402 0.750000 0.548397
O O17 0.250000 0.141424 0.898103
O O18 0.037969 0.250000 0.860538
O O19 0.053261 0.080854 0.820902
O O20 0.750000 0.049680 0.199677
O O21 0.750000 0.250000 0.390727
#
# Coordination Sequence:
#
# PCOD8240069 Si02
#       8
#     8   8   8   8   4   8   8   4
#     4  10  21  36  53  77 109 140 170 213 267 315
#     4   9  19  34  53  78 106 140 179 216 256 308
#     4  10  19  34  54  79 110 140 175 219 264 310
#     4   9  17  31  54  81 104 133 174 217 262 313
#     4  10  20  32  52  84 112 136 169 220 273 308
#     4   9  18  34  54  76 103 134 171 219 269 313
#     4  10  21  36  54  76 102 139 182 216 254 310
#     4  10  18  32  56  80 104 140 179 212 255 314
#
# _framework density 18.736512999999999
#
# number of rings (size 3 to 8) (size 9 to 14) (size 15 to 20)
#    0.000    2.429    1.429    0.857    1.000    3.714 
#    1.286    1.429    0.000    0.000    0.000    0.000 
#    0.000    0.000    0.000    0.000    0.000    0.000 
#
# Total GULP energy -694450.419731 kJ/mol
# GULP energy per Si atom -12400.900352 kJ/mol
# Density = 1.869387 g / cm^3
# Si number density = 18.736513 Si / 1000 Ang^3
#
#
#
# Elastic Constant Matrix: (Units=GPa)
#
#
# Indices 1 2 3 4 5 6 
#
# 1 73.7509 40.3050 56.4448 0.0000 0.0000 0.0000
# 2 40.3050 104.1791 75.0602 0.0000 0.0000 0.0000
# 3 56.4448 75.0602 183.0046 0.0000 0.0000 0.0000
# 4 0.0000 0.0000 0.0000 31.2926 0.0000 0.0000
# 5 0.0000 0.0000 0.0000 0.0000 26.4401 0.0000
# 6 0.0000 0.0000 0.0000 0.0000 0.0000 19.4430
#
#
#
# Elastic Compliance Matrix: (Units=1/GPa)
#
#
# Indices 1 2 3 4 5 6 
#
# 1 0.019109 -0.004466 -0.004062 0.000000 0.000000 0.000000
# 2 -0.004466 0.014669 -0.004639 0.000000 0.000000 0.000000
# 3 -0.004062 -0.004639 0.008620 0.000000 0.000000 0.000000
# 4 0.000000 0.000000 0.000000 0.031956 0.000000 0.000000
# 5 0.000000 0.000000 0.000000 0.000000 0.037821 0.000000
# 6 0.000000 0.000000 0.000000 0.000000 0.000000 0.051432
#
#
# Mechanical properties :
#
#
# Convention : Reuss Voigt Hill
#
# Bulk Modulus (GPa) = 62.25360 78.28384 70.26872
# Shear Modulus (GPa) = 25.60201 28.04344 26.82272
#
# Velocity S-wave (km/s) = 3.70053 3.87295 3.78772
# Velocity P-wave (km/s) = 7.18028 7.86586 7.53088
#
# Compressibility (1/GPa) = 0.01606333
#
# Stress axis : x y z
#
# Youngs Moduli (GPa) = 52.33202 68.17008 116.01026
#
# Poissons Ratio (x) = 0.30446 0.47123
# Poissons Ratio (y) = 0.23373 0.53818
# Poissons Ratio (z) = 0.21257 0.31625
#
# Static dielectric constant tensor:
#      x y z
#    x 3.353700 0.000000 0.000000 
#    y 0.000000 3.585470 0.000000 
#    z 0.000000 0.000000 3.579980 
# 
# 
# High freq. dielectric constant tensor:
#      x y z
#    x 1.709970 0.000000 0.000000 
#    y 0.000000 1.733660 0.000000 
#    z 0.000000 0.000000 1.722800 
# 
# From -- ./inp_files/29235.got.cif
#   From: 2010.03.12/outbox.cif.g09.slc.cpg/sg59_15_cif.got.tgz:29235.got - 2010.04.16 16:29:54.
