data_PCOD8240209
_publ_section_title
;
Structure prediction by ZEFSAII (Michael W. Deem and Ramdas Pophale) SiO2 
 PCOD8240209
Probable space group: P M M N
;
_chemical_formula_sum "Si O2"
_cell_formula_units_Z 40
_cell_length_a 11.328844
_cell_length_b 8.501606
_cell_length_c 20.068286
_cell_angle_alpha 90.000000
_cell_angle_beta 90.000000
_cell_angle_gamma 90.000000
_cell_volume 1932.844217
_symmetry_space_group_name_H-M "P M M N"
_symmetry_group_IT_number 59
_space_group.IT_coordinate_system_code '2'
_symmetry_cell_setting 'orthorhombic'
loop_
_space_group_symop_operation_xyz
x,y,z
1/2-x,1/2-y,z
1/2+x,-y,-z
-x,1/2+y,-z
-x,-y,-z
1/2+x,1/2+y,-z
1/2-x,y,z
x,1/2-y,z
loop_
_atom_site_type_symbol
_atom_site_label
_atom_site_fract_x
_atom_site_fract_y
_atom_site_fract_z
Si Si1 0.250000 0.069177 0.646930
Si Si2 0.377907 0.434529 0.306517
Si Si3 0.386290 0.436457 0.040918
Si Si4 0.533865 0.066019 0.428871
Si Si5 0.998961 0.937231 0.823923
Si Si6 0.750000 0.435344 0.206898
O O1 0.250000 0.250000 0.667574
O O2 0.141074 0.030719 0.600211
O O3 0.250000 0.969712 0.714445
O O4 0.250000 0.513731 0.303146
O O5 0.369987 0.250000 0.293708
O O6 0.426376 0.469192 0.379493
O O7 0.454440 0.507822 0.246393
O O8 0.250000 0.495113 0.022377
O O9 0.388133 0.250000 0.034247
O O10 0.413820 0.492992 0.116395
O O11 0.500000 0.500000 0.000000
O O12 0.565176 0.250000 0.432875
O O13 0.500000 0.000000 0.500000
O O14 0.001643 0.750000 0.822408
O O15 0.133688 0.002319 0.830830
O O16 0.750000 0.250000 0.201084
#
# Coordination Sequence:
#
# PCOD8240209 Si02
#       6
#     4   8   8   8   8   4
#     4  12  24  40  60  84 118 157 202 247 300 363
#     4   9  17  31  55  84 110 140 184 238 292 350
#     4  10  22  39  61  91 125 162 208 255 304 370
#     4  11  23  39  59  85 118 153 196 248 302 359
#     4   9  17  32  58  87 115 149 197 249 298 358
#     4  10  18  34  60  90 114 147 200 255 310 363
#
# _framework density 20.694889
#
# number of rings (size 3 to 8) (size 9 to 14) (size 15 to 20)
#    0.000    2.000    2.000    2.100    2.800    2.800 
#    0.000    1.000    0.000    0.000    0.000    0.000 
#    0.000    0.000    0.000    0.000    0.000    0.000 
#
# Total GULP energy -495553.279408 kJ/mol
# GULP energy per Si atom -12388.831985 kJ/mol
# Density = 2.064779 g / cm^3
# Si number density = 20.694889 Si / 1000 Ang^3
#
#
#
# Elastic Constant Matrix: (Units=GPa)
#
#
# Indices 1 2 3 4 5 6 
#
# 1 187.6748 19.4474 53.3807 0.0000 0.0000 0.0000
# 2 19.4474 26.6416 7.6867 0.0000 0.0000 0.0000
# 3 53.3807 7.6867 106.8998 0.0000 0.0000 0.0000
# 4 0.0000 0.0000 0.0000 25.1619 0.0000 0.0000
# 5 0.0000 0.0000 0.0000 0.0000 39.3454 0.0000
# 6 0.0000 0.0000 0.0000 0.0000 0.0000 -50.1582
#
#
#
# Elastic Compliance Matrix: (Units=1/GPa)
#
#
# Indices 1 2 3 4 5 6 
#
# 1 0.006593 -0.003944 -0.003009 0.000000 0.000000 0.000000
# 2 -0.003944 0.040691 -0.000956 0.000000 0.000000 0.000000
# 3 -0.003009 -0.000956 0.010926 0.000000 0.000000 0.000000
# 4 0.000000 0.000000 0.000000 0.039743 0.000000 0.000000
# 5 0.000000 0.000000 0.000000 0.000000 0.025416 0.000000
# 6 0.000000 0.000000 0.000000 0.000000 0.000000 -0.019937
#
#
# Mechanical properties :
#
#
# Convention : Reuss Voigt Hill
#
# Bulk Modulus (GPa) = 23.59013 53.58284 38.58649
# Shear Modulus (GPa) = 37.48708 18.91657 28.20183
#
# Velocity S-wave (km/s) = 4.26069 3.02664 3.69554
# Velocity P-wave (km/s) = 5.96896 6.17755 6.07415
#
# Compressibility (1/GPa) = 0.04239060
#
# Stress axis : x y z
#
# Youngs Moduli (GPa) = 151.68020 24.57573 91.52800
#
# Poissons Ratio (x) = 0.09694 0.27536
# Poissons Ratio (y) = 0.59830 0.08752
# Poissons Ratio (z) = 0.45633 0.02350
#
# Static dielectric constant tensor:
#      x y z
#    x 4.398430 0.000000 0.000000 
#    y 0.000000 3.339450 0.000000 
#    z 0.000000 0.000000 3.843940 
# 
# 
# High freq. dielectric constant tensor:
#      x y z
#    x 1.834010 0.000000 0.000000 
#    y 0.000000 1.758960 0.000000 
#    z 0.000000 0.000000 1.815460 
# 
# From -- ./inp_files/29923.got.cif
#   From: 2010.03.12/outbox.cif.g09.slc.cpg/sg59_15_cif.got.tgz:29923.got - 2010.04.16 16:29:54.
