data_PCOD8240326
_publ_section_title
;
Structure prediction by ZEFSAII (Michael W. Deem and Ramdas Pophale) SiO2 
 PCOD8240326
Probable space group: P M M N
;
_chemical_formula_sum "Si O2"
_cell_formula_units_Z 56
_cell_length_a 9.398463
_cell_length_b 25.335875
_cell_length_c 15.108242
_cell_angle_alpha 90.000000
_cell_angle_beta 90.000000
_cell_angle_gamma 90.000000
_cell_volume 3597.548656
_symmetry_space_group_name_H-M "P M M N"
_symmetry_group_IT_number 59
_space_group.IT_coordinate_system_code '2'
_symmetry_cell_setting 'orthorhombic'
loop_
_space_group_symop_operation_xyz
x,y,z
1/2-x,1/2-y,z
1/2+x,-y,-z
-x,1/2+y,-z
-x,-y,-z
1/2+x,1/2+y,-z
1/2-x,y,z
x,1/2-y,z
loop_
_atom_site_type_symbol
_atom_site_label
_atom_site_fract_x
_atom_site_fract_y
_atom_site_fract_z
Si Si1 0.592121 0.687324 0.077806
Si Si2 0.915338 0.811072 0.747084
Si Si3 0.582994 0.115704 0.592478
Si Si4 0.584554 0.613237 0.590631
Si Si5 0.085595 0.311706 0.723706
Si Si6 0.089381 0.998671 0.413428
Si Si7 0.090317 0.812839 0.916487
O O1 0.750000 0.664879 0.058255
O O2 0.597792 0.750000 0.071272
O O3 0.543354 0.671171 0.176477
O O4 0.483599 0.664073 0.005108
O O5 0.750000 0.820382 0.768519
O O6 0.947527 0.750000 0.726963
O O7 0.965478 0.843817 0.661844
O O8 0.003731 0.832003 0.830873
O O9 0.750000 0.127789 0.582081
O O10 0.510350 0.120396 0.496458
O O11 0.515820 0.157948 0.657340
O O12 0.555813 0.056934 0.635992
O O13 0.750000 0.621927 0.565019
O O14 0.562481 0.554702 0.636198
O O15 0.250000 0.325745 0.705082
O O16 0.058967 0.250000 0.709319
O O17 0.250000 0.996264 0.446539
O O18 0.000000 0.000000 0.500000
O O19 0.250000 0.835427 0.911569
O O20 0.091057 0.750000 0.920238
#
# Coordination Sequence:
#
# PCOD8240326 Si02
#       7
#     8   8   8   8   8   8   8
#     4   8  14  26  43  60  79 106 140 174 203 237
#     4   9  17  28  42  61  84 111 143 174 204 244
#     4  10  19  29  43  64  88 112 140 178 220 255
#     4   9  17  30  46  61  82 115 150 180 209 246
#     4   9  18  31  45  62  86 116 146 172 203 251
#     4   8  15  28  44  61  80 105 141 181 217 250
#     4   9  16  25  39  60  85 111 136 166 207 250
#
# _framework density 15.566155999999999
#
# number of rings (size 3 to 8) (size 9 to 14) (size 15 to 20)
#    0.000    3.143    0.000    1.714    0.000    4.286 
#    0.000    2.857    0.000    0.000    0.000    1.000 
#    0.000    0.000    0.000    0.000    0.000    0.000 
#
# Total GULP energy -693776.904759 kJ/mol
# GULP energy per Si atom -12388.873299 kJ/mol
# Density = 1.553073 g / cm^3
# Si number density = 15.566156 Si / 1000 Ang^3
#
#
#
# Elastic Constant Matrix: (Units=GPa)
#
#
# Indices 1 2 3 4 5 6 
#
# 1 88.4233 41.8037 65.2158 0.0000 0.0000 0.0000
# 2 41.8037 63.4962 51.1688 0.0000 0.0000 0.0000
# 3 65.2158 51.1688 111.1837 0.0000 0.0000 0.0000
# 4 0.0000 0.0000 0.0000 -0.1129 0.0000 0.0000
# 5 0.0000 0.0000 0.0000 0.0000 18.1261 0.0000
# 6 0.0000 0.0000 0.0000 0.0000 0.0000 15.6407
#
#
#
# Elastic Compliance Matrix: (Units=1/GPa)
#
#
# Indices 1 2 3 4 5 6 
#
# 1 0.021418 -0.006321 -0.009654 0.000000 0.000000 0.000000
# 2 -0.006321 0.026899 -0.008671 0.000000 0.000000 0.000000
# 3 -0.009654 -0.008671 0.018647 0.000000 0.000000 0.000000
# 4 0.000000 0.000000 0.000000 -8.861183 0.000000 0.000000
# 5 0.000000 0.000000 0.000000 0.000000 0.055169 0.000000
# 6 0.000000 0.000000 0.000000 0.000000 0.000000 0.063936
#
#
# Mechanical properties :
#
#
# Convention : Reuss Voigt Hill
#
# Bulk Modulus (GPa) = 56.58990 64.38663 60.48827
# Shear Modulus (GPa) = -0.58005 13.72513 6.57254
#
# Velocity S-wave (km/s) = -0.61110 2.97261 2.05706
# Velocity P-wave (km/s) = 5.99462 7.29623 6.67721
#
# Compressibility (1/GPa) = 0.01767100
#
# Stress axis : x y z
#
# Youngs Moduli (GPa) = 46.69062 37.17670 53.62722
#
# Poissons Ratio (x) = 0.23500 0.51769
# Poissons Ratio (y) = 0.29514 0.46502
# Poissons Ratio (z) = 0.45073 0.32238
#
# Static dielectric constant tensor:
#      x y z
#    x 3.128050 0.000000 0.000000 
#    y 0.000000 3.154360 0.000000 
#    z 0.000000 0.000000 2.860640 
# 
# 
# High freq. dielectric constant tensor:
#      x y z
#    x 1.605660 0.000000 0.000000 
#    y 0.000000 1.569110 0.000000 
#    z 0.000000 0.000000 1.580040 
# 
# From -- ./inp_files/21739.got.cif
#   From: 2010.03.12/outbox.cif.g09.slc.cpg/sg59_11_cif.got.tgz:21739.got - 2010.04.16 16:29:54.
