data_PCOD8240127
_publ_section_title
;
Structure prediction by ZEFSAII (Michael W. Deem and Ramdas Pophale) SiO2 
 PCOD8240127
Probable space group: P M M N
;
_chemical_formula_sum "Si O2"
_cell_formula_units_Z 64
_cell_length_a 8.835843
_cell_length_b 19.399217
_cell_length_c 18.938460
_cell_angle_alpha 90.000000
_cell_angle_beta 90.000000
_cell_angle_gamma 90.000000
_cell_volume 3246.211804
_symmetry_space_group_name_H-M "P M M N"
_symmetry_group_IT_number 59
_space_group.IT_coordinate_system_code '2'
_symmetry_cell_setting 'orthorhombic'
loop_
_space_group_symop_operation_xyz
x,y,z
1/2-x,1/2-y,z
1/2+x,-y,-z
-x,1/2+y,-z
-x,-y,-z
1/2+x,1/2+y,-z
1/2-x,y,z
x,1/2-y,z
loop_
_atom_site_type_symbol
_atom_site_label
_atom_site_fract_x
_atom_site_fract_y
_atom_site_fract_z
Si Si1 0.420572 0.480059 0.705142
Si Si2 0.567986 0.926312 0.924083
Si Si3 0.431008 0.438841 0.861580
Si Si4 0.420324 0.175613 0.191738
Si Si5 0.080512 0.637359 0.677540
Si Si6 0.070556 0.825525 0.526776
Si Si7 0.569596 0.168652 0.953796
Si Si8 0.927508 0.048881 0.558879
O O1 0.250000 0.454015 0.691697
O O2 0.481156 0.452104 0.780364
O O3 0.427710 0.561586 0.708990
O O4 0.521900 0.457632 0.639391
O O5 0.750000 0.931999 0.929735
O O6 0.508268 0.883542 0.856502
O O7 0.495093 0.002300 0.915637
O O8 0.507252 0.880971 0.988624
O O9 0.250000 0.437453 0.869377
O O10 0.505102 0.364664 0.881123
O O11 0.250000 0.154022 0.207078
O O12 0.431592 0.250000 0.152676
O O13 0.498428 0.185625 0.266897
O O14 0.250000 0.664821 0.671637
O O15 0.004502 0.643393 0.600236
O O16 0.250000 0.822754 0.532094
O O17 0.001384 0.750000 0.513323
O O18 0.023140 0.873877 0.462192
O O19 0.750000 0.162048 0.957522
O O20 0.522452 0.250000 0.959766
O O21 0.750000 0.036048 0.554330
O O22 0.000000 0.000000 0.500000
#
# Coordination Sequence:
#
# PCOD8240127 Si02
#       8
#     8   8   8   8   8   8   8   8
#     4  10  21  38  59  87 117 148 195 244 290 350
#     4  11  22  38  62  90 123 160 199 241 293 358
#     4  11  23  41  65  90 122 158 197 250 303 358
#     4  10  21  34  49  78 120 158 192 233 282 341
#     4  10  18  33  55  78 110 149 192 237 281 344
#     4   9  18  33  53  79 110 146 188 232 281 338
#     4  11  25  44  65  90 120 155 201 253 302 358
#     4  11  21  35  58  84 114 152 193 241 290 343
#
# _framework density 19.715288000000001
#
# number of rings (size 3 to 8) (size 9 to 14) (size 15 to 20)
#    0.000    1.625    2.500    2.625    0.000    4.250 
#    0.000    0.625    0.000    4.500    0.000    0.000 
#    0.000    0.000    0.000    0.000    0.000    0.000 
#
# Total GULP energy -793086.878618 kJ/mol
# GULP energy per Si atom -12391.982478 kJ/mol
# Density = 1.967041 g / cm^3
# Si number density = 19.715288 Si / 1000 Ang^3
#
#
#
# Elastic Constant Matrix: (Units=GPa)
#
#
# Indices 1 2 3 4 5 6 
#
# 1 72.1986 43.1878 36.1082 0.0000 0.0000 0.0000
# 2 43.1878 113.5003 55.6130 0.0000 0.0000 0.0000
# 3 36.1082 55.6130 107.3967 0.0000 0.0000 0.0000
# 4 0.0000 0.0000 0.0000 28.9194 0.0000 0.0000
# 5 0.0000 0.0000 0.0000 0.0000 34.1643 0.0000
# 6 0.0000 0.0000 0.0000 0.0000 0.0000 24.8549
#
#
#
# Elastic Compliance Matrix: (Units=1/GPa)
#
#
# Indices 1 2 3 4 5 6 
#
# 1 0.018876 -0.005458 -0.003520 0.000000 0.000000 0.000000
# 2 -0.005458 0.013384 -0.005096 0.000000 0.000000 0.000000
# 3 -0.003520 -0.005096 0.013134 0.000000 0.000000 0.000000
# 4 0.000000 0.000000 0.000000 0.034579 0.000000 0.000000
# 5 0.000000 0.000000 0.000000 0.000000 0.029270 0.000000
# 6 0.000000 0.000000 0.000000 0.000000 0.000000 0.040234
#
#
# Mechanical properties :
#
#
# Convention : Reuss Voigt Hill
#
# Bulk Modulus (GPa) = 57.98324 62.54596 60.26460
# Shear Modulus (GPa) = 27.26699 28.13348 27.70023
#
# Velocity S-wave (km/s) = 3.72296 3.78165 3.75242
# Velocity P-wave (km/s) = 6.92493 7.13171 7.02908
#
# Compressibility (1/GPa) = 0.01724636
#
# Stress axis : x y z
#
# Youngs Moduli (GPa) = 52.97777 74.71614 76.14110
#
# Poissons Ratio (x) = 0.40777 0.26803
# Poissons Ratio (y) = 0.28913 0.38799
# Poissons Ratio (z) = 0.18649 0.38073
#
# Static dielectric constant tensor:
#      x y z
#    x 3.492740 0.000000 0.000000 
#    y 0.000000 3.914070 0.000000 
#    z 0.000000 0.000000 3.756710 
# 
# 
# High freq. dielectric constant tensor:
#      x y z
#    x 1.755140 0.000000 0.000000 
#    y 0.000000 1.771660 0.000000 
#    z 0.000000 0.000000 1.772140 
# 
# From -- ./inp_files/26210.got.cif
#   From: 2010.03.12/outbox.cif.g09.slc.cpg/sg59_14_cif.got.tgz:26210.got - 2010.04.16 16:29:54.
