data_PCOD8240178
_publ_section_title
;
Structure prediction by ZEFSAII (Michael W. Deem and Ramdas Pophale) SiO2 
 PCOD8240178
Probable space group: P M M N
;
_chemical_formula_sum "Si O2"
_cell_formula_units_Z 56
_cell_length_a 23.529064
_cell_length_b 8.639538
_cell_length_c 15.550402
_cell_angle_alpha 90.000000
_cell_angle_beta 90.000000
_cell_angle_gamma 90.000000
_cell_volume 3161.089490
_symmetry_space_group_name_H-M "P M M N"
_symmetry_group_IT_number 59
_space_group.IT_coordinate_system_code '2'
_symmetry_cell_setting 'orthorhombic'
loop_
_space_group_symop_operation_xyz
x,y,z
1/2-x,1/2-y,z
1/2+x,-y,-z
-x,1/2+y,-z
-x,-y,-z
1/2+x,1/2+y,-z
1/2-x,y,z
x,1/2-y,z
loop_
_atom_site_type_symbol
_atom_site_label
_atom_site_fract_x
_atom_site_fract_y
_atom_site_fract_z
Si Si1 0.570882 0.567168 0.678861
Si Si2 0.061894 0.932608 0.004206
Si Si3 0.869829 0.065696 0.159513
Si Si4 0.750000 0.567930 0.906766
Si Si5 0.559058 0.431667 0.317510
Si Si6 0.636372 0.432741 0.836546
Si Si7 0.937937 0.068183 0.505611
Si Si8 0.750000 0.066254 0.097716
O O1 0.575579 0.750000 0.691135
O O2 0.505832 0.505285 0.690127
O O3 0.611587 0.481735 0.745173
O O4 0.593887 0.519508 0.583549
O O5 0.058156 0.750000 0.000430
O O6 0.092281 0.989145 0.090823
O O7 0.096887 0.997297 0.923329
O O8 0.000000 0.000000 0.000000
O O9 0.871058 0.250000 0.163027
O O10 0.900111 0.994844 0.244492
O O11 0.804868 0.007460 0.150988
O O12 0.750000 0.750000 0.917179
O O13 0.695890 0.515608 0.851984
O O14 0.750000 0.494933 0.001070
O O15 0.554296 0.250000 0.303010
O O16 0.588174 0.466106 0.410633
O O17 0.646009 0.250000 0.840172
O O18 0.939366 0.250000 0.525089
O O19 0.000000 0.000000 0.500000
O O20 0.750000 0.250000 0.088804
#
# Coordination Sequence:
#
# PCOD8240178 Si02
#       8
#     8   8   8   4   8   8   8   4
#     4  10  19  32  51  76 105 137 174 218 268 320
#     4  10  20  32  49  73 105 137 167 205 256 312
#     4   9  16  29  49  72  98 131 167 209 254 301
#     4  12  24  38  56  75 100 135 178 223 262 308
#     4   8  15  27  47  75 106 136 169 212 261 311
#     4  11  22  37  55  76 103 137 176 219 262 311
#     4   9  16  28  47  73 105 139 174 214 262 318
#     4  10  18  34  56  73  96 131 176 215 252 304
#
# _framework density 17.715411
#
# number of rings (size 3 to 8) (size 9 to 14) (size 15 to 20)
#    0.000    2.286    1.429    3.643    0.000    2.286 
#    0.000    0.000    0.000    6.000    0.000    3.000 
#    0.000    0.000    0.000    0.000    0.000    0.000 
#
# Total GULP energy -694120.879899 kJ/mol
# GULP energy per Si atom -12395.015712 kJ/mol
# Density = 1.767509 g / cm^3
# Si number density = 17.715411 Si / 1000 Ang^3
#
#
#
# Elastic Constant Matrix: (Units=GPa)
#
#
# Indices 1 2 3 4 5 6 
#
# 1 114.5168 17.9191 51.2610 0.0000 0.0000 0.0000
# 2 17.9191 28.5164 15.5258 0.0000 0.0000 0.0000
# 3 51.2610 15.5258 130.3498 0.0000 0.0000 0.0000
# 4 0.0000 0.0000 0.0000 22.2703 0.0000 0.0000
# 5 0.0000 0.0000 0.0000 0.0000 15.0813 0.0000
# 6 0.0000 0.0000 0.0000 0.0000 0.0000 21.8740
#
#
#
# Elastic Compliance Matrix: (Units=1/GPa)
#
#
# Indices 1 2 3 4 5 6 
#
# 1 0.011220 -0.004971 -0.003820 0.000000 0.000000 0.000000
# 2 -0.004971 0.039701 -0.002774 0.000000 0.000000 0.000000
# 3 -0.003820 -0.002774 0.009504 0.000000 0.000000 0.000000
# 4 0.000000 0.000000 0.000000 0.044903 0.000000 0.000000
# 5 0.000000 0.000000 0.000000 0.000000 0.066307 0.000000
# 6 0.000000 0.000000 0.000000 0.000000 0.000000 0.045716
#
#
# Mechanical properties :
#
#
# Convention : Reuss Voigt Hill
#
# Bulk Modulus (GPa) = 26.81252 49.19942 38.00597
# Shear Modulus (GPa) = 19.76953 24.42360 22.09657
#
# Velocity S-wave (km/s) = 3.34421 3.71706 3.53556
# Velocity P-wave (km/s) = 5.48449 6.80106 6.17795
#
# Compressibility (1/GPa) = 0.03729601
#
# Stress axis : x y z
#
# Youngs Moduli (GPa) = 89.12468 25.18807 105.21352
#
# Poissons Ratio (x) = 0.12520 0.40196
# Poissons Ratio (y) = 0.44300 0.29187
# Poissons Ratio (z) = 0.34049 0.06987
#
# Static dielectric constant tensor:
#      x y z
#    x 3.161060 0.000000 0.000000 
#    y 0.000000 3.123380 0.000000 
#    z 0.000000 0.000000 3.858890 
# 
# 
# High freq. dielectric constant tensor:
#      x y z
#    x 1.663080 0.000000 0.000000 
#    y 0.000000 1.666140 0.000000 
#    z 0.000000 0.000000 1.698570 
# 
# From -- ./inp_files/24335.got.cif
#   From: 2010.03.12/outbox.cif.g09.slc.cpg/sg59_13_cif.got.tgz:24335.got - 2010.04.16 16:29:54.
