data_PCOD8240033
_publ_section_title
;
Structure prediction by ZEFSAII (Michael W. Deem and Ramdas Pophale) SiO2 
 PCOD8240033
Probable space group: P M M N
;
_chemical_formula_sum "Si O2"
_cell_formula_units_Z 56
_cell_length_a 8.851568
_cell_length_b 20.671615
_cell_length_c 15.467744
_cell_angle_alpha 90.000000
_cell_angle_beta 90.000000
_cell_angle_gamma 90.000000
_cell_volume 2830.229110
_symmetry_space_group_name_H-M "P M M N"
_symmetry_group_IT_number 59
_space_group.IT_coordinate_system_code '2'
_symmetry_cell_setting 'orthorhombic'
loop_
_space_group_symop_operation_xyz
x,y,z
1/2-x,1/2-y,z
1/2+x,-y,-z
-x,1/2+y,-z
-x,-y,-z
1/2+x,1/2+y,-z
1/2-x,y,z
x,1/2-y,z
loop_
_atom_site_type_symbol
_atom_site_label
_atom_site_fract_x
_atom_site_fract_y
_atom_site_fract_z
Si Si1 0.417207 0.177143 0.867783
Si Si2 0.429537 0.679499 0.469624
Si Si3 0.916767 0.984886 0.728898
Si Si4 0.428417 0.457256 0.078207
Si Si5 0.426599 0.676575 0.957174
Si Si6 0.917113 0.130420 0.710257
Si Si7 0.428292 0.553526 0.562319
O O1 0.250000 0.155622 0.900502
O O2 0.413267 0.250000 0.834072
O O3 0.466011 0.133964 0.788133
O O4 0.541051 0.168875 0.941695
O O5 0.250000 0.677084 0.468036
O O6 0.488108 0.750000 0.500903
O O7 0.486341 0.667459 0.371870
O O8 0.489776 0.623750 0.532511
O O9 0.750000 0.952318 0.727871
O O10 0.974645 0.987256 0.828617
O O11 0.027791 0.948049 0.663604
O O12 0.903996 0.055515 0.687487
O O13 0.250000 0.458973 0.062842
O O14 0.483359 0.382435 0.086537
O O15 0.500000 0.500000 0.000000
O O16 0.250000 0.667364 0.939412
O O17 0.477376 0.750000 0.927081
O O18 0.750000 0.157756 0.735072
O O19 0.500000 0.500000 0.500000
O O20 0.250000 0.546477 0.553797
#
# Coordination Sequence:
#
# PCOD8240033 Si02
#       7
#     8   8   8   8   8   8   8
#     4  10  20  32  48  76 113 148 187 236 294 361
#     4   9  18  33  55  83 113 148 190 237 289 341
#     4  10  22  39  58  85 115 149 195 240 290 354
#     4  11  23  39  62  91 126 159 196 254 309 364
#     4  10  21  38  59  81 110 154 206 254 302 359
#     4  10  18  32  54  78 109 147 189 236 286 352
#     4  11  21  37  61  86 115 152 194 241 287 343
#
# _framework density 19.786383000000001
#
# number of rings (size 3 to 8) (size 9 to 14) (size 15 to 20)
#    0.000    1.857    1.429    3.000    0.000    5.143 
#    0.000    0.714    0.000    5.143    0.000    0.000 
#    0.000    0.000    0.000    0.000    0.000    0.000 
#
# Total GULP energy -693952.683190 kJ/mol
# GULP energy per Si atom -12392.012200 kJ/mol
# Density = 1.974135 g / cm^3
# Si number density = 19.786383 Si / 1000 Ang^3
#
#
#
# Elastic Constant Matrix: (Units=GPa)
#
#
# Indices 1 2 3 4 5 6 
#
# 1 70.7813 34.7118 32.4753 0.0000 0.0000 0.0000
# 2 34.7118 123.4973 47.8775 0.0000 0.0000 0.0000
# 3 32.4753 47.8775 106.7697 0.0000 0.0000 0.0000
# 4 0.0000 0.0000 0.0000 33.7836 0.0000 0.0000
# 5 0.0000 0.0000 0.0000 0.0000 30.7861 0.0000
# 6 0.0000 0.0000 0.0000 0.0000 0.0000 27.3077
#
#
#
# Elastic Compliance Matrix: (Units=1/GPa)
#
#
# Indices 1 2 3 4 5 6 
#
# 1 0.017567 -0.003469 -0.003788 0.000000 0.000000 0.000000
# 2 -0.003469 0.010486 -0.003647 0.000000 0.000000 0.000000
# 3 -0.003788 -0.003647 0.012153 0.000000 0.000000 0.000000
# 4 0.000000 0.000000 0.000000 0.029600 0.000000 0.000000
# 5 0.000000 0.000000 0.000000 0.000000 0.032482 0.000000
# 6 0.000000 0.000000 0.000000 0.000000 0.000000 0.036620
#
#
# Mechanical properties :
#
#
# Convention : Reuss Voigt Hill
#
# Bulk Modulus (GPa) = 54.35051 59.01974 56.68513
# Shear Modulus (GPa) = 29.96705 30.77438 30.37072
#
# Velocity S-wave (km/s) = 3.89592 3.94805 3.92207
# Velocity P-wave (km/s) = 6.91128 7.11871 7.01576
#
# Compressibility (1/GPa) = 0.01839909
#
# Stress axis : x y z
#
# Youngs Moduli (GPa) = 56.92431 95.36193 82.28153
#
# Poissons Ratio (x) = 0.33084 0.31165
# Poissons Ratio (y) = 0.19749 0.30009
# Poissons Ratio (z) = 0.21561 0.34779
#
# Static dielectric constant tensor:
#      x y z
#    x 3.559190 0.000000 0.000000 
#    y 0.000000 3.910900 0.000000 
#    z 0.000000 0.000000 3.469460 
# 
# 
# High freq. dielectric constant tensor:
#      x y z
#    x 1.758550 0.000000 0.000000 
#    y 0.000000 1.775460 0.000000 
#    z 0.000000 0.000000 1.757540 
# 
# From -- ./inp_files/21026.got.cif
#   From: 2010.03.12/outbox.cif.g09.slc.cpg/sg59_11_cif.got.tgz:21026.got - 2010.04.16 16:29:54.
