data_PCOD8240779
_publ_section_title
;
Structure prediction by ZEFSAII (Michael W. Deem and Ramdas Pophale) SiO2 
 PCOD8240779
Probable space group: P M M N
;
_chemical_formula_sum "Si O2"
_cell_formula_units_Z 64
_cell_length_a 19.975217
_cell_length_b 9.186519
_cell_length_c 19.710862
_cell_angle_alpha 90.000000
_cell_angle_beta 90.000000
_cell_angle_gamma 90.000000
_cell_volume 3616.996603
_symmetry_space_group_name_H-M "P M M N"
_symmetry_group_IT_number 59
_space_group.IT_coordinate_system_code '2'
_symmetry_cell_setting 'orthorhombic'
loop_
_space_group_symop_operation_xyz
x,y,z
1/2-x,1/2-y,z
1/2+x,-y,-z
-x,1/2+y,-z
-x,-y,-z
1/2+x,1/2+y,-z
1/2-x,y,z
x,1/2-y,z
loop_
_atom_site_type_symbol
_atom_site_label
_atom_site_fract_x
_atom_site_fract_y
_atom_site_fract_z
Si Si1 0.176963 0.083587 0.938117
Si Si2 0.821173 0.085187 0.197381
Si Si3 0.965424 0.084962 0.205377
Si Si4 0.677346 0.577768 0.481605
Si Si5 0.826205 0.919247 0.635504
Si Si6 0.051754 0.918118 0.953976
Si Si7 0.464499 0.077978 0.561918
Si Si8 0.949753 0.078439 0.691129
O O1 0.250000 0.068604 0.973322
O O2 0.152113 0.250000 0.939720
O O3 0.183030 0.033846 0.860739
O O4 0.123863 0.981772 0.976126
O O5 0.750000 0.073386 0.239405
O O6 0.827059 0.250000 0.166337
O O7 0.890554 0.057922 0.238194
O O8 0.988882 0.250000 0.219033
O O9 0.962476 0.051708 0.125263
O O10 0.018489 0.977133 0.238848
O O11 0.750000 0.516681 0.455077
O O12 0.682345 0.750000 0.483185
O O13 0.665239 0.523747 0.558506
O O14 0.614134 0.528528 0.435597
O O15 0.750000 0.946033 0.660222
O O16 0.845093 0.750000 0.641087
O O17 0.876454 0.009795 0.682587
O O18 0.049487 0.750000 0.972074
O O19 0.000000 0.000000 0.000000
O O20 0.470159 0.250000 0.550297
O O21 0.500410 0.029027 0.630884
O O22 0.500000 0.000000 0.500000
O O23 0.941682 0.250000 0.694651
#
# Coordination Sequence:
#
# PCOD8240779 Si02
#       8
#     8   8   8   8   8   8   8   8
#     4   9  16  26  44  72 103 132 163 201 243 289
#     4   8  14  27  47  69  93 125 167 210 247 285
#     4   9  19  34  51  72 100 137 173 203 243 302
#     4   8  14  27  48  70  92 123 165 207 243 288
#     4   9  17  31  53  75  92 123 170 210 250 303
#     4  10  20  34  54  78 102 132 170 211 258 305
#     4  10  19  31  48  71  97 126 162 203 249 295
#     4  11  22  32  47  75 106 134 164 206 258 300
#
# _framework density 17.694239
#
# number of rings (size 3 to 8) (size 9 to 14) (size 15 to 20)
#    0.000    2.750    1.250    2.625    0.000    4.000 
#    0.000    0.625    0.000    1.875    0.000    5.250 
#    0.000    0.000    0.000    0.000    0.000    0.000 
#
# Total GULP energy -792895.404322 kJ/mol
# GULP energy per Si atom -12388.990693 kJ/mol
# Density = 1.765397 g / cm^3
# Si number density = 17.694239 Si / 1000 Ang^3
#
#
#
# Elastic Constant Matrix: (Units=GPa)
#
#
# Indices 1 2 3 4 5 6 
#
# 1 146.0086 57.0930 40.5728 0.0000 0.0000 0.0000
# 2 57.0930 81.9820 32.4634 0.0000 0.0000 0.0000
# 3 40.5728 32.4634 41.2223 0.0000 0.0000 0.0000
# 4 0.0000 0.0000 0.0000 19.6210 0.0000 0.0000
# 5 0.0000 0.0000 0.0000 0.0000 25.1904 0.0000
# 6 0.0000 0.0000 0.0000 0.0000 0.0000 28.9556
#
#
#
# Elastic Compliance Matrix: (Units=1/GPa)
#
#
# Indices 1 2 3 4 5 6 
#
# 1 0.010541 -0.004697 -0.006675 0.000000 0.000000 0.000000
# 2 -0.004697 0.019819 -0.010984 0.000000 0.000000 0.000000
# 3 -0.006675 -0.010984 0.039479 0.000000 0.000000 0.000000
# 4 0.000000 0.000000 0.000000 0.050966 0.000000 0.000000
# 5 0.000000 0.000000 0.000000 0.000000 0.039698 0.000000
# 6 0.000000 0.000000 0.000000 0.000000 0.000000 0.034536
#
#
# Mechanical properties :
#
#
# Convention : Reuss Voigt Hill
#
# Bulk Modulus (GPa) = 39.80154 58.83013 49.31583
# Shear Modulus (GPa) = 20.15103 24.02565 22.08834
#
# Velocity S-wave (km/s) = 3.37834 3.68886 3.53701
# Velocity P-wave (km/s) = 6.14496 7.17384 6.67924
#
# Compressibility (1/GPa) = 0.02512466
#
# Stress axis : x y z
#
# Youngs Moduli (GPa) = 94.87141 50.45764 25.32974
#
# Poissons Ratio (x) = 0.23701 0.16908
# Poissons Ratio (y) = 0.44563 0.27823
# Poissons Ratio (z) = 0.63330 0.55424
#
# Static dielectric constant tensor:
#      x y z
#    x 3.958870 0.000000 0.000000 
#    y 0.000000 3.196510 0.000000 
#    z 0.000000 0.000000 2.831760 
# 
# 
# High freq. dielectric constant tensor:
#      x y z
#    x 1.707920 0.000000 0.000000 
#    y 0.000000 1.678460 0.000000 
#    z 0.000000 0.000000 1.625330 
# 
# From -- ./inp_files/28311.got.cif
#   From: 2010.03.12/outbox.cif.g09.slc.cpg/sg59_15_cif.got.tgz:28311.got - 2010.04.16 16:29:54.
