data_PCOD8240643
_publ_section_title
;
Structure prediction by ZEFSAII (Michael W. Deem and Ramdas Pophale) SiO2 
 PCOD8240643
Probable space group: P M M N
;
_chemical_formula_sum "Si O2"
_cell_formula_units_Z 64
_cell_length_a 9.078662
_cell_length_b 22.745542
_cell_length_c 17.602541
_cell_angle_alpha 90.000000
_cell_angle_beta 90.000000
_cell_angle_gamma 90.000000
_cell_volume 3634.908660
_symmetry_space_group_name_H-M "P M M N"
_symmetry_group_IT_number 59
_space_group.IT_coordinate_system_code '2'
_symmetry_cell_setting 'orthorhombic'
loop_
_space_group_symop_operation_xyz
x,y,z
1/2-x,1/2-y,z
1/2+x,-y,-z
-x,1/2+y,-z
-x,-y,-z
1/2+x,1/2+y,-z
1/2-x,y,z
x,1/2-y,z
loop_
_atom_site_type_symbol
_atom_site_label
_atom_site_fract_x
_atom_site_fract_y
_atom_site_fract_z
Si Si1 0.919941 0.815819 0.238031
Si Si2 0.082686 0.589447 0.816296
Si Si3 0.418128 0.020405 0.925075
Si Si4 0.077327 0.042544 0.324605
Si Si5 0.074803 0.862107 0.097038
Si Si6 0.418705 0.059448 0.488253
Si Si7 0.577068 0.582018 0.349698
Si Si8 0.925167 0.184256 0.065590
O O1 0.750000 0.828523 0.217068
O O2 0.937715 0.750000 0.271809
O O3 0.978090 0.863095 0.299543
O O4 0.018617 0.818894 0.162521
O O5 0.250000 0.603826 0.792436
O O6 0.076106 0.529869 0.863031
O O7 0.015511 0.642020 0.867709
O O8 0.985515 0.583527 0.741385
O O9 0.250000 0.036553 0.945511
O O10 0.501683 0.074979 0.887820
O O11 0.500000 0.000000 0.000000
O O12 0.250000 0.033055 0.311692
O O13 0.043885 0.080447 0.402323
O O14 0.004098 0.977939 0.325537
O O15 0.250000 0.867624 0.099843
O O16 0.018311 0.837955 0.016081
O O17 0.250000 0.042645 0.491805
O O18 0.457238 0.100309 0.561474
O O19 0.500000 0.000000 0.500000
O O20 0.750000 0.570989 0.337015
O O21 0.750000 0.182285 0.064568
O O22 0.984268 0.250000 0.080451
#
# Coordination Sequence:
#
# PCOD8240643 Si02
#       8
#     8   8   8   8   8   8   8   8
#     4  10  21  35  50  72 101 133 172 214 252 295
#     4  10  20  34  50  71  98 129 165 201 243 296
#     4  11  21  34  51  74 102 131 164 206 254 303
#     4  10  19  30  48  77 105 127 157 204 253 300
#     4  11  21  35  53  75 100 131 169 208 254 304
#     4   8  15  28  47  71  98 125 156 191 236 292
#     4   9  17  32  52  71  97 134 165 197 243 300
#     4   9  18  34  53  69  88 122 169 210 239 281
#
# _framework density 17.607044999999999
#
# number of rings (size 3 to 8) (size 9 to 14) (size 15 to 20)
#    0.000    2.250    1.250    2.250    0.000    5.750 
#    0.000    0.000    0.000    2.625    0.000    1.750 
#    0.000    0.000    0.000    0.000    0.000    0.000 
#
# Total GULP energy -793167.155025 kJ/mol
# GULP energy per Si atom -12393.236797 kJ/mol
# Density = 1.756697 g / cm^3
# Si number density = 17.607045 Si / 1000 Ang^3
#
#
#
# Elastic Constant Matrix: (Units=GPa)
#
#
# Indices 1 2 3 4 5 6 
#
# 1 58.0772 28.0708 46.1746 0.0000 0.0000 0.0000
# 2 28.0708 102.5414 57.8379 0.0000 0.0000 0.0000
# 3 46.1746 57.8379 151.6603 0.0000 0.0000 0.0000
# 4 0.0000 0.0000 0.0000 19.0710 0.0000 0.0000
# 5 0.0000 0.0000 0.0000 0.0000 27.4241 0.0000
# 6 0.0000 0.0000 0.0000 0.0000 0.0000 18.5986
#
#
#
# Elastic Compliance Matrix: (Units=1/GPa)
#
#
# Indices 1 2 3 4 5 6 
#
# 1 0.023442 -0.003047 -0.005975 0.000000 0.000000 0.000000
# 2 -0.003047 0.012821 -0.003962 0.000000 0.000000 0.000000
# 3 -0.005975 -0.003962 0.009924 0.000000 0.000000 0.000000
# 4 0.000000 0.000000 0.000000 0.052436 0.000000 0.000000
# 5 0.000000 0.000000 0.000000 0.000000 0.036464 0.000000
# 6 0.000000 0.000000 0.000000 0.000000 0.000000 0.053768
#
#
# Mechanical properties :
#
#
# Convention : Reuss Voigt Hill
#
# Bulk Modulus (GPa) = 49.45916 64.04950 56.75433
# Shear Modulus (GPa) = 22.56716 25.03177 23.79946
#
# Velocity S-wave (km/s) = 3.58398 3.77462 3.68054
# Velocity P-wave (km/s) = 6.72890 7.44669 7.09688
#
# Compressibility (1/GPa) = 0.02021870
#
# Stress axis : x y z
#
# Youngs Moduli (GPa) = 42.65907 77.99788 100.76863
#
# Poissons Ratio (x) = 0.23766 0.60210
# Poissons Ratio (y) = 0.12998 0.39922
# Poissons Ratio (z) = 0.25489 0.30901
#
# Static dielectric constant tensor:
#      x y z
#    x 3.225880 0.000000 0.000000 
#    y 0.000000 3.219600 0.000000 
#    z 0.000000 0.000000 4.461810 
# 
# 
# High freq. dielectric constant tensor:
#      x y z
#    x 1.673680 0.000000 0.000000 
#    y 0.000000 1.655680 0.000000 
#    z 0.000000 0.000000 1.691440 
# 
# From -- ./inp_files/26273.got.cif
#   From: 2010.03.12/outbox.cif.g09.slc.cpg/sg59_14_cif.got.tgz:26273.got - 2010.04.16 16:29:54.
