data_PCOD8240546
_publ_section_title
;
Structure prediction by ZEFSAII (Michael W. Deem and Ramdas Pophale) SiO2 
 PCOD8240546
Probable space group: P M M N
;
_chemical_formula_sum "Si O2"
_cell_formula_units_Z 64
_cell_length_a 30.047948
_cell_length_b 8.901870
_cell_length_c 14.384384
_cell_angle_alpha 90.000000
_cell_angle_beta 90.000000
_cell_angle_gamma 90.000000
_cell_volume 3847.577133
_symmetry_space_group_name_H-M "P M M N"
_symmetry_group_IT_number 59
_space_group.IT_coordinate_system_code '2'
_symmetry_cell_setting 'orthorhombic'
loop_
_space_group_symop_operation_xyz
x,y,z
1/2-x,1/2-y,z
1/2+x,-y,-z
-x,1/2+y,-z
-x,-y,-z
1/2+x,1/2+y,-z
1/2-x,y,z
x,1/2-y,z
loop_
_atom_site_type_symbol
_atom_site_label
_atom_site_fract_x
_atom_site_fract_y
_atom_site_fract_z
Si Si1 0.382725 0.925407 0.930516
Si Si2 0.456530 0.427963 0.452649
Si Si3 0.539187 0.073397 0.940647
Si Si4 0.200505 0.427425 0.856766
Si Si5 0.880155 0.418843 0.435131
Si Si6 0.066589 0.918503 0.748517
Si Si7 0.022734 0.926012 0.267973
Si Si8 0.698977 0.576028 0.354239
O O1 0.372937 0.750000 0.926392
O O2 0.411354 0.978436 0.842381
O O3 0.335057 0.006743 0.929798
O O4 0.411958 0.970540 0.020452
O O5 0.500000 0.500000 0.500000
O O6 0.462438 0.250000 0.456417
O O7 0.411531 0.476377 0.503300
O O8 0.450751 0.482626 0.346489
O O9 0.531151 0.250000 0.948038
O O10 0.538458 0.019550 0.833864
O O11 0.500000 0.000000 0.000000
O O12 0.250000 0.480464 0.887039
O O13 0.197617 0.250000 0.860006
O O14 0.191008 0.482422 0.751316
O O15 0.879238 0.250000 0.476663
O O16 0.896581 0.417135 0.329982
O O17 0.830458 0.485541 0.429282
O O18 0.046576 0.750000 0.761936
O O19 0.029057 0.036339 0.719667
O O20 0.030542 0.750000 0.283248
O O21 0.750000 0.550577 0.382910
O O22 0.685793 0.750000 0.360345
#
# Coordination Sequence:
#
# PCOD8240546 Si02
#       8
#     8   8   8   8   8   8   8   8
#     4  10  19  32  48  71 101 134 170 206 243 291
#     4  12  24  37  53  73  99 133 171 211 254 303
#     4  10  21  34  50  73 101 134 172 209 249 295
#     4   9  18  31  47  70 100 132 167 206 246 293
#     4  11  21  33  50  75 103 134 170 209 251 297
#     4  10  19  30  47  70 102 136 168 206 246 292
#     4  11  22  35  51  72  99 134 173 213 253 296
#     4   9  18  32  49  71 102 137 170 206 249 298
#
# _framework density 16.633844
#
# number of rings (size 3 to 8) (size 9 to 14) (size 15 to 20)
#    0.000    1.750    3.750    2.625    0.000    2.500 
#    0.000    1.250    0.000    0.000    0.000    0.875 
#    0.000    5.000    0.000    0.000    0.000    0.000 
#
# Total GULP energy -793551.684314 kJ/mol
# GULP energy per Si atom -12399.245067 kJ/mol
# Density = 1.659599 g / cm^3
# Si number density = 16.633844 Si / 1000 Ang^3
#
#
#
# Elastic Constant Matrix: (Units=GPa)
#
#
# Indices 1 2 3 4 5 6 
#
# 1 107.1213 38.6118 40.6479 0.0000 0.0000 0.0000
# 2 38.6118 73.4726 36.1763 0.0000 0.0000 0.0000
# 3 40.6479 36.1763 88.2596 0.0000 0.0000 0.0000
# 4 0.0000 0.0000 0.0000 22.9819 0.0000 0.0000
# 5 0.0000 0.0000 0.0000 0.0000 23.9814 0.0000
# 6 0.0000 0.0000 0.0000 0.0000 0.0000 28.7496
#
#
#
# Elastic Compliance Matrix: (Units=1/GPa)
#
#
# Indices 1 2 3 4 5 6 
#
# 1 0.012471 -0.004668 -0.003830 0.000000 0.000000 0.000000
# 2 -0.004668 0.018799 -0.005556 0.000000 0.000000 0.000000
# 3 -0.003830 -0.005556 0.015371 0.000000 0.000000 0.000000
# 4 0.000000 0.000000 0.000000 0.043513 0.000000 0.000000
# 5 0.000000 0.000000 0.000000 0.000000 0.041699 0.000000
# 6 0.000000 0.000000 0.000000 0.000000 0.000000 0.034783
#
#
# Mechanical properties :
#
#
# Convention : Reuss Voigt Hill
#
# Bulk Modulus (GPa) = 53.95505 55.52506 54.74005
# Shear Modulus (GPa) = 24.88524 25.37040 25.12782
#
# Velocity S-wave (km/s) = 3.87209 3.90965 3.89092
# Velocity P-wave (km/s) = 7.24556 7.33715 7.29150
#
# Compressibility (1/GPa) = 0.01853395
#
# Stress axis : x y z
#
# Youngs Moduli (GPa) = 80.18470 53.19380 65.05580
#
# Poissons Ratio (x) = 0.24831 0.24918
# Poissons Ratio (y) = 0.37430 0.36143
# Poissons Ratio (z) = 0.30713 0.29553
#
# Static dielectric constant tensor:
#      x y z
#    x 3.106780 0.000000 0.000000 
#    y 0.000000 3.152730 0.000000 
#    z 0.000000 0.000000 3.135770 
# 
# 
# High freq. dielectric constant tensor:
#      x y z
#    x 1.630630 0.000000 0.000000 
#    y 0.000000 1.644500 0.000000 
#    z 0.000000 0.000000 1.616890 
# 
# From -- ./inp_files/25055.got.cif
#   From: 2010.03.12/outbox.cif.g09.slc.cpg/sg59_13_cif.got.tgz:25055.got - 2010.04.16 16:29:54.
