data_PCOD8240279
_publ_section_title
;
Structure prediction by ZEFSAII (Michael W. Deem and Ramdas Pophale) SiO2 
 PCOD8240279
Probable space group: P M M N
;
_chemical_formula_sum "Si O2"
_cell_formula_units_Z 64
_cell_length_a 13.792565
_cell_length_b 9.010571
_cell_length_c 31.647505
_cell_angle_alpha 90.000000
_cell_angle_beta 90.000000
_cell_angle_gamma 90.000000
_cell_volume 3933.116673
_symmetry_space_group_name_H-M "P M M N"
_symmetry_group_IT_number 59
_space_group.IT_coordinate_system_code '2'
_symmetry_cell_setting 'orthorhombic'
loop_
_space_group_symop_operation_xyz
x,y,z
1/2-x,1/2-y,z
1/2+x,-y,-z
-x,1/2+y,-z
-x,-y,-z
1/2+x,1/2+y,-z
1/2-x,y,z
x,1/2-y,z
loop_
_atom_site_type_symbol
_atom_site_label
_atom_site_fract_x
_atom_site_fract_y
_atom_site_fract_z
Si Si1 0.861563 0.075202 0.561591
Si Si2 0.640463 0.075445 0.315479
Si Si3 0.360204 0.426296 0.859662
Si Si4 0.969462 0.426684 0.398889
Si Si5 0.045429 0.576730 0.936578
Si Si6 0.135274 0.080435 0.524258
Si Si7 0.134820 0.414145 0.766558
Si Si8 0.859214 0.921143 0.987150
O O1 0.750000 0.036532 0.570021
O O2 0.880271 0.250000 0.560807
O O3 0.899593 0.006211 0.517572
O O4 0.922940 0.996511 0.598588
O O5 0.750000 0.015789 0.322673
O O6 0.640970 0.250000 0.312095
O O7 0.574637 0.021986 0.354262
O O8 0.595296 0.014779 0.271683
O O9 0.250000 0.480094 0.868747
O O10 0.365184 0.250000 0.863301
O O11 0.434542 0.498656 0.892231
O O12 0.394937 0.476873 0.812729
O O13 0.972581 0.250000 0.403451
O O14 0.903593 0.495218 0.435307
O O15 0.062422 0.750000 0.931105
O O16 0.934708 0.538792 0.949925
O O17 0.120037 0.518628 0.971683
O O18 0.250000 0.077052 0.526798
O O19 0.096612 0.250000 0.522930
O O20 0.250000 0.407776 0.765527
O O21 0.091377 0.250000 0.760089
O O22 0.750000 0.953819 0.971088
O O23 0.871674 0.750000 0.000588
#
# Coordination Sequence:
#
# PCOD8240279 Si02
#       8
#     8   8   8   8   8   8   8   8
#     4  10  21  36  51  66  87 116 151 191 229 262
#     4   9  18  31  46  67  95 122 145 173 214 261
#     4   9  17  29  44  63  90 122 149 174 214 265
#     4  11  21  32  48  69  94 122 150 181 219 266
#     4  10  19  28  42  66  88 110 149 193 223 254
#     4  10  20  33  49  69  93 121 152 184 218 259
#     4   8  15  28  45  64  87 117 149 177 209 256
#     4   9  18  32  45  57  83 122 153 180 222 269
#
# _framework density 16.272082999999999
#
# number of rings (size 3 to 8) (size 9 to 14) (size 15 to 20)
#    0.000    2.500    0.000    3.375    0.000    6.000 
#    0.000    2.500    0.000    0.000    0.000    0.875 
#    0.000    3.000    0.000    0.000    0.000    0.000 
#
# Total GULP energy -793498.947605 kJ/mol
# GULP energy per Si atom -12398.421056 kJ/mol
# Density = 1.623505 g / cm^3
# Si number density = 16.272083 Si / 1000 Ang^3
#
#
#
# Elastic Constant Matrix: (Units=GPa)
#
#
# Indices 1 2 3 4 5 6 
#
# 1 72.2129 31.6931 59.4412 0.0000 0.0000 0.0000
# 2 31.6931 63.4680 53.8533 0.0000 0.0000 0.0000
# 3 59.4412 53.8533 145.0109 0.0000 0.0000 0.0000
# 4 0.0000 0.0000 0.0000 30.9403 0.0000 0.0000
# 5 0.0000 0.0000 0.0000 0.0000 23.5529 0.0000
# 6 0.0000 0.0000 0.0000 0.0000 0.0000 23.3809
#
#
#
# Elastic Compliance Matrix: (Units=1/GPa)
#
#
# Indices 1 2 3 4 5 6 
#
# 1 0.021873 -0.004840 -0.007168 0.000000 0.000000 0.000000
# 2 -0.004840 0.024076 -0.006957 0.000000 0.000000 0.000000
# 3 -0.007168 -0.006957 0.012418 0.000000 0.000000 0.000000
# 4 0.000000 0.000000 0.000000 0.032320 0.000000 0.000000
# 5 0.000000 0.000000 0.000000 0.000000 0.042458 0.000000
# 6 0.000000 0.000000 0.000000 0.000000 0.000000 0.042770
#
#
# Mechanical properties :
#
#
# Convention : Reuss Voigt Hill
#
# Bulk Modulus (GPa) = 48.93357 63.40747 56.17052
# Shear Modulus (GPa) = 22.65950 24.62176 23.64063
#
# Velocity S-wave (km/s) = 3.73572 3.89412 3.81574
# Velocity P-wave (km/s) = 6.98175 7.69873 7.34899
#
# Compressibility (1/GPa) = 0.02043587
#
# Stress axis : x y z
#
# Youngs Moduli (GPa) = 45.71923 41.53484 80.52664
#
# Poissons Ratio (x) = 0.20102 0.57725
# Poissons Ratio (y) = 0.22127 0.56026
# Poissons Ratio (z) = 0.32774 0.28898
#
# Static dielectric constant tensor:
#      x y z
#    x 3.050670 0.000000 0.000000 
#    y 0.000000 3.202760 0.000000 
#    z 0.000000 0.000000 3.174460 
# 
# 
# High freq. dielectric constant tensor:
#      x y z
#    x 1.604660 0.000000 0.000000 
#    y 0.000000 1.633270 0.000000 
#    z 0.000000 0.000000 1.616930 
# 
# From -- ./inp_files/33328.got.cif
#   From: 2010.03.12/outbox.cif.g09.slc.cpg/sg59_17_cif.got.tgz:33328.got - 2010.04.16 16:29:54.
