data_PCOD8240597
_publ_section_title
;
Structure prediction by ZEFSAII (Michael W. Deem and Ramdas Pophale) SiO2 
 PCOD8240597
Probable space group: P M M N
;
_chemical_formula_sum "Si O2"
_cell_formula_units_Z 48
_cell_length_a 21.953843
_cell_length_b 26.970346
_cell_length_c 4.957549
_cell_angle_alpha 90.000000
_cell_angle_beta 90.000000
_cell_angle_gamma 90.000000
_cell_volume 2935.378355
_symmetry_space_group_name_H-M "P M M N"
_symmetry_group_IT_number 59
_space_group.IT_coordinate_system_code '2'
_symmetry_cell_setting 'orthorhombic'
loop_
_space_group_symop_operation_xyz
x,y,z
1/2-x,1/2-y,z
1/2+x,-y,-z
-x,1/2+y,-z
-x,-y,-z
1/2+x,1/2+y,-z
1/2-x,y,z
x,1/2-y,z
loop_
_atom_site_type_symbol
_atom_site_label
_atom_site_fract_x
_atom_site_fract_y
_atom_site_fract_z
Si Si1 0.015895 0.405956 0.661096
Si Si2 0.320023 0.903483 0.795022
Si Si3 0.549776 0.536293 0.872090
Si Si4 0.383894 0.944992 0.288915
Si Si5 0.386047 0.694942 0.876463
Si Si6 0.468279 0.695103 0.376222
O O1 0.023618 0.432570 0.376091
O O2 0.021619 0.346184 0.646937
O O3 0.947320 0.416822 0.763493
O O4 0.064979 0.425633 0.882859
O O5 0.250000 0.910161 0.717142
O O6 0.361573 0.935402 0.592195
O O7 0.332189 0.924647 0.091406
O O8 0.335432 0.845053 0.793267
O O9 0.606993 0.504078 0.766655
O O10 0.500000 0.500000 0.000000
O O11 0.356421 0.750000 0.859037
O O12 0.411788 0.684878 0.175214
O O13 0.443356 0.691034 0.678011
O O14 0.496082 0.750000 0.321654
#
# Coordination Sequence:
#
# PCOD8240597 Si02
#       6
#     8   8   8   8   8   8
#     4  11  17  31  50  68  90 114 148 185 228 278
#     4  12  22  33  48  64  85 122 157 197 243 269
#     4  10  20  29  48  71  86 114 144 184 240 272
#     4  11  20  34  46  64  93 110 149 199 228 276
#     4  10  19  33  46  61  84 118 156 200 239 266
#     4  10  19  30  48  67  90 120 148 184 234 272
#
# _framework density 16.352236000000001
#
# number of rings (size 3 to 8) (size 9 to 14) (size 15 to 20)
#    0.000    1.333    3.333    6.500    0.000    0.333 
#    0.000    0.000    0.000    5.000    0.000    0.000 
#    0.000    0.000    0.000    0.000    0.000   58.333 
#
# Total GULP energy -594999.926639 kJ/mol
# GULP energy per Si atom -12395.831805 kJ/mol
# Density = 1.631502 g / cm^3
# Si number density = 16.352236 Si / 1000 Ang^3
#
#
#
# Elastic Constant Matrix: (Units=GPa)
#
#
# Indices 1 2 3 4 5 6 
#
# 1 27.9949 38.2239 13.1435 0.0000 0.0000 0.0000
# 2 38.2239 125.8373 35.3348 0.0000 0.0000 0.0000
# 3 13.1435 35.3348 79.9654 0.0000 0.0000 0.0000
# 4 0.0000 0.0000 0.0000 22.4931 0.0000 0.0000
# 5 0.0000 0.0000 0.0000 0.0000 12.2913 0.0000
# 6 0.0000 0.0000 0.0000 0.0000 0.0000 14.4571
#
#
#
# Elastic Compliance Matrix: (Units=1/GPa)
#
#
# Indices 1 2 3 4 5 6 
#
# 1 0.061345 -0.018041 -0.002111 0.000000 0.000000 0.000000
# 2 -0.018041 0.014378 -0.003388 0.000000 0.000000 0.000000
# 3 -0.002111 -0.003388 0.014349 0.000000 0.000000 0.000000
# 4 0.000000 0.000000 0.000000 0.044458 0.000000 0.000000
# 5 0.000000 0.000000 0.000000 0.000000 0.081358 0.000000
# 6 0.000000 0.000000 0.000000 0.000000 0.000000 0.069170
#
#
# Mechanical properties :
#
#
# Convention : Reuss Voigt Hill
#
# Bulk Modulus (GPa) = 23.26000 45.24469 34.25234
# Shear Modulus (GPa) = 14.43124 19.65468 17.04296
#
# Velocity S-wave (km/s) = 2.97395 3.47069 3.23188
# Velocity P-wave (km/s) = 5.10370 6.61738 5.90921
#
# Compressibility (1/GPa) = 0.04299226
#
# Stress axis : x y z
#
# Youngs Moduli (GPa) = 16.30123 69.54946 69.68890
#
# Poissons Ratio (x) = 1.25476 0.14711
# Poissons Ratio (y) = 0.29409 0.23611
# Poissons Ratio (z) = 0.03441 0.23564
#
# Static dielectric constant tensor:
#      x y z
#    x 2.553330 0.000000 0.000000 
#    y 0.000000 3.669890 0.000000 
#    z 0.000000 0.000000 3.328990 
# 
# 
# High freq. dielectric constant tensor:
#      x y z
#    x 1.544980 0.000000 0.000000 
#    y 0.000000 1.640780 0.000000 
#    z 0.000000 0.000000 1.657890 
# 
# From -- ./inp_files/2989.got.cif
#   From: 2010.03.12/outbox.cif.g09.slc.cpg/sg59_2_cif.got.tgz:2989.got - 2010.04.16 16:29:54.
