data_PCOD8240783
_publ_section_title
;
Structure prediction by ZEFSAII (Michael W. Deem and Ramdas Pophale) SiO2 
 PCOD8240783
Probable space group: P M M N
;
_chemical_formula_sum "Si O2"
_cell_formula_units_Z 64
_cell_length_a 28.257161
_cell_length_b 8.790347
_cell_length_c 15.702362
_cell_angle_alpha 90.000000
_cell_angle_beta 90.000000
_cell_angle_gamma 90.000000
_cell_volume 3900.313629
_symmetry_space_group_name_H-M "P M M N"
_symmetry_group_IT_number 59
_space_group.IT_coordinate_system_code '2'
_symmetry_cell_setting 'orthorhombic'
loop_
_space_group_symop_operation_xyz
x,y,z
1/2-x,1/2-y,z
1/2+x,-y,-z
-x,1/2+y,-z
-x,-y,-z
1/2+x,1/2+y,-z
1/2-x,y,z
x,1/2-y,z
loop_
_atom_site_type_symbol
_atom_site_label
_atom_site_fract_x
_atom_site_fract_y
_atom_site_fract_z
Si Si1 0.696594 0.925558 0.087560
Si Si2 0.450046 0.574918 0.500404
Si Si3 0.110200 0.571299 0.840672
Si Si4 0.303820 0.927094 0.092965
Si Si5 0.546266 0.071337 0.315163
Si Si6 0.892514 0.928632 0.838406
Si Si7 0.051292 0.570776 0.006511
Si Si8 0.056723 0.929072 0.316877
O O1 0.750000 0.950253 0.121359
O O2 0.687357 0.750000 0.065123
O O3 0.660372 0.983692 0.159460
O O4 0.687083 0.024437 0.003806
O O5 0.500000 0.500000 0.500000
O O6 0.460895 0.750000 0.492224
O O7 0.427130 0.538937 0.593282
O O8 0.423365 0.528086 0.412600
O O9 0.120020 0.750000 0.837894
O O10 0.081922 0.515882 0.757636
O O11 0.080746 0.522350 0.923608
O O12 0.250000 0.961777 0.120416
O O13 0.316194 0.750000 0.100402
O O14 0.337747 0.021788 0.155110
O O15 0.534275 0.250000 0.304477
O O16 0.497895 0.977662 0.306417
O O17 0.897669 0.750000 0.850775
O O18 0.910605 0.976080 0.746025
O O19 0.923069 0.011493 0.909816
O O20 0.046051 0.750000 0.012875
O O21 0.000000 0.500000 0.000000
O O22 0.061121 0.750000 0.297141
#
# Coordination Sequence:
#
# PCOD8240783 Si02
#       8
#     8   8   8   8   8   8   8   8
#     4  10  20  33  50  71  94 122 158 199 241 285
#     4   8  15  28  47  69  95 125 157 200 245 285
#     4  10  20  32  48  69  95 128 162 195 236 283
#     4  10  20  35  54  73  94 121 156 201 249 294
#     4   9  17  31  49  72 100 128 162 200 241 290
#     4  12  23  34  49  70  97 131 166 202 241 284
#     4  11  22  34  47  67  98 134 168 197 232 280
#     4  10  19  31  48  71  98 130 166 202 243 289
#
# _framework density 16.408937000000002
#
# number of rings (size 3 to 8) (size 9 to 14) (size 15 to 20)
#    0.000    2.000    1.250    3.375    0.000    4.000 
#    0.000    0.000    0.000    0.000    0.000    0.875 
#    0.000    3.000    0.000    0.000    0.000    0.000 
#
# Total GULP energy -793279.885046 kJ/mol
# GULP energy per Si atom -12394.998204 kJ/mol
# Density = 1.637159 g / cm^3
# Si number density = 16.408937 Si / 1000 Ang^3
#
#
#
# Elastic Constant Matrix: (Units=GPa)
#
#
# Indices 1 2 3 4 5 6 
#
# 1 90.5333 29.4249 43.3299 0.0000 0.0000 0.0000
# 2 29.4249 44.1439 25.6245 0.0000 0.0000 0.0000
# 3 43.3299 25.6245 106.1347 0.0000 0.0000 0.0000
# 4 0.0000 0.0000 0.0000 18.1684 0.0000 0.0000
# 5 0.0000 0.0000 0.0000 0.0000 10.8099 0.0000
# 6 0.0000 0.0000 0.0000 0.0000 0.0000 28.3444
#
#
#
# Elastic Compliance Matrix: (Units=1/GPa)
#
#
# Indices 1 2 3 4 5 6 
#
# 1 0.015780 -0.007884 -0.004539 0.000000 0.000000 0.000000
# 2 -0.007884 0.030284 -0.004093 0.000000 0.000000 0.000000
# 3 -0.004539 -0.004093 0.012263 0.000000 0.000000 0.000000
# 4 0.000000 0.000000 0.000000 0.055041 0.000000 0.000000
# 5 0.000000 0.000000 0.000000 0.000000 0.092508 0.000000
# 6 0.000000 0.000000 0.000000 0.000000 0.000000 0.035280
#
#
# Mechanical properties :
#
#
# Convention : Reuss Voigt Hill
#
# Bulk Modulus (GPa) = 39.53181 48.61897 44.07539
# Shear Modulus (GPa) = 17.69155 20.96005 19.32580
#
# Velocity S-wave (km/s) = 3.28711 3.57789 3.43557
# Velocity P-wave (km/s) = 6.20892 6.83829 6.53119
#
# Compressibility (1/GPa) = 0.02529608
#
# Stress axis : x y z
#
# Youngs Moduli (GPa) = 63.36937 33.02041 81.54457
#
# Poissons Ratio (x) = 0.26033 0.37013
# Poissons Ratio (y) = 0.49960 0.33376
# Poissons Ratio (z) = 0.28763 0.13515
#
# Static dielectric constant tensor:
#      x y z
#    x 3.031660 0.000000 0.000000 
#    y 0.000000 2.981670 0.000000 
#    z 0.000000 0.000000 3.546210 
# 
# 
# High freq. dielectric constant tensor:
#      x y z
#    x 1.609050 0.000000 0.000000 
#    y 0.000000 1.643920 0.000000 
#    z 0.000000 0.000000 1.626810 
# 
# From -- ./inp_files/21841.got.cif
#   From: 2010.03.12/outbox.cif.g09.slc.cpg/sg59_11_cif.got.tgz:21841.got - 2010.04.16 16:29:54.
