data_PCOD8240943
_publ_section_title
;
Structure prediction by ZEFSAII (Michael W. Deem and Ramdas Pophale) SiO2 
 PCOD8240943
Probable space group: P M M N
;
_chemical_formula_sum "Si O2"
_cell_formula_units_Z 48
_cell_length_a 8.783487
_cell_length_b 18.488427
_cell_length_c 16.142217
_cell_angle_alpha 90.000000
_cell_angle_beta 90.000000
_cell_angle_gamma 90.000000
_cell_volume 2621.380756
_symmetry_space_group_name_H-M "P M M N"
_symmetry_group_IT_number 59
_space_group.IT_coordinate_system_code '2'
_symmetry_cell_setting 'orthorhombic'
loop_
_space_group_symop_operation_xyz
x,y,z
1/2-x,1/2-y,z
1/2+x,-y,-z
-x,1/2+y,-z
-x,-y,-z
1/2+x,1/2+y,-z
1/2-x,y,z
x,1/2-y,z
loop_
_atom_site_type_symbol
_atom_site_label
_atom_site_fract_x
_atom_site_fract_y
_atom_site_fract_z
Si Si1 0.925794 0.666858 0.022086
Si Si2 0.072174 0.540227 0.742805
Si Si3 0.069555 0.973022 0.415234
Si Si4 0.070278 0.670501 0.331132
Si Si5 0.925440 0.833481 0.832177
Si Si6 0.927960 0.411832 0.830914
O O1 0.750000 0.651578 0.042623
O O2 0.965952 0.750000 0.039780
O O3 0.031495 0.617063 0.078656
O O4 0.962507 0.647566 0.927361
O O5 0.250000 0.532218 0.726256
O O6 0.984063 0.525584 0.657658
O O7 0.033810 0.620970 0.772273
O O8 0.018632 0.485607 0.814577
O O9 0.250000 0.976126 0.420626
O O10 0.012904 0.890642 0.395922
O O11 0.000000 0.000000 0.500000
O O12 0.250000 0.676107 0.337387
O O13 0.998299 0.750000 0.350367
O O14 0.023748 0.647112 0.238205
O O15 0.750000 0.851579 0.813131
O O16 0.960208 0.750000 0.814220
O O17 0.750000 0.429575 0.825660
#
# Coordination Sequence:
#
# PCOD8240943 Si02
#       6
#     8   8   8   8   8   8
#     4   9  18  32  50  74 105 140 177 219 267 313
#     4  11  22  36  55  78 104 135 173 217 264 315
#     4  10  20  36  58  81 107 138 170 210 262 318
#     4   8  15  29  50  76 103 131 166 209 255 301
#     4   9  19  37  57  75 101 138 178 222 269 313
#     4  10  19  31  50  76 106 140 176 215 261 314
#
# _framework density 18.310960000000001
#
# number of rings (size 3 to 8) (size 9 to 14) (size 15 to 20)
#    0.000    2.500    0.000    5.000    0.000    2.667 
#    0.000    2.500    0.000   13.000    0.000    0.000 
#    0.000    0.000    0.000    0.000    0.000    0.000 
#
# Total GULP energy -595174.405174 kJ/mol
# GULP energy per Si atom -12399.466774 kJ/mol
# Density = 1.826928 g / cm^3
# Si number density = 18.310960 Si / 1000 Ang^3
#
#
#
# Elastic Constant Matrix: (Units=GPa)
#
#
# Indices 1 2 3 4 5 6 
#
# 1 71.5798 35.6708 34.6734 0.0000 0.0000 0.0000
# 2 35.6708 112.4782 64.4106 0.0000 0.0000 0.0000
# 3 34.6734 64.4106 96.1658 0.0000 0.0000 0.0000
# 4 0.0000 0.0000 0.0000 26.8976 0.0000 0.0000
# 5 0.0000 0.0000 0.0000 0.0000 32.4722 0.0000
# 6 0.0000 0.0000 0.0000 0.0000 0.0000 25.7482
#
#
#
# Elastic Compliance Matrix: (Units=1/GPa)
#
#
# Indices 1 2 3 4 5 6 
#
# 1 0.017592 -0.003158 -0.004228 0.000000 0.000000 0.000000
# 2 -0.003158 0.014989 -0.008901 0.000000 0.000000 0.000000
# 3 -0.004228 -0.008901 0.017885 0.000000 0.000000 0.000000
# 4 0.000000 0.000000 0.000000 0.037178 0.000000 0.000000
# 5 0.000000 0.000000 0.000000 0.000000 0.030796 0.000000
# 6 0.000000 0.000000 0.000000 0.000000 0.000000 0.038838
#
#
# Mechanical properties :
#
#
# Convention : Reuss Voigt Hill
#
# Bulk Modulus (GPa) = 55.88886 61.08149 58.48518
# Shear Modulus (GPa) = 25.53429 26.72155 26.12792
#
# Velocity S-wave (km/s) = 3.73833 3.82425 3.78153
# Velocity P-wave (km/s) = 7.01582 7.27531 7.14675
#
# Compressibility (1/GPa) = 0.01789265
#
# Stress axis : x y z
#
# Youngs Moduli (GPa) = 56.84361 66.71451 55.91342
#
# Poissons Ratio (x) = 0.21069 0.23639
# Poissons Ratio (y) = 0.17951 0.49768
# Poissons Ratio (z) = 0.24032 0.59382
#
# Static dielectric constant tensor:
#      x y z
#    x 3.209810 0.000000 0.000000 
#    y 0.000000 3.589260 0.000000 
#    z 0.000000 0.000000 3.246700 
# 
# 
# High freq. dielectric constant tensor:
#      x y z
#    x 1.698110 0.000000 0.000000 
#    y 0.000000 1.713290 0.000000 
#    z 0.000000 0.000000 1.697650 
# 
# From -- ./inp_files/20362.got.cif
#   From: 2010.03.12/outbox.cif.g09.slc.cpg/sg59_11_cif.got.tgz:20362.got - 2010.04.16 16:29:54.
