data_PCOD8240983
_publ_section_title
;
Structure prediction by ZEFSAII (Michael W. Deem and Ramdas Pophale) SiO2 
 PCOD8240983
Probable space group: P M M N
;
_chemical_formula_sum "Si O2"
_cell_formula_units_Z 32
_cell_length_a 14.927092
_cell_length_b 13.758052
_cell_length_c 9.604433
_cell_angle_alpha 90.000000
_cell_angle_beta 90.000000
_cell_angle_gamma 90.000000
_cell_volume 1972.440391
_symmetry_space_group_name_H-M "P M M N"
_symmetry_group_IT_number 59
_space_group.IT_coordinate_system_code '2'
_symmetry_cell_setting 'orthorhombic'
loop_
_space_group_symop_operation_xyz
x,y,z
1/2-x,1/2-y,z
1/2+x,-y,-z
-x,1/2+y,-z
-x,-y,-z
1/2+x,1/2+y,-z
1/2-x,y,z
x,1/2-y,z
loop_
_atom_site_type_symbol
_atom_site_label
_atom_site_fract_x
_atom_site_fract_y
_atom_site_fract_z
Si Si1 0.021624 0.545943 0.291165
Si Si2 0.978192 0.358491 0.425147
Si Si3 0.351636 0.947760 0.771141
Si Si4 0.147554 0.639381 0.073225
O O1 0.029791 0.628181 0.408887
O O2 0.088953 0.567876 0.167015
O O3 0.045703 0.439514 0.358859
O O4 0.919114 0.540823 0.232063
O O5 0.013798 0.250000 0.394800
O O6 0.880294 0.374344 0.353871
O O7 0.250000 0.983648 0.749129
O O8 0.363770 0.890232 0.914002
O O9 0.250000 0.628911 0.121278
O O10 0.114169 0.750000 0.090625
#
# Coordination Sequence:
#
# PCOD8240983 Si02
#       4
#     8   8   8   8
#     4   9  19  33  48  75 103 131 162 204 249 292
#     4   9  18  32  50  72  97 129 167 204 245 288
#     4   9  18  32  50  75 101 128 162 200 248 294
#     4  10  19  31  51  77 102 128 163 208 251 289
#
# _framework density 16.223558000000001
#
# number of rings (size 3 to 8) (size 9 to 14) (size 15 to 20)
#    1.500    1.250    0.000    2.250    0.000    2.500 
#    0.000    0.000    0.000    5.250    0.000    7.000 
#    0.000    0.000    0.000    0.000    0.000    0.000 
#
# Total GULP energy -396427.445076 kJ/mol
# GULP energy per Si atom -12388.357659 kJ/mol
# Density = 1.618663 g / cm^3
# Si number density = 16.223558 Si / 1000 Ang^3
#
#
#
# Elastic Constant Matrix: (Units=GPa)
#
#
# Indices 1 2 3 4 5 6 
#
# 1 85.7199 47.7192 49.8707 0.0000 0.0000 0.0000
# 2 47.7192 76.6353 40.7052 0.0000 0.0000 0.0000
# 3 49.8707 40.7052 69.8647 0.0000 0.0000 0.0000
# 4 0.0000 0.0000 0.0000 18.1568 0.0000 0.0000
# 5 0.0000 0.0000 0.0000 0.0000 18.4623 0.0000
# 6 0.0000 0.0000 0.0000 0.0000 0.0000 18.3520
#
#
#
# Elastic Compliance Matrix: (Units=1/GPa)
#
#
# Indices 1 2 3 4 5 6 
#
# 1 0.022968 -0.008100 -0.011675 0.000000 0.000000 0.000000
# 2 -0.008100 0.021753 -0.006892 0.000000 0.000000 0.000000
# 3 -0.011675 -0.006892 0.026663 0.000000 0.000000 0.000000
# 4 0.000000 0.000000 0.000000 0.055076 0.000000 0.000000
# 5 0.000000 0.000000 0.000000 0.000000 0.054164 0.000000
# 6 0.000000 0.000000 0.000000 0.000000 0.000000 0.054490
#
#
# Mechanical properties :
#
#
# Convention : Reuss Voigt Hill
#
# Bulk Modulus (GPa) = 55.40523 56.53444 55.96984
# Shear Modulus (GPa) = 16.97990 17.25588 17.11789
#
# Velocity S-wave (km/s) = 3.23866 3.26487 3.25179
# Velocity P-wave (km/s) = 6.94338 7.00966 6.97660
#
# Compressibility (1/GPa) = 0.01804884
#
# Stress axis : x y z
#
# Youngs Moduli (GPa) = 43.53938 45.96987 37.50495
#
# Poissons Ratio (x) = 0.37236 0.43789
# Poissons Ratio (y) = 0.35267 0.25849
# Poissons Ratio (z) = 0.50834 0.31683
#
# Static dielectric constant tensor:
#      x y z
#    x 2.892290 0.000000 0.000000 
#    y 0.000000 2.884690 0.000000 
#    z 0.000000 0.000000 3.068560 
# 
# 
# High freq. dielectric constant tensor:
#      x y z
#    x 1.596550 0.000000 0.000000 
#    y 0.000000 1.608770 0.000000 
#    z 0.000000 0.000000 1.637230 
# 
# From -- ./inp_files/7023.got.cif
#   From: 2010.03.12/outbox.cif.g09.slc.cpg/sg59_4_cif.got.tgz:7023.got - 2010.04.16 16:29:54.
