data_PCOD8240704
_publ_section_title
;
Structure prediction by ZEFSAII (Michael W. Deem and Ramdas Pophale) SiO2 
 PCOD8240704
Probable space group: P M M N
;
_chemical_formula_sum "Si O2"
_cell_formula_units_Z 48
_cell_length_a 19.255556
_cell_length_b 9.067851
_cell_length_c 16.263815
_cell_angle_alpha 90.000000
_cell_angle_beta 90.000000
_cell_angle_gamma 90.000000
_cell_volume 2839.768021
_symmetry_space_group_name_H-M "P M M N"
_symmetry_group_IT_number 59
_space_group.IT_coordinate_system_code '2'
_symmetry_cell_setting 'orthorhombic'
loop_
_space_group_symop_operation_xyz
x,y,z
1/2-x,1/2-y,z
1/2+x,-y,-z
-x,1/2+y,-z
-x,-y,-z
1/2+x,1/2+y,-z
1/2-x,y,z
x,1/2-y,z
loop_
_atom_site_type_symbol
_atom_site_label
_atom_site_fract_x
_atom_site_fract_y
_atom_site_fract_z
Si Si1 0.982430 0.584157 0.259848
Si Si2 0.528291 0.924644 0.580988
Si Si3 0.362413 0.913857 0.196709
Si Si4 0.825522 0.581718 0.646956
Si Si5 0.058538 0.916748 0.892026
Si Si6 0.098724 0.416112 0.045963
O O1 0.954890 0.750000 0.278351
O O2 0.932536 0.502772 0.194433
O O3 0.984585 0.488796 0.342959
O O4 0.057415 0.593151 0.219769
O O5 0.516974 0.750000 0.576389
O O6 0.610308 0.967516 0.589130
O O7 0.500000 0.000000 0.500000
O O8 0.332805 0.750000 0.182833
O O9 0.320437 0.988612 0.270057
O O10 0.352047 0.005357 0.112910
O O11 0.750000 0.563908 0.601951
O O12 0.838881 0.750000 0.673383
O O13 0.085354 0.750000 0.880372
O O14 0.979563 0.916438 0.921712
O O15 0.105513 0.997485 0.960077
O O16 0.125132 0.250000 0.032412
#
# Coordination Sequence:
#
# PCOD8240704 Si02
#       6
#     8   8   8   8   8   8
#     4   9  16  26  39  56  80 110 143 177 217 266
#     4  10  19  31  47  66  89 117 149 187 233 283
#     4   9  16  25  38  57  81 109 141 177 215 255
#     4   9  18  32  48  65  87 117 151 185 223 271
#     4   9  15  22  33  51  76 106 140 176 212 249
#     4   9  15  22  33  50  75 108 142 173 206 246
#
# _framework density 16.902788999999999
#
# number of rings (size 3 to 8) (size 9 to 14) (size 15 to 20)
#    0.000    2.833    0.000    2.500    0.000    9.000 
#    0.000    0.000    0.000    0.000    0.000    0.000 
#    0.000    1.333    0.000    8.000    0.000   12.000 
#
# Total GULP energy -594958.431182 kJ/mol
# GULP energy per Si atom -12394.967316 kJ/mol
# Density = 1.686432 g / cm^3
# Si number density = 16.902789 Si / 1000 Ang^3
#
#
#
# Elastic Constant Matrix: (Units=GPa)
#
#
# Indices 1 2 3 4 5 6 
#
# 1 41.4617 28.8005 38.2019 0.0000 0.0000 0.0000
# 2 28.8005 139.6671 70.2865 0.0000 0.0000 0.0000
# 3 38.2019 70.2865 130.4814 0.0000 0.0000 0.0000
# 4 0.0000 0.0000 0.0000 36.7738 0.0000 0.0000
# 5 0.0000 0.0000 0.0000 0.0000 11.8192 0.0000
# 6 0.0000 0.0000 0.0000 0.0000 0.0000 9.6052
#
#
#
# Elastic Compliance Matrix: (Units=1/GPa)
#
#
# Indices 1 2 3 4 5 6 
#
# 1 0.033769 -0.002727 -0.008418 0.000000 0.000000 0.000000
# 2 -0.002727 0.010043 -0.004611 0.000000 0.000000 0.000000
# 3 -0.008418 -0.004611 0.012612 0.000000 0.000000 0.000000
# 4 0.000000 0.000000 0.000000 0.027193 0.000000 0.000000
# 5 0.000000 0.000000 0.000000 0.000000 0.084608 0.000000
# 6 0.000000 0.000000 0.000000 0.000000 0.000000 0.104111
#
#
# Mechanical properties :
#
#
# Convention : Reuss Voigt Hill
#
# Bulk Modulus (GPa) = 40.14178 65.13199 52.63689
# Shear Modulus (GPa) = 16.01781 23.26107 19.63944
#
# Velocity S-wave (km/s) = 3.08172 3.71370 3.41237
# Velocity P-wave (km/s) = 6.03845 7.55021 6.83625
#
# Compressibility (1/GPa) = 0.02491170
#
# Stress axis : x y z
#
# Youngs Moduli (GPa) = 29.61303 99.57294 79.28712
#
# Poissons Ratio (x) = 0.27157 0.66741
# Poissons Ratio (y) = 0.08076 0.36562
# Poissons Ratio (z) = 0.24927 0.45916
#
# Static dielectric constant tensor:
#      x y z
#    x 2.709730 0.000000 0.000000 
#    y 0.000000 3.458280 0.000000 
#    z 0.000000 0.000000 3.124410 
# 
# 
# High freq. dielectric constant tensor:
#      x y z
#    x 1.586750 0.000000 0.000000 
#    y 0.000000 1.673410 0.000000 
#    z 0.000000 0.000000 1.639180 
# 
# From -- ./inp_files/21248.got.cif
#   From: 2010.03.12/outbox.cif.g09.slc.cpg/sg59_11_cif.got.tgz:21248.got - 2010.04.16 16:29:54.
