data_PCOD8240431
_publ_section_title
;
Structure prediction by ZEFSAII (Michael W. Deem and Ramdas Pophale) SiO2 
 PCOD8240431
Probable space group: P M M N
;
_chemical_formula_sum "Si O2"
_cell_formula_units_Z 64
_cell_length_a 24.547928
_cell_length_b 8.988417
_cell_length_c 18.535625
_cell_angle_alpha 90.000000
_cell_angle_beta 90.000000
_cell_angle_gamma 90.000000
_cell_volume 4089.830297
_symmetry_space_group_name_H-M "P M M N"
_symmetry_group_IT_number 59
_space_group.IT_coordinate_system_code '2'
_symmetry_cell_setting 'orthorhombic'
loop_
_space_group_symop_operation_xyz
x,y,z
1/2-x,1/2-y,z
1/2+x,-y,-z
-x,1/2+y,-z
-x,-y,-z
1/2+x,1/2+y,-z
1/2-x,y,z
x,1/2-y,z
loop_
_atom_site_type_symbol
_atom_site_label
_atom_site_fract_x
_atom_site_fract_y
_atom_site_fract_z
Si Si1 0.546791 0.585657 0.092162
Si Si2 0.923568 0.414822 0.961150
Si Si3 0.015020 0.924047 0.610583
Si Si4 0.812602 0.416017 0.734109
Si Si5 0.396838 0.076128 0.176911
Si Si6 0.583914 0.923874 0.509667
Si Si7 0.498423 0.073531 0.760150
Si Si8 0.688033 0.423082 0.567372
O O1 0.572754 0.750000 0.088034
O O2 0.486140 0.590808 0.061139
O O3 0.543961 0.531395 0.175456
O O4 0.582955 0.476586 0.042799
O O5 0.897929 0.250000 0.959101
O O6 0.891898 0.520223 0.905387
O O7 0.024485 0.750000 0.621796
O O8 0.954756 0.956568 0.578703
O O9 0.061293 0.985936 0.558111
O O10 0.023319 0.006268 0.686178
O O11 0.750000 0.417976 0.755739
O O12 0.836503 0.250000 0.748044
O O13 0.840797 0.539793 0.783218
O O14 0.820285 0.459855 0.651064
O O15 0.409049 0.250000 0.176951
O O16 0.443061 0.993455 0.222091
O O17 0.583920 0.750000 0.490852
O O18 0.645401 0.977191 0.523485
O O19 0.504650 0.250000 0.753700
O O20 0.750000 0.463406 0.543918
O O21 0.676484 0.250000 0.552103
#
# Coordination Sequence:
#
# PCOD8240431 Si02
#       8
#     8   8   8   8   8   8   8   8
#     4   8  15  26  39  57  81 108 137 171 208 244
#     4   9  16  26  40  57  79 109 142 173 206 244
#     4  10  20  32  46  65  89 118 151 186 224 267
#     4   9  18  32  47  62  83 112 145 181 220 259
#     4  11  20  28  41  61  86 115 147 181 215 256
#     4  10  20  32  46  65  89 118 150 184 223 266
#     4  10  19  30  44  62  86 115 146 179 216 260
#     4   9  18  32  49  67  87 114 147 184 226 267
#
# _framework density 15.648571
#
# number of rings (size 3 to 8) (size 9 to 14) (size 15 to 20)
#    0.000    2.500    0.000    4.875    0.000    8.000 
#    0.000    1.250    0.000    0.000    0.000    0.000 
#    0.000    1.000    0.000   10.500    0.000    4.750 
#
# Total GULP energy -793471.164664 kJ/mol
# GULP energy per Si atom -12397.986948 kJ/mol
# Density = 1.561295 g / cm^3
# Si number density = 15.648571 Si / 1000 Ang^3
#
#
#
# Elastic Constant Matrix: (Units=GPa)
#
#
# Indices 1 2 3 4 5 6 
#
# 1 58.1442 32.3969 32.0531 0.0000 0.0000 0.0000
# 2 32.3969 100.0416 56.6921 0.0000 0.0000 0.0000
# 3 32.0531 56.6921 106.8755 0.0000 0.0000 0.0000
# 4 0.0000 0.0000 0.0000 30.4671 0.0000 0.0000
# 5 0.0000 0.0000 0.0000 0.0000 15.8024 0.0000
# 6 0.0000 0.0000 0.0000 0.0000 0.0000 22.5628
#
#
#
# Elastic Compliance Matrix: (Units=1/GPa)
#
#
# Indices 1 2 3 4 5 6 
#
# 1 0.022151 -0.004874 -0.004058 0.000000 0.000000 0.000000
# 2 -0.004874 0.015364 -0.006688 0.000000 0.000000 0.000000
# 3 -0.004058 -0.006688 0.014122 0.000000 0.000000 0.000000
# 4 0.000000 0.000000 0.000000 0.032822 0.000000 0.000000
# 5 0.000000 0.000000 0.000000 0.000000 0.063282 0.000000
# 6 0.000000 0.000000 0.000000 0.000000 0.000000 0.044321
#
#
# Mechanical properties :
#
#
# Convention : Reuss Voigt Hill
#
# Bulk Modulus (GPa) = 49.02716 56.37173 52.69945
# Shear Modulus (GPa) = 21.72958 23.36105 22.54532
#
# Velocity S-wave (km/s) = 3.73043 3.86794 3.79981
# Velocity P-wave (km/s) = 7.06774 7.48664 7.28020
#
# Compressibility (1/GPa) = 0.02039686
#
# Stress axis : x y z
#
# Youngs Moduli (GPa) = 45.14417 65.08607 70.81352
#
# Poissons Ratio (x) = 0.31720 0.28737
# Poissons Ratio (y) = 0.22002 0.47362
# Poissons Ratio (z) = 0.18320 0.43532
#
# Static dielectric constant tensor:
#      x y z
#    x 2.634120 0.000000 0.000000 
#    y 0.000000 3.099750 0.000000 
#    z 0.000000 0.000000 3.064560 
# 
# 
# High freq. dielectric constant tensor:
#      x y z
#    x 1.553260 0.000000 0.000000 
#    y 0.000000 1.613470 0.000000 
#    z 0.000000 0.000000 1.596680 
# 
# From -- ./inp_files/28508.got.cif
#   From: 2010.03.12/outbox.cif.g09.slc.cpg/sg59_15_cif.got.tgz:28508.got - 2010.04.16 16:29:54.
