data_PCOD8240194
_publ_section_title
;
Structure prediction by ZEFSAII (Michael W. Deem and Ramdas Pophale) SiO2 
 PCOD8240194
Probable space group: P M M N
;
_chemical_formula_sum "Si O2"
_cell_formula_units_Z 48
_cell_length_a 14.656582
_cell_length_b 8.728843
_cell_length_c 19.754357
_cell_angle_alpha 90.000000
_cell_angle_beta 90.000000
_cell_angle_gamma 90.000000
_cell_volume 2527.273726
_symmetry_space_group_name_H-M "P M M N"
_symmetry_group_IT_number 59
_space_group.IT_coordinate_system_code '2'
_symmetry_cell_setting 'orthorhombic'
loop_
_space_group_symop_operation_xyz
x,y,z
1/2-x,1/2-y,z
1/2+x,-y,-z
-x,1/2+y,-z
-x,-y,-z
1/2+x,1/2+y,-z
1/2-x,y,z
x,1/2-y,z
loop_
_atom_site_type_symbol
_atom_site_label
_atom_site_fract_x
_atom_site_fract_y
_atom_site_fract_z
Si Si1 0.145493 0.428139 0.919993
Si Si2 0.445722 0.929833 0.561900
Si Si3 0.856436 0.073036 0.938538
Si Si4 0.750000 0.428758 0.485296
Si Si5 0.492435 0.069262 0.164360
Si Si6 0.750000 0.568583 0.631799
Si Si7 0.440135 0.067808 0.312342
O O1 0.250000 0.462279 0.901037
O O2 0.128577 0.250000 0.934068
O O3 0.084957 0.485596 0.857834
O O4 0.115209 0.520356 0.986583
O O5 0.460393 0.750000 0.557467
O O6 0.338917 0.973855 0.558512
O O7 0.486876 0.992700 0.632407
O O8 0.500000 0.000000 0.500000
O O9 0.750000 0.044444 0.926246
O O10 0.883748 0.250000 0.930135
O O11 0.908935 0.971427 0.884344
O O12 0.750000 0.250000 0.503822
O O13 0.750000 0.522514 0.554005
O O14 0.508616 0.250000 0.163976
O O15 0.469057 0.006101 0.238969
O O16 0.750000 0.750000 0.635127
O O17 0.660127 0.502566 0.668977
O O18 0.437455 0.250000 0.311550
#
# Coordination Sequence:
#
# PCOD8240194 Si02
#       7
#     8   8   8   4   8   4   8
#     4  10  21  39  61  82 108 144 185 230 277 325
#     4  10  19  35  55  80 109 141 182 225 271 321
#     4  10  21  37  58  85 114 145 184 228 273 326
#     4  10  20  32  54  84 110 135 174 231 282 319
#     4  11  22  36  56  82 112 148 186 226 275 328
#     4  10  18  34  58  80 106 141 182 221 264 327
#     4   9  20  35  54  80 109 144 182 221 267 324
#
# _framework density 18.992798000000001
#
# number of rings (size 3 to 8) (size 9 to 14) (size 15 to 20)
#    0.000    2.000    1.667    2.000    1.167    2.000 
#    1.500    3.333    0.000    0.000    0.000    0.000 
#    0.000    0.000    0.000    0.000    0.000    0.000 
#
# Total GULP energy -595308.921321 kJ/mol
# GULP energy per Si atom -12402.269194 kJ/mol
# Density = 1.894957 g / cm^3
# Si number density = 18.992798 Si / 1000 Ang^3
#
#
#
# Elastic Constant Matrix: (Units=GPa)
#
#
# Indices 1 2 3 4 5 6 
#
# 1 148.6905 24.8344 84.5755 0.0000 0.0000 0.0000
# 2 24.8344 32.2050 14.3251 0.0000 0.0000 0.0000
# 3 84.5755 14.3251 141.9713 0.0000 0.0000 0.0000
# 4 0.0000 0.0000 0.0000 26.8771 0.0000 0.0000
# 5 0.0000 0.0000 0.0000 0.0000 24.0140 0.0000
# 6 0.0000 0.0000 0.0000 0.0000 0.0000 24.5380
#
#
#
# Elastic Compliance Matrix: (Units=1/GPa)
#
#
# Indices 1 2 3 4 5 6 
#
# 1 0.011152 -0.005910 -0.006047 0.000000 0.000000 0.000000
# 2 -0.005910 0.035642 -0.000076 0.000000 0.000000 0.000000
# 3 -0.006047 -0.000076 0.010654 0.000000 0.000000 0.000000
# 4 0.000000 0.000000 0.000000 0.037206 0.000000 0.000000
# 5 0.000000 0.000000 0.000000 0.000000 0.041642 0.000000
# 6 0.000000 0.000000 0.000000 0.000000 0.000000 0.040753
#
#
# Mechanical properties :
#
#
# Convention : Reuss Voigt Hill
#
# Bulk Modulus (GPa) = 29.95595 63.37073 46.66334
# Shear Modulus (GPa) = 23.55790 28.36128 25.95959
#
# Velocity S-wave (km/s) = 3.52569 3.86847 3.70105
# Velocity P-wave (km/s) = 5.69039 7.30695 6.54874
#
# Compressibility (1/GPa) = 0.03338235
#
# Stress axis : x y z
#
# Youngs Moduli (GPa) = 89.66867 28.05671 93.86313
#
# Poissons Ratio (x) = 0.16581 0.56762
# Poissons Ratio (y) = 0.52994 0.00710
# Poissons Ratio (z) = 0.54225 0.00212
#
# Static dielectric constant tensor:
#      x y z
#    x 3.790900 0.000000 0.000000 
#    y 0.000000 3.290250 0.000000 
#    z 0.000000 0.000000 3.609610 
# 
# 
# High freq. dielectric constant tensor:
#      x y z
#    x 1.754580 0.000000 0.000000 
#    y 0.000000 1.724130 0.000000 
#    z 0.000000 0.000000 1.733360 
# 
# From -- ./inp_files/25584.got.cif
#   From: 2010.03.12/outbox.cif.g09.slc.cpg/sg59_13_cif.got.tgz:25584.got - 2010.04.16 16:29:54.
