data_PCOD8240970
_publ_section_title
;
Structure prediction by ZEFSAII (Michael W. Deem and Ramdas Pophale) SiO2 
 PCOD8240970
Probable space group: P M M N
;
_chemical_formula_sum "Si O2"
_cell_formula_units_Z 56
_cell_length_a 19.650407
_cell_length_b 9.414869
_cell_length_c 17.328627
_cell_angle_alpha 90.000000
_cell_angle_beta 90.000000
_cell_angle_gamma 90.000000
_cell_volume 3205.900100
_symmetry_space_group_name_H-M "P M M N"
_symmetry_group_IT_number 59
_space_group.IT_coordinate_system_code '2'
_symmetry_cell_setting 'orthorhombic'
loop_
_space_group_symop_operation_xyz
x,y,z
1/2-x,1/2-y,z
1/2+x,-y,-z
-x,1/2+y,-z
-x,-y,-z
1/2+x,1/2+y,-z
1/2-x,y,z
x,1/2-y,z
loop_
_atom_site_type_symbol
_atom_site_label
_atom_site_fract_x
_atom_site_fract_y
_atom_site_fract_z
Si Si1 0.827706 0.913878 0.331692
Si Si2 0.329052 0.414482 0.122862
Si Si3 0.174188 0.080961 0.949964
Si Si4 0.537409 0.411677 0.604538
Si Si5 0.067056 0.585183 0.223498
Si Si6 0.091494 0.914118 0.557760
Si Si7 0.583757 0.918873 0.188259
O O1 0.750000 0.935726 0.306886
O O2 0.843379 0.750000 0.349968
O O3 0.874521 0.972770 0.262480
O O4 0.842988 0.004944 0.408520
O O5 0.250000 0.441180 0.140816
O O6 0.347582 0.250000 0.132284
O O7 0.372817 0.502070 0.183002
O O8 0.346510 0.467340 0.036123
O O9 0.250000 0.024122 0.929506
O O10 0.175813 0.250000 0.946725
O O11 0.119421 0.019274 0.889046
O O12 0.508559 0.250000 0.603610
O O13 0.574959 0.441712 0.685037
O O14 0.475411 0.519090 0.595999
O O15 0.590828 0.434061 0.534893
O O16 0.074720 0.750000 0.203029
O O17 0.993872 0.527573 0.193627
O O18 0.094612 0.750000 0.581106
O O19 0.586260 0.750000 0.187318
#
# Coordination Sequence:
#
# PCOD8240970 Si02
#       7
#     8   8   8   8   8   8   8
#     4  10  19  32  51  74 104 140 173 208 248 295
#     4   9  19  35  52  71  98 130 165 208 253 299
#     4   8  14  27  48  72  98 131 169 204 242 292
#     4   9  18  34  52  72  99 130 165 204 246 298
#     4  10  19  32  52  76 102 128 161 209 252 293
#     4  10  19  31  51  74  98 131 167 206 251 296
#     4   9  16  28  48  75 102 129 167 208 244 291
#
# _framework density 17.467793
#
# number of rings (size 3 to 8) (size 9 to 14) (size 15 to 20)
#    0.000    2.714    1.429    1.714    0.000    4.000 
#    0.000    0.714    0.000    5.143    0.000    2.000 
#    0.000    0.000    0.000    0.000    0.000    0.000 
#
# Total GULP energy -694264.300397 kJ/mol
# GULP energy per Si atom -12397.576793 kJ/mol
# Density = 1.742804 g / cm^3
# Si number density = 17.467793 Si / 1000 Ang^3
#
#
#
# Elastic Constant Matrix: (Units=GPa)
#
#
# Indices 1 2 3 4 5 6 
#
# 1 89.9267 40.3259 67.8526 0.0000 0.0000 0.0000
# 2 40.3259 57.3707 47.7541 0.0000 0.0000 0.0000
# 3 67.8526 47.7541 133.4808 0.0000 0.0000 0.0000
# 4 0.0000 0.0000 0.0000 22.5045 0.0000 0.0000
# 5 0.0000 0.0000 0.0000 0.0000 31.7449 0.0000
# 6 0.0000 0.0000 0.0000 0.0000 0.0000 26.9034
#
#
#
# Elastic Compliance Matrix: (Units=1/GPa)
#
#
# Indices 1 2 3 4 5 6 
#
# 1 0.020392 -0.008124 -0.007459 0.000000 0.000000 0.000000
# 2 -0.008124 0.028059 -0.005909 0.000000 0.000000 0.000000
# 3 -0.007459 -0.005909 0.013397 0.000000 0.000000 0.000000
# 4 0.000000 0.000000 0.000000 0.044436 0.000000 0.000000
# 5 0.000000 0.000000 0.000000 0.000000 0.031501 0.000000
# 6 0.000000 0.000000 0.000000 0.000000 0.000000 0.037170
#
#
# Mechanical properties :
#
#
# Convention : Reuss Voigt Hill
#
# Bulk Modulus (GPa) = 53.01125 65.84925 59.43025
# Shear Modulus (GPa) = 22.29884 24.55361 23.42622
#
# Velocity S-wave (km/s) = 3.57679 3.75327 3.66609
# Velocity P-wave (km/s) = 6.88997 7.52077 7.21227
#
# Compressibility (1/GPa) = 0.01886392
#
# Stress axis : x y z
#
# Youngs Moduli (GPa) = 49.04001 35.63875 74.64215
#
# Poissons Ratio (x) = 0.28954 0.55676
# Poissons Ratio (y) = 0.39842 0.44103
# Poissons Ratio (z) = 0.36579 0.21058
#
# Static dielectric constant tensor:
#      x y z
#    x 3.191870 0.000000 0.000000 
#    y 0.000000 2.976190 0.000000 
#    z 0.000000 0.000000 3.484290 
# 
# 
# High freq. dielectric constant tensor:
#      x y z
#    x 1.663440 0.000000 0.000000 
#    y 0.000000 1.642930 0.000000 
#    z 0.000000 0.000000 1.684010 
# 
# From -- ./inp_files/28044.got.cif
#   From: 2010.03.12/outbox.cif.g09.slc.cpg/sg59_15_cif.got.tgz:28044.got - 2010.04.16 16:29:54.
