data_PCOD8240558
_publ_section_title
;
Structure prediction by ZEFSAII (Michael W. Deem and Ramdas Pophale) SiO2 
 PCOD8240558
Probable space group: P M M N
;
_chemical_formula_sum "Si O2"
_cell_formula_units_Z 48
_cell_length_a 9.030940
_cell_length_b 23.487982
_cell_length_c 13.513054
_cell_angle_alpha 90.000000
_cell_angle_beta 90.000000
_cell_angle_gamma 90.000000
_cell_volume 2866.369504
_symmetry_space_group_name_H-M "P M M N"
_symmetry_group_IT_number 59
_space_group.IT_coordinate_system_code '2'
_symmetry_cell_setting 'orthorhombic'
loop_
_space_group_symop_operation_xyz
x,y,z
1/2-x,1/2-y,z
1/2+x,-y,-z
-x,1/2+y,-z
-x,-y,-z
1/2+x,1/2+y,-z
1/2-x,y,z
x,1/2-y,z
loop_
_atom_site_type_symbol
_atom_site_label
_atom_site_fract_x
_atom_site_fract_y
_atom_site_fract_z
Si Si1 0.577294 0.684778 0.132100
Si Si2 0.579618 0.185388 0.665275
Si Si3 0.579209 0.416933 0.528463
Si Si4 0.578049 0.970820 0.647561
Si Si5 0.422259 0.583968 0.042855
Si Si6 0.577427 0.484773 0.151553
O O1 0.750000 0.671521 0.127071
O O2 0.541375 0.750000 0.105667
O O3 0.521324 0.669771 0.241654
O O4 0.492735 0.646501 0.051616
O O5 0.750000 0.176159 0.696991
O O6 0.551083 0.250000 0.629575
O O7 0.537409 0.143900 0.575237
O O8 0.750000 0.419752 0.495347
O O9 0.477641 0.424992 0.432503
O O10 0.545469 0.465584 0.609196
O O11 0.750000 0.960354 0.667941
O O12 0.488867 0.960051 0.747865
O O13 0.250000 0.586273 0.068015
O O14 0.497627 0.543414 0.123787
O O15 0.452791 0.562251 0.932358
O O16 0.750000 0.497590 0.164386
#
# Coordination Sequence:
#
# PCOD8240558 Si02
#       6
#     8   8   8   8   8   8
#     4  10  20  32  48  72 100 129 160 196 238 281
#     4   9  17  30  49  71  95 125 159 195 235 280
#     4   9  18  31  46  67  95 124 156 193 233 278
#     4  10  19  30  47  70  95 125 158 192 233 281
#     4  10  20  33  50  72  97 127 161 195 235 283
#     4  10  20  33  50  72  98 126 156 195 240 284
#
# _framework density 16.745922
#
# number of rings (size 3 to 8) (size 9 to 14) (size 15 to 20)
#    0.000    2.333    0.000    3.000    0.000    5.667 
#    0.000    0.000    0.000    1.000    0.000    2.333 
#    0.000    0.000    0.000    0.000    0.000    0.000 
#
# Total GULP energy -595396.628211 kJ/mol
# GULP energy per Si atom -12404.096421 kJ/mol
# Density = 1.670781 g / cm^3
# Si number density = 16.745922 Si / 1000 Ang^3
#
#
#
# Elastic Constant Matrix: (Units=GPa)
#
#
# Indices 1 2 3 4 5 6 
#
# 1 102.1792 53.9418 59.1668 0.0000 0.0000 0.0000
# 2 53.9418 101.7165 53.3169 0.0000 0.0000 0.0000
# 3 59.1668 53.3169 97.2912 0.0000 0.0000 0.0000
# 4 0.0000 0.0000 0.0000 23.7432 0.0000 0.0000
# 5 0.0000 0.0000 0.0000 0.0000 31.6806 0.0000
# 6 0.0000 0.0000 0.0000 0.0000 0.0000 27.5074
#
#
#
# Elastic Compliance Matrix: (Units=1/GPa)
#
#
# Indices 1 2 3 4 5 6 
#
# 1 0.016719 -0.004962 -0.007448 0.000000 0.000000 0.000000
# 2 -0.004962 0.015266 -0.005348 0.000000 0.000000 0.000000
# 3 -0.007448 -0.005348 0.017739 0.000000 0.000000 0.000000
# 4 0.000000 0.000000 0.000000 0.042117 0.000000 0.000000
# 5 0.000000 0.000000 0.000000 0.000000 0.031565 0.000000
# 6 0.000000 0.000000 0.000000 0.000000 0.000000 0.036354
#
#
# Mechanical properties :
#
#
# Convention : Reuss Voigt Hill
#
# Bulk Modulus (GPa) = 70.38933 70.44867 70.41900
# Shear Modulus (GPa) = 24.99820 25.57033 25.28427
#
# Velocity S-wave (km/s) = 3.86786 3.91187 3.88993
# Velocity P-wave (km/s) = 7.87858 7.90975 7.89418
#
# Compressibility (1/GPa) = 0.01420670
#
# Stress axis : x y z
#
# Youngs Moduli (GPa) = 59.81095 65.50375 56.37298
#
# Poissons Ratio (x) = 0.32505 0.41988
# Poissons Ratio (y) = 0.29680 0.30150
# Poissons Ratio (z) = 0.44549 0.35034
#
# Static dielectric constant tensor:
#      x y z
#    x 3.251360 0.000000 0.000000 
#    y 0.000000 3.151780 0.000000 
#    z 0.000000 0.000000 2.980810 
# 
# 
# High freq. dielectric constant tensor:
#      x y z
#    x 1.658930 0.000000 0.000000 
#    y 0.000000 1.635680 0.000000 
#    z 0.000000 0.000000 1.631330 
# 
# From -- ./inp_files/14312.got.cif
#   From: 2010.03.12/outbox.cif.g09.slc.cpg/sg59_8_cif.got.tgz:14312.got - 2010.04.16 16:29:54.
