data_PCOD8240263
_publ_section_title
;
Structure prediction by ZEFSAII (Michael W. Deem and Ramdas Pophale) SiO2 
 PCOD8240263
Probable space group: P M M N
;
_chemical_formula_sum "Si O2"
_cell_formula_units_Z 56
_cell_length_a 31.255264
_cell_length_b 9.019976
_cell_length_c 13.377549
_cell_angle_alpha 90.000000
_cell_angle_beta 90.000000
_cell_angle_gamma 90.000000
_cell_volume 3771.421773
_symmetry_space_group_name_H-M "P M M N"
_symmetry_group_IT_number 59
_space_group.IT_coordinate_system_code '2'
_symmetry_cell_setting 'orthorhombic'
loop_
_space_group_symop_operation_xyz
x,y,z
1/2-x,1/2-y,z
1/2+x,-y,-z
-x,1/2+y,-z
-x,-y,-z
1/2+x,1/2+y,-z
1/2-x,y,z
x,1/2-y,z
loop_
_atom_site_type_symbol
_atom_site_label
_atom_site_fract_x
_atom_site_fract_y
_atom_site_fract_z
Si Si1 0.043578 0.425917 0.279063
Si Si2 0.460769 0.417098 0.708940
Si Si3 0.380005 0.580689 0.625815
Si Si4 0.203064 0.416332 0.626228
Si Si5 0.797075 0.583532 0.611139
Si Si6 0.880263 0.419924 0.610643
Si Si7 0.491048 0.917541 0.102058
O O1 0.041607 0.250000 0.273697
O O2 0.084889 0.475699 0.339360
O O3 0.045214 0.494623 0.166371
O O4 0.000920 0.488452 0.335623
O O5 0.463137 0.250000 0.665822
O O6 0.416049 0.487599 0.680797
O O7 0.465653 0.415623 0.830197
O O8 0.385042 0.750000 0.657657
O O9 0.333977 0.524711 0.665905
O O10 0.384265 0.558834 0.507666
O O11 0.250000 0.469989 0.664518
O O12 0.193908 0.250000 0.665162
O O13 0.203107 0.416910 0.507531
O O14 0.750000 0.532159 0.649899
O O15 0.806911 0.750000 0.649721
O O16 0.833582 0.471642 0.649926
O O17 0.887358 0.250000 0.642318
O O18 0.475286 0.750000 0.080391
O O19 0.500000 0.000000 0.000000
#
# Coordination Sequence:
#
# PCOD8240263 Si02
#       7
#     8   8   8   8   8   8   8
#     4  10  19  31  46  63  84 112 144 178 212 252
#     4   9  19  32  45  62  85 111 142 177 210 254
#     4  10  19  28  41  60  85 117 149 181 215 250
#     4   8  14  25  40  56  77 108 144 180 216 251
#     4   8  14  25  40  57  77 106 145 182 215 251
#     4  10  19  29  40  59  87 117 149 181 214 253
#     4   9  18  32  50  68  85 108 135 171 215 255
#
# _framework density 14.848511
#
# number of rings (size 3 to 8) (size 9 to 14) (size 15 to 20)
#    0.857    2.000    0.000    3.429    0.000    2.857 
#    0.000    2.857    0.000    0.000    0.000    0.000 
#    0.000    1.143    0.000   10.000    0.000    6.143 
#
# Total GULP energy -693829.911214 kJ/mol
# GULP energy per Si atom -12389.819843 kJ/mol
# Density = 1.481472 g / cm^3
# Si number density = 14.848511 Si / 1000 Ang^3
#
#
#
# Elastic Constant Matrix: (Units=GPa)
#
#
# Indices 1 2 3 4 5 6 
#
# 1 110.9756 60.7017 24.1657 0.0000 0.0000 0.0000
# 2 60.7017 132.7035 28.9568 0.0000 0.0000 0.0000
# 3 24.1657 28.9568 26.8071 0.0000 0.0000 0.0000
# 4 0.0000 0.0000 0.0000 20.4730 0.0000 0.0000
# 5 0.0000 0.0000 0.0000 0.0000 -1.5839 0.0000
# 6 0.0000 0.0000 0.0000 0.0000 0.0000 30.5226
#
#
#
# Elastic Compliance Matrix: (Units=1/GPa)
#
#
# Indices 1 2 3 4 5 6 
#
# 1 0.012922 -0.004408 -0.006887 0.000000 0.000000 0.000000
# 2 -0.004408 0.011363 -0.008301 0.000000 0.000000 0.000000
# 3 -0.006887 -0.008301 0.052479 0.000000 0.000000 0.000000
# 4 0.000000 0.000000 0.000000 0.048845 0.000000 0.000000
# 5 0.000000 0.000000 0.000000 0.000000 -0.631356 0.000000
# 6 0.000000 0.000000 0.000000 0.000000 0.000000 0.032763
#
#
# Mechanical properties :
#
#
# Convention : Reuss Voigt Hill
#
# Bulk Modulus (GPa) = 26.61573 55.34829 40.98201
# Shear Modulus (GPa) = -11.86888 20.32648 4.22880
#
# Velocity S-wave (km/s) = -2.83031 3.70391 1.68942
# Velocity P-wave (km/s) = 2.69868 7.45977 5.60941
#
# Compressibility (1/GPa) = 0.03757177
#
# Stress axis : x y z
#
# Youngs Moduli (GPa) = 77.38891 88.00360 19.05536
#
# Poissons Ratio (x) = 0.38791 0.13124
# Poissons Ratio (y) = 0.34112 0.15818
# Poissons Ratio (z) = 0.53299 0.73051
#
# Static dielectric constant tensor:
#      x y z
#    x 3.032350 0.000000 0.000000 
#    y 0.000000 3.041480 0.000000 
#    z 0.000000 0.000000 2.406160 
# 
# 
# High freq. dielectric constant tensor:
#      x y z
#    x 1.568730 0.000000 0.000000 
#    y 0.000000 1.585350 0.000000 
#    z 0.000000 0.000000 1.506740 
# 
# From -- ./inp_files/24990.got.cif
#   From: 2010.03.12/outbox.cif.g09.slc.cpg/sg59_13_cif.got.tgz:24990.got - 2010.04.16 16:29:54.
