data_PCOD8240962
_publ_section_title
;
Structure prediction by ZEFSAII (Michael W. Deem and Ramdas Pophale) SiO2 
 PCOD8240962
Probable space group: P M M N
;
_chemical_formula_sum "Si O2"
_cell_formula_units_Z 56
_cell_length_a 9.302748
_cell_length_b 15.542010
_cell_length_c 19.785123
_cell_angle_alpha 90.000000
_cell_angle_beta 90.000000
_cell_angle_gamma 90.000000
_cell_volume 2860.600401
_symmetry_space_group_name_H-M "P M M N"
_symmetry_group_IT_number 59
_space_group.IT_coordinate_system_code '2'
_symmetry_cell_setting 'orthorhombic'
loop_
_space_group_symop_operation_xyz
x,y,z
1/2-x,1/2-y,z
1/2+x,-y,-z
-x,1/2+y,-z
-x,-y,-z
1/2+x,1/2+y,-z
1/2-x,y,z
x,1/2-y,z
loop_
_atom_site_type_symbol
_atom_site_label
_atom_site_fract_x
_atom_site_fract_y
_atom_site_fract_z
Si Si1 0.419708 0.499638 0.429752
Si Si2 0.086415 0.653912 0.333849
Si Si3 0.916117 0.603425 0.205306
Si Si4 0.085988 0.579237 0.933319
Si Si5 0.083823 0.154261 0.336454
Si Si6 0.411052 0.599605 0.788003
Si Si7 0.585092 0.408351 0.921490
O O1 0.500000 0.500000 0.500000
O O2 0.250000 0.494815 0.442852
O O3 0.464934 0.585855 0.389955
O O4 0.477306 0.416784 0.388113
O O5 0.250000 0.632640 0.312383
O O6 0.074321 0.750000 0.364838
O O7 0.987219 0.650419 0.268352
O O8 0.750000 0.628729 0.203126
O O9 0.942802 0.502038 0.212145
O O10 0.989733 0.638086 0.135943
O O11 0.250000 0.539930 0.930940
O O12 0.065497 0.635481 0.864721
O O13 0.965403 0.506076 0.931478
O O14 0.068522 0.634376 0.003063
O O15 0.250000 0.135633 0.325103
O O16 0.056146 0.250000 0.366019
O O17 0.014579 0.148239 0.262780
O O18 0.250000 0.618001 0.762926
O O19 0.750000 0.405923 0.897248
#
# Coordination Sequence:
#
# PCOD8240962 Si02
#       7
#     8   8   8   8   8   8   8
#     4  10  22  40  61  86 116 145 177 218 265 320
#     4  10  21  38  60  85 112 145 186 227 270 324
#     4  10  19  31  50  77 110 145 185 231 280 333
#     4   8  15  26  40  67 104 140 184 235 282 330
#     4  10  21  37  57  82 112 146 183 221 265 320
#     4   9  17  30  50  76 107 143 184 229 274 322
#     4   9  15  24  42  68 102 143 186 232 282 331
#
# _framework density 19.576311
#
# number of rings (size 3 to 8) (size 9 to 14) (size 15 to 20)
#    0.000    2.571    1.429    1.714    0.000    5.143 
#    0.000    0.000    0.000    0.857    0.000    2.000 
#    0.000    0.000    0.000    0.000    0.000    0.000 
#
# Total GULP energy -694017.182517 kJ/mol
# GULP energy per Si atom -12393.163974 kJ/mol
# Density = 1.953175 g / cm^3
# Si number density = 19.576311 Si / 1000 Ang^3
#
#
#
# Elastic Constant Matrix: (Units=GPa)
#
#
# Indices 1 2 3 4 5 6 
#
# 1 80.7205 32.8151 63.1151 0.0000 0.0000 0.0000
# 2 32.8151 86.2797 56.9571 0.0000 0.0000 0.0000
# 3 63.1151 56.9571 167.7747 0.0000 0.0000 0.0000
# 4 0.0000 0.0000 0.0000 4.3507 0.0000 0.0000
# 5 0.0000 0.0000 0.0000 0.0000 39.0777 0.0000
# 6 0.0000 0.0000 0.0000 0.0000 0.0000 14.0692
#
#
#
# Elastic Compliance Matrix: (Units=1/GPa)
#
#
# Indices 1 2 3 4 5 6 
#
# 1 0.018169 -0.003091 -0.005786 0.000000 0.000000 0.000000
# 2 -0.003091 0.015464 -0.004087 0.000000 0.000000 0.000000
# 3 -0.005786 -0.004087 0.009524 0.000000 0.000000 0.000000
# 4 0.000000 0.000000 0.000000 0.229847 0.000000 0.000000
# 5 0.000000 0.000000 0.000000 0.000000 0.025590 0.000000
# 6 0.000000 0.000000 0.000000 0.000000 0.000000 0.071077
#
#
# Mechanical properties :
#
#
# Convention : Reuss Voigt Hill
#
# Bulk Modulus (GPa) = 58.03844 71.17217 64.60530
# Shear Modulus (GPa) = 12.45822 23.62537 18.04180
#
# Velocity S-wave (km/s) = 2.52542 3.47772 3.03910
# Velocity P-wave (km/s) = 6.18185 7.24991 6.73708
#
# Compressibility (1/GPa) = 0.01722996
#
# Stress axis : x y z
#
# Youngs Moduli (GPa) = 55.03986 64.66732 104.99442
#
# Poissons Ratio (x) = 0.19988 0.60745
# Poissons Ratio (y) = 0.17012 0.42911
# Poissons Ratio (z) = 0.31844 0.26429
#
# Static dielectric constant tensor:
#      x y z
#    x 3.541520 0.000000 0.000000 
#    y 0.000000 3.352490 0.000000 
#    z 0.000000 0.000000 3.784250 
# 
# 
# High freq. dielectric constant tensor:
#      x y z
#    x 1.761550 0.000000 0.000000 
#    y 0.000000 1.726660 0.000000 
#    z 0.000000 0.000000 1.769860 
# 
# From -- ./inp_files/29016.got.cif
#   From: 2010.03.12/outbox.cif.g09.slc.cpg/sg59_15_cif.got.tgz:29016.got - 2010.04.16 16:29:54.
