data_PCOD8240934
_publ_section_title
;
Structure prediction by ZEFSAII (Michael W. Deem and Ramdas Pophale) SiO2 
 PCOD8240934
Probable space group: P M M N
;
_chemical_formula_sum "Si O2"
_cell_formula_units_Z 64
_cell_length_a 14.408184
_cell_length_b 8.941618
_cell_length_c 28.199205
_cell_angle_alpha 90.000000
_cell_angle_beta 90.000000
_cell_angle_gamma 90.000000
_cell_volume 3632.973441
_symmetry_space_group_name_H-M "P M M N"
_symmetry_group_IT_number 59
_space_group.IT_coordinate_system_code '2'
_symmetry_cell_setting 'orthorhombic'
loop_
_space_group_symop_operation_xyz
x,y,z
1/2-x,1/2-y,z
1/2+x,-y,-z
-x,1/2+y,-z
-x,-y,-z
1/2+x,1/2+y,-z
1/2-x,y,z
x,1/2-y,z
loop_
_atom_site_type_symbol
_atom_site_label
_atom_site_fract_x
_atom_site_fract_y
_atom_site_fract_z
Si Si1 0.141665 0.580413 0.533597
Si Si2 0.038542 0.074322 0.616545
Si Si3 0.148737 0.926875 0.427679
Si Si4 0.089586 0.920864 0.982915
Si Si5 0.144239 0.073791 0.799837
Si Si6 0.648641 0.423485 0.918268
Si Si7 0.537502 0.074047 0.115909
Si Si8 0.856260 0.425331 0.298493
O O1 0.250000 0.579062 0.545382
O O2 0.103508 0.750000 0.540251
O O3 0.092001 0.466797 0.568819
O O4 0.123195 0.517092 0.480640
O O5 0.049890 0.250000 0.626331
O O6 0.930412 0.027204 0.609817
O O7 0.076846 0.982343 0.660532
O O8 0.250000 0.990793 0.411660
O O9 0.155741 0.750000 0.431686
O O10 0.062966 0.750000 0.978986
O O11 0.107691 0.970467 0.928108
O O12 0.164027 0.950953 0.024443
O O13 0.000000 0.000000 0.000000
O O14 0.250000 0.026968 0.812174
O O15 0.133396 0.250000 0.796540
O O16 0.074183 0.012531 0.838835
O O17 0.113920 0.004964 0.749883
O O18 0.750000 0.461477 0.895799
O O19 0.622472 0.250000 0.909456
O O20 0.568685 0.524992 0.895287
O O21 0.538101 0.250000 0.126724
O O22 0.750000 0.464901 0.311728
O O23 0.869974 0.250000 0.291888
#
# Coordination Sequence:
#
# PCOD8240934 Si02
#       8
#     8   8   8   8   8   8   8   8
#     4   9  17  30  47  67  96 134 169 199 235 283
#     4  11  20  29  48  75  99 126 161 203 246 285
#     4   8  16  31  48  67  95 132 170 202 234 278
#     4   8  15  27  43  65  94 129 167 204 241 282
#     4  10  21  37  56  77 100 125 157 201 249 296
#     4   9  17  30  48  70 100 139 178 213 247 284
#     4  10  19  31  50  75 103 134 167 205 249 300
#     4  10  21  37  55  74  98 127 156 190 240 301
#
# _framework density 17.616423999999999
#
# number of rings (size 3 to 8) (size 9 to 14) (size 15 to 20)
#    0.000    2.625    0.000    3.000    0.000    4.500 
#    0.000    1.875    0.000    3.750    0.000    1.750 
#    0.000    0.000    0.000    0.000    0.000    0.000 
#
# Total GULP energy -792921.944900 kJ/mol
# GULP energy per Si atom -12389.405389 kJ/mol
# Density = 1.757633 g / cm^3
# Si number density = 17.616424 Si / 1000 Ang^3
#
#
#
# Elastic Constant Matrix: (Units=GPa)
#
#
# Indices 1 2 3 4 5 6 
#
# 1 84.8393 30.0742 63.1727 0.0000 0.0000 0.0000
# 2 30.0742 51.3429 36.4489 0.0000 0.0000 0.0000
# 3 63.1727 36.4489 111.7912 0.0000 0.0000 0.0000
# 4 0.0000 0.0000 0.0000 28.9369 0.0000 0.0000
# 5 0.0000 0.0000 0.0000 0.0000 23.5195 0.0000
# 6 0.0000 0.0000 0.0000 0.0000 0.0000 20.5140
#
#
#
# Elastic Compliance Matrix: (Units=1/GPa)
#
#
# Indices 1 2 3 4 5 6 
#
# 1 0.021338 -0.005125 -0.010387 0.000000 0.000000 0.000000
# 2 -0.005125 0.026574 -0.005768 0.000000 0.000000 0.000000
# 3 -0.010387 -0.005768 0.016696 0.000000 0.000000 0.000000
# 4 0.000000 0.000000 0.000000 0.034558 0.000000 0.000000
# 5 0.000000 0.000000 0.000000 0.000000 0.042518 0.000000
# 6 0.000000 0.000000 0.000000 0.000000 0.000000 0.048747
#
#
# Mechanical properties :
#
#
# Convention : Reuss Voigt Hill
#
# Bulk Modulus (GPa) = 45.35746 56.37389 50.86567
# Shear Modulus (GPa) = 20.80387 22.47925 21.64156
#
# Velocity S-wave (km/s) = 3.44020 3.57604 3.50878
# Velocity P-wave (km/s) = 6.44850 7.00864 6.73440
#
# Compressibility (1/GPa) = 0.02204709
#
# Stress axis : x y z
#
# Youngs Moduli (GPa) = 46.86449 37.63125 59.89581
#
# Poissons Ratio (x) = 0.19286 0.62215
# Poissons Ratio (y) = 0.24017 0.34549
# Poissons Ratio (z) = 0.48679 0.21706
#
# Static dielectric constant tensor:
#      x y z
#    x 3.292110 0.000000 0.000000 
#    y 0.000000 3.214120 0.000000 
#    z 0.000000 0.000000 3.816290 
# 
# 
# High freq. dielectric constant tensor:
#      x y z
#    x 1.672270 0.000000 0.000000 
#    y 0.000000 1.677130 0.000000 
#    z 0.000000 0.000000 1.669430 
# 
# From -- ./inp_files/32239.got.cif
#   From: 2010.03.12/outbox.cif.g09.slc.cpg/sg59_17_cif.got.tgz:32239.got - 2010.04.16 16:29:54.
