data_PCOD8240550
_publ_section_title
;
Structure prediction by ZEFSAII (Michael W. Deem and Ramdas Pophale) SiO2 
 PCOD8240550
Probable space group: P M M N
;
_chemical_formula_sum "Si O2"
_cell_formula_units_Z 48
_cell_length_a 9.189919
_cell_length_b 13.588738
_cell_length_c 23.714312
_cell_angle_alpha 90.000000
_cell_angle_beta 90.000000
_cell_angle_gamma 90.000000
_cell_volume 2961.429090
_symmetry_space_group_name_H-M "P M M N"
_symmetry_group_IT_number 59
_space_group.IT_coordinate_system_code '2'
_symmetry_cell_setting 'orthorhombic'
loop_
_space_group_symop_operation_xyz
x,y,z
1/2-x,1/2-y,z
1/2+x,-y,-z
-x,1/2+y,-z
-x,-y,-z
1/2+x,1/2+y,-z
1/2-x,y,z
x,1/2-y,z
loop_
_atom_site_type_symbol
_atom_site_label
_atom_site_fract_x
_atom_site_fract_y
_atom_site_fract_z
Si Si1 0.917460 0.635948 0.198927
Si Si2 0.920570 0.363977 0.688260
Si Si3 0.584173 0.139541 0.483566
Si Si4 0.080708 0.450709 0.584527
Si Si5 0.579494 0.950166 0.082205
Si Si6 0.418241 0.859324 0.981515
O O1 0.750000 0.613189 0.214067
O O2 0.938714 0.750000 0.183625
O O3 0.972241 0.572111 0.145687
O O4 0.016428 0.604653 0.251374
O O5 0.750000 0.384443 0.687920
O O6 0.956353 0.250000 0.675347
O O7 0.995875 0.432080 0.642004
O O8 0.750000 0.125774 0.505069
O O9 0.557863 0.250000 0.460828
O O10 0.478218 0.120842 0.535892
O O11 0.552052 0.064175 0.432738
O O12 0.250000 0.427888 0.593601
O O13 0.750000 0.930795 0.077359
O O14 0.535911 0.062430 0.066607
O O15 0.504761 0.875493 0.039118
O O16 0.250000 0.872601 0.996746
O O17 0.451814 0.750000 0.958264
#
# Coordination Sequence:
#
# PCOD8240550 Si02
#       6
#     8   8   8   8   8   8
#     4   9  17  29  45  64  85 111 146 186 223 260
#     4  10  20  32  46  65  90 119 148 180 221 266
#     4   9  18  32  48  67  93 122 149 179 217 260
#     4  10  19  30  47  70  93 118 149 183 218 258
#     4   9  17  29  45  65  89 117 148 181 218 260
#     4   9  17  28  43  65  92 119 146 178 217 261
#
# _framework density 16.208390999999999
#
# number of rings (size 3 to 8) (size 9 to 14) (size 15 to 20)
#    0.000    2.667    0.000    2.000    0.000    5.667 
#    0.000    1.667    0.000    1.000    0.000    4.667 
#    0.000    0.000    0.000    0.000    0.000    0.000 
#
# Total GULP energy -595220.045090 kJ/mol
# GULP energy per Si atom -12400.417606 kJ/mol
# Density = 1.617150 g / cm^3
# Si number density = 16.208391 Si / 1000 Ang^3
#
#
#
# Elastic Constant Matrix: (Units=GPa)
#
#
# Indices 1 2 3 4 5 6 
#
# 1 70.7071 40.0949 62.1796 0.0000 0.0000 0.0000
# 2 40.0949 100.0986 63.1073 0.0000 0.0000 0.0000
# 3 62.1796 63.1073 134.0109 0.0000 0.0000 0.0000
# 4 0.0000 0.0000 0.0000 22.5785 0.0000 0.0000
# 5 0.0000 0.0000 0.0000 0.0000 30.1598 0.0000
# 6 0.0000 0.0000 0.0000 0.0000 0.0000 20.4196
#
#
#
# Elastic Compliance Matrix: (Units=1/GPa)
#
#
# Indices 1 2 3 4 5 6 
#
# 1 0.024879 -0.003823 -0.009743 0.000000 0.000000 0.000000
# 2 -0.003823 0.014796 -0.005194 0.000000 0.000000 0.000000
# 3 -0.009743 -0.005194 0.014429 0.000000 0.000000 0.000000
# 4 0.000000 0.000000 0.000000 0.044290 0.000000 0.000000
# 5 0.000000 0.000000 0.000000 0.000000 0.033157 0.000000
# 6 0.000000 0.000000 0.000000 0.000000 0.000000 0.048972
#
#
# Mechanical properties :
#
#
# Convention : Reuss Voigt Hill
#
# Bulk Modulus (GPa) = 60.30032 70.62001 65.46016
# Shear Modulus (GPa) = 22.36436 23.92724 23.14580
#
# Velocity S-wave (km/s) = 3.71860 3.84634 3.78301
# Velocity P-wave (km/s) = 7.46466 7.96181 7.71724
#
# Compressibility (1/GPa) = 0.01658366
#
# Stress axis : x y z
#
# Youngs Moduli (GPa) = 40.19488 67.58682 69.30598
#
# Poissons Ratio (x) = 0.25836 0.67528
# Poissons Ratio (y) = 0.15365 0.35997
# Poissons Ratio (z) = 0.39163 0.35104
#
# Static dielectric constant tensor:
#      x y z
#    x 3.132510 0.000000 0.000000 
#    y 0.000000 3.141220 0.000000 
#    z 0.000000 0.000000 2.991950 
# 
# 
# High freq. dielectric constant tensor:
#      x y z
#    x 1.629530 0.000000 0.000000 
#    y 0.000000 1.613920 0.000000 
#    z 0.000000 0.000000 1.610490 
# 
# From -- ./inp_files/28825.got.cif
#   From: 2010.03.12/outbox.cif.g09.slc.cpg/sg59_15_cif.got.tgz:28825.got - 2010.04.16 16:29:54.
