data_PCOD8240850
_publ_section_title
;
Structure prediction by ZEFSAII (Michael W. Deem and Ramdas Pophale) SiO2 
 PCOD8240850
Probable space group: P M M N
;
_chemical_formula_sum "Si O2"
_cell_formula_units_Z 64
_cell_length_a 20.322586
_cell_length_b 8.925422
_cell_length_c 19.827978
_cell_angle_alpha 90.000000
_cell_angle_beta 90.000000
_cell_angle_gamma 90.000000
_cell_volume 3596.550456
_symmetry_space_group_name_H-M "P M M N"
_symmetry_group_IT_number 59
_space_group.IT_coordinate_system_code '2'
_symmetry_cell_setting 'orthorhombic'
loop_
_space_group_symop_operation_xyz
x,y,z
1/2-x,1/2-y,z
1/2+x,-y,-z
-x,1/2+y,-z
-x,-y,-z
1/2+x,1/2+y,-z
1/2-x,y,z
x,1/2-y,z
loop_
_atom_site_type_symbol
_atom_site_label
_atom_site_fract_x
_atom_site_fract_y
_atom_site_fract_z
Si Si1 0.904720 0.423843 0.816359
Si Si2 0.560953 0.073045 0.312012
Si Si3 0.065783 0.073515 0.971386
Si Si4 0.175425 0.423203 0.077947
Si Si5 0.823236 0.071896 0.555955
Si Si6 0.425965 0.924596 0.336079
Si Si7 0.960333 0.073660 0.160807
Si Si8 0.676927 0.428093 0.404880
O O1 0.919413 0.250000 0.830246
O O2 0.840002 0.477631 0.855874
O O3 0.894524 0.454720 0.737195
O O4 0.964403 0.521686 0.845470
O O5 0.555368 0.250000 0.319538
O O6 0.568508 0.026855 0.233697
O O7 0.623946 0.007547 0.351905
O O8 0.495683 0.004694 0.344620
O O9 0.055204 0.250000 0.967826
O O10 0.081476 0.009479 0.896840
O O11 0.128096 0.028929 0.016806
O O12 0.000000 0.000000 0.000000
O O13 0.250000 0.456360 0.055437
O O14 0.165395 0.250000 0.096983
O O15 0.750000 0.012742 0.574099
O O16 0.823360 0.250000 0.560335
O O17 0.875873 0.006083 0.608902
O O18 0.842269 0.019237 0.480407
O O19 0.437936 0.750000 0.348501
O O20 0.957108 0.250000 0.148719
O O21 0.750000 0.487910 0.386010
O O22 0.677223 0.250000 0.401909
#
# Coordination Sequence:
#
# PCOD8240850 Si02
#       8
#     8   8   8   8   8   8   8   8
#     4  10  19  31  49  72  98 130 167 205 245 291
#     4   9  18  31  48  72 100 128 162 206 249 291
#     4  11  21  34  56  79  99 128 167 207 244 293
#     4  10  22  38  53  72 101 134 164 199 247 299
#     4   8  14  26  45  68  95 128 166 206 247 294
#     4   9  18  30  46  72 102 129 160 201 249 296
#     4  10  19  32  50  73 101 130 162 202 249 299
#     4   8  14  27  48  71  94 126 169 210 248 293
#
# _framework density 17.794829
#
# number of rings (size 3 to 8) (size 9 to 14) (size 15 to 20)
#    0.000    2.625    1.250    1.875    0.000    2.750 
#    0.000    1.875    0.000    1.500    0.000    1.750 
#    0.000    0.000    0.000    0.000    0.000    0.000 
#
# Total GULP energy -793510.282533 kJ/mol
# GULP energy per Si atom -12398.598165 kJ/mol
# Density = 1.775433 g / cm^3
# Si number density = 17.794829 Si / 1000 Ang^3
#
#
#
# Elastic Constant Matrix: (Units=GPa)
#
#
# Indices 1 2 3 4 5 6 
#
# 1 137.7226 34.1889 94.1157 0.0000 0.0000 0.0000
# 2 34.1889 38.0750 34.2540 0.0000 0.0000 0.0000
# 3 94.1157 34.2540 132.7999 0.0000 0.0000 0.0000
# 4 0.0000 0.0000 0.0000 18.2898 0.0000 0.0000
# 5 0.0000 0.0000 0.0000 0.0000 33.9443 0.0000
# 6 0.0000 0.0000 0.0000 0.0000 0.0000 20.6396
#
#
#
# Elastic Compliance Matrix: (Units=1/GPa)
#
#
# Indices 1 2 3 4 5 6 
#
# 1 0.014779 -0.005011 -0.009182 0.000000 0.000000 0.000000
# 2 -0.005011 0.035899 -0.005709 0.000000 0.000000 0.000000
# 3 -0.009182 -0.005709 0.015510 0.000000 0.000000 0.000000
# 4 0.000000 0.000000 0.000000 0.054675 0.000000 0.000000
# 5 0.000000 0.000000 0.000000 0.000000 0.029460 0.000000
# 6 0.000000 0.000000 0.000000 0.000000 0.000000 0.048451
#
#
# Mechanical properties :
#
#
# Convention : Reuss Voigt Hill
#
# Bulk Modulus (GPa) = 37.89884 70.41276 54.15580
# Shear Modulus (GPa) = 20.21252 24.31066 22.26159
#
# Velocity S-wave (km/s) = 3.37392 3.70018 3.54081
# Velocity P-wave (km/s) = 6.04331 7.60987 6.87138
#
# Compressibility (1/GPa) = 0.02638603
#
# Stress axis : x y z
#
# Youngs Moduli (GPa) = 67.66170 27.85598 64.47559
#
# Poissons Ratio (x) = 0.13958 0.59200
# Poissons Ratio (y) = 0.33903 0.36807
# Poissons Ratio (z) = 0.62126 0.15902
#
# Static dielectric constant tensor:
#      x y z
#    x 3.369470 0.000000 0.000000 
#    y 0.000000 3.063100 0.000000 
#    z 0.000000 0.000000 3.601330 
# 
# 
# High freq. dielectric constant tensor:
#      x y z
#    x 1.676510 0.000000 0.000000 
#    y 0.000000 1.665350 0.000000 
#    z 0.000000 0.000000 1.696780 
# 
# From -- ./inp_files/30743.got.cif
#   From: 2010.03.12/outbox.cif.g09.slc.cpg/sg59_16_cif.got.tgz:30743.got - 2010.04.16 16:29:54.
