data_PCOD8240032
_publ_section_title
;
Structure prediction by ZEFSAII (Michael W. Deem and Ramdas Pophale) SiO2 
 PCOD8240032
Probable space group: P M M N
;
_chemical_formula_sum "Si O2"
_cell_formula_units_Z 64
_cell_length_a 8.951641
_cell_length_b 18.974171
_cell_length_c 19.663764
_cell_angle_alpha 90.000000
_cell_angle_beta 90.000000
_cell_angle_gamma 90.000000
_cell_volume 3339.889668
_symmetry_space_group_name_H-M "P M M N"
_symmetry_group_IT_number 59
_space_group.IT_coordinate_system_code '2'
_symmetry_cell_setting 'orthorhombic'
loop_
_space_group_symop_operation_xyz
x,y,z
1/2-x,1/2-y,z
1/2+x,-y,-z
-x,1/2+y,-z
-x,-y,-z
1/2+x,1/2+y,-z
1/2-x,y,z
x,1/2-y,z
loop_
_atom_site_type_symbol
_atom_site_label
_atom_site_fract_x
_atom_site_fract_y
_atom_site_fract_z
Si Si1 0.079260 0.670337 0.109882
Si Si2 0.072461 0.828407 0.720957
Si Si3 0.575036 0.831012 0.971711
Si Si4 0.072939 0.912444 0.851355
Si Si5 0.923913 0.454322 0.793209
Si Si6 0.072352 0.913409 0.590821
Si Si7 0.073527 0.671058 0.459887
Si Si8 0.073815 0.550395 0.361703
O O1 0.250000 0.661722 0.085269
O O2 0.045726 0.750000 0.133238
O O3 0.045790 0.622266 0.175056
O O4 0.973550 0.648175 0.047644
O O5 0.250000 0.825844 0.719775
O O6 0.005254 0.750000 0.716722
O O7 0.014037 0.863640 0.790030
O O8 0.012966 0.872837 0.657398
O O9 0.750000 0.843280 0.963995
O O10 0.530282 0.750000 0.956247
O O11 0.490291 0.882664 0.921160
O O12 0.250000 0.913642 0.855541
O O13 0.014650 0.990871 0.838834
O O14 0.750000 0.474440 0.795113
O O15 0.984213 0.453234 0.715853
O O16 0.250000 0.920473 0.589806
O O17 0.012096 0.870109 0.526013
O O18 0.003178 0.991227 0.591796
O O19 0.250000 0.677699 0.466995
O O20 0.003931 0.750000 0.455305
O O21 0.030013 0.626645 0.392706
O O22 0.250000 0.538728 0.365627
#
# Coordination Sequence:
#
# PCOD8240032 Si02
#       8
#     8   8   8   8   8   8   8   8
#     4   9  19  37  59  80 102 136 183 228 269 318
#     4   9  17  29  48  75 103 134 176 220 257 297
#     4  10  21  37  57  82 112 143 174 217 274 327
#     4  11  21  34  54  79 109 145 183 223 262 315
#     4  10  21  36  54  78 110 143 178 224 274 323
#     4  10  18  32  54  78 105 140 179 221 264 315
#     4   9  18  32  53  81 108 138 181 227 268 314
#     4  10  20  34  53  78 110 144 176 219 273 324
#
# _framework density 19.162310000000002
#
# number of rings (size 3 to 8) (size 9 to 14) (size 15 to 20)
#    0.000    2.250    1.250    1.875    0.000    4.250 
#    0.000    2.500    0.000    3.375    0.000    1.750 
#    0.000    0.000    0.000    0.000    0.000    0.000 
#
# Total GULP energy -793702.771610 kJ/mol
# GULP energy per Si atom -12401.605806 kJ/mol
# Density = 1.911870 g / cm^3
# Si number density = 19.162310 Si / 1000 Ang^3
#
#
#
# Elastic Constant Matrix: (Units=GPa)
#
#
# Indices 1 2 3 4 5 6 
#
# 1 40.9655 33.5228 27.3776 0.0000 0.0000 0.0000
# 2 33.5228 143.2256 65.2192 0.0000 0.0000 0.0000
# 3 27.3776 65.2192 97.7197 0.0000 0.0000 0.0000
# 4 0.0000 0.0000 0.0000 38.7059 0.0000 0.0000
# 5 0.0000 0.0000 0.0000 0.0000 17.1980 0.0000
# 6 0.0000 0.0000 0.0000 0.0000 0.0000 25.3300
#
#
#
# Elastic Compliance Matrix: (Units=1/GPa)
#
#
# Indices 1 2 3 4 5 6 
#
# 1 0.032297 -0.004941 -0.005751 0.000000 0.000000 0.000000
# 2 -0.004941 0.010786 -0.005815 0.000000 0.000000 0.000000
# 3 -0.005751 -0.005815 0.015725 0.000000 0.000000 0.000000
# 4 0.000000 0.000000 0.000000 0.025836 0.000000 0.000000
# 5 0.000000 0.000000 0.000000 0.000000 0.058146 0.000000
# 6 0.000000 0.000000 0.000000 0.000000 0.000000 0.039479
#
#
# Mechanical properties :
#
#
# Convention : Reuss Voigt Hill
#
# Bulk Modulus (GPa) = 38.76553 59.35001 49.05777
# Shear Modulus (GPa) = 22.33328 26.63286 24.48307
#
# Velocity S-wave (km/s) = 3.41762 3.73212 3.57833
# Velocity P-wave (km/s) = 5.98728 7.04352 6.53677
#
# Compressibility (1/GPa) = 0.02579611
#
# Stress axis : x y z
#
# Youngs Moduli (GPa) = 30.96234 92.71207 63.59151
#
# Poissons Ratio (x) = 0.45804 0.36573
# Poissons Ratio (y) = 0.15297 0.36976
# Poissons Ratio (z) = 0.17807 0.53908
#
# Static dielectric constant tensor:
#      x y z
#    x 3.188340 0.000000 0.000000 
#    y 0.000000 3.662340 0.000000 
#    z 0.000000 0.000000 3.581710 
# 
# 
# High freq. dielectric constant tensor:
#      x y z
#    x 1.712970 0.000000 0.000000 
#    y 0.000000 1.754010 0.000000 
#    z 0.000000 0.000000 1.751320 
# 
# From -- ./inp_files/29374.got.cif
#   From: 2010.03.12/outbox.cif.g09.slc.cpg/sg59_15_cif.got.tgz:29374.got - 2010.04.16 16:29:54.
