data_PCOD8240149
_publ_section_title
;
Structure prediction by ZEFSAII (Michael W. Deem and Ramdas Pophale) SiO2 
 PCOD8240149
Probable space group: P M M N
;
_chemical_formula_sum "Si O2"
_cell_formula_units_Z 64
_cell_length_a 9.323649
_cell_length_b 30.593154
_cell_length_c 11.900205
_cell_angle_alpha 90.000000
_cell_angle_beta 90.000000
_cell_angle_gamma 90.000000
_cell_volume 3394.412448
_symmetry_space_group_name_H-M "P M M N"
_symmetry_group_IT_number 59
_space_group.IT_coordinate_system_code '2'
_symmetry_cell_setting 'orthorhombic'
loop_
_space_group_symop_operation_xyz
x,y,z
1/2-x,1/2-y,z
1/2+x,-y,-z
-x,1/2+y,-z
-x,-y,-z
1/2+x,1/2+y,-z
1/2-x,y,z
x,1/2-y,z
loop_
_atom_site_type_symbol
_atom_site_label
_atom_site_fract_x
_atom_site_fract_y
_atom_site_fract_z
Si Si1 0.912039 0.076685 0.243950
Si Si2 0.417538 0.458103 0.042308
Si Si3 0.919794 0.299091 0.496215
Si Si4 0.083663 0.955269 0.509995
Si Si5 0.417387 0.123876 0.884154
Si Si6 0.413883 0.821341 0.749898
Si Si7 0.087127 0.298326 0.039269
Si Si8 0.420248 0.622741 0.348513
O O1 0.750000 0.061179 0.215301
O O2 0.951576 0.066387 0.371367
O O3 0.927462 0.127795 0.225550
O O4 0.025169 0.052253 0.166056
O O5 0.250000 0.468461 0.050629
O O6 0.450060 0.418348 0.958923
O O7 0.500000 0.500000 0.000000
O O8 0.750000 0.304458 0.490671
O O9 0.965036 0.250000 0.533257
O O10 0.980396 0.309313 0.371747
O O11 0.979106 0.334356 0.585588
O O12 0.250000 0.966123 0.497024
O O13 0.034425 0.920830 0.415511
O O14 0.000000 0.000000 0.500000
O O15 0.250000 0.127827 0.854356
O O16 0.474100 0.166586 0.950755
O O17 0.506749 0.120165 0.771428
O O18 0.250000 0.805394 0.755928
O O19 0.500602 0.796432 0.845242
O O20 0.250000 0.311535 0.068719
O O21 0.078358 0.250000 0.984357
O O22 0.250000 0.625295 0.333219
#
# Coordination Sequence:
#
# PCOD8240149 Si02
#       8
#     8   8   8   8   8   8   8   8
#     4  10  20  37  61  87 118 150 183 231 286 335
#     4  11  24  41  61  85 115 149 191 236 284 339
#     4   9  17  32  56  85 115 146 180 224 281 334
#     4  10  22  39  58  84 116 148 186 230 280 333
#     4  10  23  41  57  79 112 151 189 230 280 335
#     4  10  18  33  59  88 116 145 182 229 279 332
#     4  10  21  38  58  81 114 152 187 229 283 337
#     4  10  21  38  58  82 112 147 187 233 277 326
#
# _framework density 18.854516
#
# number of rings (size 3 to 8) (size 9 to 14) (size 15 to 20)
#    0.000    2.000    2.500    0.750    1.750    3.750 
#    0.000    0.625    0.000    0.750    0.000    0.000 
#    0.000    0.000    0.000    0.000    0.000    0.000 
#
# Total GULP energy -793685.869023 kJ/mol
# GULP energy per Si atom -12401.341703 kJ/mol
# Density = 1.881160 g / cm^3
# Si number density = 18.854516 Si / 1000 Ang^3
#
#
#
# Elastic Constant Matrix: (Units=GPa)
#
#
# Indices 1 2 3 4 5 6 
#
# 1 57.9337 42.4027 47.6450 0.0000 0.0000 0.0000
# 2 42.4027 116.8260 44.1424 0.0000 0.0000 0.0000
# 3 47.6450 44.1424 112.4217 0.0000 0.0000 0.0000
# 4 0.0000 0.0000 0.0000 24.2269 0.0000 0.0000
# 5 0.0000 0.0000 0.0000 0.0000 28.3820 0.0000
# 6 0.0000 0.0000 0.0000 0.0000 0.0000 21.8327
#
#
#
# Elastic Compliance Matrix: (Units=1/GPa)
#
#
# Indices 1 2 3 4 5 6 
#
# 1 0.031154 -0.007420 -0.010290 0.000000 0.000000 0.000000
# 2 -0.007420 0.011818 -0.001496 0.000000 0.000000 0.000000
# 3 -0.010290 -0.001496 0.013843 0.000000 0.000000 0.000000
# 4 0.000000 0.000000 0.000000 0.041277 0.000000 0.000000
# 5 0.000000 0.000000 0.000000 0.000000 0.035234 0.000000
# 6 0.000000 0.000000 0.000000 0.000000 0.000000 0.045803
#
#
# Mechanical properties :
#
#
# Convention : Reuss Voigt Hill
#
# Bulk Modulus (GPa) = 54.33420 61.72908 58.03164
# Shear Modulus (GPa) = 22.35394 25.08774 23.72084
#
# Velocity S-wave (km/s) = 3.44699 3.65169 3.55082
# Velocity P-wave (km/s) = 6.68749 7.11270 6.90337
#
# Compressibility (1/GPa) = 0.01840461
#
# Stress axis : x y z
#
# Youngs Moduli (GPa) = 32.09842 84.61736 72.23646
#
# Poissons Ratio (x) = 0.62782 0.74332
# Poissons Ratio (y) = 0.23816 0.10806
# Poissons Ratio (z) = 0.33029 0.12658
#
# Static dielectric constant tensor:
#      x y z
#    x 3.321100 0.000000 0.000000 
#    y 0.000000 3.746330 0.000000 
#    z 0.000000 0.000000 3.503840 
# 
# 
# High freq. dielectric constant tensor:
#      x y z
#    x 1.710890 0.000000 0.000000 
#    y 0.000000 1.750030 0.000000 
#    z 0.000000 0.000000 1.734870 
# 
# From -- ./inp_files/14956.got.cif
#   From: 2010.03.12/outbox.cif.g09.slc.cpg/sg59_8_cif.got.tgz:14956.got - 2010.04.16 16:29:54.
