data_PCOD8240288
_publ_section_title
;
Structure prediction by ZEFSAII (Michael W. Deem and Ramdas Pophale) SiO2 
 PCOD8240288
Probable space group: P M M N
;
_chemical_formula_sum "Si O2"
_cell_formula_units_Z 64
_cell_length_a 9.163174
_cell_length_b 24.899284
_cell_length_c 18.572554
_cell_angle_alpha 90.000000
_cell_angle_beta 90.000000
_cell_angle_gamma 90.000000
_cell_volume 4237.448392
_symmetry_space_group_name_H-M "P M M N"
_symmetry_group_IT_number 59
_space_group.IT_coordinate_system_code '2'
_symmetry_cell_setting 'orthorhombic'
loop_
_space_group_symop_operation_xyz
x,y,z
1/2-x,1/2-y,z
1/2+x,-y,-z
-x,1/2+y,-z
-x,-y,-z
1/2+x,1/2+y,-z
1/2-x,y,z
x,1/2-y,z
loop_
_atom_site_type_symbol
_atom_site_label
_atom_site_fract_x
_atom_site_fract_y
_atom_site_fract_z
Si Si1 0.079968 0.190620 0.572003
Si Si2 0.083586 0.811481 0.282916
Si Si3 0.918708 0.921307 0.482170
Si Si4 0.915674 0.562600 0.043553
Si Si5 0.421008 0.495751 0.387007
Si Si6 0.083104 0.034622 0.106184
Si Si7 0.918340 0.007133 0.239174
Si Si8 0.412806 0.386694 0.815443
O O1 0.250000 0.193419 0.587973
O O2 0.025474 0.250000 0.544805
O O3 0.044821 0.142761 0.515409
O O4 0.005072 0.173864 0.646042
O O5 0.250000 0.825827 0.298938
O O6 0.062150 0.750000 0.260995
O O7 0.029527 0.846089 0.216026
O O8 0.750000 0.931081 0.461614
O O9 0.954282 0.945733 0.560093
O O10 0.014114 0.949740 0.420558
O O11 0.750000 0.538856 0.054171
O O12 0.931619 0.613325 0.097505
O O13 0.038519 0.520574 0.067316
O O14 0.936690 0.578711 0.958779
O O15 0.250000 0.504474 0.374638
O O16 0.496823 0.481113 0.312459
O O17 0.250000 0.031380 0.132440
O O18 0.983721 0.045746 0.176309
O O19 0.750000 0.021804 0.250298
O O20 0.942355 0.945922 0.215784
O O21 0.250000 0.367959 0.793927
#
# Coordination Sequence:
#
# PCOD8240288 Si02
#       8
#     8   8   8   8   8   8   8   8
#     4   9  17  30  47  62  77 103 136 167 203 245
#     4  10  20  30  39  56  81 104 130 168 205 233
#     4   9  18  31  44  60  83 107 134 170 206 243
#     4   8  15  26  38  55  79 104 130 161 194 226
#     4  10  19  29  42  60  82 110 140 167 202 247
#     4   9  15  24  39  57  78 104 132 160 191 228
#     4  10  19  29  40  57  82 108 136 169 200 233
#     4   9  17  28  41  56  76 105 137 165 195 233
#
# _framework density 15.103429
#
# number of rings (size 3 to 8) (size 9 to 14) (size 15 to 20)
#    0.000    2.750    0.000    3.000    0.000    7.750 
#    0.000    0.000    0.000    0.000    0.000    0.000 
#    0.000    1.000    0.000    7.500    0.000    3.250 
#
# Total GULP energy -793094.804457 kJ/mol
# GULP energy per Si atom -12392.106320 kJ/mol
# Density = 1.506905 g / cm^3
# Si number density = 15.103429 Si / 1000 Ang^3
#
#
#
# Elastic Constant Matrix: (Units=GPa)
#
#
# Indices 1 2 3 4 5 6 
#
# 1 61.9853 28.0281 42.4005 0.0000 0.0000 0.0000
# 2 28.0281 66.7357 38.9005 0.0000 0.0000 0.0000
# 3 42.4005 38.9005 107.0838 0.0000 0.0000 0.0000
# 4 0.0000 0.0000 0.0000 17.8530 0.0000 0.0000
# 5 0.0000 0.0000 0.0000 0.0000 24.4857 0.0000
# 6 0.0000 0.0000 0.0000 0.0000 0.0000 17.2692
#
#
#
# Elastic Compliance Matrix: (Units=1/GPa)
#
#
# Indices 1 2 3 4 5 6 
#
# 1 0.023716 -0.005692 -0.007323 0.000000 0.000000 0.000000
# 2 -0.005692 0.020376 -0.005148 0.000000 0.000000 0.000000
# 3 -0.007323 -0.005148 0.014108 0.000000 0.000000 0.000000
# 4 0.000000 0.000000 0.000000 0.056013 0.000000 0.000000
# 5 0.000000 0.000000 0.000000 0.000000 0.040840 0.000000
# 6 0.000000 0.000000 0.000000 0.000000 0.000000 0.057907
#
#
# Mechanical properties :
#
#
# Convention : Reuss Voigt Hill
#
# Bulk Modulus (GPa) = 45.71612 50.49590 48.10601
# Shear Modulus (GPa) = 19.48739 20.35330 19.92035
#
# Velocity S-wave (km/s) = 3.59592 3.67494 3.63565
# Velocity P-wave (km/s) = 6.89748 7.17725 7.03876
#
# Compressibility (1/GPa) = 0.02187412
#
# Stress axis : x y z
#
# Youngs Moduli (GPa) = 42.16651 49.07751 70.88107
#
# Poissons Ratio (x) = 0.27934 0.51903
# Poissons Ratio (y) = 0.24000 0.36492
# Poissons Ratio (z) = 0.30877 0.25266
#
# Static dielectric constant tensor:
#      x y z
#    x 3.039930 0.000000 0.000000 
#    y 0.000000 2.739980 0.000000 
#    z 0.000000 0.000000 3.097800 
# 
# 
# High freq. dielectric constant tensor:
#      x y z
#    x 1.592740 0.000000 0.000000 
#    y 0.000000 1.530140 0.000000 
#    z 0.000000 0.000000 1.576590 
# 
# From -- ./inp_files/26683.got.cif
#   From: 2010.03.12/outbox.cif.g09.slc.cpg/sg59_14_cif.got.tgz:26683.got - 2010.04.16 16:29:54.
