data_PCOD8240380
_publ_section_title
;
Structure prediction by ZEFSAII (Michael W. Deem and Ramdas Pophale) SiO2 
 PCOD8240380
Probable space group: P M M N
;
_chemical_formula_sum "Si O2"
_cell_formula_units_Z 64
_cell_length_a 9.319426
_cell_length_b 21.810112
_cell_length_c 20.206948
_cell_angle_alpha 90.000000
_cell_angle_beta 90.000000
_cell_angle_gamma 90.000000
_cell_volume 4107.218276
_symmetry_space_group_name_H-M "P M M N"
_symmetry_group_IT_number 59
_space_group.IT_coordinate_system_code '2'
_symmetry_cell_setting 'orthorhombic'
loop_
_space_group_symop_operation_xyz
x,y,z
1/2-x,1/2-y,z
1/2+x,-y,-z
-x,1/2+y,-z
-x,-y,-z
1/2+x,1/2+y,-z
1/2-x,y,z
x,1/2-y,z
loop_
_atom_site_type_symbol
_atom_site_label
_atom_site_fract_x
_atom_site_fract_y
_atom_site_fract_z
Si Si1 0.418454 0.321168 0.872550
Si Si2 0.590960 0.410189 0.623686
Si Si3 0.913468 0.555558 0.640955
Si Si4 0.413307 0.535317 0.763114
Si Si5 0.914757 0.892968 0.255072
Si Si6 0.080697 0.937975 0.517142
Si Si7 0.583520 0.412932 0.955837
Si Si8 0.086046 0.971768 0.909057
O O1 0.250000 0.333531 0.881772
O O2 0.456330 0.250000 0.871986
O O3 0.474829 0.350565 0.803880
O O4 0.501825 0.351643 0.933805
O O5 0.750000 0.389208 0.642847
O O6 0.575991 0.483190 0.630214
O O7 0.487849 0.375685 0.674946
O O8 0.558869 0.393082 0.546567
O O9 0.750000 0.579327 0.639139
O O10 0.982991 0.571039 0.712352
O O11 0.005827 0.589518 0.583199
O O12 0.250000 0.547716 0.740889
O O13 0.445251 0.462890 0.764187
O O14 0.442797 0.559433 0.837617
O O15 0.750000 0.878563 0.266307
O O16 0.250000 0.950374 0.529459
O O17 0.000000 0.000000 0.500000
O O18 0.750000 0.407582 0.937204
O O19 0.520041 0.471477 0.918068
O O20 0.560471 0.420641 0.034738
O O21 0.250000 0.996856 0.911949
#
# Coordination Sequence:
#
# PCOD8240380 Si02
#       8
#     8   8   8   8   8   8   8   8
#     4  10  20  34  48  60  81 113 145 178 216 261
#     4   8  15  24  34  49  70  96 126 165 201 231
#     4   9  16  23  32  50  75 100 130 163 198 236
#     4   9  15  25  40  55  76 105 136 168 201 244
#     4   9  16  26  40  56  72  98 136 171 203 245
#     4   9  15  23  33  47  68  97 132 163 194 231
#     4  10  19  29  45  66  85 106 136 178 218 256
#     4   9  17  30  45  62  85 111 139 171 213 261
#
# _framework density 15.582323000000001
#
# number of rings (size 3 to 8) (size 9 to 14) (size 15 to 20)
#    0.000    2.875    1.250    1.875    0.000    5.250 
#    0.000    0.000    0.000    0.000    0.000    0.000 
#    0.000    0.000    0.000    1.125    0.000   20.375 
#
# Total GULP energy -793193.114823 kJ/mol
# GULP energy per Si atom -12393.642419 kJ/mol
# Density = 1.554686 g / cm^3
# Si number density = 15.582323 Si / 1000 Ang^3
#
#
#
# Elastic Constant Matrix: (Units=GPa)
#
#
# Indices 1 2 3 4 5 6 
#
# 1 89.0276 23.7363 66.5105 0.0000 0.0000 0.0000
# 2 23.7363 30.8970 27.3904 0.0000 0.0000 0.0000
# 3 66.5105 27.3904 141.6034 0.0000 0.0000 0.0000
# 4 0.0000 0.0000 0.0000 10.1027 0.0000 0.0000
# 5 0.0000 0.0000 0.0000 0.0000 31.2842 0.0000
# 6 0.0000 0.0000 0.0000 0.0000 0.0000 12.2114
#
#
#
# Elastic Compliance Matrix: (Units=1/GPa)
#
#
# Indices 1 2 3 4 5 6 
#
# 1 0.018807 -0.007987 -0.007289 0.000000 0.000000 0.000000
# 2 -0.007987 0.042456 -0.004461 0.000000 0.000000 0.000000
# 3 -0.007289 -0.004461 0.011348 0.000000 0.000000 0.000000
# 4 0.000000 0.000000 0.000000 0.098984 0.000000 0.000000
# 5 0.000000 0.000000 0.000000 0.000000 0.031965 0.000000
# 6 0.000000 0.000000 0.000000 0.000000 0.000000 0.081891
#
#
# Mechanical properties :
#
#
# Convention : Reuss Voigt Hill
#
# Bulk Modulus (GPa) = 30.17635 55.20028 42.68832
# Shear Modulus (GPa) = 14.88224 20.31234 17.59729
#
# Velocity S-wave (km/s) = 3.09378 3.61439 3.36417
# Velocity P-wave (km/s) = 5.67184 7.27463 6.52265
#
# Compressibility (1/GPa) = 0.03313854
#
# Stress axis : x y z
#
# Youngs Moduli (GPa) = 53.17114 23.55373 88.11854
#
# Poissons Ratio (x) = 0.18812 0.64227
# Poissons Ratio (y) = 0.42467 0.39309
# Poissons Ratio (z) = 0.38755 0.10507
#
# Static dielectric constant tensor:
#      x y z
#    x 3.083190 0.000000 0.000000 
#    y 0.000000 2.350860 0.000000 
#    z 0.000000 0.000000 3.509560 
# 
# 
# High freq. dielectric constant tensor:
#      x y z
#    x 1.607460 0.000000 0.000000 
#    y 0.000000 1.509410 0.000000 
#    z 0.000000 0.000000 1.617760 
# 
# From -- ./inp_files/29863.got.cif
#   From: 2010.03.12/outbox.cif.g09.slc.cpg/sg59_15_cif.got.tgz:29863.got - 2010.04.16 16:29:54.
