data_PCOD8240804
_publ_section_title
;
Structure prediction by ZEFSAII (Michael W. Deem and Ramdas Pophale) SiO2 
 PCOD8240804
Probable space group: P M M N
;
_chemical_formula_sum "Si O2"
_cell_formula_units_Z 64
_cell_length_a 29.038164
_cell_length_b 9.262020
_cell_length_c 14.861545
_cell_angle_alpha 90.000000
_cell_angle_beta 90.000000
_cell_angle_gamma 90.000000
_cell_volume 3997.043079
_symmetry_space_group_name_H-M "P M M N"
_symmetry_group_IT_number 59
_space_group.IT_coordinate_system_code '2'
_symmetry_cell_setting 'orthorhombic'
loop_
_space_group_symop_operation_xyz
x,y,z
1/2-x,1/2-y,z
1/2+x,-y,-z
-x,1/2+y,-z
-x,-y,-z
1/2+x,1/2+y,-z
1/2-x,y,z
x,1/2-y,z
loop_
_atom_site_type_symbol
_atom_site_label
_atom_site_fract_x
_atom_site_fract_y
_atom_site_fract_z
Si Si1 0.381437 0.920007 0.695053
Si Si2 0.465201 0.584078 0.383012
Si Si3 0.801453 0.581271 0.009224
Si Si4 0.066969 0.082994 0.546901
Si Si5 0.535247 0.417986 0.821316
Si Si6 0.802645 0.586098 0.216986
Si Si7 0.888379 0.418117 0.963637
Si Si8 0.055600 0.919541 0.862980
O O1 0.379565 0.750000 0.678633
O O2 0.417914 0.961913 0.772119
O O3 0.394669 0.998336 0.602833
O O4 0.331324 0.975632 0.722841
O O5 0.451064 0.750000 0.399196
O O6 0.434481 0.483445 0.446955
O O7 0.518717 0.559982 0.403283
O O8 0.455872 0.534027 0.281190
O O9 0.750000 0.536201 0.977411
O O10 0.808735 0.750000 0.994382
O O11 0.807627 0.540098 0.113429
O O12 0.839547 0.497336 0.951390
O O13 0.080666 0.250000 0.539757
O O14 0.522167 0.250000 0.826017
O O15 0.581414 0.453064 0.876035
O O16 0.493453 0.503636 0.865811
O O17 0.750000 0.573854 0.248225
O O18 0.820502 0.750000 0.230522
O O19 0.877941 0.250000 0.973477
O O20 0.914820 0.475100 0.052256
O O21 0.046725 0.750000 0.870165
#
# Coordination Sequence:
#
# PCOD8240804 Si02
#       8
#     8   8   8   8   8   8   8   8
#     4  11  20  30  47  71  99 129 159 195 236 282
#     4   9  18  32  47  67  92 121 157 200 243 279
#     4   9  18  32  49  69  93 123 160 200 240 281
#     4  10  19  31  49  69  91 123 159 195 238 285
#     4  10  20  33  49  67  94 130 166 201 239 283
#     4   9  18  32  49  69  94 125 161 199 237 282
#     4  10  20  33  47  69  97 128 164 199 237 282
#     4  10  20  31  43  66  99 131 165 197 228 272
#
# _framework density 16.011837
#
# number of rings (size 3 to 8) (size 9 to 14) (size 15 to 20)
#    0.000    2.250    2.500    1.875    0.000    3.000 
#    0.000    1.250    0.000    0.000    0.000    0.875 
#    0.000    5.000    0.000    0.000    0.000    0.000 
#
# Total GULP energy -793762.815276 kJ/mol
# GULP energy per Si atom -12402.543989 kJ/mol
# Density = 1.597539 g / cm^3
# Si number density = 16.011837 Si / 1000 Ang^3
#
#
#
# Elastic Constant Matrix: (Units=GPa)
#
#
# Indices 1 2 3 4 5 6 
#
# 1 100.2092 48.5211 47.3091 0.0000 0.0000 0.0000
# 2 48.5211 63.6262 38.5882 0.0000 0.0000 0.0000
# 3 47.3091 38.5882 83.7159 0.0000 0.0000 0.0000
# 4 0.0000 0.0000 0.0000 22.7730 0.0000 0.0000
# 5 0.0000 0.0000 0.0000 0.0000 21.2032 0.0000
# 6 0.0000 0.0000 0.0000 0.0000 0.0000 31.2702
#
#
#
# Elastic Compliance Matrix: (Units=1/GPa)
#
#
# Indices 1 2 3 4 5 6 
#
# 1 0.017270 -0.010064 -0.005120 0.000000 0.000000 0.000000
# 2 -0.010064 0.027681 -0.007072 0.000000 0.000000 0.000000
# 3 -0.005120 -0.007072 0.018098 0.000000 0.000000 0.000000
# 4 0.000000 0.000000 0.000000 0.043912 0.000000 0.000000
# 5 0.000000 0.000000 0.000000 0.000000 0.047163 0.000000
# 6 0.000000 0.000000 0.000000 0.000000 0.000000 0.031979
#
#
# Mechanical properties :
#
#
# Convention : Reuss Voigt Hill
#
# Bulk Modulus (GPa) = 53.94887 57.37644 55.66266
# Shear Modulus (GPa) = 21.11546 22.59147 21.85346
#
# Velocity S-wave (km/s) = 3.63539 3.76030 3.69837
# Velocity P-wave (km/s) = 7.16852 7.40032 7.28534
#
# Compressibility (1/GPa) = 0.01853607
#
# Stress axis : x y z
#
# Youngs Moduli (GPa) = 57.90546 36.12627 55.25385
#
# Poissons Ratio (x) = 0.36359 0.28291
# Poissons Ratio (y) = 0.58278 0.39074
# Poissons Ratio (z) = 0.29649 0.25547
#
# Static dielectric constant tensor:
#      x y z
#    x 2.890730 0.000000 0.000000 
#    y 0.000000 3.007330 0.000000 
#    z 0.000000 0.000000 2.966510 
# 
# 
# High freq. dielectric constant tensor:
#      x y z
#    x 1.599310 0.000000 0.000000 
#    y 0.000000 1.619250 0.000000 
#    z 0.000000 0.000000 1.598520 
# 
# From -- ./inp_files/21911.got.cif
#   From: 2010.03.12/outbox.cif.g09.slc.cpg/sg59_11_cif.got.tgz:21911.got - 2010.04.16 16:29:54.
