data_PCOD8240655
_publ_section_title
;
Structure prediction by ZEFSAII (Michael W. Deem and Ramdas Pophale) SiO2 
 PCOD8240655
Probable space group: P M M N
;
_chemical_formula_sum "Si O2"
_cell_formula_units_Z 64
_cell_length_a 31.925524
_cell_length_b 10.529256
_cell_length_c 10.110693
_cell_angle_alpha 90.000000
_cell_angle_beta 90.000000
_cell_angle_gamma 90.000000
_cell_volume 3398.729826
_symmetry_space_group_name_H-M "P M M N"
_symmetry_group_IT_number 59
_space_group.IT_coordinate_system_code '2'
_symmetry_cell_setting 'orthorhombic'
loop_
_space_group_symop_operation_xyz
x,y,z
1/2-x,1/2-y,z
1/2+x,-y,-z
-x,1/2+y,-z
-x,-y,-z
1/2+x,1/2+y,-z
1/2-x,y,z
x,1/2-y,z
loop_
_atom_site_type_symbol
_atom_site_label
_atom_site_fract_x
_atom_site_fract_y
_atom_site_fract_z
Si Si1 0.094674 0.896391 0.666219
Si Si2 0.966682 0.388911 0.116971
Si Si3 0.204400 0.396835 0.391566
Si Si4 0.948298 0.474192 0.842136
Si Si5 0.203977 0.101871 0.950721
Si Si6 0.833892 0.896014 0.329503
Si Si7 0.529862 0.390357 0.554512
Si Si8 0.641936 0.901020 0.826935
O O1 0.109427 0.750000 0.697601
O O2 0.063691 0.957969 0.777703
O O3 0.073320 0.899858 0.522953
O O4 0.131497 0.996690 0.660723
O O5 0.968282 0.250000 0.177255
O O6 0.014573 0.431269 0.118276
O O7 0.946137 0.384128 0.970679
O O8 0.250000 0.458950 0.359656
O O9 0.206969 0.250000 0.354040
O O10 0.195952 0.415487 0.545768
O O11 0.167244 0.453876 0.301034
O O12 0.960493 0.400687 0.709700
O O13 0.904517 0.544236 0.823926
O O14 0.250000 0.041926 0.981296
O O15 0.206607 0.250000 0.979788
O O16 0.193331 0.074834 0.799186
O O17 0.167601 0.046651 0.045675
O O18 0.851833 0.750000 0.326469
O O19 0.500000 0.500000 0.500000
O O20 0.509588 0.250000 0.530903
O O21 0.637081 0.750000 0.827791
#
# Coordination Sequence:
#
# PCOD8240655 Si02
#       8
#     8   8   8   8   8   8   8   8
#     4  10  21  38  55  77 111 151 183 220 277 329
#     4  10  21  37  54  74 107 147 183 224 277 328
#     4   9  17  30  49  75 107 139 172 216 276 336
#     4  11  21  35  55  80 106 139 188 233 270 324
#     4   9  17  30  49  76 111 145 178 222 279 335
#     4  10  19  32  53  82 108 139 182 228 271 317
#     4  11  23  39  58  81 109 145 188 229 276 329
#     4  10  19  30  49  77 108 142 181 226 276 326
#
# _framework density 18.830566000000001
#
# number of rings (size 3 to 8) (size 9 to 14) (size 15 to 20)
#    0.000    2.000    1.250    3.000    0.000    4.000 
#    0.000    0.625    0.000    1.500    0.000    0.000 
#    0.000   10.000    0.000    0.000    0.000    0.000 
#
# Total GULP energy -792994.939117 kJ/mol
# GULP energy per Si atom -12390.545924 kJ/mol
# Density = 1.878771 g / cm^3
# Si number density = 18.830566 Si / 1000 Ang^3
#
#
#
# Elastic Constant Matrix: (Units=GPa)
#
#
# Indices 1 2 3 4 5 6 
#
# 1 120.5358 48.9907 34.5972 0.0000 0.0000 0.0000
# 2 48.9907 72.6118 17.6605 0.0000 0.0000 0.0000
# 3 34.5972 17.6605 124.9145 0.0000 0.0000 0.0000
# 4 0.0000 0.0000 0.0000 16.8083 0.0000 0.0000
# 5 0.0000 0.0000 0.0000 0.0000 13.8253 0.0000
# 6 0.0000 0.0000 0.0000 0.0000 0.0000 23.6123
#
#
#
# Elastic Compliance Matrix: (Units=1/GPa)
#
#
# Indices 1 2 3 4 5 6 
#
# 1 0.012017 -0.007558 -0.002260 0.000000 0.000000 0.000000
# 2 -0.007558 0.019016 -0.000595 0.000000 0.000000 0.000000
# 3 -0.002260 -0.000595 0.008715 0.000000 0.000000 0.000000
# 4 0.000000 0.000000 0.000000 0.059494 0.000000 0.000000
# 5 0.000000 0.000000 0.000000 0.000000 0.072331 0.000000
# 6 0.000000 0.000000 0.000000 0.000000 0.000000 0.042351
#
#
# Mechanical properties :
#
#
# Convention : Reuss Voigt Hill
#
# Bulk Modulus (GPa) = 52.84728 57.83987 55.34358
# Shear Modulus (GPa) = 20.74192 25.30345 23.02268
#
# Velocity S-wave (km/s) = 3.32249 3.66969 3.50040
# Velocity P-wave (km/s) = 6.54554 6.98127 6.76691
#
# Compressibility (1/GPa) = 0.01892245
#
# Stress axis : x y z
#
# Youngs Moduli (GPa) = 83.21698 52.58734 114.73841
#
# Poissons Ratio (x) = 0.39746 0.25927
# Poissons Ratio (y) = 0.62896 0.06829
# Poissons Ratio (z) = 0.18804 0.03130
#
# Static dielectric constant tensor:
#      x y z
#    x 3.430760 0.000000 0.000000 
#    y 0.000000 3.155000 0.000000 
#    z 0.000000 0.000000 4.003460 
# 
# 
# High freq. dielectric constant tensor:
#      x y z
#    x 1.732440 0.000000 0.000000 
#    y 0.000000 1.687700 0.000000 
#    z 0.000000 0.000000 1.756730 
# 
# From -- ./inp_files/13220.got.cif
#   From: 2010.03.12/outbox.cif.g09.slc.cpg/sg59_7_cif.got.tgz:13220.got - 2010.04.16 16:29:54.
