data_PCOD8240458
_publ_section_title
;
Structure prediction by ZEFSAII (Michael W. Deem and Ramdas Pophale) SiO2 
 PCOD8240458
Probable space group: P M M N
;
_chemical_formula_sum "Si O2"
_cell_formula_units_Z 56
_cell_length_a 9.516103
_cell_length_b 23.169397
_cell_length_c 15.494062
_cell_angle_alpha 90.000000
_cell_angle_beta 90.000000
_cell_angle_gamma 90.000000
_cell_volume 3416.167484
_symmetry_space_group_name_H-M "P M M N"
_symmetry_group_IT_number 59
_space_group.IT_coordinate_system_code '2'
_symmetry_cell_setting 'orthorhombic'
loop_
_space_group_symop_operation_xyz
x,y,z
1/2-x,1/2-y,z
1/2+x,-y,-z
-x,1/2+y,-z
-x,-y,-z
1/2+x,1/2+y,-z
1/2-x,y,z
x,1/2-y,z
loop_
_atom_site_type_symbol
_atom_site_label
_atom_site_fract_x
_atom_site_fract_y
_atom_site_fract_z
Si Si1 0.093482 0.181353 0.479723
Si Si2 0.416677 0.314211 0.667822
Si Si3 0.589135 0.183119 0.985453
Si Si4 0.913436 0.503957 0.087385
Si Si5 0.414010 0.817371 0.680491
Si Si6 0.414377 0.881615 0.847761
Si Si7 0.584844 0.873352 0.160298
O O1 0.250000 0.156292 0.463537
O O2 0.099209 0.250000 0.479302
O O3 0.033416 0.162078 0.573904
O O4 0.991230 0.158795 0.404733
O O5 0.250000 0.309625 0.664406
O O6 0.478499 0.250000 0.686484
O O7 0.464912 0.358312 0.742534
O O8 0.750000 0.164374 0.966955
O O9 0.579455 0.250000 0.008243
O O10 0.523738 0.148364 0.066415
O O11 0.496106 0.169630 0.902594
O O12 0.750000 0.504254 0.061595
O O13 0.948566 0.449667 0.148955
O O14 0.956095 0.560624 0.140831
O O15 0.000000 0.500000 0.000000
O O16 0.250000 0.829231 0.666982
O O17 0.444418 0.750000 0.697120
O O18 0.477730 0.853189 0.761253
O O19 0.250000 0.868328 0.846775
O O20 0.750000 0.862318 0.148259
#
# Coordination Sequence:
#
# PCOD8240458 Si02
#       7
#     8   8   8   8   8   8   8
#     4   8  14  26  44  64  87 115 143 174 219 272
#     4   8  14  26  44  65  90 118 144 175 221 273
#     4  10  19  30  45  65  91 123 151 178 222 275
#     4  10  19  32  49  66  86 118 158 193 226 263
#     4   9  16  27  45  67  88 113 147 185 223 264
#     4   9  17  30  46  63  88 120 152 184 220 268
#     4  10  19  30  47  69  90 116 153 192 226 262
#
# _framework density 16.392638999999999
#
# number of rings (size 3 to 8) (size 9 to 14) (size 15 to 20)
#    0.000    2.857    1.429    1.714    0.000    2.571 
#    0.000    2.143    0.000    5.143    0.000    0.000 
#    0.000    0.000    0.000    0.000    0.000    0.000 
#
# Total GULP energy -694180.421131 kJ/mol
# GULP energy per Si atom -12396.078949 kJ/mol
# Density = 1.635533 g / cm^3
# Si number density = 16.392639 Si / 1000 Ang^3
#
#
#
# Elastic Constant Matrix: (Units=GPa)
#
#
# Indices 1 2 3 4 5 6 
#
# 1 34.7230 21.6806 39.5547 0.0000 0.0000 0.0000
# 2 21.6806 73.6790 48.0608 0.0000 0.0000 0.0000
# 3 39.5547 48.0608 153.2362 0.0000 0.0000 0.0000
# 4 0.0000 0.0000 0.0000 17.5140 0.0000 0.0000
# 5 0.0000 0.0000 0.0000 0.0000 26.3600 0.0000
# 6 0.0000 0.0000 0.0000 0.0000 0.0000 15.3412
#
#
#
# Elastic Compliance Matrix: (Units=1/GPa)
#
#
# Indices 1 2 3 4 5 6 
#
# 1 0.043393 -0.006867 -0.009047 0.000000 0.000000 0.000000
# 2 -0.006867 0.018150 -0.003920 0.000000 0.000000 0.000000
# 3 -0.009047 -0.003920 0.010091 0.000000 0.000000 0.000000
# 4 0.000000 0.000000 0.000000 0.057097 0.000000 0.000000
# 5 0.000000 0.000000 0.000000 0.000000 0.037936 0.000000
# 6 0.000000 0.000000 0.000000 0.000000 0.000000 0.065184
#
#
# Mechanical properties :
#
#
# Convention : Reuss Voigt Hill
#
# Bulk Modulus (GPa) = 31.28403 53.35895 42.32149
# Shear Modulus (GPa) = 17.71946 21.99919 19.85932
#
# Velocity S-wave (km/s) = 3.29133 3.66733 3.48441
# Velocity P-wave (km/s) = 5.79391 7.11011 6.48549
#
# Compressibility (1/GPa) = 0.03196520
#
# Stress axis : x y z
#
# Youngs Moduli (GPa) = 23.04497 55.09603 99.10151
#
# Poissons Ratio (x) = 0.37836 0.89660
# Poissons Ratio (y) = 0.15826 0.38847
# Poissons Ratio (z) = 0.20849 0.21597
#
# Static dielectric constant tensor:
#      x y z
#    x 2.923660 0.000000 0.000000 
#    y 0.000000 3.029440 0.000000 
#    z 0.000000 0.000000 3.444530 
# 
# 
# High freq. dielectric constant tensor:
#      x y z
#    x 1.600590 0.000000 0.000000 
#    y 0.000000 1.611800 0.000000 
#    z 0.000000 0.000000 1.638140 
# 
# From -- ./inp_files/16013.got.cif
#   From: 2010.03.12/outbox.cif.g09.slc.cpg/sg59_9_cif.got.tgz:16013.got - 2010.04.16 16:29:54.
