data_PCOD8240584
_publ_section_title
;
Structure prediction by ZEFSAII (Michael W. Deem and Ramdas Pophale) SiO2 
 PCOD8240584
Probable space group: P M M N
;
_chemical_formula_sum "Si O2"
_cell_formula_units_Z 64
_cell_length_a 9.398345
_cell_length_b 23.756688
_cell_length_c 16.387687
_cell_angle_alpha 90.000000
_cell_angle_beta 90.000000
_cell_angle_gamma 90.000000
_cell_volume 3658.937051
_symmetry_space_group_name_H-M "P M M N"
_symmetry_group_IT_number 59
_space_group.IT_coordinate_system_code '2'
_symmetry_cell_setting 'orthorhombic'
loop_
_space_group_symop_operation_xyz
x,y,z
1/2-x,1/2-y,z
1/2+x,-y,-z
-x,1/2+y,-z
-x,-y,-z
1/2+x,1/2+y,-z
1/2-x,y,z
x,1/2-y,z
loop_
_atom_site_type_symbol
_atom_site_label
_atom_site_fract_x
_atom_site_fract_y
_atom_site_fract_z
Si Si1 0.583653 0.185805 0.252769
Si Si2 0.912696 0.314638 0.620381
Si Si3 0.593813 0.683364 0.899739
Si Si4 0.588313 0.969232 0.307472
Si Si5 0.913970 0.087706 0.371042
Si Si6 0.584266 0.597495 0.469553
Si Si7 0.915363 0.118375 0.783442
Si Si8 0.582466 0.685019 0.082122
O O1 0.750000 0.182201 0.236910
O O2 0.536441 0.250000 0.273300
O O3 0.512604 0.162208 0.170122
O O4 0.538752 0.145762 0.327588
O O5 0.750000 0.324394 0.593242
O O6 0.954548 0.250000 0.622814
O O7 0.940141 0.338463 0.710057
O O8 0.014351 0.343061 0.554146
O O9 0.750000 0.657910 0.881551
O O10 0.603200 0.750000 0.898476
O O11 0.543196 0.665588 0.990121
O O12 0.750000 0.953109 0.284163
O O13 0.553442 0.947316 0.398483
O O14 0.484325 0.941591 0.240757
O O15 0.565400 0.036376 0.307377
O O16 0.750000 0.090693 0.399862
O O17 0.012351 0.075364 0.448274
O O18 0.750000 0.606600 0.485507
O O19 0.750000 0.108936 0.803129
O O20 0.992357 0.143853 0.861526
O O21 0.750000 0.677509 0.098888
O O22 0.538298 0.750000 0.097329
#
# Coordination Sequence:
#
# PCOD8240584 Si02
#       8
#     8   8   8   8   8   8   8   8
#     4   9  18  32  50  73  98 122 151 190 237 286
#     4   9  18  32  47  64  93 131 161 187 230 286
#     4   8  15  29  48  70  97 128 158 188 228 278
#     4   9  19  35  51  67  92 127 164 200 240 285
#     4  10  20  34  52  71  93 125 161 196 239 292
#     4  10  20  32  48  71  94 119 158 205 244 278
#     4  10  19  30  47  72  99 126 160 202 242 279
#     4   9  17  29  47  72 101 132 162 190 227 280
#
# _framework density 17.491420000000002
#
# number of rings (size 3 to 8) (size 9 to 14) (size 15 to 20)
#    0.000    2.750    0.000    2.250    0.000    4.000 
#    0.000    2.500    0.000    0.750    0.000    0.000 
#    0.000    0.000    0.000    0.000    0.000    0.000 
#
# Total GULP energy -793541.932693 kJ/mol
# GULP energy per Si atom -12399.092698 kJ/mol
# Density = 1.745161 g / cm^3
# Si number density = 17.491420 Si / 1000 Ang^3
#
#
#
# Elastic Constant Matrix: (Units=GPa)
#
#
# Indices 1 2 3 4 5 6 
#
# 1 72.4606 32.4085 42.2774 0.0000 0.0000 0.0000
# 2 32.4085 77.6821 25.1572 0.0000 0.0000 0.0000
# 3 42.2774 25.1572 68.4988 0.0000 0.0000 0.0000
# 4 0.0000 0.0000 0.0000 17.5539 0.0000 0.0000
# 5 0.0000 0.0000 0.0000 0.0000 33.5012 0.0000
# 6 0.0000 0.0000 0.0000 0.0000 0.0000 21.3878
#
#
#
# Elastic Compliance Matrix: (Units=1/GPa)
#
#
# Indices 1 2 3 4 5 6 
#
# 1 0.023695 -0.005844 -0.012478 0.000000 0.000000 0.000000
# 2 -0.005844 0.016052 -0.002288 0.000000 0.000000 0.000000
# 3 -0.012478 -0.002288 0.023141 0.000000 0.000000 0.000000
# 4 0.000000 0.000000 0.000000 0.056967 0.000000 0.000000
# 5 0.000000 0.000000 0.000000 0.000000 0.029850 0.000000
# 6 0.000000 0.000000 0.000000 0.000000 0.000000 0.046756
#
#
# Mechanical properties :
#
#
# Convention : Reuss Voigt Hill
#
# Bulk Modulus (GPa) = 46.15441 46.48085 46.31763
# Shear Modulus (GPa) = 20.41616 22.40847 21.41232
#
# Velocity S-wave (km/s) = 3.42015 3.58315 3.50260
# Velocity P-wave (km/s) = 6.48388 6.61436 6.54945
#
# Compressibility (1/GPa) = 0.02166640
#
# Stress axis : x y z
#
# Youngs Moduli (GPa) = 42.20321 62.29651 43.21406
#
# Poissons Ratio (x) = 0.36408 0.53923
# Poissons Ratio (y) = 0.24665 0.09889
# Poissons Ratio (z) = 0.52661 0.14255
#
# Static dielectric constant tensor:
#      x y z
#    x 3.362260 0.000000 0.000000 
#    y 0.000000 3.174560 0.000000 
#    z 0.000000 0.000000 3.201390 
# 
# 
# High freq. dielectric constant tensor:
#      x y z
#    x 1.677630 0.000000 0.000000 
#    y 0.000000 1.659120 0.000000 
#    z 0.000000 0.000000 1.664790 
# 
# From -- ./inp_files/21534.got.cif
#   From: 2010.03.12/outbox.cif.g09.slc.cpg/sg59_11_cif.got.tgz:21534.got - 2010.04.16 16:29:54.
