data_PCOD8240196
_publ_section_title
;
Structure prediction by ZEFSAII (Michael W. Deem and Ramdas Pophale) SiO2 
 PCOD8240196
Probable space group: P M M N
;
_chemical_formula_sum "Si O2"
_cell_formula_units_Z 56
_cell_length_a 9.164382
_cell_length_b 21.366052
_cell_length_c 14.629180
_cell_angle_alpha 90.000000
_cell_angle_beta 90.000000
_cell_angle_gamma 90.000000
_cell_volume 2864.490909
_symmetry_space_group_name_H-M "P M M N"
_symmetry_group_IT_number 59
_space_group.IT_coordinate_system_code '2'
_symmetry_cell_setting 'orthorhombic'
loop_
_space_group_symop_operation_xyz
x,y,z
1/2-x,1/2-y,z
1/2+x,-y,-z
-x,1/2+y,-z
-x,-y,-z
1/2+x,1/2+y,-z
1/2-x,y,z
x,1/2-y,z
loop_
_atom_site_type_symbol
_atom_site_label
_atom_site_fract_x
_atom_site_fract_y
_atom_site_fract_z
Si Si1 0.575991 0.087237 0.758376
Si Si2 0.077817 0.964211 0.701254
Si Si3 0.422392 0.323201 0.631231
Si Si4 0.914159 0.123643 0.465738
Si Si5 0.412183 0.556379 0.040526
Si Si6 0.419351 0.250000 0.183475
Si Si7 0.907449 0.250000 0.357272
Si Si8 0.086882 0.870206 0.860511
O O1 0.750000 0.091020 0.747420
O O2 0.503337 0.151312 0.721680
O O3 0.524407 0.081787 0.863907
O O4 0.514004 0.027902 0.702442
O O5 0.250000 0.978952 0.705608
O O6 0.035812 0.929072 0.606833
O O7 0.030159 0.922878 0.789402
O O8 0.250000 0.330831 0.641926
O O9 0.464216 0.250000 0.615799
O O10 0.475382 0.369555 0.550069
O O11 0.750000 0.109027 0.501363
O O12 0.918242 0.189841 0.418213
O O13 0.250000 0.531297 0.059056
O O14 0.500000 0.500000 0.000000
O O15 0.413643 0.610129 0.965465
O O16 0.250000 0.250000 0.167792
O O17 0.456726 0.250000 0.289999
O O18 0.482613 0.188598 0.137656
O O19 0.750000 0.250000 0.305435
O O20 0.250000 0.851334 0.828933
#
# Coordination Sequence:
#
# PCOD8240196 Si02
#       8
#     8   8   8   8   8   4   4   8
#     4  11  24  41  63  92 122 155 199 250 300 355
#     4  10  20  36  62  93 124 160 196 239 299 360
#     4  11  25  44  65  88 117 159 205 251 302 353
#     4  10  20  36  62  91 119 156 201 243 291 353
#     4  10  21  38  64  92 117 153 199 246 301 360
#     4  12  24  34  52  87 126 161 202 255 302 350
#     4  10  18  34  58  85 118 161 202 237 294 366
#     4  10  20  38  60  84 121 165 202 243 302 371
#
# _framework density 19.549721999999999
#
# number of rings (size 3 to 8) (size 9 to 14) (size 15 to 20)
#    0.000    1.571    3.571    1.500    0.000    4.286 
#    1.286    0.000    0.000    0.000    0.000    0.000 
#    0.000    0.000    0.000    0.000    0.000    0.000 
#
# Total GULP energy -694292.271250 kJ/mol
# GULP energy per Si atom -12398.076272 kJ/mol
# Density = 1.950523 g / cm^3
# Si number density = 19.549722 Si / 1000 Ang^3
#
#
#
# Elastic Constant Matrix: (Units=GPa)
#
#
# Indices 1 2 3 4 5 6 
#
# 1 97.0541 47.2611 41.1944 0.0000 0.0000 0.0000
# 2 47.2611 78.2780 36.0578 0.0000 0.0000 0.0000
# 3 41.1944 36.0578 120.4502 0.0000 0.0000 0.0000
# 4 0.0000 0.0000 0.0000 241.8355 0.0000 0.0000
# 5 0.0000 0.0000 0.0000 0.0000 27.6485 0.0000
# 6 0.0000 0.0000 0.0000 0.0000 0.0000 31.3546
#
#
#
# Elastic Compliance Matrix: (Units=1/GPa)
#
#
# Indices 1 2 3 4 5 6 
#
# 1 0.015412 -0.007977 -0.002883 0.000000 0.000000 0.000000
# 2 -0.007977 0.018947 -0.002944 0.000000 0.000000 0.000000
# 3 -0.002883 -0.002944 0.010169 0.000000 0.000000 0.000000
# 4 0.000000 0.000000 0.000000 0.004135 0.000000 0.000000
# 5 0.000000 0.000000 0.000000 0.000000 0.036168 0.000000
# 6 0.000000 0.000000 0.000000 0.000000 0.000000 0.031893
#
#
# Mechanical properties :
#
#
# Convention : Reuss Voigt Hill
#
# Bulk Modulus (GPa) = 59.09866 60.53435 59.81650
# Shear Modulus (GPa) = 33.33946 71.58564 52.46255
#
# Velocity S-wave (km/s) = 4.13409 6.05778 5.18591
# Velocity P-wave (km/s) = 7.28582 8.94206 8.15609
#
# Compressibility (1/GPa) = 0.01692086
#
# Stress axis : x y z
#
# Youngs Moduli (GPa) = 64.88627 52.77825 98.33422
#
# Poissons Ratio (x) = 0.42101 0.28348
# Poissons Ratio (y) = 0.51759 0.28948
# Poissons Ratio (z) = 0.18706 0.15537
#
# Static dielectric constant tensor:
#      x y z
#    x 3.524730 0.000000 0.000000 
#    y 0.000000 3.587770 0.000000 
#    z 0.000000 0.000000 3.864510 
# 
# 
# High freq. dielectric constant tensor:
#      x y z
#    x 1.756420 0.000000 0.000000 
#    y 0.000000 1.760510 0.000000 
#    z 0.000000 0.000000 1.766050 
# 
# From -- ./inp_files/21111.got.cif
#   From: 2010.03.12/outbox.cif.g09.slc.cpg/sg59_11_cif.got.tgz:21111.got - 2010.04.16 16:29:54.
