data_PCOD8240842
_publ_section_title
;
Structure prediction by ZEFSAII (Michael W. Deem and Ramdas Pophale) SiO2 
 PCOD8240842
Probable space group: P M M N
;
_chemical_formula_sum "Si O2"
_cell_formula_units_Z 64
_cell_length_a 19.437568
_cell_length_b 9.287392
_cell_length_c 20.539171
_cell_angle_alpha 90.000000
_cell_angle_beta 90.000000
_cell_angle_gamma 90.000000
_cell_volume 3707.819746
_symmetry_space_group_name_H-M "P M M N"
_symmetry_group_IT_number 59
_space_group.IT_coordinate_system_code '2'
_symmetry_cell_setting 'orthorhombic'
loop_
_space_group_symop_operation_xyz
x,y,z
1/2-x,1/2-y,z
1/2+x,-y,-z
-x,1/2+y,-z
-x,-y,-z
1/2+x,1/2+y,-z
1/2-x,y,z
x,1/2-y,z
loop_
_atom_site_type_symbol
_atom_site_label
_atom_site_fract_x
_atom_site_fract_y
_atom_site_fract_z
Si Si1 0.081986 0.409221 0.555100
Si Si2 0.417708 0.588128 0.435268
Si Si3 0.572227 0.915587 0.685627
Si Si4 0.329329 0.585593 0.927503
Si Si5 0.936543 0.586543 0.307395
Si Si6 0.928242 0.917750 0.830435
Si Si7 0.429128 0.415560 0.835595
Si Si8 0.169933 0.586481 0.077298
O O1 0.101476 0.250000 0.530610
O O2 0.112156 0.518520 0.501793
O O3 0.112048 0.437996 0.628486
O O4 0.999815 0.423894 0.563014
O O5 0.390413 0.750000 0.432449
O O6 0.389136 0.506295 0.370921
O O7 0.574763 0.750000 0.664309
O O8 0.603620 0.940135 0.757729
O O9 0.493822 0.964493 0.691078
O O10 0.250000 0.544718 0.917181
O O11 0.342698 0.750000 0.906364
O O12 0.374159 0.480541 0.884142
O O13 0.350566 0.563556 0.002306
O O14 0.968286 0.750000 0.312681
O O15 0.897978 0.571420 0.238107
O O16 0.943469 0.750000 0.843222
O O17 0.871740 0.973155 0.880370
O O18 0.998422 0.004105 0.841383
O O19 0.441621 0.250000 0.854576
O O20 0.250000 0.554803 0.087617
O O21 0.152552 0.750000 0.098531
#
# Coordination Sequence:
#
# PCOD8240842 Si02
#       8
#     8   8   8   8   8   8   8   8
#     4   8  13  21  32  47  72 107 144 180 218 262
#     4   9  15  21  31  49  74 107 146 183 219 262
#     4   9  16  25  37  55  81 113 147 182 222 267
#     4   9  19  36  54  71  94 123 154 190 233 280
#     4   8  15  26  38  55  81 113 147 183 224 266
#     4  10  20  32  48  71  97 125 157 193 234 279
#     4  10  19  31  49  72  97 125 158 195 233 276
#     4   9  19  36  55  72  92 121 155 191 233 279
#
# _framework density 17.260816999999999
#
# number of rings (size 3 to 8) (size 9 to 14) (size 15 to 20)
#    0.000    3.000    0.000    3.000    0.000    6.500 
#    0.000    1.250    0.000    0.000    0.000    0.000 
#    0.000    1.000    0.000    9.500    0.000    9.750 
#
# Total GULP energy -793011.586086 kJ/mol
# GULP energy per Si atom -12390.806033 kJ/mol
# Density = 1.722153 g / cm^3
# Si number density = 17.260817 Si / 1000 Ang^3
#
#
#
# Elastic Constant Matrix: (Units=GPa)
#
#
# Indices 1 2 3 4 5 6 
#
# 1 32.9487 35.0238 41.7525 0.0000 0.0000 0.0000
# 2 35.0238 129.7742 80.6499 0.0000 0.0000 0.0000
# 3 41.7525 80.6499 133.7002 0.0000 0.0000 0.0000
# 4 0.0000 0.0000 0.0000 33.1756 0.0000 0.0000
# 5 0.0000 0.0000 0.0000 0.0000 -4.0467 0.0000
# 6 0.0000 0.0000 0.0000 0.0000 0.0000 20.6568
#
#
#
# Elastic Compliance Matrix: (Units=1/GPa)
#
#
# Indices 1 2 3 4 5 6 
#
# 1 0.053427 -0.006479 -0.012776 0.000000 0.000000 0.000000
# 2 -0.006479 0.013112 -0.005886 0.000000 0.000000 0.000000
# 3 -0.012776 -0.005886 0.015020 0.000000 0.000000 0.000000
# 4 0.000000 0.000000 0.000000 0.030143 0.000000 0.000000
# 5 0.000000 0.000000 0.000000 0.000000 -0.247114 0.000000
# 6 0.000000 0.000000 0.000000 0.000000 0.000000 0.048410
#
#
# Mechanical properties :
#
#
# Convention : Reuss Voigt Hill
#
# Bulk Modulus (GPa) = 31.97300 67.91949 49.94624
# Shear Modulus (GPa) = -190.16303 19.22361 -85.46971
#
# Velocity S-wave (km/s) = -10.50759 3.34086 -7.04444
# Velocity P-wave (km/s) = 11.34236 7.36995 6.09643
#
# Compressibility (1/GPa) = 0.03127639
#
# Stress axis : x y z
#
# Youngs Moduli (GPa) = 18.71703 76.26378 66.57841
#
# Poissons Ratio (x) = 0.49412 0.85062
# Poissons Ratio (y) = 0.12127 0.39190
# Poissons Ratio (z) = 0.23913 0.44891
#
# Static dielectric constant tensor:
#      x y z
#    x 2.548060 0.000000 0.000000 
#    y 0.000000 3.315700 0.000000 
#    z 0.000000 0.000000 3.682770 
# 
# 
# High freq. dielectric constant tensor:
#      x y z
#    x 1.586670 0.000000 0.000000 
#    y 0.000000 1.678900 0.000000 
#    z 0.000000 0.000000 1.690560 
# 
# From -- ./inp_files/30704.got.cif
#   From: 2010.03.12/outbox.cif.g09.slc.cpg/sg59_16_cif.got.tgz:30704.got - 2010.04.16 16:29:54.
