data_PCOD8240747
_publ_section_title
;
Structure prediction by ZEFSAII (Michael W. Deem and Ramdas Pophale) SiO2 
 PCOD8240747
Probable space group: P M M N
;
_chemical_formula_sum "Si O2"
_cell_formula_units_Z 64
_cell_length_a 9.190498
_cell_length_b 19.416570
_cell_length_c 21.641431
_cell_angle_alpha 90.000000
_cell_angle_beta 90.000000
_cell_angle_gamma 90.000000
_cell_volume 3861.868948
_symmetry_space_group_name_H-M "P M M N"
_symmetry_group_IT_number 59
_space_group.IT_coordinate_system_code '2'
_symmetry_cell_setting 'orthorhombic'
loop_
_space_group_symop_operation_xyz
x,y,z
1/2-x,1/2-y,z
1/2+x,-y,-z
-x,1/2+y,-z
-x,-y,-z
1/2+x,1/2+y,-z
1/2-x,y,z
x,1/2-y,z
loop_
_atom_site_type_symbol
_atom_site_label
_atom_site_fract_x
_atom_site_fract_y
_atom_site_fract_z
Si Si1 0.578494 0.538517 0.692169
Si Si2 0.086203 0.465089 0.587380
Si Si3 0.081552 0.174204 0.990482
Si Si4 0.919451 0.532571 0.058155
Si Si5 0.086624 0.895026 0.511822
Si Si6 0.581802 0.827782 0.617934
Si Si7 0.416555 0.673934 0.887066
Si Si8 0.418737 0.541122 0.817636
O O1 0.750000 0.526819 0.691599
O O2 0.505649 0.481862 0.648307
O O3 0.537747 0.616457 0.670394
O O4 0.517736 0.522826 0.759793
O O5 0.250000 0.441929 0.605132
O O6 0.092647 0.531795 0.544821
O O7 0.006403 0.402930 0.551069
O O8 0.250000 0.178204 0.006351
O O9 0.025781 0.250000 0.967919
O O10 0.005617 0.150677 0.053391
O O11 0.051173 0.115196 0.939641
O O12 0.750000 0.515066 0.049893
O O13 0.974199 0.502495 0.123321
O O14 0.000000 0.500000 0.000000
O O15 0.250000 0.869914 0.496007
O O16 0.011276 0.839112 0.556064
O O17 0.750000 0.838293 0.599980
O O18 0.552611 0.750000 0.642593
O O19 0.250000 0.671715 0.908131
O O20 0.462980 0.750000 0.864253
O O21 0.444334 0.621833 0.831150
O O22 0.250000 0.525386 0.802634
#
# Coordination Sequence:
#
# PCOD8240747 Si02
#       8
#     8   8   8   8   8   8   8   8
#     4  10  20  32  46  65  90 123 162 201 236 277
#     4   9  16  28  46  66  90 119 149 187 234 276
#     4   9  17  29  46  68  91 114 144 185 234 286
#     4  10  19  31  48  69  93 120 152 195 247 296
#     4   9  16  26  44  70  94 117 150 190 229 269
#     4   9  18  32  47  65  94 130 164 195 228 269
#     4   9  17  29  44  62  87 119 152 186 228 282
#     4  10  20  32  44  63  91 123 158 196 240 292
#
# _framework density 16.572288
#
# number of rings (size 3 to 8) (size 9 to 14) (size 15 to 20)
#    0.000    2.625    1.250    1.125    0.000    5.250 
#    0.000    0.000    0.000    0.000    0.000    0.875 
#    0.000    5.000    0.000    0.000    0.000    0.000 
#
# Total GULP energy -793339.144077 kJ/mol
# GULP energy per Si atom -12395.924126 kJ/mol
# Density = 1.653457 g / cm^3
# Si number density = 16.572288 Si / 1000 Ang^3
#
#
#
# Elastic Constant Matrix: (Units=GPa)
#
#
# Indices 1 2 3 4 5 6 
#
# 1 78.0013 26.4414 53.0297 0.0000 0.0000 0.0000
# 2 26.4414 45.2929 41.9184 0.0000 0.0000 0.0000
# 3 53.0297 41.9184 114.1728 0.0000 0.0000 0.0000
# 4 0.0000 0.0000 0.0000 18.0538 0.0000 0.0000
# 5 0.0000 0.0000 0.0000 0.0000 29.6044 0.0000
# 6 0.0000 0.0000 0.0000 0.0000 0.0000 18.5889
#
#
#
# Elastic Compliance Matrix: (Units=1/GPa)
#
#
# Indices 1 2 3 4 5 6 
#
# 1 0.019325 -0.004506 -0.007322 0.000000 0.000000 0.000000
# 2 -0.004506 0.034492 -0.010571 0.000000 0.000000 0.000000
# 3 -0.007322 -0.010571 0.016041 0.000000 0.000000 0.000000
# 4 0.000000 0.000000 0.000000 0.055390 0.000000 0.000000
# 5 0.000000 0.000000 0.000000 0.000000 0.033779 0.000000
# 6 0.000000 0.000000 0.000000 0.000000 0.000000 0.053796
#
#
# Mechanical properties :
#
#
# Convention : Reuss Voigt Hill
#
# Bulk Modulus (GPa) = 39.90216 53.36066 46.63141
# Shear Modulus (GPa) = 18.79885 20.98791 19.89338
#
# Velocity S-wave (km/s) = 3.37167 3.56258 3.46844
# Velocity P-wave (km/s) = 6.26797 7.01365 6.65127
#
# Compressibility (1/GPa) = 0.02506130
#
# Stress axis : x y z
#
# Youngs Moduli (GPa) = 51.74524 28.99191 62.34176
#
# Poissons Ratio (x) = 0.13063 0.45646
# Poissons Ratio (y) = 0.23314 0.65902
# Poissons Ratio (z) = 0.37887 0.30648
#
# Static dielectric constant tensor:
#      x y z
#    x 3.298600 0.000000 0.000000 
#    y 0.000000 3.269100 0.000000 
#    z 0.000000 0.000000 2.916600 
# 
# 
# High freq. dielectric constant tensor:
#      x y z
#    x 1.645650 0.000000 0.000000 
#    y 0.000000 1.620220 0.000000 
#    z 0.000000 0.000000 1.611280 
# 
# From -- ./inp_files/29706.got.cif
#   From: 2010.03.12/outbox.cif.g09.slc.cpg/sg59_15_cif.got.tgz:29706.got - 2010.04.16 16:29:54.
