data_PCOD8240679
_publ_section_title
;
Structure prediction by ZEFSAII (Michael W. Deem and Ramdas Pophale) SiO2 
 PCOD8240679
Probable space group: P M M N
;
_chemical_formula_sum "Si O2"
_cell_formula_units_Z 48
_cell_length_a 9.224517
_cell_length_b 19.121506
_cell_length_c 14.818109
_cell_angle_alpha 90.000000
_cell_angle_beta 90.000000
_cell_angle_gamma 90.000000
_cell_volume 2613.716712
_symmetry_space_group_name_H-M "P M M N"
_symmetry_group_IT_number 59
_space_group.IT_coordinate_system_code '2'
_symmetry_cell_setting 'orthorhombic'
loop_
_space_group_symop_operation_xyz
x,y,z
1/2-x,1/2-y,z
1/2+x,-y,-z
-x,1/2+y,-z
-x,-y,-z
1/2+x,1/2+y,-z
1/2-x,y,z
x,1/2-y,z
loop_
_atom_site_type_symbol
_atom_site_label
_atom_site_fract_x
_atom_site_fract_y
_atom_site_fract_z
Si Si1 0.082234 0.952170 0.866785
Si Si2 0.084446 0.917010 0.060649
Si Si3 0.921337 0.419925 0.620712
Si Si4 0.581735 0.669436 0.528223
Si Si5 0.581061 0.174765 0.780561
Si Si6 0.582667 0.569499 0.687290
O O1 0.250000 0.959673 0.842025
O O2 0.002968 0.920259 0.780288
O O3 0.057023 0.902368 0.954472
O O4 0.022470 0.026968 0.896025
O O5 0.250000 0.943080 0.075848
O O6 0.053680 0.846163 0.115505
O O7 0.750000 0.413691 0.606925
O O8 0.980391 0.382427 0.711323
O O9 0.969359 0.501052 0.630465
O O10 0.995055 0.381537 0.537303
O O11 0.750000 0.665873 0.501705
O O12 0.525940 0.750000 0.524210
O O13 0.557370 0.639330 0.628825
O O14 0.750000 0.181635 0.761042
O O15 0.505552 0.250000 0.763862
O O16 0.750000 0.558860 0.712981
#
# Coordination Sequence:
#
# PCOD8240679 Si02
#       6
#     8   8   8   8   8   8
#     4  10  19  30  51  79 103 131 172 217 255 293
#     4   9  17  32  50  72 105 139 169 204 255 310
#     4  10  19  33  55  79 101 133 175 216 259 306
#     4  10  22  38  54  75 105 140 173 210 263 316
#     4   9  16  28  49  75 103 135 170 206 251 310
#     4  10  20  36  56  76 103 138 174 214 258 311
#
# _framework density 18.364650999999999
#
# number of rings (size 3 to 8) (size 9 to 14) (size 15 to 20)
#    0.000    2.333    1.667    1.500    0.000    3.000 
#    0.000    0.833    0.000    1.500    0.000    0.000 
#    0.000    0.000    0.000    0.000    0.000    0.000 
#
# Total GULP energy -594936.334876 kJ/mol
# GULP energy per Si atom -12394.506977 kJ/mol
# Density = 1.832285 g / cm^3
# Si number density = 18.364651 Si / 1000 Ang^3
#
#
#
# Elastic Constant Matrix: (Units=GPa)
#
#
# Indices 1 2 3 4 5 6 
#
# 1 50.3113 16.0784 41.9224 0.0000 0.0000 0.0000
# 2 16.0784 71.7193 29.1280 0.0000 0.0000 0.0000
# 3 41.9224 29.1280 112.1037 0.0000 0.0000 0.0000
# 4 0.0000 0.0000 0.0000 16.1360 0.0000 0.0000
# 5 0.0000 0.0000 0.0000 0.0000 33.8541 0.0000
# 6 0.0000 0.0000 0.0000 0.0000 0.0000 13.7531
#
#
#
# Elastic Compliance Matrix: (Units=1/GPa)
#
#
# Indices 1 2 3 4 5 6 
#
# 1 0.029227 -0.002363 -0.010316 0.000000 0.000000 0.000000
# 2 -0.002363 0.015779 -0.003216 0.000000 0.000000 0.000000
# 3 -0.010316 -0.003216 0.013614 0.000000 0.000000 0.000000
# 4 0.000000 0.000000 0.000000 0.061973 0.000000 0.000000
# 5 0.000000 0.000000 0.000000 0.000000 0.029539 0.000000
# 6 0.000000 0.000000 0.000000 0.000000 0.000000 0.072711
#
#
# Mechanical properties :
#
#
# Convention : Reuss Voigt Hill
#
# Bulk Modulus (GPa) = 37.27133 45.37687 41.32410
# Shear Modulus (GPa) = 18.96989 22.54903 20.75946
#
# Velocity S-wave (km/s) = 3.21745 3.50787 3.36579
# Velocity P-wave (km/s) = 5.84310 6.41633 6.13642
#
# Compressibility (1/GPa) = 0.02683027
#
# Stress axis : x y z
#
# Youngs Moduli (GPa) = 34.21486 63.37455 73.45495
#
# Poissons Ratio (x) = 0.14973 0.75775
# Poissons Ratio (y) = 0.08083 0.23626
# Poissons Ratio (z) = 0.35296 0.20384
#
# Static dielectric constant tensor:
#      x y z
#    x 3.220330 0.000000 0.000000 
#    y 0.000000 3.457500 0.000000 
#    z 0.000000 0.000000 3.539820 
# 
# 
# High freq. dielectric constant tensor:
#      x y z
#    x 1.691110 0.000000 0.000000 
#    y 0.000000 1.697280 0.000000 
#    z 0.000000 0.000000 1.722340 
# 
# From -- ./inp_files/20379.got.cif
#   From: 2010.03.12/outbox.cif.g09.slc.cpg/sg59_11_cif.got.tgz:20379.got - 2010.04.16 16:29:54.
