data_PCOD8240844
_publ_section_title
;
Structure prediction by ZEFSAII (Michael W. Deem and Ramdas Pophale) SiO2 
 PCOD8240844
Probable space group: P M M N
;
_chemical_formula_sum "Si O2"
_cell_formula_units_Z 48
_cell_length_a 25.818778
_cell_length_b 8.868345
_cell_length_c 11.849218
_cell_angle_alpha 90.000000
_cell_angle_beta 90.000000
_cell_angle_gamma 90.000000
_cell_volume 2713.113440
_symmetry_space_group_name_H-M "P M M N"
_symmetry_group_IT_number 59
_space_group.IT_coordinate_system_code '2'
_symmetry_cell_setting 'orthorhombic'
loop_
_space_group_symop_operation_xyz
x,y,z
1/2-x,1/2-y,z
1/2+x,-y,-z
-x,1/2+y,-z
-x,-y,-z
1/2+x,1/2+y,-z
1/2-x,y,z
x,1/2-y,z
loop_
_atom_site_type_symbol
_atom_site_label
_atom_site_fract_x
_atom_site_fract_y
_atom_site_fract_z
Si Si1 0.498710 0.428458 0.621881
Si Si2 0.693055 0.071174 0.372281
Si Si3 0.096722 0.929096 0.236006
Si Si4 0.444030 0.926693 0.000902
Si Si5 0.192500 0.570535 0.374470
Si Si6 0.406606 0.927457 0.757251
O O1 0.500000 0.500000 0.500000
O O2 0.498507 0.250000 0.610521
O O3 0.548767 0.486968 0.689552
O O4 0.448237 0.480683 0.687419
O O5 0.750000 0.009821 0.335923
O O6 0.694545 0.250000 0.373783
O O7 0.679527 0.013750 0.498697
O O8 0.649864 0.015765 0.283696
O O9 0.099080 0.750000 0.239017
O O10 0.089104 0.986820 0.107706
O O11 0.149973 0.996706 0.287815
O O12 0.453541 0.750000 0.012052
O O13 0.411822 0.967597 0.889063
O O14 0.500000 0.000000 0.000000
O O15 0.250000 0.514778 0.338595
O O16 0.190615 0.750000 0.372215
O O17 0.414602 0.750000 0.734736
#
# Coordination Sequence:
#
# PCOD8240844 Si02
#       6
#     8   8   8   8   8   8
#     4  11  21  32  48  70  99 129 158 200 249 297
#     4   8  14  26  45  69  96 126 159 198 246 293
#     4   9  17  29  44  65  94 125 157 194 238 283
#     4  10  19  32  48  67  95 130 164 199 240 288
#     4   8  13  23  41  63  89 122 156 190 234 288
#     4  10  19  31  49  72  97 126 165 205 242 290
#
# _framework density 17.691849999999999
#
# number of rings (size 3 to 8) (size 9 to 14) (size 15 to 20)
#    0.000    2.667    1.667    2.500    0.000    2.667 
#    0.000    0.833    0.000    5.500    0.000    0.000 
#    0.000    6.667    0.000    0.000    0.000    0.000 
#
# Total GULP energy -594966.438616 kJ/mol
# GULP energy per Si atom -12395.134138 kJ/mol
# Density = 1.765158 g / cm^3
# Si number density = 17.691850 Si / 1000 Ang^3
#
#
#
# Elastic Constant Matrix: (Units=GPa)
#
#
# Indices 1 2 3 4 5 6 
#
# 1 175.3989 19.8998 106.2333 0.0000 0.0000 0.0000
# 2 19.8998 21.9835 26.8666 0.0000 0.0000 0.0000
# 3 106.2333 26.8666 172.4651 0.0000 0.0000 0.0000
# 4 0.0000 0.0000 0.0000 17.6624 0.0000 0.0000
# 5 0.0000 0.0000 0.0000 0.0000 26.9651 0.0000
# 6 0.0000 0.0000 0.0000 0.0000 0.0000 18.8132
#
#
#
# Elastic Compliance Matrix: (Units=1/GPa)
#
#
# Indices 1 2 3 4 5 6 
#
# 1 0.009146 -0.001722 -0.005366 0.000000 0.000000 0.000000
# 2 -0.001722 0.056509 -0.007742 0.000000 0.000000 0.000000
# 3 -0.005366 -0.007742 0.010310 0.000000 0.000000 0.000000
# 4 0.000000 0.000000 0.000000 0.056618 0.000000 0.000000
# 5 0.000000 0.000000 0.000000 0.000000 0.037085 0.000000
# 6 0.000000 0.000000 0.000000 0.000000 0.000000 0.053154
#
#
# Mechanical properties :
#
#
# Convention : Reuss Voigt Hill
#
# Bulk Modulus (GPa) = 21.59576 75.09409 48.34492
# Shear Modulus (GPa) = 18.66246 27.14464 22.90355
#
# Velocity S-wave (km/s) = 3.25139 3.92127 3.60193
# Velocity P-wave (km/s) = 5.13113 7.93974 6.68461
#
# Compressibility (1/GPa) = 0.04630538
#
# Stress axis : x y z
#
# Youngs Moduli (GPa) = 109.33145 17.69616 96.99787
#
# Poissons Ratio (x) = 0.03047 0.52046
# Poissons Ratio (y) = 0.18826 0.75099
# Poissons Ratio (z) = 0.58664 0.13701
#
# Static dielectric constant tensor:
#      x y z
#    x 3.651870 0.000000 0.000000 
#    y 0.000000 2.890650 0.000000 
#    z 0.000000 0.000000 3.576840 
# 
# 
# High freq. dielectric constant tensor:
#      x y z
#    x 1.691520 0.000000 0.000000 
#    y 0.000000 1.632510 0.000000 
#    z 0.000000 0.000000 1.690100 
# 
# From -- ./inp_files/14374.got.cif
#   From: 2010.03.12/outbox.cif.g09.slc.cpg/sg59_8_cif.got.tgz:14374.got - 2010.04.16 16:29:54.
