data_PCOD8240525
_publ_section_title
;
Structure prediction by ZEFSAII (Michael W. Deem and Ramdas Pophale) SiO2 
 PCOD8240525
Probable space group: P M M N
;
_chemical_formula_sum "Si O2"
_cell_formula_units_Z 64
_cell_length_a 23.069950
_cell_length_b 9.036071
_cell_length_c 19.079941
_cell_angle_alpha 90.000000
_cell_angle_beta 90.000000
_cell_angle_gamma 90.000000
_cell_volume 3977.437054
_symmetry_space_group_name_H-M "P M M N"
_symmetry_group_IT_number 59
_space_group.IT_coordinate_system_code '2'
_symmetry_cell_setting 'orthorhombic'
loop_
_space_group_symop_operation_xyz
x,y,z
1/2-x,1/2-y,z
1/2+x,-y,-z
-x,1/2+y,-z
-x,-y,-z
1/2+x,1/2+y,-z
1/2-x,y,z
x,1/2-y,z
loop_
_atom_site_type_symbol
_atom_site_label
_atom_site_fract_x
_atom_site_fract_y
_atom_site_fract_z
Si Si1 0.815947 0.920596 0.124097
Si Si2 0.132060 0.922785 0.743330
Si Si3 0.503804 0.578132 0.741353
Si Si4 0.912062 0.421951 0.471599
Si Si5 0.980440 0.923196 0.894490
Si Si6 0.817109 0.923593 0.392471
Si Si7 0.918008 0.920524 0.029022
Si Si8 0.984260 0.421659 0.604586
O O1 0.750000 0.960615 0.106196
O O2 0.822503 0.750000 0.148026
O O3 0.852071 0.950854 0.052595
O O4 0.838622 0.024626 0.185297
O O5 0.144149 0.750000 0.733611
O O6 0.064181 0.958300 0.745467
O O7 0.161594 0.008838 0.680075
O O8 0.515031 0.750000 0.725100
O O9 0.533492 0.527832 0.814807
O O10 0.534112 0.480612 0.680929
O O11 0.905099 0.250000 0.453443
O O12 0.851613 0.504539 0.457718
O O13 0.960255 0.485701 0.419449
O O14 0.930509 0.447978 0.552067
O O15 0.992155 0.750000 0.893938
O O16 0.928309 0.968843 0.947667
O O17 0.040401 0.992952 0.918916
O O18 0.750000 0.960424 0.403928
O O19 0.829047 0.750000 0.390971
O O20 0.934848 0.750000 0.036997
O O21 0.001582 0.250000 0.607211
#
# Coordination Sequence:
#
# PCOD8240525 Si02
#       8
#     8   8   8   8   8   8   8   8
#     4  10  20  32  45  64  92 125 160 194 228 271
#     4  11  21  32  46  67  95 128 164 195 225 269
#     4  10  19  30  46  69  96 125 155 190 234 283
#     4  10  20  34  50  71  95 123 158 195 236 279
#     4   9  17  30  46  65  90 116 149 192 234 276
#     4  11  23  36  50  69  94 127 164 198 232 272
#     4   9  17  29  46  65  86 118 154 189 232 274
#     4  10  20  32  50  72  96 123 155 194 235 282
#
# _framework density 16.090764
#
# number of rings (size 3 to 8) (size 9 to 14) (size 15 to 20)
#    0.000    2.000    2.500    1.875    0.000    5.250 
#    0.000    0.000    0.000    0.000    0.000    0.875 
#    0.000    3.000    0.000    0.000    0.000    0.000 
#
# Total GULP energy -793539.864218 kJ/mol
# GULP energy per Si atom -12399.060378 kJ/mol
# Density = 1.605414 g / cm^3
# Si number density = 16.090764 Si / 1000 Ang^3
#
#
#
# Elastic Constant Matrix: (Units=GPa)
#
#
# Indices 1 2 3 4 5 6 
#
# 1 74.9961 38.0676 56.0852 0.0000 0.0000 0.0000
# 2 38.0676 65.6110 48.9133 0.0000 0.0000 0.0000
# 3 56.0852 48.9133 131.8178 0.0000 0.0000 0.0000
# 4 0.0000 0.0000 0.0000 25.4457 0.0000 0.0000
# 5 0.0000 0.0000 0.0000 0.0000 20.6698 0.0000
# 6 0.0000 0.0000 0.0000 0.0000 0.0000 19.5418
#
#
#
# Elastic Compliance Matrix: (Units=1/GPa)
#
#
# Indices 1 2 3 4 5 6 
#
# 1 0.022292 -0.008105 -0.006477 0.000000 0.000000 0.000000
# 2 -0.008105 0.024017 -0.005463 0.000000 0.000000 0.000000
# 3 -0.006477 -0.005463 0.012369 0.000000 0.000000 0.000000
# 4 0.000000 0.000000 0.000000 0.039299 0.000000 0.000000
# 5 0.000000 0.000000 0.000000 0.000000 0.048380 0.000000
# 6 0.000000 0.000000 0.000000 0.000000 0.000000 0.051172
#
#
# Mechanical properties :
#
#
# Convention : Reuss Voigt Hill
#
# Bulk Modulus (GPa) = 53.80096 62.06190 57.93143
# Shear Modulus (GPa) = 20.50720 21.75538 21.13129
#
# Velocity S-wave (km/s) = 3.57385 3.68100 3.62782
# Velocity P-wave (km/s) = 7.10903 7.53127 7.32319
#
# Compressibility (1/GPa) = 0.01858703
#
# Stress axis : x y z
#
# Youngs Moduli (GPa) = 44.85901 41.63735 80.84481
#
# Poissons Ratio (x) = 0.33748 0.52365
# Poissons Ratio (y) = 0.36359 0.44168
# Poissons Ratio (z) = 0.29056 0.22748
#
# Static dielectric constant tensor:
#      x y z
#    x 2.987020 0.000000 0.000000 
#    y 0.000000 3.137790 0.000000 
#    z 0.000000 0.000000 3.303820 
# 
# 
# High freq. dielectric constant tensor:
#      x y z
#    x 1.587510 0.000000 0.000000 
#    y 0.000000 1.628990 0.000000 
#    z 0.000000 0.000000 1.619460 
# 
# From -- ./inp_files/28459.got.cif
#   From: 2010.03.12/outbox.cif.g09.slc.cpg/sg59_15_cif.got.tgz:28459.got - 2010.04.16 16:29:54.
