data_PCOD8240491
_publ_section_title
;
Structure prediction by ZEFSAII (Michael W. Deem and Ramdas Pophale) SiO2 
 PCOD8240491
Probable space group: P M M N
;
_chemical_formula_sum "Si O2"
_cell_formula_units_Z 64
_cell_length_a 8.913253
_cell_length_b 13.988450
_cell_length_c 31.053447
_cell_angle_alpha 90.000000
_cell_angle_beta 90.000000
_cell_angle_gamma 90.000000
_cell_volume 3871.824322
_symmetry_space_group_name_H-M "P M M N"
_symmetry_group_IT_number 59
_space_group.IT_coordinate_system_code '2'
_symmetry_cell_setting 'orthorhombic'
loop_
_space_group_symop_operation_xyz
x,y,z
1/2-x,1/2-y,z
1/2+x,-y,-z
-x,1/2+y,-z
-x,-y,-z
1/2+x,1/2+y,-z
1/2-x,y,z
x,1/2-y,z
loop_
_atom_site_type_symbol
_atom_site_label
_atom_site_fract_x
_atom_site_fract_y
_atom_site_fract_z
Si Si1 0.075299 0.032696 0.065261
Si Si2 0.571728 0.945455 0.600505
Si Si3 0.422350 0.636888 0.683797
Si Si4 0.926973 0.359851 0.143001
Si Si5 0.423182 0.649902 0.427071
Si Si6 0.577812 0.407726 0.481635
Si Si7 0.918924 0.863495 0.769801
Si Si8 0.575352 0.860362 0.022434
O O1 0.250000 0.029255 0.076805
O O2 0.983661 0.073036 0.105119
O O3 0.042457 0.103692 0.025728
O O4 0.019622 0.925128 0.055340
O O5 0.750000 0.941063 0.598162
O O6 0.517790 0.911456 0.646539
O O7 0.505883 0.876692 0.562653
O O8 0.504519 0.052927 0.592072
O O9 0.250000 0.605412 0.680452
O O10 0.440254 0.750000 0.679992
O O11 0.488455 0.598362 0.728834
O O12 0.750000 0.368989 0.147575
O O13 0.974637 0.250000 0.133961
O O14 0.000500 0.398903 0.186872
O O15 0.250000 0.642593 0.414526
O O16 0.490345 0.750000 0.407448
O O17 0.438794 0.665208 0.478835
O O18 0.500000 0.500000 0.500000
O O19 0.750000 0.426826 0.469725
O O20 0.750000 0.904524 0.768261
O O21 0.917261 0.750000 0.768930
O O22 0.750000 0.871897 0.033668
O O23 0.523921 0.750000 0.026461
#
# Coordination Sequence:
#
# PCOD8240491 Si02
#       8
#     8   8   8   8   8   8   8   8
#     4  10  19  30  46  69  95 124 162 203 240 281
#     4  10  19  30  46  67  90 117 149 186 224 264
#     4  10  20  33  48  66  91 122 151 180 220 273
#     4  10  19  30  46  69  97 127 157 189 228 277
#     4   8  15  28  45  64  86 114 148 183 219 259
#     4   9  16  27  43  61  84 114 146 181 219 259
#     4   9  17  30  48  69  93 119 148 185 227 271
#     4   9  18  32  47  64  92 129 165 202 243 283
#
# _framework density 16.529675000000001
#
# number of rings (size 3 to 8) (size 9 to 14) (size 15 to 20)
#    0.000    2.625    0.000    3.375    0.000    4.750 
#    0.000    1.250    0.000   13.125    0.000    0.875 
#    0.000    5.000    0.000    0.000    0.000    0.000 
#
# Total GULP energy -793098.115161 kJ/mol
# GULP energy per Si atom -12392.158049 kJ/mol
# Density = 1.649205 g / cm^3
# Si number density = 16.529675 Si / 1000 Ang^3
#
#
#
# Elastic Constant Matrix: (Units=GPa)
#
#
# Indices 1 2 3 4 5 6 
#
# 1 86.0809 26.2485 40.5121 0.0000 0.0000 0.0000
# 2 26.2485 62.1778 24.0152 0.0000 0.0000 0.0000
# 3 40.5121 24.0152 96.0367 0.0000 0.0000 0.0000
# 4 0.0000 0.0000 0.0000 2.7382 0.0000 0.0000
# 5 0.0000 0.0000 0.0000 0.0000 33.4114 0.0000
# 6 0.0000 0.0000 0.0000 0.0000 0.0000 18.5840
#
#
#
# Elastic Compliance Matrix: (Units=1/GPa)
#
#
# Indices 1 2 3 4 5 6 
#
# 1 0.015536 -0.004458 -0.005439 0.000000 0.000000 0.000000
# 2 -0.004458 0.019081 -0.002891 0.000000 0.000000 0.000000
# 3 -0.005439 -0.002891 0.013430 0.000000 0.000000 0.000000
# 4 0.000000 0.000000 0.000000 0.365208 0.000000 0.000000
# 5 0.000000 0.000000 0.000000 0.000000 0.029930 0.000000
# 6 0.000000 0.000000 0.000000 0.000000 0.000000 0.053810
#
#
# Mechanical properties :
#
#
# Convention : Reuss Voigt Hill
#
# Bulk Modulus (GPa) = 44.50040 47.31632 45.90836
# Shear Modulus (GPa) = 9.43288 21.18137 15.30712
#
# Velocity S-wave (km/s) = 2.39145 3.58357 3.04639
# Velocity P-wave (km/s) = 5.88263 6.76830 6.34094
#
# Compressibility (1/GPa) = 0.02247171
#
# Stress axis : x y z
#
# Youngs Moduli (GPa) = 64.36649 52.40702 74.46016
#
# Poissons Ratio (x) = 0.23362 0.40499
# Poissons Ratio (y) = 0.28694 0.21527
# Poissons Ratio (z) = 0.35009 0.15151
#
# Static dielectric constant tensor:
#      x y z
#    x 3.231870 0.000000 0.000000 
#    y 0.000000 3.272590 0.000000 
#    z 0.000000 0.000000 3.193860 
# 
# 
# High freq. dielectric constant tensor:
#      x y z
#    x 1.642440 0.000000 0.000000 
#    y 0.000000 1.609080 0.000000 
#    z 0.000000 0.000000 1.627520 
# 
# From -- ./inp_files/33234.got.cif
#   From: 2010.03.12/outbox.cif.g09.slc.cpg/sg59_17_cif.got.tgz:33234.got - 2010.04.16 16:29:54.
