data_PCOD8240000
_publ_section_title
;
Structure prediction by ZEFSAII (Michael W. Deem and Ramdas Pophale) SiO2 
 PCOD8240000
Probable space group: P M M N
;
_chemical_formula_sum "Si O2"
_cell_formula_units_Z 56
_cell_length_a 8.776921
_cell_length_b 21.652908
_cell_length_c 14.799387
_cell_angle_alpha 90.000000
_cell_angle_beta 90.000000
_cell_angle_gamma 90.000000
_cell_volume 2812.562273
_symmetry_space_group_name_H-M "P M M N"
_symmetry_group_IT_number 59
_space_group.IT_coordinate_system_code '2'
_symmetry_cell_setting 'orthorhombic'
loop_
_space_group_symop_operation_xyz
x,y,z
1/2-x,1/2-y,z
1/2+x,-y,-z
-x,1/2+y,-z
-x,-y,-z
1/2+x,1/2+y,-z
1/2-x,y,z
x,1/2-y,z
loop_
_atom_site_type_symbol
_atom_site_label
_atom_site_fract_x
_atom_site_fract_y
_atom_site_fract_z
Si Si1 0.425403 0.750000 0.239358
Si Si2 0.428905 0.576662 0.646677
Si Si3 0.931457 0.884746 0.465816
Si Si4 0.071626 0.250000 0.570714
Si Si5 0.074467 0.177949 0.237173
Si Si6 0.570607 0.681294 0.966121
Si Si7 0.930257 0.047416 0.703534
Si Si8 0.074426 0.871896 0.131284
O O1 0.250000 0.750000 0.270747
O O2 0.531547 0.750000 0.325146
O O3 0.467594 0.690694 0.181884
O O4 0.250000 0.563853 0.647507
O O5 0.487037 0.576283 0.543781
O O6 0.467485 0.641117 0.694284
O O7 0.515800 0.522866 0.700166
O O8 0.750000 0.891115 0.474997
O O9 0.988020 0.813289 0.475327
O O10 0.982666 0.911268 0.369747
O O11 0.250000 0.250000 0.562139
O O12 0.250000 0.159125 0.253836
O O13 0.051677 0.250000 0.257268
O O14 0.022857 0.161838 0.135151
O O15 0.750000 0.685132 0.971231
O O16 0.503312 0.750000 0.987727
O O17 0.513076 0.629071 0.035697
O O18 0.750000 0.053622 0.686712
O O19 0.973861 0.071558 0.803962
O O20 0.250000 0.875929 0.106417
#
# Coordination Sequence:
#
# PCOD8240000 Si02
#       8
#     4   8   8   4   8   8   8   8
#     4  10  18  32  52  81 120 155 188 235 288 336
#     4  12  26  42  61  86 114 151 198 245 293 346
#     4  11  23  40  61  87 119 156 196 239 289 346
#     4  10  22  36  56  87 118 151 190 235 286 340
#     4   9  20  41  65  88 116 150 191 241 293 345
#     4   9  18  33  57  88 119 152 189 232 287 347
#     4  11  23  41  61  84 117 160 200 240 287 342
#     4  10  20  33  55  86 120 155 190 231 285 342
#
# _framework density 19.910668999999999
#
# number of rings (size 3 to 8) (size 9 to 14) (size 15 to 20)
#    0.000    1.714    2.143    3.429    1.000    3.143 
#    0.000    2.143    0.000    0.000    0.000    0.000 
#    0.000    0.000    0.000    0.000    0.000    0.000 
#
# Total GULP energy -694418.582242 kJ/mol
# GULP energy per Si atom -12400.331826 kJ/mol
# Density = 1.986535 g / cm^3
# Si number density = 19.910669 Si / 1000 Ang^3
#
#
#
# Elastic Constant Matrix: (Units=GPa)
#
#
# Indices 1 2 3 4 5 6 
#
# 1 39.4175 20.1001 27.2013 0.0000 0.0000 0.0000
# 2 20.1001 74.3643 16.8642 0.0000 0.0000 0.0000
# 3 27.2013 16.8642 80.7242 0.0000 0.0000 0.0000
# 4 0.0000 0.0000 0.0000 26.5205 0.0000 0.0000
# 5 0.0000 0.0000 0.0000 0.0000 35.6336 0.0000
# 6 0.0000 0.0000 0.0000 0.0000 0.0000 28.5784
#
#
#
# Elastic Compliance Matrix: (Units=1/GPa)
#
#
# Indices 1 2 3 4 5 6 
#
# 1 0.036607 -0.007450 -0.010779 0.000000 0.000000 0.000000
# 2 -0.007450 0.015632 -0.000755 0.000000 0.000000 0.000000
# 3 -0.010779 -0.000755 0.016178 0.000000 0.000000 0.000000
# 4 0.000000 0.000000 0.000000 0.037707 0.000000 0.000000
# 5 0.000000 0.000000 0.000000 0.000000 0.028063 0.000000
# 6 0.000000 0.000000 0.000000 0.000000 0.000000 0.034991
#
#
# Mechanical properties :
#
#
# Convention : Reuss Voigt Hill
#
# Bulk Modulus (GPa) = 32.84257 35.87078 34.35668
# Shear Modulus (GPa) = 23.01007 26.83586 24.92296
#
# Velocity S-wave (km/s) = 3.40320 3.67524 3.54183
# Velocity P-wave (km/s) = 5.65448 6.00540 5.83258
#
# Compressibility (1/GPa) = 0.03044828
#
# Stress axis : x y z
#
# Youngs Moduli (GPa) = 27.31740 63.97003 61.81331
#
# Poissons Ratio (x) = 0.47658 0.66627
# Poissons Ratio (y) = 0.20352 0.04669
# Poissons Ratio (z) = 0.29445 0.04832
#
# Static dielectric constant tensor:
#      x y z
#    x 3.542160 0.000000 0.000000 
#    y 0.000000 3.797280 0.000000 
#    z 0.000000 0.000000 3.652820 
# 
# 
# High freq. dielectric constant tensor:
#      x y z
#    x 1.768240 0.000000 0.000000 
#    y 0.000000 1.772280 0.000000 
#    z 0.000000 0.000000 1.779870 
# 
# From -- ./inp_files/21207.got.cif
#   From: 2010.03.12/outbox.cif.g09.slc.cpg/sg59_11_cif.got.tgz:21207.got - 2010.04.16 16:29:54.
