data_PCOD8240840
_publ_section_title
;
Structure prediction by ZEFSAII (Michael W. Deem and Ramdas Pophale) SiO2 
 PCOD8240840
Probable space group: P M M N
;
_chemical_formula_sum "Si O2"
_cell_formula_units_Z 48
_cell_length_a 9.162656
_cell_length_b 13.625369
_cell_length_c 23.666500
_cell_angle_alpha 90.000000
_cell_angle_beta 90.000000
_cell_angle_gamma 90.000000
_cell_volume 2954.633993
_symmetry_space_group_name_H-M "P M M N"
_symmetry_group_IT_number 59
_space_group.IT_coordinate_system_code '2'
_symmetry_cell_setting 'orthorhombic'
loop_
_space_group_symop_operation_xyz
x,y,z
1/2-x,1/2-y,z
1/2+x,-y,-z
-x,1/2+y,-z
-x,-y,-z
1/2+x,1/2+y,-z
1/2-x,y,z
x,1/2-y,z
loop_
_atom_site_type_symbol
_atom_site_label
_atom_site_fract_x
_atom_site_fract_y
_atom_site_fract_z
Si Si1 0.078946 0.049471 0.082319
Si Si2 0.579761 0.968226 0.586593
Si Si3 0.918285 0.636253 0.800835
Si Si4 0.919047 0.359080 0.981124
Si Si5 0.581288 0.863126 0.471125
Si Si6 0.578705 0.363489 0.312318
O O1 0.250000 0.068271 0.077323
O O2 0.027203 0.072336 0.145850
O O3 0.034832 0.937407 0.066962
O O4 0.004442 0.123997 0.039066
O O5 0.750000 0.976816 0.600218
O O6 0.548042 0.893763 0.535413
O O7 0.497344 0.929304 0.640991
O O8 0.518660 0.075705 0.571671
O O9 0.750000 0.614534 0.785823
O O10 0.941233 0.750000 0.815968
O O11 0.016956 0.603991 0.748265
O O12 0.750000 0.371487 0.995894
O O13 0.954253 0.250000 0.958121
O O14 0.750000 0.883218 0.456561
O O15 0.539253 0.750000 0.463795
O O16 0.750000 0.383171 0.313491
O O17 0.540669 0.250000 0.324046
#
# Coordination Sequence:
#
# PCOD8240840 Si02
#       6
#     8   8   8   8   8   8
#     4   9  17  29  45  65  89 118 151 184 221 268
#     4  10  19  31  49  72  97 124 155 190 228 272
#     4   9  17  29  45  64  86 114 149 188 228 269
#     4   9  17  28  43  65  92 119 146 180 223 267
#     4   9  18  32  49  70  97 127 156 188 228 271
#     4  10  20  32  47  68  93 121 153 189 230 276
#
# _framework density 16.245667000000001
#
# number of rings (size 3 to 8) (size 9 to 14) (size 15 to 20)
#    0.000    2.667    0.000    2.000    0.000    4.333 
#    0.000    1.667    0.000    1.000    0.000    2.333 
#    0.000    0.000    0.000    0.000    0.000    0.000 
#
# Total GULP energy -595249.632137 kJ/mol
# GULP energy per Si atom -12401.034003 kJ/mol
# Density = 1.620869 g / cm^3
# Si number density = 16.245667 Si / 1000 Ang^3
#
#
#
# Elastic Constant Matrix: (Units=GPa)
#
#
# Indices 1 2 3 4 5 6 
#
# 1 67.9091 46.3456 60.8032 0.0000 0.0000 0.0000
# 2 46.3456 102.6199 68.4790 0.0000 0.0000 0.0000
# 3 60.8032 68.4790 130.6589 0.0000 0.0000 0.0000
# 4 0.0000 0.0000 0.0000 23.8616 0.0000 0.0000
# 5 0.0000 0.0000 0.0000 0.0000 29.2385 0.0000
# 6 0.0000 0.0000 0.0000 0.0000 0.0000 24.0652
#
#
#
# Elastic Compliance Matrix: (Units=1/GPa)
#
#
# Indices 1 2 3 4 5 6 
#
# 1 0.027418 -0.005949 -0.009641 0.000000 0.000000 0.000000
# 2 -0.005949 0.016277 -0.005762 0.000000 0.000000 0.000000
# 3 -0.009641 -0.005762 0.015160 0.000000 0.000000 0.000000
# 4 0.000000 0.000000 0.000000 0.041908 0.000000 0.000000
# 5 0.000000 0.000000 0.000000 0.000000 0.034202 0.000000
# 6 0.000000 0.000000 0.000000 0.000000 0.000000 0.041554
#
#
# Mechanical properties :
#
#
# Convention : Reuss Voigt Hill
#
# Bulk Modulus (GPa) = 61.92034 72.49370 67.20702
# Shear Modulus (GPa) = 22.26115 23.80372 23.03243
#
# Velocity S-wave (km/s) = 3.70575 3.83199 3.76940
# Velocity P-wave (km/s) = 7.51717 8.01868 7.77197
#
# Compressibility (1/GPa) = 0.01614978
#
# Stress axis : x y z
#
# Youngs Moduli (GPa) = 36.47248 61.43813 65.96214
#
# Poissons Ratio (x) = 0.36549 0.63596
# Poissons Ratio (y) = 0.21697 0.38009
# Poissons Ratio (z) = 0.35164 0.35402
#
# Static dielectric constant tensor:
#      x y z
#    x 3.110690 0.000000 0.000000 
#    y 0.000000 3.129080 0.000000 
#    z 0.000000 0.000000 3.005800 
# 
# 
# High freq. dielectric constant tensor:
#      x y z
#    x 1.629860 0.000000 0.000000 
#    y 0.000000 1.616230 0.000000 
#    z 0.000000 0.000000 1.614260 
# 
# From -- ./inp_files/28840.got.cif
#   From: 2010.03.12/outbox.cif.g09.slc.cpg/sg59_15_cif.got.tgz:28840.got - 2010.04.16 16:29:54.
