data_PCOD8240176
_publ_section_title
;
Structure prediction by ZEFSAII (Michael W. Deem and Ramdas Pophale) SiO2 
 PCOD8240176
Probable space group: P M M N
;
_chemical_formula_sum "Si O2"
_cell_formula_units_Z 56
_cell_length_a 18.467539
_cell_length_b 19.244466
_cell_length_c 9.065511
_cell_angle_alpha 90.000000
_cell_angle_beta 90.000000
_cell_angle_gamma 90.000000
_cell_volume 3221.863811
_symmetry_space_group_name_H-M "P M M N"
_symmetry_group_IT_number 59
_space_group.IT_coordinate_system_code '2'
_symmetry_cell_setting 'orthorhombic'
loop_
_space_group_symop_operation_xyz
x,y,z
1/2-x,1/2-y,z
1/2+x,-y,-z
-x,1/2+y,-z
-x,-y,-z
1/2+x,1/2+y,-z
1/2-x,y,z
x,1/2-y,z
loop_
_atom_site_type_symbol
_atom_site_label
_atom_site_fract_x
_atom_site_fract_y
_atom_site_fract_z
Si Si1 0.104464 0.049062 0.450837
Si Si2 0.031878 0.328584 0.814826
Si Si3 0.451758 0.933266 0.990044
Si Si4 0.907285 0.330293 0.589953
Si Si5 0.947051 0.070190 0.345628
Si Si6 0.667113 0.829961 0.367930
Si Si7 0.668032 0.440724 0.769096
O O1 0.148291 0.117721 0.498930
O O2 0.033344 0.071368 0.362106
O O3 0.083867 0.003053 0.594240
O O4 0.153539 0.004848 0.339967
O O5 0.023111 0.250000 0.866757
O O6 0.115033 0.345939 0.772115
O O7 0.003172 0.371835 0.952375
O O8 0.984792 0.343339 0.667854
O O9 0.380412 0.944126 0.085810
O O10 0.425895 0.919621 0.824014
O O11 0.500000 0.000000 0.000000
O O12 0.886712 0.250000 0.574486
O O13 0.911587 0.364707 0.429436
O O14 0.845602 0.367981 0.685273
O O15 0.750000 0.841440 0.317509
O O16 0.654753 0.750000 0.421118
O O17 0.750000 0.443370 0.823268
#
# Coordination Sequence:
#
# PCOD8240176 Si02
#       7
#     8   8   8   8   8   8   8
#     4  10  18  34  54  79 104 137 178 222 269 312
#     4   9  18  33  52  75 104 139 178 213 257 320
#     4  11  20  34  53  78 108 144 178 220 265 310
#     4   9  18  34  57  81 103 134 178 221 266 317
#     4  10  19  31  56  82 105 134 177 230 263 306
#     4  10  19  31  52  79 105 136 177 224 267 310
#     4  10  21  36  55  77 108 144 178 216 267 326
#
# _framework density 17.381243999999999
#
# number of rings (size 3 to 8) (size 9 to 14) (size 15 to 20)
#    0.000    2.143    2.857    1.286    0.000    0.857 
#    0.000    5.714    0.000    0.000    0.000    0.000 
#    0.000    0.000    0.000    0.000    0.000    0.000 
#
# Total GULP energy -694422.602993 kJ/mol
# GULP energy per Si atom -12400.403625 kJ/mol
# Density = 1.734168 g / cm^3
# Si number density = 17.381244 Si / 1000 Ang^3
#
#
#
# Elastic Constant Matrix: (Units=GPa)
#
#
# Indices 1 2 3 4 5 6 
#
# 1 124.0158 43.8556 50.0296 0.0000 0.0000 0.0000
# 2 43.8556 105.6277 53.2311 0.0000 0.0000 0.0000
# 3 50.0296 53.2311 130.0565 0.0000 0.0000 0.0000
# 4 0.0000 0.0000 0.0000 23.4311 0.0000 0.0000
# 5 0.0000 0.0000 0.0000 0.0000 15.2201 0.0000
# 6 0.0000 0.0000 0.0000 0.0000 0.0000 19.4934
#
#
#
# Elastic Compliance Matrix: (Units=1/GPa)
#
#
# Indices 1 2 3 4 5 6 
#
# 1 0.010178 -0.002838 -0.002754 0.000000 0.000000 0.000000
# 2 -0.002838 0.012719 -0.004114 0.000000 0.000000 0.000000
# 3 -0.002754 -0.004114 0.010432 0.000000 0.000000 0.000000
# 4 0.000000 0.000000 0.000000 0.042678 0.000000 0.000000
# 5 0.000000 0.000000 0.000000 0.000000 0.065703 0.000000
# 6 0.000000 0.000000 0.000000 0.000000 0.000000 0.051299
#
#
# Mechanical properties :
#
#
# Convention : Reuss Voigt Hill
#
# Bulk Modulus (GPa) = 71.85226 72.65920 72.25573
# Shear Modulus (GPa) = 23.03514 25.80116 24.41815
#
# Velocity S-wave (km/s) = 3.64440 3.85700 3.75221
# Velocity P-wave (km/s) = 7.69010 7.85680 7.77389
#
# Compressibility (1/GPa) = 0.01391745
#
# Stress axis : x y z
#
# Youngs Moduli (GPa) = 98.25140 78.62379 95.85874
#
# Poissons Ratio (x) = 0.22314 0.26396
# Poissons Ratio (y) = 0.27885 0.39436
# Poissons Ratio (z) = 0.27055 0.32345
#
# Static dielectric constant tensor:
#      x y z
#    x 3.130790 0.000000 0.000000 
#    y 0.000000 3.261050 0.000000 
#    z 0.000000 0.000000 2.992000 
# 
# 
# High freq. dielectric constant tensor:
#      x y z
#    x 1.663260 0.000000 0.000000 
#    y 0.000000 1.682220 0.000000 
#    z 0.000000 0.000000 1.652150 
# 
# From -- ./inp_files/10605.got.cif
#   From: 2010.03.12/outbox.cif.g09.slc.cpg/sg59_6_cif.got.tgz:10605.got - 2010.04.16 16:29:54.
