data_PCOD8240357
_publ_section_title
;
Structure prediction by ZEFSAII (Michael W. Deem and Ramdas Pophale) SiO2 
 PCOD8240357
Probable space group: P M M N
;
_chemical_formula_sum "Si O2"
_cell_formula_units_Z 64
_cell_length_a 13.687926
_cell_length_b 9.294546
_cell_length_c 30.407537
_cell_angle_alpha 90.000000
_cell_angle_beta 90.000000
_cell_angle_gamma 90.000000
_cell_volume 3868.539839
_symmetry_space_group_name_H-M "P M M N"
_symmetry_group_IT_number 59
_space_group.IT_coordinate_system_code '2'
_symmetry_cell_setting 'orthorhombic'
loop_
_space_group_symop_operation_xyz
x,y,z
1/2-x,1/2-y,z
1/2+x,-y,-z
-x,1/2+y,-z
-x,-y,-z
1/2+x,1/2+y,-z
1/2-x,y,z
x,1/2-y,z
loop_
_atom_site_type_symbol
_atom_site_label
_atom_site_fract_x
_atom_site_fract_y
_atom_site_fract_z
Si Si1 0.452257 0.082125 0.934929
Si Si2 0.496731 0.081418 0.545589
Si Si3 0.641302 0.079186 0.242182
Si Si4 0.501912 0.087563 0.316853
Si Si5 0.859847 0.414683 0.987566
Si Si6 0.862815 0.416776 0.142356
Si Si7 0.862151 0.081251 0.623921
Si Si8 0.139650 0.590547 0.601344
O O1 0.429512 0.250000 0.931695
O O2 0.379671 0.015244 0.970827
O O3 0.433664 0.010675 0.887909
O O4 0.564803 0.050992 0.948211
O O5 0.495068 0.250000 0.536527
O O6 0.586137 0.036687 0.577930
O O7 0.500000 0.000000 0.500000
O O8 0.396963 0.031672 0.568307
O O9 0.750000 0.019037 0.254490
O O10 0.644864 0.250000 0.247165
O O11 0.554412 0.019501 0.273591
O O12 0.615922 0.035525 0.192340
O O13 0.464568 0.250000 0.308028
O O14 0.585088 0.085111 0.353002
O O15 0.410018 0.994551 0.333527
O O16 0.750000 0.443163 0.970218
O O17 0.872818 0.250000 0.003323
O O18 0.750000 0.446038 0.130214
O O19 0.888099 0.250000 0.135408
O O20 0.750000 0.032598 0.620412
O O21 0.873162 0.250000 0.631640
O O22 0.250000 0.554067 0.612350
O O23 0.127770 0.750000 0.579906
#
# Coordination Sequence:
#
# PCOD8240357 Si02
#       8
#     8   8   8   8   8   8   8   8
#     4  10  19  29  44  67  91 115 148 192 232 264
#     4  10  20  33  48  67  91 119 152 188 224 264
#     4   8  14  26  46  71  96 122 150 178 215 268
#     4   9  16  28  49  74  94 113 145 189 225 256
#     4   9  18  32  47  62  84 117 153 186 226 277
#     4   9  17  29  45  65  92 126 155 177 213 270
#     4   9  19  35  51  66  89 123 156 185 224 272
#     4   9  17  29  46  68  93 119 144 174 218 268
#
# _framework density 16.543710000000001
#
# number of rings (size 3 to 8) (size 9 to 14) (size 15 to 20)
#    0.000    2.875    0.000    2.250    0.000    5.500 
#    0.000    1.875    0.000    2.625    0.000    3.500 
#    0.000    0.000    0.000    0.000    0.000    0.000 
#
# Total GULP energy -793351.421028 kJ/mol
# GULP energy per Si atom -12396.115954 kJ/mol
# Density = 1.650606 g / cm^3
# Si number density = 16.543710 Si / 1000 Ang^3
#
#
#
# Elastic Constant Matrix: (Units=GPa)
#
#
# Indices 1 2 3 4 5 6 
#
# 1 108.7333 41.6438 49.8145 0.0000 0.0000 0.0000
# 2 41.6438 60.5175 45.4435 0.0000 0.0000 0.0000
# 3 49.8145 45.4435 101.8141 0.0000 0.0000 0.0000
# 4 0.0000 0.0000 0.0000 25.2403 0.0000 0.0000
# 5 0.0000 0.0000 0.0000 0.0000 20.3399 0.0000
# 6 0.0000 0.0000 0.0000 0.0000 0.0000 24.3117
#
#
#
# Elastic Compliance Matrix: (Units=1/GPa)
#
#
# Indices 1 2 3 4 5 6 
#
# 1 0.013334 -0.006432 -0.003653 0.000000 0.000000 0.000000
# 2 -0.006432 0.027957 -0.009331 0.000000 0.000000 0.000000
# 3 -0.003653 -0.009331 0.015774 0.000000 0.000000 0.000000
# 4 0.000000 0.000000 0.000000 0.039619 0.000000 0.000000
# 5 0.000000 0.000000 0.000000 0.000000 0.049165 0.000000
# 6 0.000000 0.000000 0.000000 0.000000 0.000000 0.041132
#
#
# Mechanical properties :
#
#
# Convention : Reuss Voigt Hill
#
# Bulk Modulus (GPa) = 54.84804 60.54096 57.69450
# Shear Modulus (GPa) = 21.56177 22.92259 22.24218
#
# Velocity S-wave (km/s) = 3.61407 3.72637 3.67065
# Velocity P-wave (km/s) = 7.11623 7.42889 7.27424
#
# Compressibility (1/GPa) = 0.01823219
#
# Stress axis : x y z
#
# Youngs Moduli (GPa) = 74.99712 35.76858 63.39578
#
# Poissons Ratio (x) = 0.23008 0.23157
# Poissons Ratio (y) = 0.48242 0.59156
# Poissons Ratio (z) = 0.27395 0.33377
#
# Static dielectric constant tensor:
#      x y z
#    x 3.216540 0.000000 0.000000 
#    y 0.000000 3.170950 0.000000 
#    z 0.000000 0.000000 3.167460 
# 
# 
# High freq. dielectric constant tensor:
#      x y z
#    x 1.629270 0.000000 0.000000 
#    y 0.000000 1.626160 0.000000 
#    z 0.000000 0.000000 1.628450 
# 
# From -- ./inp_files/33350.got.cif
#   From: 2010.03.12/outbox.cif.g09.slc.cpg/sg59_17_cif.got.tgz:33350.got - 2010.04.16 16:29:54.
