data_PCOD8240869
_publ_section_title
;
Structure prediction by ZEFSAII (Michael W. Deem and Ramdas Pophale) SiO2 
 PCOD8240869
Probable space group: P M M N
;
_chemical_formula_sum "Si O2"
_cell_formula_units_Z 64
_cell_length_a 18.257689
_cell_length_b 9.120188
_cell_length_c 21.156282
_cell_angle_alpha 90.000000
_cell_angle_beta 90.000000
_cell_angle_gamma 90.000000
_cell_volume 3522.807750
_symmetry_space_group_name_H-M "P M M N"
_symmetry_group_IT_number 59
_space_group.IT_coordinate_system_code '2'
_symmetry_cell_setting 'orthorhombic'
loop_
_space_group_symop_operation_xyz
x,y,z
1/2-x,1/2-y,z
1/2+x,-y,-z
-x,1/2+y,-z
-x,-y,-z
1/2+x,1/2+y,-z
1/2-x,y,z
x,1/2-y,z
loop_
_atom_site_type_symbol
_atom_site_label
_atom_site_fract_x
_atom_site_fract_y
_atom_site_fract_z
Si Si1 0.035921 0.079362 0.941240
Si Si2 0.164883 0.421215 0.254272
Si Si3 0.335492 0.419923 0.639358
Si Si4 0.166134 0.920390 0.879934
Si Si5 0.043154 0.579423 0.188751
Si Si6 0.662839 0.587238 0.501805
Si Si7 0.837055 0.413574 0.620590
Si Si8 0.087968 0.579124 0.751189
O O1 0.045387 0.250000 0.956198
O O2 0.982374 0.051043 0.882503
O O3 0.116086 0.013460 0.927515
O O4 0.000000 0.000000 0.000000
O O5 0.250000 0.453622 0.242557
O O6 0.147552 0.250000 0.254244
O O7 0.121350 0.500748 0.197794
O O8 0.137598 0.486715 0.320983
O O9 0.250000 0.451140 0.647657
O O10 0.352837 0.250000 0.654032
O O11 0.361502 0.461799 0.568405
O O12 0.378427 0.525742 0.685882
O O13 0.250000 0.968251 0.890263
O O14 0.154379 0.750000 0.895716
O O15 0.145093 0.953927 0.807499
O O16 0.050586 0.750000 0.204105
O O17 0.986551 0.508566 0.237682
O O18 0.750000 0.590118 0.504500
O O19 0.632917 0.750000 0.516286
O O20 0.630740 0.478708 0.555124
O O21 0.750000 0.410879 0.617023
O O22 0.868598 0.250000 0.629572
O O23 0.069323 0.750000 0.746734
#
# Coordination Sequence:
#
# PCOD8240869 Si02
#       8
#     8   8   8   8   8   8   8   8
#     4  10  21  37  58  82 108 141 176 210 251 299
#     4  10  20  34  54  79 104 130 163 206 255 304
#     4   9  17  28  43  66  98 135 173 214 258 301
#     4   9  18  33  53  78 108 140 175 216 257 296
#     4  10  21  37  56  78 103 132 167 204 246 298
#     4   8  14  25  40  60  90 128 168 209 253 300
#     4   9  16  26  43  68  96 126 162 206 254 302
#     4  10  19  31  49  73 102 136 172 210 254 303
#
# _framework density 18.167327
#
# number of rings (size 3 to 8) (size 9 to 14) (size 15 to 20)
#    0.000    2.625    0.000    3.000    0.000    5.750 
#    0.000    1.875    0.000    1.500    0.000    0.000 
#    0.000    0.000    0.000    0.000    0.000    0.000 
#
# Total GULP energy -793609.458000 kJ/mol
# GULP energy per Si atom -12400.147781 kJ/mol
# Density = 1.812598 g / cm^3
# Si number density = 18.167327 Si / 1000 Ang^3
#
#
#
# Elastic Constant Matrix: (Units=GPa)
#
#
# Indices 1 2 3 4 5 6 
#
# 1 82.7896 62.2517 55.5735 0.0000 0.0000 0.0000
# 2 62.2517 125.7020 65.8383 0.0000 0.0000 0.0000
# 3 55.5735 65.8383 95.3377 0.0000 0.0000 0.0000
# 4 0.0000 0.0000 0.0000 35.8978 0.0000 0.0000
# 5 0.0000 0.0000 0.0000 0.0000 21.8978 0.0000
# 6 0.0000 0.0000 0.0000 0.0000 0.0000 29.1390
#
#
#
# Elastic Compliance Matrix: (Units=1/GPa)
#
#
# Indices 1 2 3 4 5 6 
#
# 1 0.023099 -0.006873 -0.008718 0.000000 0.000000 0.000000
# 2 -0.006873 0.014508 -0.006013 0.000000 0.000000 0.000000
# 3 -0.008718 -0.006013 0.019723 0.000000 0.000000 0.000000
# 4 0.000000 0.000000 0.000000 0.027857 0.000000 0.000000
# 5 0.000000 0.000000 0.000000 0.000000 0.045667 0.000000
# 6 0.000000 0.000000 0.000000 0.000000 0.000000 0.034318
#
#
# Mechanical properties :
#
#
# Convention : Reuss Voigt Hill
#
# Bulk Modulus (GPa) = 70.80925 74.57292 72.69109
# Shear Modulus (GPa) = 23.46438 25.39796 24.43117
#
# Velocity S-wave (km/s) = 3.59774 3.74304 3.67111
# Velocity P-wave (km/s) = 7.50460 7.73417 7.62025
#
# Compressibility (1/GPa) = 0.01412245
#
# Stress axis : x y z
#
# Youngs Moduli (GPa) = 43.29150 68.92567 50.70119
#
# Poissons Ratio (x) = 0.47373 0.44203
# Poissons Ratio (y) = 0.29755 0.30486
# Poissons Ratio (z) = 0.37743 0.41443
#
# Static dielectric constant tensor:
#      x y z
#    x 3.150670 0.000000 0.000000 
#    y 0.000000 3.479370 0.000000 
#    z 0.000000 0.000000 3.341270 
# 
# 
# High freq. dielectric constant tensor:
#      x y z
#    x 1.676640 0.000000 0.000000 
#    y 0.000000 1.713970 0.000000 
#    z 0.000000 0.000000 1.699730 
# 
# From -- ./inp_files/30726.got.cif
#   From: 2010.03.12/outbox.cif.g09.slc.cpg/sg59_16_cif.got.tgz:30726.got - 2010.04.16 16:29:54.
