data_PCOD8240989
_publ_section_title
;
Structure prediction by ZEFSAII (Michael W. Deem and Ramdas Pophale) SiO2 
 PCOD8240989
Probable space group: P M M N
;
_chemical_formula_sum "Si O2"
_cell_formula_units_Z 48
_cell_length_a 9.124767
_cell_length_b 7.692193
_cell_length_c 34.607097
_cell_angle_alpha 90.000000
_cell_angle_beta 90.000000
_cell_angle_gamma 90.000000
_cell_volume 2429.053757
_symmetry_space_group_name_H-M "P M M N"
_symmetry_group_IT_number 59
_space_group.IT_coordinate_system_code '2'
_symmetry_cell_setting 'orthorhombic'
loop_
_space_group_symop_operation_xyz
x,y,z
1/2-x,1/2-y,z
1/2+x,-y,-z
-x,1/2+y,-z
-x,-y,-z
1/2+x,1/2+y,-z
1/2-x,y,z
x,1/2-y,z
loop_
_atom_site_type_symbol
_atom_site_label
_atom_site_fract_x
_atom_site_fract_y
_atom_site_fract_z
Si Si1 0.078075 0.447775 0.039145
Si Si2 0.421636 0.449052 0.237265
Si Si3 0.923910 0.250000 0.905079
Si Si4 0.413130 0.045378 0.538251
Si Si5 0.423426 0.750000 0.180898
Si Si6 0.911351 0.050661 0.610154
Si Si7 0.583806 0.045660 0.315124
O O1 0.250000 0.471146 0.032248
O O2 0.039145 0.250000 0.051002
O O3 0.022002 0.576356 0.072870
O O4 0.000000 0.500000 0.000000
O O5 0.250000 0.471836 0.245899
O O6 0.458516 0.250000 0.225654
O O7 0.474779 0.575155 0.202867
O O8 0.507807 0.508714 0.275245
O O9 0.750000 0.250000 0.902456
O O10 0.992800 0.250000 0.862052
O O11 0.250000 0.963726 0.536160
O O12 0.400426 0.250000 0.543217
O O13 0.496756 0.962346 0.575301
O O14 0.500000 0.000000 0.500000
O O15 0.250000 0.750000 0.177723
O O16 0.750000 0.961947 0.613554
O O17 0.889150 0.250000 0.599394
O O18 0.996876 0.040539 0.650160
O O19 0.750000 0.975864 0.314916
O O20 0.578325 0.250000 0.320885
#
# Coordination Sequence:
#
# PCOD8240989 Si02
#       7
#     8   8   4   8   4   8   8
#     4  10  19  31  51  77 106 143 184 227 279 333
#     4   9  18  33  53  77 105 137 176 224 271 321
#     4   9  18  32  49  77 111 139 179 235 279 327
#     4  10  21  37  56  78 105 139 178 217 261 316
#     4   9  18  32  53  79 107 141 183 225 275 333
#     4  10  21  36  55  79 106 135 171 217 264 313
#     4  10  21  36  54  78 107 138 172 213 262 316
#
# _framework density 19.760781999999999
#
# number of rings (size 3 to 8) (size 9 to 14) (size 15 to 20)
#    0.000    2.333    0.833    1.500    1.167    4.333 
#    0.000    3.333    0.000    2.000    0.000    2.333 
#    0.000    0.000    0.000    0.000    0.000    0.000 
#
# Total GULP energy -595141.253901 kJ/mol
# GULP energy per Si atom -12398.776123 kJ/mol
# Density = 1.971581 g / cm^3
# Si number density = 19.760782 Si / 1000 Ang^3
#
#
#
# Elastic Constant Matrix: (Units=GPa)
#
#
# Indices 1 2 3 4 5 6 
#
# 1 110.9510 31.9735 70.2552 0.0000 0.0000 0.0000
# 2 31.9735 92.2615 64.4506 0.0000 0.0000 0.0000
# 3 70.2552 64.4506 189.5270 0.0000 0.0000 0.0000
# 4 0.0000 0.0000 0.0000 31.9160 0.0000 0.0000
# 5 0.0000 0.0000 0.0000 0.0000 27.6574 0.0000
# 6 0.0000 0.0000 0.0000 0.0000 0.0000 17.9895
#
#
#
# Elastic Compliance Matrix: (Units=1/GPa)
#
#
# Indices 1 2 3 4 5 6 
#
# 1 0.011908 -0.001368 -0.003949 0.000000 0.000000 0.000000
# 2 -0.001368 0.014373 -0.004381 0.000000 0.000000 0.000000
# 3 -0.003949 -0.004381 0.008230 0.000000 0.000000 0.000000
# 4 0.000000 0.000000 0.000000 0.031332 0.000000 0.000000
# 5 0.000000 0.000000 0.000000 0.000000 0.036157 0.000000
# 6 0.000000 0.000000 0.000000 0.000000 0.000000 0.055588
#
#
# Mechanical properties :
#
#
# Convention : Reuss Voigt Hill
#
# Bulk Modulus (GPa) = 66.15759 80.67758 73.41758
# Shear Modulus (GPa) = 27.46944 30.58326 29.02635
#
# Velocity S-wave (km/s) = 3.73245 3.93832 3.83676
# Velocity P-wave (km/s) = 7.21989 7.84833 7.54066
#
# Compressibility (1/GPa) = 0.01511542
#
# Stress axis : x y z
#
# Youngs Moduli (GPa) = 83.97962 69.57504 121.51142
#
# Poissons Ratio (x) = 0.09519 0.47982
# Poissons Ratio (y) = 0.11490 0.53228
# Poissons Ratio (z) = 0.33161 0.30477
#
# Static dielectric constant tensor:
#      x y z
#    x 3.484030 0.000000 0.000000 
#    y 0.000000 3.688640 0.000000 
#    z 0.000000 0.000000 3.822310 
# 
# 
# High freq. dielectric constant tensor:
#      x y z
#    x 1.757600 0.000000 0.000000 
#    y 0.000000 1.769340 0.000000 
#    z 0.000000 0.000000 1.769290 
# 
# From -- ./inp_files/33033.got.cif
#   From: 2010.03.12/outbox.cif.g09.slc.cpg/sg59_17_cif.got.tgz:33033.got - 2010.04.16 16:29:54.
