data_PCOD8240508
_publ_section_title
;
Structure prediction by ZEFSAII (Michael W. Deem and Ramdas Pophale) SiO2 
 PCOD8240508
Probable space group: P M M N
;
_chemical_formula_sum "Si O2"
_cell_formula_units_Z 64
_cell_length_a 13.859840
_cell_length_b 9.068281
_cell_length_c 31.523508
_cell_angle_alpha 90.000000
_cell_angle_beta 90.000000
_cell_angle_gamma 90.000000
_cell_volume 3962.029699
_symmetry_space_group_name_H-M "P M M N"
_symmetry_group_IT_number 59
_space_group.IT_coordinate_system_code '2'
_symmetry_cell_setting 'orthorhombic'
loop_
_space_group_symop_operation_xyz
x,y,z
1/2-x,1/2-y,z
1/2+x,-y,-z
-x,1/2+y,-z
-x,-y,-z
1/2+x,1/2+y,-z
1/2-x,y,z
x,1/2-y,z
loop_
_atom_site_type_symbol
_atom_site_label
_atom_site_fract_x
_atom_site_fract_y
_atom_site_fract_z
Si Si1 0.136140 0.082119 0.977915
Si Si2 0.638603 0.078976 0.522383
Si Si3 0.967772 0.078224 0.435655
Si Si4 0.361721 0.076110 0.640644
Si Si5 0.862925 0.921901 0.191152
Si Si6 0.643280 0.421923 0.938480
Si Si7 0.458401 0.422511 0.893369
Si Si8 0.364549 0.583977 0.725234
O O1 0.250000 0.070602 0.975384
O O2 0.100182 0.250000 0.982440
O O3 0.094883 0.010466 0.934653
O O4 0.098959 0.994881 0.019200
O O5 0.750000 0.030802 0.526602
O O6 0.624450 0.250000 0.534096
O O7 0.604379 0.048572 0.474552
O O8 0.574944 0.981291 0.554282
O O9 0.974655 0.250000 0.424441
O O10 0.926303 0.990302 0.396215
O O11 0.250000 0.034367 0.632656
O O12 0.376449 0.250000 0.642614
O O13 0.400038 0.007660 0.684596
O O14 0.750000 0.949835 0.183883
O O15 0.884945 0.750000 0.198084
O O16 0.919078 0.990267 0.150515
O O17 0.903522 0.006943 0.232164
O O18 0.750000 0.484018 0.927391
O O19 0.647802 0.250000 0.948069
O O20 0.572855 0.454641 0.898674
O O21 0.434287 0.250000 0.891670
O O22 0.250000 0.583573 0.726510
O O23 0.405295 0.750000 0.722491
#
# Coordination Sequence:
#
# PCOD8240508 Si02
#       8
#     8   8   8   8   8   8   8   8
#     4   9  16  26  40  57  77 102 132 164 197 234
#     4   9  18  32  47  64  92 129 164 197 233 273
#     4  10  19  30  46  69  95 123 158 198 237 274
#     4  10  19  30  46  68  93 122 155 187 220 264
#     4   9  16  27  43  61  81 105 133 164 200 247
#     4   9  17  28  40  55  77 104 133 165 199 233
#     4   9  16  26  41  59  78 103 134 164 196 238
#     4   9  17  29  44  63  89 116 138 167 212 261
#
# _framework density 16.153337000000001
#
# number of rings (size 3 to 8) (size 9 to 14) (size 15 to 20)
#    0.000    2.750    0.000    2.250    0.000    5.000 
#    0.000    1.250    0.000    3.000    0.000    0.875 
#    0.000    5.000    0.000    0.000    0.000    0.000 
#
# Total GULP energy -793453.371098 kJ/mol
# GULP energy per Si atom -12397.708923 kJ/mol
# Density = 1.611657 g / cm^3
# Si number density = 16.153337 Si / 1000 Ang^3
#
#
#
# Elastic Constant Matrix: (Units=GPa)
#
#
# Indices 1 2 3 4 5 6 
#
# 1 69.7089 33.1339 53.3581 0.0000 0.0000 0.0000
# 2 33.1339 66.1561 52.6346 0.0000 0.0000 0.0000
# 3 53.3581 52.6346 129.5836 0.0000 0.0000 0.0000
# 4 0.0000 0.0000 0.0000 26.9537 0.0000 0.0000
# 5 0.0000 0.0000 0.0000 0.0000 23.4399 0.0000
# 6 0.0000 0.0000 0.0000 0.0000 0.0000 17.5047
#
#
#
# Elastic Compliance Matrix: (Units=1/GPa)
#
#
# Indices 1 2 3 4 5 6 
#
# 1 0.022319 -0.005713 -0.006870 0.000000 0.000000 0.000000
# 2 -0.005713 0.023795 -0.007313 0.000000 0.000000 0.000000
# 3 -0.006870 -0.007313 0.013516 0.000000 0.000000 0.000000
# 4 0.000000 0.000000 0.000000 0.037101 0.000000 0.000000
# 5 0.000000 0.000000 0.000000 0.000000 0.042662 0.000000
# 6 0.000000 0.000000 0.000000 0.000000 0.000000 0.057128
#
#
# Mechanical properties :
#
#
# Convention : Reuss Voigt Hill
#
# Bulk Modulus (GPa) = 50.40417 60.41132 55.40775
# Shear Modulus (GPa) = 20.58245 22.00111 21.29178
#
# Velocity S-wave (km/s) = 3.57346 3.69455 3.63451
# Velocity P-wave (km/s) = 6.94963 7.46187 7.21030
#
# Compressibility (1/GPa) = 0.01983963
#
# Stress axis : x y z
#
# Youngs Moduli (GPa) = 44.80440 42.02531 73.98526
#
# Poissons Ratio (x) = 0.24008 0.50827
# Poissons Ratio (y) = 0.25595 0.54105
# Poissons Ratio (z) = 0.30780 0.30733
#
# Static dielectric constant tensor:
#      x y z
#    x 3.006610 0.000000 0.000000 
#    y 0.000000 3.053790 0.000000 
#    z 0.000000 0.000000 3.110820 
# 
# 
# High freq. dielectric constant tensor:
#      x y z
#    x 1.599310 0.000000 0.000000 
#    y 0.000000 1.613960 0.000000 
#    z 0.000000 0.000000 1.614080 
# 
# From -- ./inp_files/33324.got.cif
#   From: 2010.03.12/outbox.cif.g09.slc.cpg/sg59_17_cif.got.tgz:33324.got - 2010.04.16 16:29:54.
