data_PCOD8240253
_publ_section_title
;
Structure prediction by ZEFSAII (Michael W. Deem and Ramdas Pophale) SiO2 
 PCOD8240253
Probable space group: P M M N
;
_chemical_formula_sum "Si O2"
_cell_formula_units_Z 64
_cell_length_a 9.058801
_cell_length_b 24.979018
_cell_length_c 18.407563
_cell_angle_alpha 90.000000
_cell_angle_beta 90.000000
_cell_angle_gamma 90.000000
_cell_volume 4165.262495
_symmetry_space_group_name_H-M "P M M N"
_symmetry_group_IT_number 59
_space_group.IT_coordinate_system_code '2'
_symmetry_cell_setting 'orthorhombic'
loop_
_space_group_symop_operation_xyz
x,y,z
1/2-x,1/2-y,z
1/2+x,-y,-z
-x,1/2+y,-z
-x,-y,-z
1/2+x,1/2+y,-z
1/2-x,y,z
x,1/2-y,z
loop_
_atom_site_type_symbol
_atom_site_label
_atom_site_fract_x
_atom_site_fract_y
_atom_site_fract_z
Si Si1 0.421808 0.989805 0.113338
Si Si2 0.583571 0.577225 0.532940
Si Si3 0.578908 0.112980 0.332811
Si Si4 0.422287 0.418711 0.000342
Si Si5 0.922759 0.501480 0.266334
Si Si6 0.584995 0.688209 0.771596
Si Si7 0.574717 0.691226 0.934238
Si Si8 0.416947 0.540646 0.400851
O O1 0.250000 0.981061 0.129189
O O2 0.509653 0.989202 0.187792
O O3 0.450597 0.045867 0.072305
O O4 0.480346 0.940500 0.065438
O O5 0.750000 0.596968 0.520229
O O6 0.505625 0.616019 0.590647
O O7 0.498276 0.580805 0.456317
O O8 0.580124 0.517719 0.564238
O O9 0.750000 0.118303 0.350565
O O10 0.527018 0.161645 0.283807
O O11 0.543115 0.058932 0.289500
O O12 0.250000 0.420890 0.978873
O O13 0.477251 0.357720 0.014740
O O14 0.750000 0.514108 0.264368
O O15 0.998196 0.541460 0.324067
O O16 0.750000 0.662865 0.765248
O O17 0.593243 0.750000 0.751403
O O18 0.519180 0.680317 0.852456
O O19 0.750000 0.692721 0.931171
O O20 0.516992 0.750000 0.961767
O O21 0.250000 0.560422 0.388428
#
# Coordination Sequence:
#
# PCOD8240253 Si02
#       8
#     8   8   8   8   8   8   8   8
#     4  10  19  29  42  60  83 113 145 176 213 256
#     4   9  16  26  40  57  79 108 139 168 199 237
#     4  10  19  28  40  59  83 111 142 176 211 248
#     4   9  17  29  44  61  83 110 140 176 215 256
#     4  10  19  29  41  59  83 111 143 175 209 250
#     4   9  17  29  44  61  82 109 141 176 212 250
#     4   8  14  26  45  65  82 105 140 178 214 254
#     4   9  16  26  40  58  81 107 135 168 203 238
#
# _framework density 15.365176999999999
#
# number of rings (size 3 to 8) (size 9 to 14) (size 15 to 20)
#    0.000    2.750    0.000    3.375    0.000    6.250 
#    0.000    0.625    0.000    1.125    0.000    0.000 
#    0.000    1.000    0.000    6.000    0.000    4.625 
#
# Total GULP energy -793462.562490 kJ/mol
# GULP energy per Si atom -12397.852539 kJ/mol
# Density = 1.533021 g / cm^3
# Si number density = 15.365177 Si / 1000 Ang^3
#
#
#
# Elastic Constant Matrix: (Units=GPa)
#
#
# Indices 1 2 3 4 5 6 
#
# 1 85.7176 28.9220 55.4148 0.0000 0.0000 0.0000
# 2 28.9220 64.6938 33.8961 0.0000 0.0000 0.0000
# 3 55.4148 33.8961 100.2004 0.0000 0.0000 0.0000
# 4 0.0000 0.0000 0.0000 18.7027 0.0000 0.0000
# 5 0.0000 0.0000 0.0000 0.0000 29.8630 0.0000
# 6 0.0000 0.0000 0.0000 0.0000 0.0000 17.2299
#
#
#
# Elastic Compliance Matrix: (Units=1/GPa)
#
#
# Indices 1 2 3 4 5 6 
#
# 1 0.018823 -0.003599 -0.009193 0.000000 0.000000 0.000000
# 2 -0.003599 0.019475 -0.004598 0.000000 0.000000 0.000000
# 3 -0.009193 -0.004598 0.016619 0.000000 0.000000 0.000000
# 4 0.000000 0.000000 0.000000 0.053468 0.000000 0.000000
# 5 0.000000 0.000000 0.000000 0.000000 0.033486 0.000000
# 6 0.000000 0.000000 0.000000 0.000000 0.000000 0.058039
#
#
# Mechanical properties :
#
#
# Convention : Reuss Voigt Hill
#
# Bulk Modulus (GPa) = 49.65404 54.11975 51.88690
# Shear Modulus (GPa) = 20.71227 21.98439 21.34833
#
# Velocity S-wave (km/s) = 3.67550 3.78669 3.73151
# Velocity P-wave (km/s) = 7.09919 7.37682 7.23933
#
# Compressibility (1/GPa) = 0.02013935
#
# Stress axis : x y z
#
# Youngs Moduli (GPa) = 53.12545 51.34700 60.17084
#
# Poissons Ratio (x) = 0.18478 0.55313
# Poissons Ratio (y) = 0.19118 0.27666
# Poissons Ratio (z) = 0.48837 0.23609
#
# Static dielectric constant tensor:
#      x y z
#    x 2.977050 0.000000 0.000000 
#    y 0.000000 2.810550 0.000000 
#    z 0.000000 0.000000 2.916510 
# 
# 
# High freq. dielectric constant tensor:
#      x y z
#    x 1.592960 0.000000 0.000000 
#    y 0.000000 1.547470 0.000000 
#    z 0.000000 0.000000 1.582500 
# 
# From -- ./inp_files/26567.got.cif
#   From: 2010.03.12/outbox.cif.g09.slc.cpg/sg59_14_cif.got.tgz:26567.got - 2010.04.16 16:29:54.
