data_PCOD8240666
_publ_section_title
;
Structure prediction by ZEFSAII (Michael W. Deem and Ramdas Pophale) SiO2 
 PCOD8240666
Probable space group: P M M N
;
_chemical_formula_sum "Si O2"
_cell_formula_units_Z 64
_cell_length_a 8.503225
_cell_length_b 19.688939
_cell_length_c 18.933413
_cell_angle_alpha 90.000000
_cell_angle_beta 90.000000
_cell_angle_gamma 90.000000
_cell_volume 3169.822127
_symmetry_space_group_name_H-M "P M M N"
_symmetry_group_IT_number 59
_space_group.IT_coordinate_system_code '2'
_symmetry_cell_setting 'orthorhombic'
loop_
_space_group_symop_operation_xyz
x,y,z
1/2-x,1/2-y,z
1/2+x,-y,-z
-x,1/2+y,-z
-x,-y,-z
1/2+x,1/2+y,-z
1/2-x,y,z
x,1/2-y,z
loop_
_atom_site_type_symbol
_atom_site_label
_atom_site_fract_x
_atom_site_fract_y
_atom_site_fract_z
Si Si1 0.064856 0.522046 0.209185
Si Si2 0.063200 0.671507 0.455955
Si Si3 0.063871 0.064733 0.643567
Si Si4 0.069892 0.375707 0.177193
Si Si5 0.434284 0.448390 0.941402
Si Si6 0.428507 0.175730 0.322196
Si Si7 0.065320 0.323753 0.032669
Si Si8 0.930443 0.075144 0.420574
O O1 0.250000 0.527230 0.222931
O O2 0.997792 0.445430 0.207261
O O3 0.980174 0.559450 0.274127
O O4 0.022771 0.552397 0.132966
O O5 0.250000 0.674090 0.461175
O O6 0.999184 0.750000 0.461129
O O7 0.991366 0.620825 0.516743
O O8 0.009865 0.635789 0.383301
O O9 0.250000 0.067468 0.636585
O O10 0.997631 0.000100 0.596236
O O11 0.250000 0.392322 0.158712
O O12 0.052446 0.319068 0.237607
O O13 0.985601 0.351384 0.105333
O O14 0.250000 0.462722 0.931310
O O15 0.500000 0.500000 0.000000
O O16 0.470684 0.372919 0.968290
O O17 0.250000 0.153969 0.341536
O O18 0.467746 0.250000 0.353699
O O19 0.548935 0.120280 0.350747
O O20 0.250000 0.317090 0.046431
O O21 0.993298 0.250000 0.014696
O O22 0.750000 0.064759 0.438733
#
# Coordination Sequence:
#
# PCOD8240666 Si02
#       8
#     8   8   8   8   8   8   8   8
#     4  11  21  37  60  85 113 154 198 240 292 346
#     4  10  22  41  63  86 115 155 197 238 292 354
#     4  11  23  39  61  90 119 151 193 244 294 343
#     4   9  16  29  50  78 110 144 185 230 279 336
#     4  11  21  35  57  86 116 150 193 240 290 345
#     4  10  19  30  49  80 116 153 192 233 278 336
#     4   9  17  31  53  81 111 144 186 234 284 338
#     4  10  21  37  58  85 118 154 190 232 287 349
#
# _framework density 20.190407
#
# number of rings (size 3 to 8) (size 9 to 14) (size 15 to 20)
#    0.000    1.875    2.500    2.250    0.000    3.500 
#    0.000    0.625    0.000    3.750    0.000    0.000 
#    0.000    0.000    0.000    0.000    0.000    0.000 
#
# Total GULP energy -793047.529911 kJ/mol
# GULP energy per Si atom -12391.367655 kJ/mol
# Density = 2.014445 g / cm^3
# Si number density = 20.190407 Si / 1000 Ang^3
#
#
#
# Elastic Constant Matrix: (Units=GPa)
#
#
# Indices 1 2 3 4 5 6 
#
# 1 27.1817 19.6771 9.7175 0.0000 0.0000 0.0000
# 2 19.6771 124.3430 58.9665 0.0000 0.0000 0.0000
# 3 9.7175 58.9665 109.1849 0.0000 0.0000 0.0000
# 4 0.0000 0.0000 0.0000 26.7193 0.0000 0.0000
# 5 0.0000 0.0000 0.0000 0.0000 27.6429 0.0000
# 6 0.0000 0.0000 0.0000 0.0000 0.0000 17.8011
#
#
#
# Elastic Compliance Matrix: (Units=1/GPa)
#
#
# Indices 1 2 3 4 5 6 
#
# 1 0.041552 -0.006482 -0.000198 0.000000 0.000000 0.000000
# 2 -0.006482 0.011822 -0.005808 0.000000 0.000000 0.000000
# 3 -0.000198 -0.005808 0.012313 0.000000 0.000000 0.000000
# 4 0.000000 0.000000 0.000000 0.037426 0.000000 0.000000
# 5 0.000000 0.000000 0.000000 0.000000 0.036176 0.000000
# 6 0.000000 0.000000 0.000000 0.000000 0.000000 0.056176
#
#
# Mechanical properties :
#
#
# Convention : Reuss Voigt Hill
#
# Bulk Modulus (GPa) = 24.56218 48.60354 36.58286
# Shear Modulus (GPa) = 21.36648 25.92254 23.64451
#
# Velocity S-wave (km/s) = 3.25660 3.58705 3.42581
# Velocity P-wave (km/s) = 5.13150 6.42501 5.81434
#
# Compressibility (1/GPa) = 0.04071300
#
# Stress axis : x y z
#
# Youngs Moduli (GPa) = 24.06597 84.58629 81.21534
#
# Poissons Ratio (x) = 0.54828 0.01605
# Poissons Ratio (y) = 0.15599 0.47169
# Poissons Ratio (z) = 0.00475 0.49126
#
# Static dielectric constant tensor:
#      x y z
#    x 3.286810 0.000000 0.000000 
#    y 0.000000 4.058380 0.000000 
#    z 0.000000 0.000000 3.670950 
# 
# 
# High freq. dielectric constant tensor:
#      x y z
#    x 1.752790 0.000000 0.000000 
#    y 0.000000 1.790480 0.000000 
#    z 0.000000 0.000000 1.790620 
# 
# From -- ./inp_files/26263.got.cif
#   From: 2010.03.12/outbox.cif.g09.slc.cpg/sg59_14_cif.got.tgz:26263.got - 2010.04.16 16:29:54.
