data_PCOD8240446
_publ_section_title
;
Structure prediction by ZEFSAII (Michael W. Deem and Ramdas Pophale) SiO2 
 PCOD8240446
Probable space group: P M M N
;
_chemical_formula_sum "Si O2"
_cell_formula_units_Z 64
_cell_length_a 25.218976
_cell_length_b 9.031029
_cell_length_c 17.885233
_cell_angle_alpha 90.000000
_cell_angle_beta 90.000000
_cell_angle_gamma 90.000000
_cell_volume 4073.420902
_symmetry_space_group_name_H-M "P M M N"
_symmetry_group_IT_number 59
_space_group.IT_coordinate_system_code '2'
_symmetry_cell_setting 'orthorhombic'
loop_
_space_group_symop_operation_xyz
x,y,z
1/2-x,1/2-y,z
1/2+x,-y,-z
-x,1/2+y,-z
-x,-y,-z
1/2+x,1/2+y,-z
1/2-x,y,z
x,1/2-y,z
loop_
_atom_site_type_symbol
_atom_site_label
_atom_site_fract_x
_atom_site_fract_y
_atom_site_fract_z
Si Si1 0.812894 0.585717 0.872423
Si Si2 0.508012 0.076608 0.421317
Si Si3 0.809359 0.572891 0.707893
Si Si4 0.186930 0.083392 0.838818
Si Si5 0.888675 0.573795 0.419768
Si Si6 0.187344 0.579602 0.690315
Si Si7 0.313296 0.584008 0.984365
Si Si8 0.891964 0.922199 0.589878
O O1 0.750000 0.596014 0.878946
O O2 0.837170 0.750000 0.882576
O O3 0.827379 0.519068 0.790711
O O4 0.835888 0.482555 0.938158
O O5 0.520017 0.250000 0.431215
O O6 0.451860 0.051830 0.378515
O O7 0.500000 0.000000 0.500000
O O8 0.558054 0.996480 0.381909
O O9 0.750000 0.516022 0.688866
O O10 0.809971 0.750000 0.708316
O O11 0.849854 0.503944 0.646889
O O12 0.250000 0.084843 0.840902
O O13 0.164615 0.250000 0.831854
O O14 0.166984 0.987498 0.768610
O O15 0.164665 0.010912 0.914790
O O16 0.891740 0.750000 0.413877
O O17 0.837658 0.513259 0.377065
O O18 0.884584 0.516450 0.505583
O O19 0.250000 0.562892 0.682275
O O20 0.169482 0.750000 0.686414
O O21 0.250000 0.582563 0.984427
O O22 0.335048 0.750000 0.976246
O O23 0.879117 0.750000 0.586002
#
# Coordination Sequence:
#
# PCOD8240446 Si02
#       8
#     8   8   8   8   8   8   8   8
#     4   8  13  21  34  52  74 102 135 168 201 238
#     4   9  16  28  45  63  83 106 137 180 226 265
#     4   8  13  22  37  58  84 111 139 173 210 246
#     4   9  16  26  40  57  78 105 138 173 205 240
#     4  10  19  30  45  64  84 109 144 182 219 258
#     4  10  20  32  44  60  86 117 144 171 209 256
#     4   9  15  22  34  52  75 104 136 168 202 240
#     4   8  15  26  41  62  84 108 141 180 218 253
#
# _framework density 15.71161
#
# number of rings (size 3 to 8) (size 9 to 14) (size 15 to 20)
#    0.000    3.125    0.000    3.375    0.000    4.250 
#    0.000    1.250    0.000    4.500    0.000    1.750 
#    0.000    1.000    0.000    2.750    0.000    4.375 
#
# Total GULP energy -793076.184140 kJ/mol
# GULP energy per Si atom -12391.815377 kJ/mol
# Density = 1.567585 g / cm^3
# Si number density = 15.711610 Si / 1000 Ang^3
#
#
#
# Elastic Constant Matrix: (Units=GPa)
#
#
# Indices 1 2 3 4 5 6 
#
# 1 46.3891 28.1646 38.8633 0.0000 0.0000 0.0000
# 2 28.1646 88.1898 41.7139 0.0000 0.0000 0.0000
# 3 38.8633 41.7139 104.8961 0.0000 0.0000 0.0000
# 4 0.0000 0.0000 0.0000 17.4728 0.0000 0.0000
# 5 0.0000 0.0000 0.0000 0.0000 2.3987 0.0000
# 6 0.0000 0.0000 0.0000 0.0000 0.0000 17.3147
#
#
#
# Elastic Compliance Matrix: (Units=1/GPa)
#
#
# Indices 1 2 3 4 5 6 
#
# 1 0.033631 -0.005970 -0.010086 0.000000 0.000000 0.000000
# 2 -0.005970 0.015026 -0.003764 0.000000 0.000000 0.000000
# 3 -0.010086 -0.003764 0.014767 0.000000 0.000000 0.000000
# 4 0.000000 0.000000 0.000000 0.057232 0.000000 0.000000
# 5 0.000000 0.000000 0.000000 0.000000 0.416890 0.000000
# 6 0.000000 0.000000 0.000000 0.000000 0.000000 0.057755
#
#
# Mechanical properties :
#
#
# Convention : Reuss Voigt Hill
#
# Bulk Modulus (GPa) = 42.04365 50.77318 46.40841
# Shear Modulus (GPa) = 7.77765 16.15278 11.96522
#
# Velocity S-wave (km/s) = 2.22733 3.20985 2.76262
# Velocity P-wave (km/s) = 5.78207 6.79142 6.30697
#
# Compressibility (1/GPa) = 0.02378480
#
# Stress axis : x y z
#
# Youngs Moduli (GPa) = 29.73436 66.55188 67.71988
#
# Poissons Ratio (x) = 0.39730 0.68303
# Poissons Ratio (y) = 0.17751 0.25487
# Poissons Ratio (z) = 0.29990 0.25047
#
# Static dielectric constant tensor:
#      x y z
#    x 2.872720 0.000000 0.000000 
#    y 0.000000 3.030420 0.000000 
#    z 0.000000 0.000000 3.130400 
# 
# 
# High freq. dielectric constant tensor:
#      x y z
#    x 1.554390 0.000000 0.000000 
#    y 0.000000 1.596830 0.000000 
#    z 0.000000 0.000000 1.597460 
# 
# From -- ./inp_files/28534.got.cif
#   From: 2010.03.12/outbox.cif.g09.slc.cpg/sg59_15_cif.got.tgz:28534.got - 2010.04.16 16:29:54.
