data_PCOD8240094
_publ_section_title
;
Structure prediction by ZEFSAII (Michael W. Deem and Ramdas Pophale) SiO2 
 PCOD8240094
Probable space group: P M M N
;
_chemical_formula_sum "Si O2"
_cell_formula_units_Z 64
_cell_length_a 14.137470
_cell_length_b 18.509987
_cell_length_c 12.392543
_cell_angle_alpha 90.000000
_cell_angle_beta 90.000000
_cell_angle_gamma 90.000000
_cell_volume 3242.935005
_symmetry_space_group_name_H-M "P M M N"
_symmetry_group_IT_number 59
_space_group.IT_coordinate_system_code '2'
_symmetry_cell_setting 'orthorhombic'
loop_
_space_group_symop_operation_xyz
x,y,z
1/2-x,1/2-y,z
1/2+x,-y,-z
-x,1/2+y,-z
-x,-y,-z
1/2+x,1/2+y,-z
1/2-x,y,z
x,1/2-y,z
loop_
_atom_site_type_symbol
_atom_site_label
_atom_site_fract_x
_atom_site_fract_y
_atom_site_fract_z
Si Si1 0.909087 0.329452 0.580830
Si Si2 0.149647 0.664802 0.201285
Si Si3 0.022440 0.663464 0.011505
Si Si4 0.143428 0.411930 0.888658
Si Si5 0.616337 0.829897 0.335081
Si Si6 0.644624 0.940095 0.506499
Si Si7 0.451271 0.932578 0.610589
Si Si8 0.363024 0.923813 0.839017
O O1 0.873063 0.250000 0.545617
O O2 0.847281 0.366693 0.676076
O O3 0.908904 0.376970 0.475145
O O4 0.006540 0.323521 0.644260
O O5 0.250000 0.645409 0.146010
O O6 0.136366 0.750000 0.213777
O O7 0.067846 0.635732 0.124160
O O8 0.015263 0.750000 0.001230
O O9 0.088914 0.634510 0.916918
O O10 0.918835 0.627487 0.018397
O O11 0.250000 0.406467 0.931934
O O12 0.137179 0.374987 0.772142
O O13 0.113724 0.495726 0.879216
O O14 0.660460 0.750000 0.320648
O O15 0.661637 0.865849 0.441894
O O16 0.750000 0.965268 0.547351
O O17 0.567214 0.933994 0.603916
O O18 0.595991 0.991018 0.416699
O O19 0.416382 0.908516 0.726870
O O20 0.250000 0.910694 0.828452
#
# Coordination Sequence:
#
# PCOD8240094 Si02
#       8
#     8   8   8   8   8   8   8   8
#     4   9  18  33  53  82 119 152 189 244 302 348
#     4   9  17  31  52  79 111 146 190 248 308 354
#     4  11  23  40  62  87 117 156 206 259 305 358
#     4  11  22  38  61  90 121 153 194 248 314 370
#     4  10  18  32  57  87 116 146 186 242 304 361
#     4  10  20  35  55  83 117 154 199 245 297 354
#     4  10  21  36  57  84 119 161 202 240 290 354
#     4  11  24  42  62  86 122 166 206 247 297 367
#
# _framework density 19.735209000000001
#
# number of rings (size 3 to 8) (size 9 to 14) (size 15 to 20)
#    0.000    1.875    2.500    1.875    0.000    4.000 
#    0.000    0.625    0.000    0.750    0.000    0.000 
#    0.000    0.000    0.000    0.000    0.000    0.000 
#
# Total GULP energy -792929.507342 kJ/mol
# GULP energy per Si atom -12389.523552 kJ/mol
# Density = 1.969029 g / cm^3
# Si number density = 19.735209 Si / 1000 Ang^3
#
#
#
# Elastic Constant Matrix: (Units=GPa)
#
#
# Indices 1 2 3 4 5 6 
#
# 1 124.9429 28.9361 52.1056 0.0000 0.0000 0.0000
# 2 28.9361 83.5017 36.6724 0.0000 0.0000 0.0000
# 3 52.1056 36.6724 98.7886 0.0000 0.0000 0.0000
# 4 0.0000 0.0000 0.0000 30.4973 0.0000 0.0000
# 5 0.0000 0.0000 0.0000 0.0000 -50.6993 0.0000
# 6 0.0000 0.0000 0.0000 0.0000 0.0000 11.3264
#
#
#
# Elastic Compliance Matrix: (Units=1/GPa)
#
#
# Indices 1 2 3 4 5 6 
#
# 1 0.010401 -0.001428 -0.004956 0.000000 0.000000 0.000000
# 2 -0.001428 0.014505 -0.004631 0.000000 0.000000 0.000000
# 3 -0.004956 -0.004631 0.014456 0.000000 0.000000 0.000000
# 4 0.000000 0.000000 0.000000 0.032790 0.000000 0.000000
# 5 0.000000 0.000000 0.000000 0.000000 -0.019724 0.000000
# 6 0.000000 0.000000 0.000000 0.000000 0.000000 0.088289
#
#
# Mechanical properties :
#
#
# Convention : Reuss Voigt Hill
#
# Bulk Modulus (GPa) = 57.69876 60.29571 58.99723
# Shear Modulus (GPa) = 29.66941 10.85949 20.26445
#
# Velocity S-wave (km/s) = 3.88154 2.34831 3.20787
# Velocity P-wave (km/s) = 7.02769 6.16209 6.60908
#
# Compressibility (1/GPa) = 0.01733140
#
# Stress axis : x y z
#
# Youngs Moduli (GPa) = 96.14312 68.94379 69.17586
#
# Poissons Ratio (x) = 0.09843 0.34284
# Poissons Ratio (y) = 0.13727 0.32038
# Poissons Ratio (z) = 0.47649 0.31930
#
# Static dielectric constant tensor:
#      x y z
#    x 3.891740 0.000000 0.000000 
#    y 0.000000 3.698820 0.000000 
#    z 0.000000 0.000000 3.390630 
# 
# 
# High freq. dielectric constant tensor:
#      x y z
#    x 1.786130 0.000000 0.000000 
#    y 0.000000 1.761570 0.000000 
#    z 0.000000 0.000000 1.742600 
# 
# From -- ./inp_files/17200.got.cif
#   From: 2010.03.12/outbox.cif.g09.slc.cpg/sg59_9_cif.got.tgz:17200.got - 2010.04.16 16:29:54.
