data_PCOD8240606
_publ_section_title
;
Structure prediction by ZEFSAII (Michael W. Deem and Ramdas Pophale) SiO2 
 PCOD8240606
Probable space group: P M M N
;
_chemical_formula_sum "Si O2"
_cell_formula_units_Z 64
_cell_length_a 9.384471
_cell_length_b 19.712528
_cell_length_c 20.169342
_cell_angle_alpha 90.000000
_cell_angle_beta 90.000000
_cell_angle_gamma 90.000000
_cell_volume 3731.159803
_symmetry_space_group_name_H-M "P M M N"
_symmetry_group_IT_number 59
_space_group.IT_coordinate_system_code '2'
_symmetry_cell_setting 'orthorhombic'
loop_
_space_group_symop_operation_xyz
x,y,z
1/2-x,1/2-y,z
1/2+x,-y,-z
-x,1/2+y,-z
-x,-y,-z
1/2+x,1/2+y,-z
1/2-x,y,z
x,1/2-y,z
loop_
_atom_site_type_symbol
_atom_site_label
_atom_site_fract_x
_atom_site_fract_y
_atom_site_fract_z
Si Si1 0.080133 0.173923 0.610950
Si Si2 0.418290 0.827558 0.660020
Si Si3 0.082167 0.936828 0.762791
Si Si4 0.591974 0.830515 0.534527
Si Si5 0.914973 0.091245 0.951151
Si Si6 0.414038 0.327518 0.855952
Si Si7 0.919664 0.585434 0.268647
Si Si8 0.585864 0.461032 0.090897
O O1 0.250000 0.176628 0.614232
O O2 0.020389 0.250000 0.624360
O O3 0.034073 0.146672 0.537985
O O4 0.018013 0.122149 0.665816
O O5 0.250000 0.833455 0.651957
O O6 0.464236 0.750000 0.674869
O O7 0.478475 0.874205 0.719797
O O8 0.486225 0.855639 0.591954
O O9 0.250000 0.938389 0.753867
O O10 0.042205 0.925216 0.840026
O O11 0.020445 0.008711 0.736309
O O12 0.750000 0.860464 0.547900
O O13 0.600310 0.750000 0.533782
O O14 0.750000 0.092004 0.931468
O O15 0.992900 0.157001 0.921420
O O16 0.934979 0.092044 0.030867
O O17 0.985645 0.025127 0.919276
O O18 0.250000 0.343287 0.872515
O O19 0.435519 0.250000 0.835031
O O20 0.471171 0.373470 0.795820
O O21 0.750000 0.586105 0.271099
O O22 0.750000 0.486586 0.094006
#
# Coordination Sequence:
#
# PCOD8240606 Si02
#       8
#     8   8   8   8   8   8   8   8
#     4   8  13  22  39  65  91 113 146 190 227 262
#     4   9  17  29  46  67  88 113 149 190 230 275
#     4   9  16  28  47  68  90 117 151 192 231 267
#     4   8  14  26  44  64  87 115 145 181 227 276
#     4  10  19  30  48  72  96 123 155 193 235 277
#     4  10  19  31  49  71  96 128 162 196 233 274
#     4   9  15  25  44  68  91 117 153 195 229 264
#     4   9  17  32  51  69  90 119 157 194 231 279
#
# _framework density 17.152844000000002
#
# number of rings (size 3 to 8) (size 9 to 14) (size 15 to 20)
#    0.000    3.000    1.250    1.500    0.000    2.250 
#    0.000    1.875    0.000    3.000    0.000    3.500 
#    0.000    0.000    0.000    0.000    0.000    0.000 
#
# Total GULP energy -793234.451059 kJ/mol
# GULP energy per Si atom -12394.288298 kJ/mol
# Density = 1.711380 g / cm^3
# Si number density = 17.152844 Si / 1000 Ang^3
#
#
#
# Elastic Constant Matrix: (Units=GPa)
#
#
# Indices 1 2 3 4 5 6 
#
# 1 39.4021 23.2391 37.0069 0.0000 0.0000 0.0000
# 2 23.2391 87.2764 68.8482 0.0000 0.0000 0.0000
# 3 37.0069 68.8482 158.8948 0.0000 0.0000 0.0000
# 4 0.0000 0.0000 0.0000 30.7343 0.0000 0.0000
# 5 0.0000 0.0000 0.0000 0.0000 22.8099 0.0000
# 6 0.0000 0.0000 0.0000 0.0000 0.0000 15.0761
#
#
#
# Elastic Compliance Matrix: (Units=1/GPa)
#
#
# Indices 1 2 3 4 5 6 
#
# 1 0.033468 -0.004197 -0.005976 0.000000 0.000000 0.000000
# 2 -0.004197 0.017934 -0.006793 0.000000 0.000000 0.000000
# 3 -0.005976 -0.006793 0.010629 0.000000 0.000000 0.000000
# 4 0.000000 0.000000 0.000000 0.032537 0.000000 0.000000
# 5 0.000000 0.000000 0.000000 0.000000 0.043841 0.000000
# 6 0.000000 0.000000 0.000000 0.000000 0.000000 0.066330
#
#
# Mechanical properties :
#
#
# Convention : Reuss Voigt Hill
#
# Bulk Modulus (GPa) = 35.59022 60.41798 48.00410
# Shear Modulus (GPa) = 20.15825 24.15600 22.15713
#
# Velocity S-wave (km/s) = 3.43186 3.75678 3.59799
# Velocity P-wave (km/s) = 6.04131 7.35647 6.73109
#
# Compressibility (1/GPa) = 0.02809761
#
# Stress axis : x y z
#
# Youngs Moduli (GPa) = 29.87968 55.75883 94.08396
#
# Poissons Ratio (x) = 0.23403 0.56225
# Poissons Ratio (y) = 0.12541 0.63914
# Poissons Ratio (z) = 0.17856 0.37879
#
# Static dielectric constant tensor:
#      x y z
#    x 2.927060 0.000000 0.000000 
#    y 0.000000 3.178010 0.000000 
#    z 0.000000 0.000000 3.599610 
# 
# 
# High freq. dielectric constant tensor:
#      x y z
#    x 1.619400 0.000000 0.000000 
#    y 0.000000 1.638390 0.000000 
#    z 0.000000 0.000000 1.674880 
# 
# From -- ./inp_files/29713.got.cif
#   From: 2010.03.12/outbox.cif.g09.slc.cpg/sg59_15_cif.got.tgz:29713.got - 2010.04.16 16:29:54.
