data_PCOD8240978
_publ_section_title
;
Structure prediction by ZEFSAII (Michael W. Deem and Ramdas Pophale) SiO2 
 PCOD8240978
Probable space group: P M M N
;
_chemical_formula_sum "Si O2"
_cell_formula_units_Z 64
_cell_length_a 8.836075
_cell_length_b 18.554993
_cell_length_c 20.052373
_cell_angle_alpha 90.000000
_cell_angle_beta 90.000000
_cell_angle_gamma 90.000000
_cell_volume 3287.652922
_symmetry_space_group_name_H-M "P M M N"
_symmetry_group_IT_number 59
_space_group.IT_coordinate_system_code '2'
_symmetry_cell_setting 'orthorhombic'
loop_
_space_group_symop_operation_xyz
x,y,z
1/2-x,1/2-y,z
1/2+x,-y,-z
-x,1/2+y,-z
-x,-y,-z
1/2+x,1/2+y,-z
1/2-x,y,z
x,1/2-y,z
loop_
_atom_site_type_symbol
_atom_site_label
_atom_site_fract_x
_atom_site_fract_y
_atom_site_fract_z
Si Si1 0.922895 0.416486 0.044025
Si Si2 0.928606 0.076344 0.520412
Si Si3 0.426108 0.672973 0.836120
Si Si4 0.928777 0.167607 0.646670
Si Si5 0.930185 0.427644 0.276889
Si Si6 0.070762 0.083538 0.761161
Si Si7 0.570671 0.169101 0.396447
Si Si8 0.074956 0.555162 0.100261
O O1 0.750000 0.444665 0.050751
O O2 0.949094 0.344027 0.085929
O O3 0.030323 0.474867 0.078624
O O4 0.959492 0.398187 0.966821
O O5 0.750000 0.064631 0.520876
O O6 0.985907 0.110000 0.590712
O O7 0.977258 0.136710 0.467179
O O8 0.000000 0.000000 0.500000
O O9 0.250000 0.678049 0.818359
O O10 0.503682 0.750000 0.821382
O O11 0.496319 0.611978 0.788614
O O12 0.750000 0.161953 0.653604
O O13 0.974690 0.250000 0.627815
O O14 0.002473 0.148552 0.717920
O O15 0.750000 0.428881 0.278376
O O16 0.988849 0.509557 0.273219
O O17 0.995887 0.385018 0.340567
O O18 0.250000 0.089299 0.760377
O O19 0.018712 0.087277 0.838078
O O20 0.750000 0.173225 0.389374
O O21 0.503168 0.250000 0.388770
O O22 0.250000 0.557182 0.120635
#
# Coordination Sequence:
#
# PCOD8240978 Si02
#       8
#     8   8   8   8   8   8   8   8
#     4   9  17  31  49  74 105 137 182 231 273 322
#     4  10  20  35  56  82 111 143 178 221 269 317
#     4   9  15  25  44  71 104 138 173 218 268 312
#     4  10  22  40  59  80 110 148 189 233 281 333
#     4   9  16  26  44  74 107 135 168 215 262 308
#     4  11  21  35  56  81 109 138 177 231 280 331
#     4   9  16  27  46  74 105 135 170 210 254 305
#     4  10  19  31  51  76 104 140 181 226 278 331
#
# _framework density 19.466774000000001
#
# number of rings (size 3 to 8) (size 9 to 14) (size 15 to 20)
#    0.000    2.375    1.250    2.250    0.000    5.250 
#    0.000    0.625    0.000    3.750    0.000    0.000 
#    0.000    0.000    0.000    0.000    0.000    0.000 
#
# Total GULP energy -793139.171189 kJ/mol
# GULP energy per Si atom -12392.799550 kJ/mol
# Density = 1.942247 g / cm^3
# Si number density = 19.466774 Si / 1000 Ang^3
#
#
#
# Elastic Constant Matrix: (Units=GPa)
#
#
# Indices 1 2 3 4 5 6 
#
# 1 30.5551 26.8565 26.6812 0.0000 0.0000 0.0000
# 2 26.8565 96.6688 46.4382 0.0000 0.0000 0.0000
# 3 26.6812 46.4382 138.0444 0.0000 0.0000 0.0000
# 4 0.0000 0.0000 0.0000 23.5205 0.0000 0.0000
# 5 0.0000 0.0000 0.0000 0.0000 24.2411 0.0000
# 6 0.0000 0.0000 0.0000 0.0000 0.0000 20.2115
#
#
#
# Elastic Compliance Matrix: (Units=1/GPa)
#
#
# Indices 1 2 3 4 5 6 
#
# 1 0.046613 -0.010284 -0.005550 0.000000 0.000000 0.000000
# 2 -0.010284 0.014607 -0.002926 0.000000 0.000000 0.000000
# 3 -0.005550 -0.002926 0.009301 0.000000 0.000000 0.000000
# 4 0.000000 0.000000 0.000000 0.042516 0.000000 0.000000
# 5 0.000000 0.000000 0.000000 0.000000 0.041252 0.000000
# 6 0.000000 0.000000 0.000000 0.000000 0.000000 0.049477
#
#
# Mechanical properties :
#
#
# Convention : Reuss Voigt Hill
#
# Bulk Modulus (GPa) = 30.30170 51.69114 40.99642
# Shear Modulus (GPa) = 19.81866 24.61411 22.21639
#
# Velocity S-wave (km/s) = 3.19419 3.55972 3.38190
# Velocity P-wave (km/s) = 5.40402 6.59596 6.02952
#
# Compressibility (1/GPa) = 0.03300145
#
# Stress axis : x y z
#
# Youngs Moduli (GPa) = 21.45320 68.45830 107.51403
#
# Poissons Ratio (x) = 0.70403 0.59669
# Poissons Ratio (y) = 0.22062 0.31461
# Poissons Ratio (z) = 0.11906 0.20033
#
# Static dielectric constant tensor:
#      x y z
#    x 3.120210 0.000000 0.000000 
#    y 0.000000 3.633190 0.000000 
#    z 0.000000 0.000000 3.813530 
# 
# 
# High freq. dielectric constant tensor:
#      x y z
#    x 1.711150 0.000000 0.000000 
#    y 0.000000 1.749600 0.000000 
#    z 0.000000 0.000000 1.774630 
# 
# From -- ./inp_files/29510.got.cif
#   From: 2010.03.12/outbox.cif.g09.slc.cpg/sg59_15_cif.got.tgz:29510.got - 2010.04.16 16:29:54.
