data_PCOD8240615
_publ_section_title
;
Structure prediction by ZEFSAII (Michael W. Deem and Ramdas Pophale) SiO2 
 PCOD8240615
Probable space group: P M M N
;
_chemical_formula_sum "Si O2"
_cell_formula_units_Z 48
_cell_length_a 9.235746
_cell_length_b 15.160818
_cell_length_c 19.122907
_cell_angle_alpha 90.000000
_cell_angle_beta 90.000000
_cell_angle_gamma 90.000000
_cell_volume 2677.617438
_symmetry_space_group_name_H-M "P M M N"
_symmetry_group_IT_number 59
_space_group.IT_coordinate_system_code '2'
_symmetry_cell_setting 'orthorhombic'
loop_
_space_group_symop_operation_xyz
x,y,z
1/2-x,1/2-y,z
1/2+x,-y,-z
-x,1/2+y,-z
-x,-y,-z
1/2+x,1/2+y,-z
1/2-x,y,z
x,1/2-y,z
loop_
_atom_site_type_symbol
_atom_site_label
_atom_site_fract_x
_atom_site_fract_y
_atom_site_fract_z
Si Si1 0.421990 0.847327 0.927251
Si Si2 0.577234 0.504236 0.169530
Si Si3 0.080488 0.649595 0.568466
Si Si4 0.083746 0.647488 0.084853
Si Si5 0.921365 0.497804 0.326545
Si Si6 0.080518 0.350157 0.572382
O O1 0.250000 0.844715 0.925027
O O2 0.481473 0.750000 0.906198
O O3 0.482688 0.920209 0.873807
O O4 0.471163 0.871174 0.005905
O O5 0.750000 0.508747 0.167414
O O6 0.516358 0.593891 0.137542
O O7 0.515876 0.495241 0.248221
O O8 0.250000 0.635875 0.555155
O O9 0.043974 0.750000 0.589392
O O10 0.023354 0.587744 0.631053
O O11 0.000317 0.621377 0.497930
O O12 0.250000 0.617705 0.093512
O O13 0.066254 0.750000 0.103250
O O14 0.750000 0.495892 0.322150
O O15 0.973611 0.586980 0.365100
O O16 0.250000 0.362263 0.558211
O O17 0.042115 0.250000 0.593721
#
# Coordination Sequence:
#
# PCOD8240615 Si02
#       6
#     8   8   8   8   8   8
#     4   8  15  29  49  71  94 122 156 192 231 276
#     4  10  19  30  48  73  96 121 156 194 229 272
#     4   9  17  30  48  68  89 114 147 187 224 260
#     4   9  18  33  50  67  92 126 158 190 233 279
#     4   9  18  30  44  67  96 120 143 178 228 274
#     4   9  17  30  47  64  85 117 152 183 219 264
#
# _framework density 17.926383000000001
#
# number of rings (size 3 to 8) (size 9 to 14) (size 15 to 20)
#    0.000    3.000    0.000    2.000    0.000    1.667 
#    0.000    6.667    0.000    3.500    0.000    0.000 
#    0.000    0.000    0.000    0.000    0.000    0.000 
#
# Total GULP energy -595105.146595 kJ/mol
# GULP energy per Si atom -12398.023887 kJ/mol
# Density = 1.788558 g / cm^3
# Si number density = 17.926383 Si / 1000 Ang^3
#
#
#
# Elastic Constant Matrix: (Units=GPa)
#
#
# Indices 1 2 3 4 5 6 
#
# 1 22.0708 24.2961 27.8448 0.0000 0.0000 0.0000
# 2 24.2961 119.9570 89.8931 0.0000 0.0000 0.0000
# 3 27.8448 89.8931 156.5044 0.0000 0.0000 0.0000
# 4 0.0000 0.0000 0.0000 22.0898 0.0000 0.0000
# 5 0.0000 0.0000 0.0000 0.0000 18.2527 0.0000
# 6 0.0000 0.0000 0.0000 0.0000 0.0000 20.9919
#
#
#
# Elastic Compliance Matrix: (Units=1/GPa)
#
#
# Indices 1 2 3 4 5 6 
#
# 1 0.062082 -0.007544 -0.006712 0.000000 0.000000 0.000000
# 2 -0.007544 0.015553 -0.007591 0.000000 0.000000 0.000000
# 3 -0.006712 -0.007591 0.011944 0.000000 0.000000 0.000000
# 4 0.000000 0.000000 0.000000 0.045270 0.000000 0.000000
# 5 0.000000 0.000000 0.000000 0.000000 0.054786 0.000000
# 6 0.000000 0.000000 0.000000 0.000000 0.000000 0.047638
#
#
# Mechanical properties :
#
#
# Convention : Reuss Voigt Hill
#
# Bulk Modulus (GPa) = 21.79411 64.73337 43.26374
# Shear Modulus (GPa) = 16.87697 22.70009 19.78853
#
# Velocity S-wave (km/s) = 3.07165 3.56236 3.32607
# Velocity P-wave (km/s) = 4.97634 7.28764 6.23994
#
# Compressibility (1/GPa) = 0.04588396
#
# Stress axis : x y z
#
# Youngs Moduli (GPa) = 16.10777 64.29697 83.72424
#
# Poissons Ratio (x) = 0.48506 0.56198
# Poissons Ratio (y) = 0.12152 0.63555
# Poissons Ratio (z) = 0.10812 0.48808
#
# Static dielectric constant tensor:
#      x y z
#    x 2.913820 0.000000 0.000000 
#    y 0.000000 3.550330 0.000000 
#    z 0.000000 0.000000 3.515470 
# 
# 
# High freq. dielectric constant tensor:
#      x y z
#    x 1.651220 0.000000 0.000000 
#    y 0.000000 1.708030 0.000000 
#    z 0.000000 0.000000 1.692350 
# 
# From -- ./inp_files/25432.got.cif
#   From: 2010.03.12/outbox.cif.g09.slc.cpg/sg59_13_cif.got.tgz:25432.got - 2010.04.16 16:29:54.
