data_PCOD8240865
_publ_section_title
;
Structure prediction by ZEFSAII (Michael W. Deem and Ramdas Pophale) SiO2 
 PCOD8240865
Probable space group: P M M N
;
_chemical_formula_sum "Si O2"
_cell_formula_units_Z 40
_cell_length_a 7.718435
_cell_length_b 9.254687
_cell_length_c 29.557322
_cell_angle_alpha 90.000000
_cell_angle_beta 90.000000
_cell_angle_gamma 90.000000
_cell_volume 2111.329760
_symmetry_space_group_name_H-M "P M M N"
_symmetry_group_IT_number 59
_space_group.IT_coordinate_system_code '2'
_symmetry_cell_setting 'orthorhombic'
loop_
_space_group_symop_operation_xyz
x,y,z
1/2-x,1/2-y,z
1/2+x,-y,-z
-x,1/2+y,-z
-x,-y,-z
1/2+x,1/2+y,-z
1/2-x,y,z
x,1/2-y,z
loop_
_atom_site_type_symbol
_atom_site_label
_atom_site_fract_x
_atom_site_fract_y
_atom_site_fract_z
Si Si1 0.953802 0.410958 0.455928
Si Si2 0.552188 0.080673 0.954778
Si Si3 0.955773 0.586870 0.370933
Si Si4 0.750000 0.577116 0.211691
Si Si5 0.942244 0.078848 0.726604
Si Si6 0.250000 0.421052 0.889499
O O1 0.750000 0.401089 0.450698
O O2 0.034215 0.250000 0.459449
O O3 0.031331 0.490741 0.411839
O O4 0.000000 0.500000 0.500000
O O5 0.750000 0.044517 0.940805
O O6 0.527609 0.250000 0.963723
O O7 0.423831 0.026410 0.915163
O O8 0.500000 0.000000 0.000000
O O9 0.750000 0.586544 0.370096
O O10 0.025498 0.750000 0.377700
O O11 0.023321 0.518789 0.323832
O O12 0.750000 0.750000 0.210659
O O13 0.580239 0.516623 0.237533
O O14 0.750000 0.512927 0.160955
O O15 0.750000 0.033712 0.742721
O O16 0.964514 0.250000 0.724359
O O17 0.250000 0.250000 0.886263
#
# Coordination Sequence:
#
# PCOD8240865 Si02
#       6
#     8   8   8   4   8   4
#     4  10  21  35  51  73 101 133 168 205 251 304
#     4  10  19  31  49  73 101 136 177 218 263 313
#     4   9  16  29  48  68  94 128 163 202 249 298
#     4   9  16  28  44  67 103 137 163 205 260 305
#     4   9  16  26  44  70  97 128 166 203 246 303
#     4   9  18  30  45  69 103 137 171 215 264 309
#
# _framework density 18.945405000000001
#
# number of rings (size 3 to 8) (size 9 to 14) (size 15 to 20)
#    0.000    2.600    2.000    0.600    0.000    2.800 
#    0.000    6.000    0.000    0.000    0.000    2.800 
#    0.000    0.000    0.000    0.000    0.000    0.000 
#
# Total GULP energy -495877.755251 kJ/mol
# GULP energy per Si atom -12396.943881 kJ/mol
# Density = 1.890228 g / cm^3
# Si number density = 18.945405 Si / 1000 Ang^3
#
#
#
# Elastic Constant Matrix: (Units=GPa)
#
#
# Indices 1 2 3 4 5 6 
#
# 1 121.2234 24.4623 79.9761 0.0000 0.0000 0.0000
# 2 24.4623 56.9779 44.7832 0.0000 0.0000 0.0000
# 3 79.9761 44.7832 194.6471 0.0000 0.0000 0.0000
# 4 0.0000 0.0000 0.0000 21.1455 0.0000 0.0000
# 5 0.0000 0.0000 0.0000 0.0000 27.9196 0.0000
# 6 0.0000 0.0000 0.0000 0.0000 0.0000 12.6732
#
#
#
# Elastic Compliance Matrix: (Units=1/GPa)
#
#
# Indices 1 2 3 4 5 6 
#
# 1 0.011419 -0.001483 -0.004350 0.000000 0.000000 0.000000
# 2 -0.001483 0.021618 -0.004364 0.000000 0.000000 0.000000
# 3 -0.004350 -0.004364 0.007929 0.000000 0.000000 0.000000
# 4 0.000000 0.000000 0.000000 0.047291 0.000000 0.000000
# 5 0.000000 0.000000 0.000000 0.000000 0.035817 0.000000
# 6 0.000000 0.000000 0.000000 0.000000 0.000000 0.078907
#
#
# Mechanical properties :
#
#
# Convention : Reuss Voigt Hill
#
# Bulk Modulus (GPa) = 48.61494 74.58795 61.60145
# Shear Modulus (GPa) = 21.71715 27.25612 24.48663
#
# Velocity S-wave (km/s) = 3.38938 3.79709 3.59901
# Velocity P-wave (km/s) = 6.40574 7.66024 7.06090
#
# Compressibility (1/GPa) = 0.02056981
#
# Stress axis : x y z
#
# Youngs Moduli (GPa) = 87.57572 46.25864 126.11736
#
# Poissons Ratio (x) = 0.06860 0.54867
# Poissons Ratio (y) = 0.12988 0.55041
# Poissons Ratio (z) = 0.38100 0.20189
#
# Static dielectric constant tensor:
#      x y z
#    x 3.728810 0.000000 0.000000 
#    y 0.000000 3.047140 0.000000 
#    z 0.000000 0.000000 3.766800 
# 
# 
# High freq. dielectric constant tensor:
#      x y z
#    x 1.743230 0.000000 0.000000 
#    y 0.000000 1.682330 0.000000 
#    z 0.000000 0.000000 1.739360 
# 
# From -- ./inp_files/32431.got.cif
#   From: 2010.03.12/outbox.cif.g09.slc.cpg/sg59_17_cif.got.tgz:32431.got - 2010.04.16 16:29:54.
