data_PCOD8240179
_publ_section_title
;
Structure prediction by ZEFSAII (Michael W. Deem and Ramdas Pophale) SiO2 
 PCOD8240179
Probable space group: P M M N
;
_chemical_formula_sum "Si O2"
_cell_formula_units_Z 40
_cell_length_a 9.943505
_cell_length_b 10.146547
_cell_length_c 22.277879
_cell_angle_alpha 90.000000
_cell_angle_beta 90.000000
_cell_angle_gamma 90.000000
_cell_volume 2247.665133
_symmetry_space_group_name_H-M "P M M N"
_symmetry_group_IT_number 59
_space_group.IT_coordinate_system_code '2'
_symmetry_cell_setting 'orthorhombic'
loop_
_space_group_symop_operation_xyz
x,y,z
1/2-x,1/2-y,z
1/2+x,-y,-z
-x,1/2+y,-z
-x,-y,-z
1/2+x,1/2+y,-z
1/2-x,y,z
x,1/2-y,z
loop_
_atom_site_type_symbol
_atom_site_label
_atom_site_fract_x
_atom_site_fract_y
_atom_site_fract_z
Si Si1 0.406141 0.250000 0.449913
Si Si2 0.404717 0.596195 0.738623
Si Si3 0.030350 0.597823 0.869147
Si Si4 0.095616 0.488085 0.363827
Si Si5 0.250000 0.097992 0.073932
Si Si6 0.597183 0.250000 0.563374
Si Si7 0.250000 0.592590 0.961400
O O1 0.250000 0.250000 0.468975
O O2 0.444506 0.123186 0.411262
O O3 0.495352 0.250000 0.508770
O O4 0.250000 0.573924 0.720480
O O5 0.443760 0.750000 0.736142
O O6 0.431232 0.535115 0.804942
O O7 0.500009 0.517566 0.693631
O O8 0.066985 0.750000 0.863448
O O9 0.875897 0.570724 0.883393
O O10 0.120436 0.544360 0.923813
O O11 0.250000 0.470800 0.342756
O O12 0.069517 0.625758 0.395215
O O13 0.250000 0.250000 0.049798
O O14 0.250000 0.992085 0.021436
O O15 0.750000 0.250000 0.538426
O O16 0.250000 0.750000 0.976252
#
# Coordination Sequence:
#
# PCOD8240179 Si02
#       7
#     4   8   8   8   4   4   4
#     4  10  20  36  56  86 110 138 185 228 259 303
#     4  10  19  33  55  80 107 136 185 231 269 314
#     4   9  18  32  51  79 105 138 176 219 265 311
#     4  10  21  36  56  83 110 144 180 223 269 312
#     4  10  20  32  52  82 106 136 175 213 268 318
#     4  10  22  38  56  78 116 152 175 210 271 331
#     4  10  18  34  56  74 106 140 173 217 262 316
#
# _framework density 17.796244999999999
#
# number of rings (size 3 to 8) (size 9 to 14) (size 15 to 20)
#    0.000    2.200    2.000    1.200    1.400    1.600 
#    0.000    0.000    4.400    0.000    0.000    0.000 
#    0.000    0.000    0.000    0.000    0.000    0.000 
#
# Total GULP energy -496006.441978 kJ/mol
# GULP energy per Si atom -12400.161049 kJ/mol
# Density = 1.775574 g / cm^3
# Si number density = 17.796245 Si / 1000 Ang^3
#
#
#
# Elastic Constant Matrix: (Units=GPa)
#
#
# Indices 1 2 3 4 5 6 
#
# 1 106.3427 31.3167 57.8949 0.0000 0.0000 0.0000
# 2 31.3167 85.5432 45.4744 0.0000 0.0000 0.0000
# 3 57.8949 45.4744 116.7841 0.0000 0.0000 0.0000
# 4 0.0000 0.0000 0.0000 12.0687 0.0000 0.0000
# 5 0.0000 0.0000 0.0000 0.0000 22.6429 0.0000
# 6 0.0000 0.0000 0.0000 0.0000 0.0000 16.5423
#
#
#
# Elastic Compliance Matrix: (Units=1/GPa)
#
#
# Indices 1 2 3 4 5 6 
#
# 1 0.013071 -0.001690 -0.005821 0.000000 0.000000 0.000000
# 2 -0.001690 0.014960 -0.004987 0.000000 0.000000 0.000000
# 3 -0.005821 -0.004987 0.013391 0.000000 0.000000 0.000000
# 4 0.000000 0.000000 0.000000 0.082859 0.000000 0.000000
# 5 0.000000 0.000000 0.000000 0.000000 0.044164 0.000000
# 6 0.000000 0.000000 0.000000 0.000000 0.000000 0.060451
#
#
# Mechanical properties :
#
#
# Convention : Reuss Voigt Hill
#
# Bulk Modulus (GPa) = 60.88951 64.22689 62.55820
# Shear Modulus (GPa) = 19.27762 21.84972 20.56367
#
# Velocity S-wave (km/s) = 3.29483 3.50776 3.40296
# Velocity P-wave (km/s) = 6.98310 7.25081 7.11821
#
# Compressibility (1/GPa) = 0.01642319
#
# Stress axis : x y z
#
# Youngs Moduli (GPa) = 76.50718 66.84470 74.67847
#
# Poissons Ratio (x) = 0.11299 0.43474
# Poissons Ratio (y) = 0.12933 0.37244
# Poissons Ratio (z) = 0.44538 0.33337
#
# Static dielectric constant tensor:
#      x y z
#    x 3.427830 0.000000 0.000000 
#    y 0.000000 3.117940 0.000000 
#    z 0.000000 0.000000 3.281170 
# 
# 
# High freq. dielectric constant tensor:
#      x y z
#    x 1.702740 0.000000 0.000000 
#    y 0.000000 1.659750 0.000000 
#    z 0.000000 0.000000 1.692180 
# 
# From -- ./inp_files/28795.got.cif
#   From: 2010.03.12/outbox.cif.g09.slc.cpg/sg59_15_cif.got.tgz:28795.got - 2010.04.16 16:29:54.
