data_PCOD8240538
_publ_section_title
;
Structure prediction by ZEFSAII (Michael W. Deem and Ramdas Pophale) SiO2 
 PCOD8240538
Probable space group: P M M N
;
_chemical_formula_sum "Si O2"
_cell_formula_units_Z 40
_cell_length_a 12.703599
_cell_length_b 8.972611
_cell_length_c 21.168843
_cell_angle_alpha 90.000000
_cell_angle_beta 90.000000
_cell_angle_gamma 90.000000
_cell_volume 2412.918972
_symmetry_space_group_name_H-M "P M M N"
_symmetry_group_IT_number 59
_space_group.IT_coordinate_system_code '2'
_symmetry_cell_setting 'orthorhombic'
loop_
_space_group_symop_operation_xyz
x,y,z
1/2-x,1/2-y,z
1/2+x,-y,-z
-x,1/2+y,-z
-x,-y,-z
1/2+x,1/2+y,-z
1/2-x,y,z
x,1/2-y,z
loop_
_atom_site_type_symbol
_atom_site_label
_atom_site_fract_x
_atom_site_fract_y
_atom_site_fract_z
Si Si1 0.250000 0.927122 0.683998
Si Si2 0.634356 0.420192 0.959662
Si Si3 0.584919 0.922796 0.087384
Si Si4 0.635780 0.922226 0.542246
Si Si5 0.582645 0.074755 0.413861
Si Si6 0.250000 0.927004 0.826035
O O1 0.250000 0.750000 0.687484
O O2 0.145723 0.986311 0.647128
O O3 0.250000 0.990873 0.754776
O O4 0.750000 0.442539 0.928011
O O5 0.621265 0.250000 0.984046
O O6 0.541389 0.454532 0.909243
O O7 0.626604 0.529628 0.018919
O O8 0.611381 0.750000 0.097470
O O9 0.643698 0.015607 0.141078
O O10 0.750000 0.951369 0.574597
O O11 0.621449 0.750000 0.524318
O O12 0.541509 0.970417 0.589859
O O13 0.632305 0.011499 0.477415
O O14 0.598338 0.250000 0.416988
O O15 0.250000 0.750000 0.828634
#
# Coordination Sequence:
#
# PCOD8240538 Si02
#       6
#     4   8   8   8   8   4
#     4   9  18  31  47  63  83 121 164 191 212 261
#     4   9  17  30  49  71  96 122 145 181 233 284
#     4  10  19  30  46  71  96 119 153 190 229 275
#     4   9  16  25  41  67  94 113 134 179 234 274
#     4   9  16  28  44  62  86 117 151 180 217 269
#     4  11  21  33  47  63  91 129 164 195 228 265
#
# _framework density 16.577432999999999
#
# number of rings (size 3 to 8) (size 9 to 14) (size 15 to 20)
#    0.000    2.600    2.000    0.900    0.000    0.800 
#    0.000    2.000    0.000    1.200    0.000    2.800 
#    0.000    0.000    0.000    0.000    0.000    0.000 
#
# Total GULP energy -495635.279375 kJ/mol
# GULP energy per Si atom -12390.881984 kJ/mol
# Density = 1.653970 g / cm^3
# Si number density = 16.577433 Si / 1000 Ang^3
#
#
#
# Elastic Constant Matrix: (Units=GPa)
#
#
# Indices 1 2 3 4 5 6 
#
# 1 180.4046 32.0053 67.0428 0.0000 0.0000 0.0000
# 2 32.0053 43.2478 26.5010 0.0000 0.0000 0.0000
# 3 67.0428 26.5010 95.5831 0.0000 0.0000 0.0000
# 4 0.0000 0.0000 0.0000 15.9840 0.0000 0.0000
# 5 0.0000 0.0000 0.0000 0.0000 20.6511 0.0000
# 6 0.0000 0.0000 0.0000 0.0000 0.0000 18.9024
#
#
#
# Elastic Compliance Matrix: (Units=1/GPa)
#
#
# Indices 1 2 3 4 5 6 
#
# 1 0.007790 -0.002911 -0.004657 0.000000 0.000000 0.000000
# 2 -0.002911 0.028943 -0.005983 0.000000 0.000000 0.000000
# 3 -0.004657 -0.005983 0.015387 0.000000 0.000000 0.000000
# 4 0.000000 0.000000 0.000000 0.062562 0.000000 0.000000
# 5 0.000000 0.000000 0.000000 0.000000 0.048424 0.000000
# 6 0.000000 0.000000 0.000000 0.000000 0.000000 0.052903
#
#
# Mechanical properties :
#
#
# Convention : Reuss Voigt Hill
#
# Bulk Modulus (GPa) = 39.97011 63.37041 51.67026
# Shear Modulus (GPa) = 19.88456 24.01992 21.95224
#
# Velocity S-wave (km/s) = 3.46713 3.81064 3.64294
# Velocity P-wave (km/s) = 6.33968 7.59416 6.99510
#
# Compressibility (1/GPa) = 0.02501870
#
# Stress axis : x y z
#
# Youngs Moduli (GPa) = 128.36568 34.55053 64.98905
#
# Poissons Ratio (x) = 0.10059 0.30265
# Poissons Ratio (y) = 0.37374 0.38880
# Poissons Ratio (z) = 0.59779 0.20670
#
# Static dielectric constant tensor:
#      x y z
#    x 3.717410 0.000000 0.000000 
#    y 0.000000 3.023310 0.000000 
#    z 0.000000 0.000000 2.877390 
# 
# 
# High freq. dielectric constant tensor:
#      x y z
#    x 1.664130 0.000000 0.000000 
#    y 0.000000 1.634470 0.000000 
#    z 0.000000 0.000000 1.581630 
# 
# From -- ./inp_files/30190.got.cif
#   From: 2010.03.12/outbox.cif.g09.slc.cpg/sg59_16_cif.got.tgz:30190.got - 2010.04.16 16:29:54.
