data_PCOD8240594
_publ_section_title
;
Structure prediction by ZEFSAII (Michael W. Deem and Ramdas Pophale) SiO2 
 PCOD8240594
Probable space group: P M M N
;
_chemical_formula_sum "Si O2"
_cell_formula_units_Z 64
_cell_length_a 9.042340
_cell_length_b 29.427366
_cell_length_c 12.637929
_cell_angle_alpha 90.000000
_cell_angle_beta 90.000000
_cell_angle_gamma 90.000000
_cell_volume 3362.854946
_symmetry_space_group_name_H-M "P M M N"
_symmetry_group_IT_number 59
_space_group.IT_coordinate_system_code '2'
_symmetry_cell_setting 'orthorhombic'
loop_
_space_group_symop_operation_xyz
x,y,z
1/2-x,1/2-y,z
1/2+x,-y,-z
-x,1/2+y,-z
-x,-y,-z
1/2+x,1/2+y,-z
1/2-x,y,z
x,1/2-y,z
loop_
_atom_site_type_symbol
_atom_site_label
_atom_site_fract_x
_atom_site_fract_y
_atom_site_fract_z
Si Si1 0.919512 0.820669 0.838625
Si Si2 0.925508 0.442935 0.669246
Si Si3 0.423051 0.700203 0.625594
Si Si4 0.574447 0.035507 0.285855
Si Si5 0.079019 0.422318 0.096078
Si Si6 0.918543 0.200954 0.954923
Si Si7 0.924751 0.107085 0.461442
Si Si8 0.577598 0.396164 0.886339
O O1 0.750000 0.807515 0.824997
O O2 0.943633 0.874368 0.847041
O O3 0.005792 0.800892 0.740175
O O4 0.978521 0.796757 0.943266
O O5 0.750000 0.451462 0.663695
O O6 0.985646 0.413056 0.571193
O O7 0.972380 0.416629 0.775163
O O8 0.010413 0.490238 0.662050
O O9 0.250000 0.693001 0.642421
O O10 0.456157 0.750000 0.573956
O O11 0.485135 0.658852 0.553221
O O12 0.750000 0.032223 0.275669
O O13 0.504955 0.041163 0.169033
O O14 0.524093 0.076756 0.361891
O O15 0.250000 0.436263 0.086745
O O16 0.010739 0.421760 0.978872
O O17 0.750000 0.194676 0.993341
O O18 0.937413 0.250000 0.895127
O O19 0.961483 0.157878 0.881772
O O20 0.750000 0.107227 0.468418
O O21 0.750000 0.404262 0.907744
#
# Coordination Sequence:
#
# PCOD8240594 Si02
#       8
#     8   8   8   8   8   8   8   8
#     4  10  19  30  47  75 109 139 169 211 260 310
#     4  10  21  38  57  77 105 140 180 224 266 312
#     4  10  19  32  52  77 107 143 177 209 256 317
#     4  11  21  35  58  83 107 137 175 220 270 323
#     4  10  20  34  54  80 110 141 172 213 264 316
#     4   9  17  30  49  73 101 136 177 214 254 310
#     4   9  19  36  56  79 108 140 176 220 264 309
#     4   9  19  35  54  76 106 143 177 216 266 314
#
# _framework density 19.031448000000001
#
# number of rings (size 3 to 8) (size 9 to 14) (size 15 to 20)
#    0.000    2.250    1.250    1.875    0.000    4.000 
#    0.000    1.875    0.000    3.750    0.000    0.000 
#    0.000    3.000    0.000    0.000    0.000    0.000 
#
# Total GULP energy -793435.974893 kJ/mol
# GULP energy per Si atom -12397.437108 kJ/mol
# Density = 1.898813 g / cm^3
# Si number density = 19.031448 Si / 1000 Ang^3
#
#
#
# Elastic Constant Matrix: (Units=GPa)
#
#
# Indices 1 2 3 4 5 6 
#
# 1 50.3667 37.4351 34.7144 0.0000 0.0000 0.0000
# 2 37.4351 124.2182 51.9402 0.0000 0.0000 0.0000
# 3 34.7144 51.9402 101.7049 0.0000 0.0000 0.0000
# 4 0.0000 0.0000 0.0000 14.3487 0.0000 0.0000
# 5 0.0000 0.0000 0.0000 0.0000 14.0459 0.0000
# 6 0.0000 0.0000 0.0000 0.0000 0.0000 23.5611
#
#
#
# Elastic Compliance Matrix: (Units=1/GPa)
#
#
# Indices 1 2 3 4 5 6 
#
# 1 0.028950 -0.005840 -0.006899 0.000000 0.000000 0.000000
# 2 -0.005840 0.011414 -0.003836 0.000000 0.000000 0.000000
# 3 -0.006899 -0.003836 0.014146 0.000000 0.000000 0.000000
# 4 0.000000 0.000000 0.000000 0.069693 0.000000 0.000000
# 5 0.000000 0.000000 0.000000 0.000000 0.071195 0.000000
# 6 0.000000 0.000000 0.000000 0.000000 0.000000 0.042443
#
#
# Mechanical properties :
#
#
# Convention : Reuss Voigt Hill
#
# Bulk Modulus (GPa) = 46.81457 58.27434 52.54446
# Shear Modulus (GPa) = 17.97848 20.53781 19.25815
#
# Velocity S-wave (km/s) = 3.07689 3.28861 3.18451
# Velocity P-wave (km/s) = 6.10532 6.71613 6.41800
#
# Compressibility (1/GPa) = 0.02136087
#
# Stress axis : x y z
#
# Youngs Moduli (GPa) = 34.54256 87.61023 70.69075
#
# Poissons Ratio (x) = 0.51162 0.48769
# Poissons Ratio (y) = 0.20172 0.27116
# Poissons Ratio (z) = 0.23831 0.33607
#
# Static dielectric constant tensor:
#      x y z
#    x 3.328110 0.000000 0.000000 
#    y 0.000000 3.836920 0.000000 
#    z 0.000000 0.000000 3.387850 
# 
# 
# High freq. dielectric constant tensor:
#      x y z
#    x 1.724760 0.000000 0.000000 
#    y 0.000000 1.754820 0.000000 
#    z 0.000000 0.000000 1.717590 
# 
# From -- ./inp_files/15022.got.cif
#   From: 2010.03.12/outbox.cif.g09.slc.cpg/sg59_8_cif.got.tgz:15022.got - 2010.04.16 16:29:54.
