data_PCOD8240400
_publ_section_title
;
Structure prediction by ZEFSAII (Michael W. Deem and Ramdas Pophale) SiO2 
 PCOD8240400
Probable space group: P M M N
;
_chemical_formula_sum "Si O2"
_cell_formula_units_Z 56
_cell_length_a 18.117746
_cell_length_b 8.974246
_cell_length_c 19.081285
_cell_angle_alpha 90.000000
_cell_angle_beta 90.000000
_cell_angle_gamma 90.000000
_cell_volume 3102.485463
_symmetry_space_group_name_H-M "P M M N"
_symmetry_group_IT_number 59
_space_group.IT_coordinate_system_code '2'
_symmetry_cell_setting 'orthorhombic'
loop_
_space_group_symop_operation_xyz
x,y,z
1/2-x,1/2-y,z
1/2+x,-y,-z
-x,1/2+y,-z
-x,-y,-z
1/2+x,1/2+y,-z
1/2-x,y,z
x,1/2-y,z
loop_
_atom_site_type_symbol
_atom_site_label
_atom_site_fract_x
_atom_site_fract_y
_atom_site_fract_z
Si Si1 0.613823 0.417793 0.270330
Si Si2 0.469484 0.928442 0.930037
Si Si3 0.065447 0.922485 0.583765
Si Si4 0.912058 0.422774 0.571936
Si Si5 0.666857 0.925625 0.692890
Si Si6 0.165835 0.422262 0.861362
Si Si7 0.956284 0.918586 0.792431
O O1 0.641723 0.250000 0.254509
O O2 0.622981 0.458694 0.352803
O O3 0.658471 0.528105 0.219912
O O4 0.526541 0.429957 0.257662
O O5 0.468110 0.750000 0.934984
O O6 0.523442 0.988608 0.868098
O O7 0.386476 0.982741 0.912861
O O8 0.500000 0.000000 0.000000
O O9 0.040359 0.750000 0.588130
O O10 0.105428 0.955460 0.509919
O O11 0.993447 0.023038 0.591790
O O12 0.907299 0.250000 0.589655
O O13 0.850447 0.505958 0.617204
O O14 0.750000 0.965914 0.714508
O O15 0.654136 0.750000 0.686617
O O16 0.612929 0.995728 0.752890
O O17 0.250000 0.447414 0.885687
O O18 0.143314 0.250000 0.866808
O O19 0.933446 0.750000 0.807426
#
# Coordination Sequence:
#
# PCOD8240400 Si02
#       7
#     8   8   8   8   8   8   8
#     4   9  16  30  53  74  98 133 173 219 260 308
#     4  10  20  36  59  84 111 143 176 214 258 311
#     4   9  17  31  49  70  98 132 172 216 264 320
#     4  10  19  29  46  72 100 131 170 222 273 312
#     4  10  19  33  52  70  96 138 180 218 262 313
#     4  10  21  36  54  80 113 143 173 216 267 317
#     4   8  15  30  51  74  98 128 170 212 248 298
#
# _framework density 18.050045000000001
#
# number of rings (size 3 to 8) (size 9 to 14) (size 15 to 20)
#    0.000    2.571    1.429    2.143    0.000    2.571 
#    0.000    2.143    0.000    6.857    0.000    0.000 
#    0.000    0.000    0.000    0.000    0.000    0.000 
#
# Total GULP energy -694114.509090 kJ/mol
# GULP energy per Si atom -12394.901948 kJ/mol
# Density = 1.800896 g / cm^3
# Si number density = 18.050045 Si / 1000 Ang^3
#
#
#
# Elastic Constant Matrix: (Units=GPa)
#
#
# Indices 1 2 3 4 5 6 
#
# 1 85.6748 38.6489 48.9459 0.0000 0.0000 0.0000
# 2 38.6489 65.2905 40.7963 0.0000 0.0000 0.0000
# 3 48.9459 40.7963 130.8448 0.0000 0.0000 0.0000
# 4 0.0000 0.0000 0.0000 29.1672 0.0000 0.0000
# 5 0.0000 0.0000 0.0000 0.0000 21.4620 0.0000
# 6 0.0000 0.0000 0.0000 0.0000 0.0000 22.9453
#
#
#
# Elastic Compliance Matrix: (Units=1/GPa)
#
#
# Indices 1 2 3 4 5 6 
#
# 1 0.017556 -0.007810 -0.004132 0.000000 0.000000 0.000000
# 2 -0.007810 0.022497 -0.004093 0.000000 0.000000 0.000000
# 3 -0.004132 -0.004093 0.010464 0.000000 0.000000 0.000000
# 4 0.000000 0.000000 0.000000 0.034285 0.000000 0.000000
# 5 0.000000 0.000000 0.000000 0.000000 0.046594 0.000000
# 6 0.000000 0.000000 0.000000 0.000000 0.000000 0.043582
#
#
# Mechanical properties :
#
#
# Convention : Reuss Voigt Hill
#
# Bulk Modulus (GPa) = 54.20937 59.84358 57.02648
# Shear Modulus (GPa) = 23.45243 24.94284 24.19763
#
# Velocity S-wave (km/s) = 3.60849 3.72139 3.66537
# Velocity P-wave (km/s) = 6.88909 7.18966 7.04098
#
# Compressibility (1/GPa) = 0.01844699
#
# Stress axis : x y z
#
# Youngs Moduli (GPa) = 56.96037 44.45075 95.56218
#
# Poissons Ratio (x) = 0.34718 0.39487
# Poissons Ratio (y) = 0.44489 0.39110
# Poissons Ratio (z) = 0.23536 0.18192
#
# Static dielectric constant tensor:
#      x y z
#    x 3.154040 0.000000 0.000000 
#    y 0.000000 3.240900 0.000000 
#    z 0.000000 0.000000 3.543490 
# 
# 
# High freq. dielectric constant tensor:
#      x y z
#    x 1.674020 0.000000 0.000000 
#    y 0.000000 1.686430 0.000000 
#    z 0.000000 0.000000 1.702820 
# 
# From -- ./inp_files/30598.got.cif
#   From: 2010.03.12/outbox.cif.g09.slc.cpg/sg59_16_cif.got.tgz:30598.got - 2010.04.16 16:29:54.
