data_PCOD8240306
_publ_section_title
;
Structure prediction by ZEFSAII (Michael W. Deem and Ramdas Pophale) SiO2 
 PCOD8240306
Probable space group: P M M N
;
_chemical_formula_sum "Si O2"
_cell_formula_units_Z 64
_cell_length_a 9.302880
_cell_length_b 13.797853
_cell_length_c 31.787457
_cell_angle_alpha 90.000000
_cell_angle_beta 90.000000
_cell_angle_gamma 90.000000
_cell_volume 4080.230692
_symmetry_space_group_name_H-M "P M M N"
_symmetry_group_IT_number 59
_space_group.IT_coordinate_system_code '2'
_symmetry_cell_setting 'orthorhombic'
loop_
_space_group_symop_operation_xyz
x,y,z
1/2-x,1/2-y,z
1/2+x,-y,-z
-x,1/2+y,-z
-x,-y,-z
1/2+x,1/2+y,-z
1/2-x,y,z
x,1/2-y,z
loop_
_atom_site_type_symbol
_atom_site_label
_atom_site_fract_x
_atom_site_fract_y
_atom_site_fract_z
Si Si1 0.413057 0.635532 0.978440
Si Si2 0.419267 0.364266 0.363401
Si Si3 0.916008 0.459335 0.106958
Si Si4 0.084482 0.357694 0.941550
Si Si5 0.917412 0.862002 0.727819
Si Si6 0.917988 0.029298 0.436803
Si Si7 0.420751 0.137919 0.181369
Si Si8 0.583280 0.138013 0.522243
O O1 0.250000 0.599390 0.984351
O O2 0.425224 0.750000 0.976572
O O3 0.473994 0.595460 0.934483
O O4 0.503236 0.596895 0.018196
O O5 0.250000 0.384619 0.369709
O O6 0.449960 0.250000 0.368817
O O7 0.475017 0.401955 0.317080
O O8 0.510553 0.425084 0.396047
O O9 0.750000 0.433040 0.115489
O O10 0.938465 0.574221 0.099070
O O11 0.007888 0.429645 0.146880
O O12 0.250000 0.354869 0.954657
O O13 0.027577 0.250000 0.930088
O O14 0.750000 0.880494 0.727133
O O15 0.953175 0.750000 0.728721
O O16 0.976155 0.902524 0.772654
O O17 0.750000 0.013867 0.428756
O O18 0.947677 0.102845 0.474964
O O19 0.988292 0.924568 0.445601
O O20 0.250000 0.128548 0.178031
O O21 0.466495 0.250000 0.174729
O O22 0.750000 0.123453 0.533775
O O23 0.537132 0.250000 0.525962
#
# Coordination Sequence:
#
# PCOD8240306 Si02
#       8
#     8   8   8   8   8   8   8   8
#     4   9  17  28  41  58  81 107 133 164 204 246
#     4   9  16  27  45  66  88 117 149 177 210 257
#     4  10  19  29  42  61  85 111 136 166 207 250
#     4   9  18  31  44  58  78 106 141 176 204 234
#     4   7  12  25  43  62  85 112 140 170 205 246
#     4  10  19  29  43  66  93 117 146 187 228 262
#     4   9  17  29  45  65  88 112 138 168 202 245
#     4   9  18  32  46  60  85 122 158 188 219 258
#
# _framework density 15.685387
#
# number of rings (size 3 to 8) (size 9 to 14) (size 15 to 20)
#    0.000    3.000    0.000    3.000    0.000    3.250 
#    0.000    1.875    0.000    2.250    0.000    0.875 
#    0.000    5.000    0.000    0.000    0.000    0.000 
#
# Total GULP energy -793011.487126 kJ/mol
# GULP energy per Si atom -12390.804486 kJ/mol
# Density = 1.564969 g / cm^3
# Si number density = 15.685387 Si / 1000 Ang^3
#
#
#
# Elastic Constant Matrix: (Units=GPa)
#
#
# Indices 1 2 3 4 5 6 
#
# 1 53.8655 35.9711 54.8905 0.0000 0.0000 0.0000
# 2 35.9711 73.4183 57.5135 0.0000 0.0000 0.0000
# 3 54.8905 57.5135 139.8207 0.0000 0.0000 0.0000
# 4 0.0000 0.0000 0.0000 22.8981 0.0000 0.0000
# 5 0.0000 0.0000 0.0000 0.0000 24.9391 0.0000
# 6 0.0000 0.0000 0.0000 0.0000 0.0000 20.0313
#
#
#
# Elastic Compliance Matrix: (Units=1/GPa)
#
#
# Indices 1 2 3 4 5 6 
#
# 1 0.034828 -0.009374 -0.009817 0.000000 0.000000 0.000000
# 2 -0.009374 0.022619 -0.005624 0.000000 0.000000 0.000000
# 3 -0.009817 -0.005624 0.013319 0.000000 0.000000 0.000000
# 4 0.000000 0.000000 0.000000 0.043672 0.000000 0.000000
# 5 0.000000 0.000000 0.000000 0.000000 0.040098 0.000000
# 6 0.000000 0.000000 0.000000 0.000000 0.000000 0.049922
#
#
# Mechanical properties :
#
#
# Convention : Reuss Voigt Hill
#
# Bulk Modulus (GPa) = 47.31056 62.65049 54.98053
# Shear Modulus (GPa) = 19.14731 21.48900 20.31815
#
# Velocity S-wave (km/s) = 3.49766 3.70537 3.60301
# Velocity P-wave (km/s) = 6.82196 7.63774 7.24134
#
# Compressibility (1/GPa) = 0.02113693
#
# Stress axis : x y z
#
# Youngs Moduli (GPa) = 28.71223 44.21071 75.07841
#
# Poissons Ratio (x) = 0.41442 0.73705
# Poissons Ratio (y) = 0.26914 0.42225
# Poissons Ratio (z) = 0.28187 0.24865
#
# Static dielectric constant tensor:
#      x y z
#    x 2.893340 0.000000 0.000000 
#    y 0.000000 2.930790 0.000000 
#    z 0.000000 0.000000 3.165270 
# 
# 
# High freq. dielectric constant tensor:
#      x y z
#    x 1.589910 0.000000 0.000000 
#    y 0.000000 1.581820 0.000000 
#    z 0.000000 0.000000 1.599090 
# 
# From -- ./inp_files/33222.got.cif
#   From: 2010.03.12/outbox.cif.g09.slc.cpg/sg59_17_cif.got.tgz:33222.got - 2010.04.16 16:29:54.
