data_PCOD8240686
_publ_section_title
;
Structure prediction by ZEFSAII (Michael W. Deem and Ramdas Pophale) SiO2 
 PCOD8240686
Probable space group: P M M N
;
_chemical_formula_sum "Si O2"
_cell_formula_units_Z 48
_cell_length_a 18.888361
_cell_length_b 12.776268
_cell_length_c 11.910843
_cell_angle_alpha 90.000000
_cell_angle_beta 90.000000
_cell_angle_gamma 90.000000
_cell_volume 2874.357533
_symmetry_space_group_name_H-M "P M M N"
_symmetry_group_IT_number 59
_space_group.IT_coordinate_system_code '2'
_symmetry_cell_setting 'orthorhombic'
loop_
_space_group_symop_operation_xyz
x,y,z
1/2-x,1/2-y,z
1/2+x,-y,-z
-x,1/2+y,-z
-x,-y,-z
1/2+x,1/2+y,-z
1/2-x,y,z
x,1/2-y,z
loop_
_atom_site_type_symbol
_atom_site_label
_atom_site_fract_x
_atom_site_fract_y
_atom_site_fract_z
Si Si1 0.831851 0.631949 0.564514
Si Si2 0.333331 0.634601 0.039502
Si Si3 0.418746 0.993971 0.607577
Si Si4 0.331664 0.956962 0.267806
Si Si5 0.045281 0.632018 0.400477
Si Si6 0.167267 0.871763 0.790998
O O1 0.750000 0.630596 0.530608
O O2 0.860279 0.750000 0.578270
O O3 0.872943 0.574462 0.465637
O O4 0.843622 0.574058 0.684534
O O5 0.250000 0.644349 0.027413
O O6 0.363607 0.750000 0.071629
O O7 0.353743 0.550630 0.136177
O O8 0.360912 0.600376 0.916569
O O9 0.486601 0.056410 0.656313
O O10 0.445644 0.898404 0.530956
O O11 0.374387 0.948296 0.709299
O O12 0.250000 0.921584 0.283671
O O13 0.379664 0.877041 0.337896
O O14 0.017979 0.750000 0.393617
O O15 0.250000 0.895988 0.776374
O O16 0.152061 0.750000 0.763893
#
# Coordination Sequence:
#
# PCOD8240686 Si02
#       6
#     8   8   8   8   8   8
#     4   9  17  29  46  66  88 119 156 192 231 274
#     4   8  14  26  46  71  96 120 146 183 233 280
#     4  10  19  31  45  65  94 125 155 188 228 278
#     4   9  17  30  49  71  91 115 153 196 235 276
#     4  10  20  31  45  66  92 123 154 190 236 277
#     4   9  17  30  50  74  97 122 153 189 228 270
#
# _framework density 16.699383999999998
#
# number of rings (size 3 to 8) (size 9 to 14) (size 15 to 20)
#    0.000    2.833    0.000    3.000    0.000    1.667 
#    0.000    1.667    0.000    2.000    0.000    7.000 
#    0.000    0.000    0.000    0.000    0.000    0.000 
#
# Total GULP energy -594902.104339 kJ/mol
# GULP energy per Si atom -12393.793840 kJ/mol
# Density = 1.666138 g / cm^3
# Si number density = 16.699384 Si / 1000 Ang^3
#
#
#
# Elastic Constant Matrix: (Units=GPa)
#
#
# Indices 1 2 3 4 5 6 
#
# 1 64.7813 42.5320 43.7354 0.0000 0.0000 0.0000
# 2 42.5320 103.5444 67.5487 0.0000 0.0000 0.0000
# 3 43.7354 67.5487 117.5536 0.0000 0.0000 0.0000
# 4 0.0000 0.0000 0.0000 21.9665 0.0000 0.0000
# 5 0.0000 0.0000 0.0000 0.0000 12.5442 0.0000
# 6 0.0000 0.0000 0.0000 0.0000 0.0000 19.2981
#
#
#
# Elastic Compliance Matrix: (Units=1/GPa)
#
#
# Indices 1 2 3 4 5 6 
#
# 1 0.022814 -0.006133 -0.004964 0.000000 0.000000 0.000000
# 2 -0.006133 0.017098 -0.007543 0.000000 0.000000 0.000000
# 3 -0.004964 -0.007543 0.014688 0.000000 0.000000 0.000000
# 4 0.000000 0.000000 0.000000 0.045524 0.000000 0.000000
# 5 0.000000 0.000000 0.000000 0.000000 0.079718 0.000000
# 6 0.000000 0.000000 0.000000 0.000000 0.000000 0.051819
#
#
# Mechanical properties :
#
#
# Convention : Reuss Voigt Hill
#
# Bulk Modulus (GPa) = 57.73558 65.94572 61.84065
# Shear Modulus (GPa) = 18.20079 19.56597 18.88338
#
# Velocity S-wave (km/s) = 3.30496 3.42666 3.36636
# Velocity P-wave (km/s) = 7.01514 7.43180 7.22647
#
# Compressibility (1/GPa) = 0.01732034
#
# Stress axis : x y z
#
# Youngs Moduli (GPa) = 43.83194 58.48774 68.08361
#
# Poissons Ratio (x) = 0.35871 0.33796
# Poissons Ratio (y) = 0.26882 0.51354
# Poissons Ratio (z) = 0.21758 0.44116
#
# Static dielectric constant tensor:
#      x y z
#    x 3.076020 0.000000 0.000000 
#    y 0.000000 3.102290 0.000000 
#    z 0.000000 0.000000 3.194210 
# 
# 
# High freq. dielectric constant tensor:
#      x y z
#    x 1.633300 0.000000 0.000000 
#    y 0.000000 1.633880 0.000000 
#    z 0.000000 0.000000 1.633070 
# 
# From -- ./inp_files/15777.got.cif
#   From: 2010.03.12/outbox.cif.g09.slc.cpg/sg59_8_cif.got.tgz:15777.got - 2010.04.16 16:29:54.
