data_PCOD8240913
_publ_section_title
;
Structure prediction by ZEFSAII (Michael W. Deem and Ramdas Pophale) SiO2 
 PCOD8240913
Probable space group: P M M N
;
_chemical_formula_sum "Si O2"
_cell_formula_units_Z 64
_cell_length_a 30.252529
_cell_length_b 8.729168
_cell_length_c 14.381049
_cell_angle_alpha 90.000000
_cell_angle_beta 90.000000
_cell_angle_gamma 90.000000
_cell_volume 3797.738907
_symmetry_space_group_name_H-M "P M M N"
_symmetry_group_IT_number 59
_space_group.IT_coordinate_system_code '2'
_symmetry_cell_setting 'orthorhombic'
loop_
_space_group_symop_operation_xyz
x,y,z
1/2-x,1/2-y,z
1/2+x,-y,-z
-x,1/2+y,-z
-x,-y,-z
1/2+x,1/2+y,-z
1/2-x,y,z
x,1/2-y,z
loop_
_atom_site_type_symbol
_atom_site_label
_atom_site_fract_x
_atom_site_fract_y
_atom_site_fract_z
Si Si1 0.538025 0.927272 0.563828
Si Si2 0.618342 0.075987 0.068042
Si Si3 0.610107 0.573461 0.419410
Si Si4 0.934574 0.422840 0.250063
Si Si5 0.024983 0.928908 0.238578
Si Si6 0.699636 0.572805 0.142170
Si Si7 0.043076 0.430021 0.049206
Si Si8 0.702208 0.569103 0.351898
O O1 0.525901 0.750000 0.575935
O O2 0.586779 0.947945 0.518907
O O3 0.500000 0.000000 0.500000
O O4 0.541406 0.005923 0.663445
O O5 0.615825 0.250000 0.031583
O O6 0.603241 0.061204 0.174290
O O7 0.668829 0.017749 0.068949
O O8 0.587778 0.970777 0.004356
O O9 0.606150 0.750000 0.385788
O O10 0.584495 0.463954 0.349735
O O11 0.661941 0.522543 0.421038
O O12 0.953659 0.250000 0.253405
O O13 0.973240 0.539855 0.224349
O O14 0.034566 0.750000 0.235813
O O15 0.050309 0.008621 0.153539
O O16 0.750000 0.547460 0.110026
O O17 0.686191 0.750000 0.138005
O O18 0.693011 0.508848 0.247300
O O19 0.035802 0.250000 0.051321
O O20 0.000000 0.500000 0.000000
O O21 0.750000 0.503826 0.387670
O O22 0.706315 0.750000 0.345878
#
# Coordination Sequence:
#
# PCOD8240913 Si02
#       8
#     8   8   8   8   8   8   8   8
#     4  11  22  34  50  75 104 136 176 216 255 306
#     4  11  22  34  50  76 107 142 177 211 257 312
#     4  10  19  31  50  73 100 136 176 211 254 303
#     4  11  21  31  48  72 104 138 173 214 253 299
#     4  12  24  38  54  72 100 138 176 218 262 306
#     4   9  17  30  50  75 104 139 177 216 258 305
#     4  12  24  38  56  77 103 135 173 217 260 313
#     4   8  14  26  46  72 100 130 167 209 250 296
#
# _framework density 16.852132000000001
#
# number of rings (size 3 to 8) (size 9 to 14) (size 15 to 20)
#    0.000    1.500    3.750    4.125    0.000    1.750 
#    0.000    0.000    0.000    0.375    0.000    0.875 
#    0.000    5.000    0.000    0.000    0.000    0.000 
#
# Total GULP energy -793452.846141 kJ/mol
# GULP energy per Si atom -12397.700721 kJ/mol
# Density = 1.681378 g / cm^3
# Si number density = 16.852132 Si / 1000 Ang^3
#
#
#
# Elastic Constant Matrix: (Units=GPa)
#
#
# Indices 1 2 3 4 5 6 
#
# 1 111.0296 34.0436 39.4116 0.0000 0.0000 0.0000
# 2 34.0436 102.6486 45.7761 0.0000 0.0000 0.0000
# 3 39.4116 45.7761 90.0047 0.0000 0.0000 0.0000
# 4 0.0000 0.0000 0.0000 24.9037 0.0000 0.0000
# 5 0.0000 0.0000 0.0000 0.0000 24.2335 0.0000
# 6 0.0000 0.0000 0.0000 0.0000 0.0000 21.5760
#
#
#
# Elastic Compliance Matrix: (Units=1/GPa)
#
#
# Indices 1 2 3 4 5 6 
#
# 1 0.010953 -0.001932 -0.003813 0.000000 0.000000 0.000000
# 2 -0.001932 0.012940 -0.005736 0.000000 0.000000 0.000000
# 3 -0.003813 -0.005736 0.015697 0.000000 0.000000 0.000000
# 4 0.000000 0.000000 0.000000 0.040155 0.000000 0.000000
# 5 0.000000 0.000000 0.000000 0.000000 0.041265 0.000000
# 6 0.000000 0.000000 0.000000 0.000000 0.000000 0.046348
#
#
# Mechanical properties :
#
#
# Convention : Reuss Voigt Hill
#
# Bulk Modulus (GPa) = 60.13652 60.23840 60.18746
# Shear Modulus (GPa) = 25.52808 26.43941 25.98374
#
# Velocity S-wave (km/s) = 3.89630 3.96524 3.93092
# Velocity P-wave (km/s) = 7.48357 7.53572 7.50969
#
# Compressibility (1/GPa) = 0.01662883
#
# Stress axis : x y z
#
# Youngs Moduli (GPa) = 91.30275 77.27714 63.70467
#
# Poissons Ratio (x) = 0.14929 0.24293
# Poissons Ratio (y) = 0.17638 0.36538
# Poissons Ratio (z) = 0.34818 0.44323
#
# Static dielectric constant tensor:
#      x y z
#    x 3.531860 0.000000 0.000000 
#    y 0.000000 3.167460 0.000000 
#    z 0.000000 0.000000 3.058170 
# 
# 
# High freq. dielectric constant tensor:
#      x y z
#    x 1.644110 0.000000 0.000000 
#    y 0.000000 1.651760 0.000000 
#    z 0.000000 0.000000 1.622030 
# 
# From -- ./inp_files/21967.got.cif
#   From: 2010.03.12/outbox.cif.g09.slc.cpg/sg59_11_cif.got.tgz:21967.got - 2010.04.16 16:29:54.
