data_PCOD8240975
_publ_section_title
;
Structure prediction by ZEFSAII (Michael W. Deem and Ramdas Pophale) SiO2 
 PCOD8240975
Probable space group: P M M N
;
_chemical_formula_sum "Si O2"
_cell_formula_units_Z 64
_cell_length_a 9.343058
_cell_length_b 27.566509
_cell_length_c 13.881674
_cell_angle_alpha 90.000000
_cell_angle_beta 90.000000
_cell_angle_gamma 90.000000
_cell_volume 3575.301383
_symmetry_space_group_name_H-M "P M M N"
_symmetry_group_IT_number 59
_space_group.IT_coordinate_system_code '2'
_symmetry_cell_setting 'orthorhombic'
loop_
_space_group_symop_operation_xyz
x,y,z
1/2-x,1/2-y,z
1/2+x,-y,-z
-x,1/2+y,-z
-x,-y,-z
1/2+x,1/2+y,-z
1/2-x,y,z
x,1/2-y,z
loop_
_atom_site_type_symbol
_atom_site_label
_atom_site_fract_x
_atom_site_fract_y
_atom_site_fract_z
Si Si1 0.419681 0.020862 0.703537
Si Si2 0.089259 0.692422 0.119104
Si Si3 0.913948 0.077084 0.385892
Si Si4 0.915476 0.893088 0.430103
Si Si5 0.582974 0.806572 0.933774
Si Si6 0.917434 0.484449 0.095019
Si Si7 0.585795 0.694841 0.301735
Si Si8 0.087788 0.619721 0.820197
O O1 0.250000 0.015253 0.708495
O O2 0.471077 0.070517 0.653767
O O3 0.477316 0.976118 0.638856
O O4 0.473910 0.016902 0.814235
O O5 0.250000 0.671068 0.114490
O O6 0.091808 0.750000 0.118793
O O7 0.012372 0.674445 0.215956
O O8 0.998707 0.673964 0.028339
O O9 0.750000 0.073499 0.419164
O O10 0.930076 0.110966 0.293030
O O11 0.001533 0.100784 0.471565
O O12 0.750000 0.903892 0.450359
O O13 0.941281 0.838201 0.394957
O O14 0.750000 0.816903 0.947338
O O15 0.553362 0.750000 0.914200
O O16 0.521305 0.837121 0.844995
O O17 0.750000 0.492974 0.077114
O O18 0.949576 0.428405 0.119154
O O19 0.000000 0.500000 0.000000
O O20 0.750000 0.691106 0.266774
O O21 0.546271 0.750000 0.329923
O O22 0.250000 0.636104 0.843331
#
# Coordination Sequence:
#
# PCOD8240975 Si02
#       8
#     8   8   8   8   8   8   8   8
#     4   8  16  32  51  71  97 127 158 196 244 294
#     4   9  17  30  49  71  96 128 163 200 242 286
#     4   9  18  34  53  71  95 125 157 202 255 296
#     4  10  19  31  51  75  96 125 165 204 245 293
#     4  10  20  33  51  76 102 129 166 210 251 294
#     4   9  18  33  51  73 103 135 166 201 245 298
#     4   9  18  32  47  67 100 136 165 196 237 286
#     4   9  19  35  52  70  98 136 170 203 249 301
#
# _framework density 17.900589
#
# number of rings (size 3 to 8) (size 9 to 14) (size 15 to 20)
#    0.000    2.875    0.000    2.625    0.000    4.750 
#    0.000    4.375    0.000    2.250    0.000    0.000 
#    0.000    0.000    0.000    0.000    0.000    0.000 
#
# Total GULP energy -793491.616519 kJ/mol
# GULP energy per Si atom -12398.306508 kJ/mol
# Density = 1.785985 g / cm^3
# Si number density = 17.900589 Si / 1000 Ang^3
#
#
#
# Elastic Constant Matrix: (Units=GPa)
#
#
# Indices 1 2 3 4 5 6 
#
# 1 84.7386 46.3195 59.4888 0.0000 0.0000 0.0000
# 2 46.3195 80.2106 58.5350 0.0000 0.0000 0.0000
# 3 59.4888 58.5350 122.1107 0.0000 0.0000 0.0000
# 4 0.0000 0.0000 0.0000 25.1488 0.0000 0.0000
# 5 0.0000 0.0000 0.0000 0.0000 37.4419 0.0000
# 6 0.0000 0.0000 0.0000 0.0000 0.0000 22.8161
#
#
#
# Elastic Compliance Matrix: (Units=1/GPa)
#
#
# Indices 1 2 3 4 5 6 
#
# 1 0.020129 -0.006871 -0.006512 0.000000 0.000000 0.000000
# 2 -0.006871 0.021521 -0.006969 0.000000 0.000000 0.000000
# 3 -0.006512 -0.006969 0.014702 0.000000 0.000000 0.000000
# 4 0.000000 0.000000 0.000000 0.039763 0.000000 0.000000
# 5 0.000000 0.000000 0.000000 0.000000 0.026708 0.000000
# 6 0.000000 0.000000 0.000000 0.000000 0.000000 0.043829
#
#
# Mechanical properties :
#
#
# Convention : Reuss Voigt Hill
#
# Bulk Modulus (GPa) = 63.90901 68.41628 66.16264
# Shear Modulus (GPa) = 23.52140 25.26247 24.39193
#
# Velocity S-wave (km/s) = 3.62885 3.76076 3.69539
# Velocity P-wave (km/s) = 7.30327 7.56048 7.43299
#
# Compressibility (1/GPa) = 0.01564725
#
# Stress axis : x y z
#
# Youngs Moduli (GPa) = 49.67996 46.46688 68.01626
#
# Poissons Ratio (x) = 0.31929 0.44294
# Poissons Ratio (y) = 0.34137 0.47398
# Poissons Ratio (z) = 0.32353 0.32381
#
# Static dielectric constant tensor:
#      x y z
#    x 3.225550 0.000000 0.000000 
#    y 0.000000 3.229340 0.000000 
#    z 0.000000 0.000000 3.235890 
# 
# 
# High freq. dielectric constant tensor:
#      x y z
#    x 1.680570 0.000000 0.000000 
#    y 0.000000 1.682420 0.000000 
#    z 0.000000 0.000000 1.690700 
# 
# From -- ./inp_files/15080.got.cif
#   From: 2010.03.12/outbox.cif.g09.slc.cpg/sg59_8_cif.got.tgz:15080.got - 2010.04.16 16:29:54.
