data_PCOD8240961
_publ_section_title
;
Structure prediction by ZEFSAII (Michael W. Deem and Ramdas Pophale) SiO2 
 PCOD8240961
Probable space group: P M M N
;
_chemical_formula_sum "Si O2"
_cell_formula_units_Z 64
_cell_length_a 8.794012
_cell_length_b 19.766289
_cell_length_c 19.003003
_cell_angle_alpha 90.000000
_cell_angle_beta 90.000000
_cell_angle_gamma 90.000000
_cell_volume 3303.196667
_symmetry_space_group_name_H-M "P M M N"
_symmetry_group_IT_number 59
_space_group.IT_coordinate_system_code '2'
_symmetry_cell_setting 'orthorhombic'
loop_
_space_group_symop_operation_xyz
x,y,z
1/2-x,1/2-y,z
1/2+x,-y,-z
-x,1/2+y,-z
-x,-y,-z
1/2+x,1/2+y,-z
1/2-x,y,z
x,1/2-y,z
loop_
_atom_site_type_symbol
_atom_site_label
_atom_site_fract_x
_atom_site_fract_y
_atom_site_fract_z
Si Si1 0.571377 0.949084 0.943203
Si Si2 0.923224 0.823964 0.321858
Si Si3 0.570597 0.823093 0.030113
Si Si4 0.927186 0.076500 0.582161
Si Si5 0.569554 0.481351 0.203254
Si Si6 0.929225 0.327539 0.457200
Si Si7 0.424482 0.128997 0.824331
Si Si8 0.928794 0.445005 0.357735
O O1 0.750000 0.963641 0.940758
O O2 0.529475 0.874246 0.968699
O O3 0.503311 0.947790 0.865282
O O4 0.500000 0.000000 0.000000
O O5 0.750000 0.846613 0.339266
O O6 0.958292 0.750000 0.354647
O O7 0.944355 0.816866 0.237818
O O8 0.039897 0.880221 0.348107
O O9 0.750000 0.817961 0.041216
O O10 0.503280 0.750000 0.009326
O O11 0.494183 0.846112 0.104338
O O12 0.750000 0.064093 0.571005
O O13 0.994794 0.124508 0.519788
O O14 0.002724 0.002514 0.590014
O O15 0.750000 0.473574 0.198468
O O16 0.509169 0.558007 0.202719
O O17 0.510403 0.449423 0.277284
O O18 0.750000 0.320713 0.467173
O O19 0.997788 0.250000 0.455873
O O20 0.968994 0.369381 0.385922
O O21 0.250000 0.115570 0.843102
O O22 0.750000 0.458138 0.359707
#
# Coordination Sequence:
#
# PCOD8240961 Si02
#       8
#     8   8   8   8   8   8   8   8
#     4  11  21  34  55  81 108 140 178 221 266 317
#     4  10  19  31  50  77 109 146 185 220 259 318
#     4   9  17  30  50  75 100 132 174 213 254 309
#     4  11  21  33  53  81 114 145 176 223 280 333
#     4  10  19  34  55  80 107 138 179 225 271 318
#     4   9  19  36  57  81 108 143 186 229 279 334
#     4   9  15  28  49  74 104 134 172 218 259 308
#     4  10  20  37  60  80 105 142 187 233 269 323
#
# _framework density 19.375171000000002
#
# number of rings (size 3 to 8) (size 9 to 14) (size 15 to 20)
#    0.000    2.125    2.500    1.875    0.000    2.750 
#    0.000    1.250    0.000    4.125    0.000    0.000 
#    0.000    0.000    0.000    0.000    0.000    0.000 
#
# Total GULP energy -792946.435434 kJ/mol
# GULP energy per Si atom -12389.788054 kJ/mol
# Density = 1.933107 g / cm^3
# Si number density = 19.375171 Si / 1000 Ang^3
#
#
#
# Elastic Constant Matrix: (Units=GPa)
#
#
# Indices 1 2 3 4 5 6 
#
# 1 31.1152 25.4854 21.2114 0.0000 0.0000 0.0000
# 2 25.4854 145.3714 74.3048 0.0000 0.0000 0.0000
# 3 21.2114 74.3048 126.9603 0.0000 0.0000 0.0000
# 4 0.0000 0.0000 0.0000 26.3687 0.0000 0.0000
# 5 0.0000 0.0000 0.0000 0.0000 22.1244 0.0000
# 6 0.0000 0.0000 0.0000 0.0000 0.0000 17.9608
#
#
#
# Elastic Compliance Matrix: (Units=1/GPa)
#
#
# Indices 1 2 3 4 5 6 
#
# 1 0.038618 -0.004955 -0.003552 0.000000 0.000000 0.000000
# 2 -0.004955 0.010451 -0.005289 0.000000 0.000000 0.000000
# 3 -0.003552 -0.005289 0.011565 0.000000 0.000000 0.000000
# 4 0.000000 0.000000 0.000000 0.037924 0.000000 0.000000
# 5 0.000000 0.000000 0.000000 0.000000 0.045199 0.000000
# 6 0.000000 0.000000 0.000000 0.000000 0.000000 0.055677
#
#
# Mechanical properties :
#
#
# Convention : Reuss Voigt Hill
#
# Bulk Modulus (GPa) = 30.26334 60.60557 45.43445
# Shear Modulus (GPa) = 21.00494 25.45380 23.22937
#
# Velocity S-wave (km/s) = 3.29616 3.62848 3.46631
# Velocity P-wave (km/s) = 5.48997 6.99302 6.28658
#
# Compressibility (1/GPa) = 0.03304328
#
# Stress axis : x y z
#
# Youngs Moduli (GPa) = 25.89442 95.68687 86.46628
#
# Poissons Ratio (x) = 0.47409 0.30716
# Poissons Ratio (y) = 0.12830 0.45729
# Poissons Ratio (z) = 0.09199 0.50605
#
# Static dielectric constant tensor:
#      x y z
#    x 3.106530 0.000000 0.000000 
#    y 0.000000 4.149990 0.000000 
#    z 0.000000 0.000000 3.690250 
# 
# 
# High freq. dielectric constant tensor:
#      x y z
#    x 1.706130 0.000000 0.000000 
#    y 0.000000 1.757790 0.000000 
#    z 0.000000 0.000000 1.758600 
# 
# From -- ./inp_files/26248.got.cif
#   From: 2010.03.12/outbox.cif.g09.slc.cpg/sg59_14_cif.got.tgz:26248.got - 2010.04.16 16:29:54.
