data_PCOD8240959
_publ_section_title
;
Structure prediction by ZEFSAII (Michael W. Deem and Ramdas Pophale) SiO2 
 PCOD8240959
Probable space group: P M M N
;
_chemical_formula_sum "Si O2"
_cell_formula_units_Z 48
_cell_length_a 13.810589
_cell_length_b 13.972427
_cell_length_c 12.813744
_cell_angle_alpha 90.000000
_cell_angle_beta 90.000000
_cell_angle_gamma 90.000000
_cell_volume 2472.635461
_symmetry_space_group_name_H-M "P M M N"
_symmetry_group_IT_number 59
_space_group.IT_coordinate_system_code '2'
_symmetry_cell_setting 'orthorhombic'
loop_
_space_group_symop_operation_xyz
x,y,z
1/2-x,1/2-y,z
1/2+x,-y,-z
-x,1/2+y,-z
-x,-y,-z
1/2+x,1/2+y,-z
1/2-x,y,z
x,1/2-y,z
loop_
_atom_site_type_symbol
_atom_site_label
_atom_site_fract_x
_atom_site_fract_y
_atom_site_fract_z
Si Si1 0.952925 0.640196 0.988999
Si Si2 0.357543 0.043270 0.200034
Si Si3 0.856326 0.354991 0.904998
Si Si4 0.527932 0.864813 0.407085
Si Si5 0.863241 0.514435 0.571122
Si Si6 0.358392 0.363440 0.798649
O O1 0.925142 0.750000 0.974559
O O2 0.930559 0.588163 0.881720
O O3 0.896529 0.597411 0.089628
O O4 0.067224 0.622488 0.004201
O O5 0.250000 0.080320 0.171724
O O6 0.383637 0.067886 0.318645
O O7 0.363216 0.927875 0.190974
O O8 0.750000 0.358673 0.957405
O O9 0.878764 0.250000 0.856571
O O10 0.518003 0.750000 0.420985
O O11 0.608271 0.907044 0.485619
O O12 0.566762 0.894151 0.292002
O O13 0.426158 0.916613 0.433848
O O14 0.750000 0.486723 0.559938
O O15 0.250000 0.404227 0.778116
O O16 0.354697 0.250000 0.802507
#
# Coordination Sequence:
#
# PCOD8240959 Si02
#       6
#     8   8   8   8   8   8
#     4  10  19  31  50  77 109 141 175 218 265 317
#     4  10  20  33  51  77 109 141 170 208 264 323
#     4   9  18  32  49  70  99 138 183 225 263 308
#     4  10  21  38  59  81 108 144 184 228 277 325
#     4  10  22  38  57  84 112 140 181 227 272 330
#     4   9  17  30  50  76 104 137 181 228 270 314
#
# _framework density 19.412485
#
# number of rings (size 3 to 8) (size 9 to 14) (size 15 to 20)
#    0.000    2.333    0.000    2.500    0.000    5.000 
#    0.000    3.333    0.000    4.000    0.000    4.667 
#    0.000    0.000    0.000    0.000    0.000    0.000 
#
# Total GULP energy -594927.595706 kJ/mol
# GULP energy per Si atom -12394.324911 kJ/mol
# Density = 1.936830 g / cm^3
# Si number density = 19.412485 Si / 1000 Ang^3
#
#
#
# Elastic Constant Matrix: (Units=GPa)
#
#
# Indices 1 2 3 4 5 6 
#
# 1 117.7869 31.6882 41.4467 0.0000 0.0000 0.0000
# 2 31.6882 59.1521 32.0823 0.0000 0.0000 0.0000
# 3 41.4467 32.0823 106.0734 0.0000 0.0000 0.0000
# 4 0.0000 0.0000 0.0000 19.7869 0.0000 0.0000
# 5 0.0000 0.0000 0.0000 0.0000 22.4459 0.0000
# 6 0.0000 0.0000 0.0000 0.0000 0.0000 23.1284
#
#
#
# Elastic Compliance Matrix: (Units=1/GPa)
#
#
# Indices 1 2 3 4 5 6 
#
# 1 0.010619 -0.004113 -0.002905 0.000000 0.000000 0.000000
# 2 -0.004113 0.021816 -0.004991 0.000000 0.000000 0.000000
# 3 -0.002905 -0.004991 0.012072 0.000000 0.000000 0.000000
# 4 0.000000 0.000000 0.000000 0.050538 0.000000 0.000000
# 5 0.000000 0.000000 0.000000 0.000000 0.044552 0.000000
# 6 0.000000 0.000000 0.000000 0.000000 0.000000 0.043237
#
#
# Mechanical properties :
#
#
# Convention : Reuss Voigt Hill
#
# Bulk Modulus (GPa) = 48.80834 54.82741 51.81788
# Shear Modulus (GPa) = 23.39929 24.92525 24.16227
#
# Velocity S-wave (km/s) = 3.47561 3.58715 3.53183
# Velocity P-wave (km/s) = 6.42681 6.74252 6.58656
#
# Compressibility (1/GPa) = 0.02048830
#
# Stress axis : x y z
#
# Youngs Moduli (GPa) = 94.17400 45.83800 82.83484
#
# Poissons Ratio (x) = 0.18852 0.24065
# Poissons Ratio (y) = 0.38732 0.41345
# Poissons Ratio (z) = 0.27359 0.22879
#
# Static dielectric constant tensor:
#      x y z
#    x 3.839830 0.000000 0.000000 
#    y 0.000000 3.438020 0.000000 
#    z 0.000000 0.000000 3.442390 
# 
# 
# High freq. dielectric constant tensor:
#      x y z
#    x 1.772730 0.000000 0.000000 
#    y 0.000000 1.735960 0.000000 
#    z 0.000000 0.000000 1.742920 
# 
# From -- ./inp_files/16796.got.cif
#   From: 2010.03.12/outbox.cif.g09.slc.cpg/sg59_9_cif.got.tgz:16796.got - 2010.04.16 16:29:54.
