data_PCOD8240369
_publ_section_title
;
Structure prediction by ZEFSAII (Michael W. Deem and Ramdas Pophale) SiO2 
 PCOD8240369
Probable space group: P M M N
;
_chemical_formula_sum "Si O2"
_cell_formula_units_Z 64
_cell_length_a 9.340956
_cell_length_b 13.782253
_cell_length_c 31.104892
_cell_angle_alpha 90.000000
_cell_angle_beta 90.000000
_cell_angle_gamma 90.000000
_cell_volume 4004.425720
_symmetry_space_group_name_H-M "P M M N"
_symmetry_group_IT_number 59
_space_group.IT_coordinate_system_code '2'
_symmetry_cell_setting 'orthorhombic'
loop_
_space_group_symop_operation_xyz
x,y,z
1/2-x,1/2-y,z
1/2+x,-y,-z
-x,1/2+y,-z
-x,-y,-z
1/2+x,1/2+y,-z
1/2-x,y,z
x,1/2-y,z
loop_
_atom_site_type_symbol
_atom_site_label
_atom_site_fract_x
_atom_site_fract_y
_atom_site_fract_z
Si Si1 0.585387 0.857924 0.439529
Si Si2 0.407584 0.635063 0.766562
Si Si3 0.587853 0.364590 0.479091
Si Si4 0.417261 0.472548 0.064789
Si Si5 0.415359 0.542410 0.609041
Si Si6 0.084127 0.362134 0.977958
Si Si7 0.917206 0.863138 0.685615
Si Si8 0.582490 0.137843 0.137307
O O1 0.750000 0.855050 0.453237
O O2 0.529345 0.750000 0.427526
O O3 0.503683 0.903021 0.480599
O O4 0.563679 0.926888 0.398175
O O5 0.250000 0.593532 0.754843
O O6 0.399491 0.750000 0.767214
O O7 0.520824 0.599269 0.731122
O O8 0.452623 0.601414 0.814295
O O9 0.750000 0.400477 0.485874
O O10 0.575684 0.250000 0.476923
O O11 0.529254 0.404972 0.434057
O O12 0.250000 0.488996 0.072787
O O13 0.488454 0.576616 0.055085
O O14 0.487448 0.428825 0.107094
O O15 0.446636 0.397601 0.026251
O O16 0.250000 0.569156 0.618645
O O17 0.511890 0.574654 0.648318
O O18 0.250000 0.377427 0.966040
O O19 0.038984 0.250000 0.974509
O O20 0.750000 0.883667 0.685787
O O21 0.952472 0.750000 0.678219
O O22 0.750000 0.124099 0.126897
O O23 0.538402 0.250000 0.131047
#
# Coordination Sequence:
#
# PCOD8240369 Si02
#       8
#     8   8   8   8   8   8   8   8
#     4   9  18  31  45  62  84 110 143 182 217 246
#     4   8  15  29  47  65  88 119 149 175 209 258
#     4   9  17  28  42  61  84 111 143 175 208 250
#     4  10  19  29  44  68  94 120 154 195 236 274
#     4  10  19  30  45  63  85 116 147 173 208 256
#     4   9  18  32  46  61  88 126 163 196 230 270
#     4  10  20  31  44  66  93 116 140 174 215 258
#     4   9  17  29  46  68  93 122 154 184 217 263
#
# _framework density 15.982317
#
# number of rings (size 3 to 8) (size 9 to 14) (size 15 to 20)
#    0.000    2.750    0.000    2.625    0.000    4.250 
#    0.000    2.500    0.000    0.000    0.000    0.875 
#    0.000    3.000    0.000    0.000    0.000    0.000 
#
# Total GULP energy -793495.008144 kJ/mol
# GULP energy per Si atom -12398.359502 kJ/mol
# Density = 1.594594 g / cm^3
# Si number density = 15.982317 Si / 1000 Ang^3
#
#
#
# Elastic Constant Matrix: (Units=GPa)
#
#
# Indices 1 2 3 4 5 6 
#
# 1 84.8320 45.3170 69.6459 0.0000 0.0000 0.0000
# 2 45.3170 71.4084 52.0375 0.0000 0.0000 0.0000
# 3 69.6459 52.0375 118.2384 0.0000 0.0000 0.0000
# 4 0.0000 0.0000 0.0000 23.2336 0.0000 0.0000
# 5 0.0000 0.0000 0.0000 0.0000 30.3174 0.0000
# 6 0.0000 0.0000 0.0000 0.0000 0.0000 20.6127
#
#
#
# Elastic Compliance Matrix: (Units=1/GPa)
#
#
# Indices 1 2 3 4 5 6 
#
# 1 0.025397 -0.007679 -0.011580 0.000000 0.000000 0.000000
# 2 -0.007679 0.022937 -0.005572 0.000000 0.000000 0.000000
# 3 -0.011580 -0.005572 0.017731 0.000000 0.000000 0.000000
# 4 0.000000 0.000000 0.000000 0.043041 0.000000 0.000000
# 5 0.000000 0.000000 0.000000 0.000000 0.032984 0.000000
# 6 0.000000 0.000000 0.000000 0.000000 0.000000 0.048514
#
#
# Mechanical properties :
#
#
# Convention : Reuss Voigt Hill
#
# Bulk Modulus (GPa) = 60.96170 67.60885 64.28528
# Shear Modulus (GPa) = 20.34720 21.99798 21.17259
#
# Velocity S-wave (km/s) = 3.57193 3.71400 3.64366
# Velocity P-wave (km/s) = 7.43220 7.79653 7.61655
#
# Compressibility (1/GPa) = 0.01640374
#
# Stress axis : x y z
#
# Youngs Moduli (GPa) = 39.37461 43.59694 56.39871
#
# Poissons Ratio (x) = 0.33476 0.65311
# Poissons Ratio (y) = 0.30234 0.31426
# Poissons Ratio (z) = 0.45597 0.24292
#
# Static dielectric constant tensor:
#      x y z
#    x 3.139560 0.000000 0.000000 
#    y 0.000000 2.973050 0.000000 
#    z 0.000000 0.000000 3.014770 
# 
# 
# High freq. dielectric constant tensor:
#      x y z
#    x 1.616880 0.000000 0.000000 
#    y 0.000000 1.593970 0.000000 
#    z 0.000000 0.000000 1.602630 
# 
# From -- ./inp_files/33252.got.cif
#   From: 2010.03.12/outbox.cif.g09.slc.cpg/sg59_17_cif.got.tgz:33252.got - 2010.04.16 16:29:54.
