data_PCOD8240684
_publ_section_title
;
Structure prediction by ZEFSAII (Michael W. Deem and Ramdas Pophale) SiO2 
 PCOD8240684
Probable space group: P M M N
;
_chemical_formula_sum "Si O2"
_cell_formula_units_Z 40
_cell_length_a 9.245515
_cell_length_b 15.814949
_cell_length_c 14.415763
_cell_angle_alpha 90.000000
_cell_angle_beta 90.000000
_cell_angle_gamma 90.000000
_cell_volume 2107.834638
_symmetry_space_group_name_H-M "P M M N"
_symmetry_group_IT_number 59
_space_group.IT_coordinate_system_code '2'
_symmetry_cell_setting 'orthorhombic'
loop_
_space_group_symop_operation_xyz
x,y,z
1/2-x,1/2-y,z
1/2+x,-y,-z
-x,1/2+y,-z
-x,-y,-z
1/2+x,1/2+y,-z
1/2-x,y,z
x,1/2-y,z
loop_
_atom_site_type_symbol
_atom_site_label
_atom_site_fract_x
_atom_site_fract_y
_atom_site_fract_z
Si Si1 0.082720 0.409657 0.107513
Si Si2 0.422170 0.998737 0.597469
Si Si3 0.916312 0.155702 0.274890
Si Si4 0.580854 0.841452 0.288118
Si Si5 0.915582 0.580940 0.098819
O O1 0.250000 0.411223 0.134405
O O2 0.002876 0.348085 0.178629
O O3 0.021689 0.503534 0.116146
O O4 0.058620 0.376717 0.001966
O O5 0.250000 0.000661 0.583938
O O6 0.471470 0.913990 0.651696
O O7 0.500000 0.000000 0.500000
O O8 0.482862 0.080254 0.653507
O O9 0.750000 0.137526 0.251139
O O10 0.937736 0.250000 0.316978
O O11 0.750000 0.840155 0.307217
O O12 0.514352 0.750000 0.318396
O O13 0.550073 0.851306 0.178473
O O14 0.750000 0.547955 0.106855
#
# Coordination Sequence:
#
# PCOD8240684 Si02
#       5
#     8   8   8   8   8
#     4  10  19  30  52  83 113 144 181 226 268 308
#     4  10  21  38  58  79 104 136 177 223 274 328
#     4  10  21  38  58  78 107 149 187 218 264 329
#     4   9  17  32  56  81 104 136 177 216 259 318
#     4   9  17  32  53  78 111 149 183 216 262 322
#
# _framework density 18.976821000000001
#
# number of rings (size 3 to 8) (size 9 to 14) (size 15 to 20)
#    0.000    2.400    2.000    0.600    0.000    3.600 
#    0.000    2.000    0.000    1.800    0.000    0.000 
#    0.000    0.000    0.000    0.000    0.000    0.000 
#
# Total GULP energy -495822.126353 kJ/mol
# GULP energy per Si atom -12395.553159 kJ/mol
# Density = 1.893363 g / cm^3
# Si number density = 18.976821 Si / 1000 Ang^3
#
#
#
# Elastic Constant Matrix: (Units=GPa)
#
#
# Indices 1 2 3 4 5 6 
#
# 1 47.8817 30.5843 39.5526 0.0000 0.0000 0.0000
# 2 30.5843 150.3387 79.1461 0.0000 0.0000 0.0000
# 3 39.5526 79.1461 139.3072 0.0000 0.0000 0.0000
# 4 0.0000 0.0000 0.0000 15.3845 0.0000 0.0000
# 5 0.0000 0.0000 0.0000 0.0000 33.2402 0.0000
# 6 0.0000 0.0000 0.0000 0.0000 0.0000 14.3646
#
#
#
# Elastic Compliance Matrix: (Units=1/GPa)
#
#
# Indices 1 2 3 4 5 6 
#
# 1 0.027757 -0.002137 -0.006667 0.000000 0.000000 0.000000
# 2 -0.002137 0.009655 -0.004878 0.000000 0.000000 0.000000
# 3 -0.006667 -0.004878 0.011843 0.000000 0.000000 0.000000
# 4 0.000000 0.000000 0.000000 0.065001 0.000000 0.000000
# 5 0.000000 0.000000 0.000000 0.000000 0.030084 0.000000
# 6 0.000000 0.000000 0.000000 0.000000 0.000000 0.069616
#
#
# Mechanical properties :
#
#
# Convention : Reuss Voigt Hill
#
# Bulk Modulus (GPa) = 45.68296 70.67706 58.18001
# Shear Modulus (GPa) = 20.11137 25.14750 22.62944
#
# Velocity S-wave (km/s) = 3.25897 3.64424 3.45697
# Velocity P-wave (km/s) = 6.18760 7.41836 6.83076
#
# Compressibility (1/GPa) = 0.02189000
#
# Stress axis : x y z
#
# Youngs Moduli (GPa) = 36.02719 103.57679 84.43912
#
# Poissons Ratio (x) = 0.22135 0.56293
# Poissons Ratio (y) = 0.07699 0.41193
# Poissons Ratio (z) = 0.24018 0.50529
#
# Static dielectric constant tensor:
#      x y z
#    x 3.264310 0.000000 0.000000 
#    y 0.000000 3.658400 0.000000 
#    z 0.000000 0.000000 3.536520 
# 
# 
# High freq. dielectric constant tensor:
#      x y z
#    x 1.710360 0.000000 0.000000 
#    y 0.000000 1.736040 0.000000 
#    z 0.000000 0.000000 1.737490 
# 
# From -- ./inp_files/19847.got.cif
#   From: 2010.03.12/outbox.cif.g09.slc.cpg/sg59_10_cif.got.tgz:19847.got - 2010.04.16 16:29:54.
