data_PCOD8240413
_publ_section_title
;
Structure prediction by ZEFSAII (Michael W. Deem and Ramdas Pophale) SiO2 
 PCOD8240413
Probable space group: P M M N
;
_chemical_formula_sum "Si O2"
_cell_formula_units_Z 48
_cell_length_a 18.249230
_cell_length_b 9.315395
_cell_length_c 16.381275
_cell_angle_alpha 90.000000
_cell_angle_beta 90.000000
_cell_angle_gamma 90.000000
_cell_volume 2784.796861
_symmetry_space_group_name_H-M "P M M N"
_symmetry_group_IT_number 59
_space_group.IT_coordinate_system_code '2'
_symmetry_cell_setting 'orthorhombic'
loop_
_space_group_symop_operation_xyz
x,y,z
1/2-x,1/2-y,z
1/2+x,-y,-z
-x,1/2+y,-z
-x,-y,-z
1/2+x,1/2+y,-z
1/2-x,y,z
x,1/2-y,z
loop_
_atom_site_type_symbol
_atom_site_label
_atom_site_fract_x
_atom_site_fract_y
_atom_site_fract_z
Si Si1 0.830531 0.081063 0.144388
Si Si2 0.539489 0.415674 0.253549
Si Si3 0.026951 0.085412 0.422630
Si Si4 0.924814 0.083899 0.994360
Si Si5 0.094982 0.583744 0.188739
Si Si6 0.667732 0.916861 0.674122
O O1 0.750000 0.009851 0.153984
O O2 0.821500 0.250000 0.135810
O O3 0.878712 0.043010 0.224569
O O4 0.869550 0.021952 0.062654
O O5 0.521283 0.250000 0.232259
O O6 0.531491 0.441511 0.350240
O O7 0.484184 0.515098 0.204012
O O8 0.030007 0.250000 0.448839
O O9 0.107996 0.033727 0.393377
O O10 0.000000 0.000000 0.500000
O O11 0.943003 0.250000 0.011203
O O12 0.886004 0.064161 0.906545
O O13 0.000000 0.000000 0.000000
O O14 0.092698 0.750000 0.214041
O O15 0.156733 0.504942 0.242453
O O16 0.750000 0.944487 0.640885
O O17 0.654527 0.750000 0.694735
#
# Coordination Sequence:
#
# PCOD8240413 Si02
#       6
#     8   8   8   8   8   8
#     4   9  17  30  49  71  95 128 169 209 245 284
#     4   9  17  32  52  70  93 130 170 204 241 299
#     4   9  18  32  52  77  99 124 161 201 243 297
#     4  10  19  30  48  72  99 134 171 207 246 295
#     4  10  19  29  47  76 102 129 165 207 251 294
#     4   9  19  36  55  74 100 135 171 205 247 303
#
# _framework density 17.236445
#
# number of rings (size 3 to 8) (size 9 to 14) (size 15 to 20)
#    0.000    2.667    1.667    1.500    0.000    4.333 
#    0.000    2.500    0.000    3.000    0.000    0.000 
#    0.000    0.000    0.000    0.000    0.000    0.000 
#
# Total GULP energy -595025.365034 kJ/mol
# GULP energy per Si atom -12396.361772 kJ/mol
# Density = 1.719721 g / cm^3
# Si number density = 17.236445 Si / 1000 Ang^3
#
#
#
# Elastic Constant Matrix: (Units=GPa)
#
#
# Indices 1 2 3 4 5 6 
#
# 1 146.6089 34.4403 71.0911 0.0000 0.0000 0.0000
# 2 34.4403 52.8298 41.8222 0.0000 0.0000 0.0000
# 3 71.0911 41.8222 124.8777 0.0000 0.0000 0.0000
# 4 0.0000 0.0000 0.0000 26.0962 0.0000 0.0000
# 5 0.0000 0.0000 0.0000 0.0000 22.1799 0.0000
# 6 0.0000 0.0000 0.0000 0.0000 0.0000 19.5264
#
#
#
# Elastic Compliance Matrix: (Units=1/GPa)
#
#
# Indices 1 2 3 4 5 6 
#
# 1 0.009687 -0.002653 -0.004626 0.000000 0.000000 0.000000
# 2 -0.002653 0.026484 -0.007359 0.000000 0.000000 0.000000
# 3 -0.004626 -0.007359 0.013106 0.000000 0.000000 0.000000
# 4 0.000000 0.000000 0.000000 0.038320 0.000000 0.000000
# 5 0.000000 0.000000 0.000000 0.000000 0.045086 0.000000
# 6 0.000000 0.000000 0.000000 0.000000 0.000000 0.051213
#
#
# Mechanical properties :
#
#
# Convention : Reuss Voigt Hill
#
# Bulk Modulus (GPa) = 49.99897 68.78040 59.38969
# Shear Modulus (GPa) = 22.74373 25.35801 24.05087
#
# Velocity S-wave (km/s) = 3.63645 3.83976 3.73949
# Velocity P-wave (km/s) = 6.83392 7.72328 7.29217
#
# Compressibility (1/GPa) = 0.02000041
#
# Stress axis : x y z
#
# Youngs Moduli (GPa) = 103.22633 37.75835 76.29891
#
# Poissons Ratio (x) = 0.10017 0.35300
# Poissons Ratio (y) = 0.27384 0.56152
# Poissons Ratio (z) = 0.47757 0.27788
#
# Static dielectric constant tensor:
#      x y z
#    x 3.445990 0.000000 0.000000 
#    y 0.000000 3.085780 0.000000 
#    z 0.000000 0.000000 3.208190 
# 
# 
# High freq. dielectric constant tensor:
#      x y z
#    x 1.659480 0.000000 0.000000 
#    y 0.000000 1.648220 0.000000 
#    z 0.000000 0.000000 1.659790 
# 
# From -- ./inp_files/25746.got.cif
#   From: 2010.03.12/outbox.cif.g09.slc.cpg/sg59_13_cif.got.tgz:25746.got - 2010.04.16 16:29:54.
