data_PCOD8240080
_publ_section_title
;
Structure prediction by ZEFSAII (Michael W. Deem and Ramdas Pophale) SiO2 
 PCOD8240080
Probable space group: P M M N
;
_chemical_formula_sum "Si O2"
_cell_formula_units_Z 32
_cell_length_a 24.466029
_cell_length_b 8.657092
_cell_length_c 7.340988
_cell_angle_alpha 90.000000
_cell_angle_beta 90.000000
_cell_angle_gamma 90.000000
_cell_volume 1554.855496
_symmetry_space_group_name_H-M "P M M N"
_symmetry_group_IT_number 59
_space_group.IT_coordinate_system_code '2'
_symmetry_cell_setting 'orthorhombic'
loop_
_space_group_symop_operation_xyz
x,y,z
1/2-x,1/2-y,z
1/2+x,-y,-z
-x,1/2+y,-z
-x,-y,-z
1/2+x,1/2+y,-z
1/2-x,y,z
x,1/2-y,z
loop_
_atom_site_type_symbol
_atom_site_label
_atom_site_fract_x
_atom_site_fract_y
_atom_site_fract_z
Si Si1 0.995484 0.933123 0.701573
Si Si2 0.885604 0.431110 0.667181
Si Si3 0.812641 0.570494 0.955033
Si Si4 0.605416 0.568219 0.270730
O O1 0.997235 0.750000 0.704616
O O2 0.047989 0.000634 0.808980
O O3 0.000000 0.000000 0.500000
O O4 0.937157 0.992729 0.776039
O O5 0.894751 0.250000 0.655203
O O6 0.831615 0.472356 0.780689
O O7 0.878983 0.495856 0.464324
O O8 0.750000 0.530065 0.995994
O O9 0.820912 0.750000 0.908932
O O10 0.846739 0.522159 0.132675
O O11 0.599172 0.750000 0.295269
#
# Coordination Sequence:
#
# PCOD8240080 Si02
#       4
#     8   8   8   8
#     4  10  18  32  56  85 117 150 186 230 281 341
#     4  11  22  37  59  87 119 152 186 231 286 341
#     4  10  23  42  61  82 110 149 197 240 279 332
#     4  10  20  37  61  87 116 150 189 236 287 339
#
# _framework density 20.580687999999999
#
# number of rings (size 3 to 8) (size 9 to 14) (size 15 to 20)
#    0.000    1.750    0.000    8.250    0.000    4.500 
#    0.000    2.500    0.000    0.000    0.000    0.000 
#    0.000    0.000    0.000    0.000    0.000    0.000 
#
# Total GULP energy -396818.052579 kJ/mol
# GULP energy per Si atom -12400.564143 kJ/mol
# Density = 2.053385 g / cm^3
# Si number density = 20.580688 Si / 1000 Ang^3
#
#
#
# Elastic Constant Matrix: (Units=GPa)
#
#
# Indices 1 2 3 4 5 6 
#
# 1 121.9042 29.4764 32.6725 0.0000 0.0000 0.0000
# 2 29.4764 124.2969 24.2971 0.0000 0.0000 0.0000
# 3 32.6725 24.2971 62.8942 0.0000 0.0000 0.0000
# 4 0.0000 0.0000 0.0000 17.3651 0.0000 0.0000
# 5 0.0000 0.0000 0.0000 0.0000 36.3772 0.0000
# 6 0.0000 0.0000 0.0000 0.0000 0.0000 34.0417
#
#
#
# Elastic Compliance Matrix: (Units=1/GPa)
#
#
# Indices 1 2 3 4 5 6 
#
# 1 0.009760 -0.001432 -0.004517 0.000000 0.000000 0.000000
# 2 -0.001432 0.008912 -0.002699 0.000000 0.000000 0.000000
# 3 -0.004517 -0.002699 0.019289 0.000000 0.000000 0.000000
# 4 0.000000 0.000000 0.000000 0.057587 0.000000 0.000000
# 5 0.000000 0.000000 0.000000 0.000000 0.027490 0.000000
# 6 0.000000 0.000000 0.000000 0.000000 0.000000 0.029376
#
#
# Mechanical properties :
#
#
# Convention : Reuss Voigt Hill
#
# Bulk Modulus (GPa) = 48.38998 53.55417 50.97207
# Shear Modulus (GPa) = 28.31282 32.40007 30.35645
#
# Velocity S-wave (km/s) = 3.71306 3.97204 3.84473
# Velocity P-wave (km/s) = 6.47656 6.86398 6.67308
#
# Compressibility (1/GPa) = 0.02066544
#
# Stress axis : x y z
#
# Youngs Moduli (GPa) = 102.45925 112.20333 51.84277
#
# Poissons Ratio (x) = 0.16062 0.23418
# Poissons Ratio (y) = 0.14667 0.13994
# Poissons Ratio (z) = 0.46282 0.30288
#
# Static dielectric constant tensor:
#      x y z
#    x 4.368140 0.000000 0.000000 
#    y 0.000000 3.716080 0.000000 
#    z 0.000000 0.000000 3.541580 
# 
# 
# High freq. dielectric constant tensor:
#      x y z
#    x 1.812430 0.000000 0.000000 
#    y 0.000000 1.812080 0.000000 
#    z 0.000000 0.000000 1.792520 
# 
# From -- ./inp_files/11834.got.cif
#   From: 2010.03.12/outbox.cif.g09.slc.cpg/sg59_6_cif.got.tgz:11834.got - 2010.04.16 16:29:54.
