data_PCOD8240019
_publ_section_title
;
Structure prediction by ZEFSAII (Michael W. Deem and Ramdas Pophale) SiO2 
 PCOD8240019
Probable space group: P M M N
;
_chemical_formula_sum "Si O2"
_cell_formula_units_Z 64
_cell_length_a 9.307761
_cell_length_b 19.961534
_cell_length_c 20.016696
_cell_angle_alpha 90.000000
_cell_angle_beta 90.000000
_cell_angle_gamma 90.000000
_cell_volume 3719.045823
_symmetry_space_group_name_H-M "P M M N"
_symmetry_group_IT_number 59
_space_group.IT_coordinate_system_code '2'
_symmetry_cell_setting 'orthorhombic'
loop_
_space_group_symop_operation_xyz
x,y,z
1/2-x,1/2-y,z
1/2+x,-y,-z
-x,1/2+y,-z
-x,-y,-z
1/2+x,1/2+y,-z
1/2-x,y,z
x,1/2-y,z
loop_
_atom_site_type_symbol
_atom_site_label
_atom_site_fract_x
_atom_site_fract_y
_atom_site_fract_z
Si Si1 0.917228 0.088333 0.942273
Si Si2 0.583792 0.581139 0.557484
Si Si3 0.580953 0.673223 0.156801
Si Si4 0.580875 0.572816 0.268412
Si Si5 0.917461 0.949123 0.412938
Si Si6 0.413186 0.957570 0.914221
Si Si7 0.915477 0.425304 0.231889
Si Si8 0.918254 0.825680 0.675084
O O1 0.750000 0.092637 0.924320
O O2 0.999464 0.151455 0.910645
O O3 0.944019 0.089691 0.022104
O O4 0.979665 0.020018 0.911673
O O5 0.750000 0.561590 0.563728
O O6 0.543220 0.593813 0.479290
O O7 0.495590 0.520003 0.587296
O O8 0.547141 0.646691 0.600695
O O9 0.750000 0.662507 0.145883
O O10 0.544564 0.750000 0.172700
O O11 0.518487 0.629097 0.218592
O O12 0.750000 0.572960 0.258439
O O13 0.538026 0.590540 0.345331
O O14 0.522795 0.498810 0.250464
O O15 0.750000 0.966096 0.410622
O O16 0.250000 0.986022 0.917398
O O17 0.434448 0.913820 0.847526
O O18 0.750000 0.418876 0.253968
O O19 0.004464 0.368251 0.268326
O O20 0.750000 0.828997 0.689866
O O21 0.976100 0.750000 0.677778
#
# Coordination Sequence:
#
# PCOD8240019 Si02
#       8
#     8   8   8   8   8   8   8   8
#     4  10  19  31  51  77 102 129 163 206 250 296
#     4   9  17  29  46  69  96 126 160 196 243 296
#     4  10  20  35  53  72 101 140 172 203 252 308
#     4   9  16  29  50  75  99 125 162 211 252 286
#     4   9  16  28  48  72  96 121 157 206 248 282
#     4   9  18  33  52  75 102 129 161 205 253 295
#     4  10  18  32  54  75  98 128 166 212 250 290
#     4  10  21  35  48  68 103 138 166 202 250 304
#
# _framework density 17.208715999999999
#
# number of rings (size 3 to 8) (size 9 to 14) (size 15 to 20)
#    0.000    2.500    2.500    0.375    0.000    1.500 
#    0.000    1.875    0.000    7.500    0.000    0.000 
#    0.000    3.000    0.000    0.000    0.000    0.000 
#
# Total GULP energy -793371.161134 kJ/mol
# GULP energy per Si atom -12396.424393 kJ/mol
# Density = 1.716955 g / cm^3
# Si number density = 17.208716 Si / 1000 Ang^3
#
#
#
# Elastic Constant Matrix: (Units=GPa)
#
#
# Indices 1 2 3 4 5 6 
#
# 1 45.6964 41.0104 39.8061 0.0000 0.0000 0.0000
# 2 41.0104 120.5528 73.9923 0.0000 0.0000 0.0000
# 3 39.8061 73.9923 138.0403 0.0000 0.0000 0.0000
# 4 0.0000 0.0000 0.0000 25.5927 0.0000 0.0000
# 5 0.0000 0.0000 0.0000 0.0000 24.1959 0.0000
# 6 0.0000 0.0000 0.0000 0.0000 0.0000 23.0022
#
#
#
# Elastic Compliance Matrix: (Units=1/GPa)
#
#
# Indices 1 2 3 4 5 6 
#
# 1 0.033976 -0.008263 -0.005368 0.000000 0.000000 0.000000
# 2 -0.008263 0.014372 -0.005321 0.000000 0.000000 0.000000
# 3 -0.005368 -0.005321 0.011644 0.000000 0.000000 0.000000
# 4 0.000000 0.000000 0.000000 0.039074 0.000000 0.000000
# 5 0.000000 0.000000 0.000000 0.000000 0.041329 0.000000
# 6 0.000000 0.000000 0.000000 0.000000 0.000000 0.043474
#
#
# Mechanical properties :
#
#
# Convention : Reuss Voigt Hill
#
# Bulk Modulus (GPa) = 45.27450 68.21190 56.74320
# Shear Modulus (GPa) = 21.82114 24.52355 23.17235
#
# Velocity S-wave (km/s) = 3.56480 3.77910 3.67351
# Velocity P-wave (km/s) = 6.58103 7.66591 7.14409
#
# Compressibility (1/GPa) = 0.02208749
#
# Stress axis : x y z
#
# Youngs Moduli (GPa) = 29.43290 69.58008 85.87883
#
# Poissons Ratio (x) = 0.57495 0.46101
# Poissons Ratio (y) = 0.24321 0.45694
# Poissons Ratio (z) = 0.15800 0.37022
#
# Static dielectric constant tensor:
#      x y z
#    x 3.101840 0.000000 0.000000 
#    y 0.000000 3.031810 0.000000 
#    z 0.000000 0.000000 3.600240 
# 
# 
# High freq. dielectric constant tensor:
#      x y z
#    x 1.650140 0.000000 0.000000 
#    y 0.000000 1.630890 0.000000 
#    z 0.000000 0.000000 1.683060 
# 
# From -- ./inp_files/29690.got.cif
#   From: 2010.03.12/outbox.cif.g09.slc.cpg/sg59_15_cif.got.tgz:29690.got - 2010.04.16 16:29:54.
