data_PCOD8240142
_publ_section_title
;
Structure prediction by ZEFSAII (Michael W. Deem and Ramdas Pophale) SiO2 
 PCOD8240142
Probable space group: P M M N
;
_chemical_formula_sum "Si O2"
_cell_formula_units_Z 64
_cell_length_a 15.705459
_cell_length_b 17.241667
_cell_length_c 12.547253
_cell_angle_alpha 90.000000
_cell_angle_beta 90.000000
_cell_angle_gamma 90.000000
_cell_volume 3397.649236
_symmetry_space_group_name_H-M "P M M N"
_symmetry_group_IT_number 59
_space_group.IT_coordinate_system_code '2'
_symmetry_cell_setting 'orthorhombic'
loop_
_space_group_symop_operation_xyz
x,y,z
1/2-x,1/2-y,z
1/2+x,-y,-z
-x,1/2+y,-z
-x,-y,-z
1/2+x,1/2+y,-z
1/2-x,y,z
x,1/2-y,z
loop_
_atom_site_type_symbol
_atom_site_label
_atom_site_fract_x
_atom_site_fract_y
_atom_site_fract_z
Si Si1 0.155834 0.661465 0.065508
Si Si2 0.342413 0.525785 0.557374
Si Si3 0.964924 0.335575 0.752361
Si Si4 0.847950 0.658264 0.835043
Si Si5 0.010995 0.922132 0.934229
Si Si6 0.043965 0.012143 0.735449
Si Si7 0.901802 0.577976 0.620757
Si Si8 0.539638 0.163271 0.500635
O O1 0.250000 0.621171 0.052993
O O2 0.166839 0.750000 0.033816
O O3 0.125898 0.652158 0.188627
O O4 0.080910 0.630649 0.990422
O O5 0.250000 0.556365 0.582799
O O6 0.374130 0.478630 0.660990
O O7 0.338254 0.469642 0.454961
O O8 0.395304 0.603939 0.549585
O O9 0.001708 0.250000 0.782622
O O10 0.027905 0.404002 0.791711
O O11 0.954774 0.343156 0.627010
O O12 0.750000 0.643460 0.875414
O O13 0.866401 0.750000 0.828322
O O14 0.854504 0.620782 0.717534
O O15 0.918932 0.619942 0.914192
O O16 0.053985 0.944584 0.822068
O O17 0.000000 0.000000 0.000000
O O18 0.964632 0.989502 0.660814
O O19 0.947159 0.641997 0.546016
O O20 0.562838 0.250000 0.463675
#
# Coordination Sequence:
#
# PCOD8240142 Si02
#       8
#     8   8   8   8   8   8   8   8
#     4  10  22  39  59  86 116 147 190 243 298 352
#     4  11  21  33  52  79 116 152 184 231 283 337
#     4  10  18  33  57  82 111 146 181 231 287 341
#     4  10  22  39  59  86 117 150 197 249 291 340
#     4  11  22  37  62  84 111 153 192 239 297 350
#     4  10  19  37  54  79 109 143 192 230 278 341
#     4  10  18  35  57  80 111 150 191 233 281 333
#     4  10  19  33  56  81 111 152 189 228 282 349
#
# _framework density 18.836552999999999
#
# number of rings (size 3 to 8) (size 9 to 14) (size 15 to 20)
#    0.000    1.750    3.750    1.875    0.000    1.750 
#    0.000    1.875    0.000    1.125    0.000    0.000 
#    0.000    0.000    0.000    0.000    0.000    0.000 
#
# Total GULP energy -792999.137727 kJ/mol
# GULP energy per Si atom -12390.611527 kJ/mol
# Density = 1.879368 g / cm^3
# Si number density = 18.836553 Si / 1000 Ang^3
#
#
#
# Elastic Constant Matrix: (Units=GPa)
#
#
# Indices 1 2 3 4 5 6 
#
# 1 106.3448 45.2179 41.4849 0.0000 0.0000 0.0000
# 2 45.2179 111.5654 25.6007 0.0000 0.0000 0.0000
# 3 41.4849 25.6007 70.6143 0.0000 0.0000 0.0000
# 4 0.0000 0.0000 0.0000 29.4063 0.0000 0.0000
# 5 0.0000 0.0000 0.0000 0.0000 22.8666 0.0000
# 6 0.0000 0.0000 0.0000 0.0000 0.0000 17.7206
#
#
#
# Elastic Compliance Matrix: (Units=1/GPa)
#
#
# Indices 1 2 3 4 5 6 
#
# 1 0.013686 -0.004038 -0.006576 0.000000 0.000000 0.000000
# 2 -0.004038 0.010968 -0.001604 0.000000 0.000000 0.000000
# 3 -0.006576 -0.001604 0.018606 0.000000 0.000000 0.000000
# 4 0.000000 0.000000 0.000000 0.034006 0.000000 0.000000
# 5 0.000000 0.000000 0.000000 0.000000 0.043732 0.000000
# 6 0.000000 0.000000 0.000000 0.000000 0.000000 0.056431
#
#
# Mechanical properties :
#
#
# Convention : Reuss Voigt Hill
#
# Bulk Modulus (GPa) = 53.12480 57.01461 55.06971
# Shear Modulus (GPa) = 24.02220 25.74677 24.88449
#
# Velocity S-wave (km/s) = 3.57500 3.70111 3.63860
# Velocity P-wave (km/s) = 6.73091 6.97123 6.85212
#
# Compressibility (1/GPa) = 0.01882360
#
# Stress axis : x y z
#
# Youngs Moduli (GPa) = 73.06939 91.17422 53.74469
#
# Poissons Ratio (x) = 0.36814 0.35344
# Poissons Ratio (y) = 0.29504 0.08622
# Poissons Ratio (z) = 0.48052 0.14626
#
# Static dielectric constant tensor:
#      x y z
#    x 3.630950 0.000000 0.000000 
#    y 0.000000 4.356530 0.000000 
#    z 0.000000 0.000000 3.603510 
# 
# 
# High freq. dielectric constant tensor:
#      x y z
#    x 1.709770 0.000000 0.000000 
#    y 0.000000 1.743070 0.000000 
#    z 0.000000 0.000000 1.732560 
# 
# From -- ./inp_files/17235.got.cif
#   From: 2010.03.12/outbox.cif.g09.slc.cpg/sg59_9_cif.got.tgz:17235.got - 2010.04.16 16:29:54.
