data_PCOD8240899
_publ_section_title
;
Structure prediction by ZEFSAII (Michael W. Deem and Ramdas Pophale) SiO2 
 PCOD8240899
Probable space group: P M M N
;
_chemical_formula_sum "Si O2"
_cell_formula_units_Z 64
_cell_length_a 32.003220
_cell_length_b 8.766465
_cell_length_c 11.605439
_cell_angle_alpha 90.000000
_cell_angle_beta 90.000000
_cell_angle_gamma 90.000000
_cell_volume 3255.965192
_symmetry_space_group_name_H-M "P M M N"
_symmetry_group_IT_number 59
_space_group.IT_coordinate_system_code '2'
_symmetry_cell_setting 'orthorhombic'
loop_
_space_group_symop_operation_xyz
x,y,z
1/2-x,1/2-y,z
1/2+x,-y,-z
-x,1/2+y,-z
-x,-y,-z
1/2+x,1/2+y,-z
1/2-x,y,z
x,1/2-y,z
loop_
_atom_site_type_symbol
_atom_site_label
_atom_site_fract_x
_atom_site_fract_y
_atom_site_fract_z
Si Si1 0.150018 0.077445 0.483260
Si Si2 0.028806 0.426030 0.850574
Si Si3 0.904819 0.925702 0.321654
Si Si4 0.847100 0.078778 0.138640
Si Si5 0.146009 0.072389 0.098850
Si Si6 0.202893 0.918923 0.657363
Si Si7 0.798029 0.429347 0.715115
Si Si8 0.560694 0.429358 0.924044
O O1 0.151184 0.250000 0.436606
O O2 0.104059 0.036844 0.541103
O O3 0.179284 0.056432 0.594445
O O4 0.167937 0.970972 0.382998
O O5 0.030950 0.250000 0.889816
O O6 0.046875 0.447681 0.720325
O O7 0.980748 0.482257 0.854273
O O8 0.056961 0.519150 0.942474
O O9 0.891301 0.750000 0.300460
O O10 0.879639 0.038290 0.238988
O O11 0.856367 0.250000 0.091436
O O12 0.802460 0.070387 0.203939
O O13 0.847228 0.959447 0.035617
O O14 0.145785 0.250000 0.124156
O O15 0.184767 0.999168 0.166744
O O16 0.100889 0.005522 0.136770
O O17 0.250000 0.940009 0.621594
O O18 0.187365 0.750000 0.615720
O O19 0.750000 0.487287 0.691086
O O20 0.797243 0.250000 0.727946
O O21 0.567097 0.250000 0.919221
#
# Coordination Sequence:
#
# PCOD8240899 Si02
#       8
#     8   8   8   8   8   8   8   8
#     4  10  20  34  55  82 109 137 175 223 273 324
#     4   9  17  30  51  81 117 153 188 226 269 320
#     4   9  17  31  52  80 114 148 178 218 273 325
#     4  10  19  31  49  75 105 140 181 221 267 326
#     4  12  24  38  56  78 110 147 183 228 280 333
#     4   9  18  32  50  73 103 137 171 213 266 322
#     4  11  25  44  63  80 101 136 185 236 282 331
#     4  10  19  31  51  81 115 152 191 228 268 321
#
# _framework density 19.656229
#
# number of rings (size 3 to 8) (size 9 to 14) (size 15 to 20)
#    0.000    2.000    1.250    3.000    0.000    4.750 
#    0.000    1.250    0.000    0.750    0.000    0.000 
#    0.000    0.000    0.000    0.000    0.000    0.000 
#
# Total GULP energy -792835.174460 kJ/mol
# GULP energy per Si atom -12388.049601 kJ/mol
# Density = 1.961149 g / cm^3
# Si number density = 19.656229 Si / 1000 Ang^3
#
#
#
# Elastic Constant Matrix: (Units=GPa)
#
#
# Indices 1 2 3 4 5 6 
#
# 1 57.1175 25.5624 19.7116 0.0000 0.0000 0.0000
# 2 25.5624 71.9096 15.2676 0.0000 0.0000 0.0000
# 3 19.7116 15.2676 56.5220 0.0000 0.0000 0.0000
# 4 0.0000 0.0000 0.0000 29.2528 0.0000 0.0000
# 5 0.0000 0.0000 0.0000 0.0000 30.7520 0.0000
# 6 0.0000 0.0000 0.0000 0.0000 0.0000 23.4142
#
#
#
# Elastic Compliance Matrix: (Units=1/GPa)
#
#
# Indices 1 2 3 4 5 6 
#
# 1 0.022624 -0.006755 -0.006065 0.000000 0.000000 0.000000
# 2 -0.006755 0.016769 -0.002174 0.000000 0.000000 0.000000
# 3 -0.006065 -0.002174 0.020395 0.000000 0.000000 0.000000
# 4 0.000000 0.000000 0.000000 0.034185 0.000000 0.000000
# 5 0.000000 0.000000 0.000000 0.000000 0.032518 0.000000
# 6 0.000000 0.000000 0.000000 0.000000 0.000000 0.042709
#
#
# Mechanical properties :
#
#
# Convention : Reuss Voigt Hill
#
# Bulk Modulus (GPa) = 33.55732 34.07025 33.81378
# Shear Modulus (GPa) = 23.90961 25.01764 24.46362
#
# Velocity S-wave (km/s) = 3.49146 3.57144 3.53168
# Velocity P-wave (km/s) = 5.77606 5.86324 5.81982
#
# Compressibility (1/GPa) = 0.02979976
#
# Stress axis : x y z
#
# Youngs Moduli (GPa) = 44.20096 59.63369 49.03232
#
# Poissons Ratio (x) = 0.40280 0.29740
# Poissons Ratio (y) = 0.29856 0.10660
# Poissons Ratio (z) = 0.26810 0.12964
#
# Static dielectric constant tensor:
#      x y z
#    x 3.891180 0.000000 0.000000 
#    y 0.000000 3.580810 0.000000 
#    z 0.000000 0.000000 3.484770 
# 
# 
# High freq. dielectric constant tensor:
#      x y z
#    x 1.758620 0.000000 0.000000 
#    y 0.000000 1.769540 0.000000 
#    z 0.000000 0.000000 1.740900 
# 
# From -- ./inp_files/19375.got.cif
#   From: 2010.03.12/outbox.cif.g09.slc.cpg/sg59_10_cif.got.tgz:19375.got - 2010.04.16 16:29:54.
