data_PCOD8240238
_publ_section_title
;
Structure prediction by ZEFSAII (Michael W. Deem and Ramdas Pophale) SiO2 
 PCOD8240238
Probable space group: P M M N
;
_chemical_formula_sum "Si O2"
_cell_formula_units_Z 40
_cell_length_a 8.540240
_cell_length_b 16.188652
_cell_length_c 13.841432
_cell_angle_alpha 90.000000
_cell_angle_beta 90.000000
_cell_angle_gamma 90.000000
_cell_volume 1913.646812
_symmetry_space_group_name_H-M "P M M N"
_symmetry_group_IT_number 59
_space_group.IT_coordinate_system_code '2'
_symmetry_cell_setting 'orthorhombic'
loop_
_space_group_symop_operation_xyz
x,y,z
1/2-x,1/2-y,z
1/2+x,-y,-z
-x,1/2+y,-z
-x,-y,-z
1/2+x,1/2+y,-z
1/2-x,y,z
x,1/2-y,z
loop_
_atom_site_type_symbol
_atom_site_label
_atom_site_fract_x
_atom_site_fract_y
_atom_site_fract_z
Si Si1 0.567659 0.066477 0.737277
Si Si2 0.436386 0.250000 0.242102
Si Si3 0.927495 0.655020 0.429555
Si Si4 0.433499 0.750000 0.969583
Si Si5 0.064643 0.097915 0.368530
Si Si6 0.566952 0.580281 0.053673
O O1 0.750000 0.062120 0.764889
O O2 0.533522 0.142474 0.665538
O O3 0.467102 0.073819 0.833256
O O4 0.507852 0.986842 0.678536
O O5 0.250000 0.250000 0.224368
O O6 0.525250 0.250000 0.141823
O O7 0.496802 0.329295 0.300290
O O8 0.750000 0.626838 0.406270
O O9 0.931386 0.750000 0.459561
O O10 0.999471 0.605691 0.521726
O O11 0.250000 0.750000 0.986481
O O12 0.498963 0.666660 0.016904
O O13 0.250000 0.104500 0.374656
O O14 0.750000 0.581515 0.033993
O O15 0.500000 0.500000 0.000000
#
# Coordination Sequence:
#
# PCOD8240238 Si02
#       6
#     8   4   8   4   8   8
#     4  11  23  38  60  91 128 166 210 263 322 382
#     4  10  18  36  65  92 119 160 213 266 324 384
#     4  10  20  37  60  87 122 165 215 261 309 375
#     4  12  26  44  67  98 133 172 221 276 332 394
#     4   9  18  35  61  90 120 162 211 260 314 379
#     4  12  26  47  71  98 132 173 221 275 335 397
#
# _framework density 20.902498000000001
#
# number of rings (size 3 to 8) (size 9 to 14) (size 15 to 20)
#    0.000    1.400    1.000    5.100    1.400    2.000 
#    0.000    3.000    0.000    0.000    0.000    0.000 
#    0.000    0.000    0.000    0.000    0.000    0.000 
#
# Total GULP energy -496063.873101 kJ/mol
# GULP energy per Si atom -12401.596828 kJ/mol
# Density = 2.085492 g / cm^3
# Si number density = 20.902498 Si / 1000 Ang^3
#
#
#
# Elastic Constant Matrix: (Units=GPa)
#
#
# Indices 1 2 3 4 5 6 
#
# 1 100.6076 42.3180 36.5549 0.0000 0.0000 0.0000
# 2 42.3180 120.7130 55.8483 0.0000 0.0000 0.0000
# 3 36.5549 55.8483 161.7013 0.0000 0.0000 0.0000
# 4 0.0000 0.0000 0.0000 28.4786 0.0000 0.0000
# 5 0.0000 0.0000 0.0000 0.0000 34.7387 0.0000
# 6 0.0000 0.0000 0.0000 0.0000 0.0000 29.5908
#
#
#
# Elastic Compliance Matrix: (Units=1/GPa)
#
#
# Indices 1 2 3 4 5 6 
#
# 1 0.011954 -0.003500 -0.001494 0.000000 0.000000 0.000000
# 2 -0.003500 0.010884 -0.002968 0.000000 0.000000 0.000000
# 3 -0.001494 -0.002968 0.007547 0.000000 0.000000 0.000000
# 4 0.000000 0.000000 0.000000 0.035114 0.000000 0.000000
# 5 0.000000 0.000000 0.000000 0.000000 0.028786 0.000000
# 6 0.000000 0.000000 0.000000 0.000000 0.000000 0.033794
#
#
# Mechanical properties :
#
#
# Convention : Reuss Voigt Hill
#
# Bulk Modulus (GPa) = 69.14366 72.49604 70.81985
# Shear Modulus (GPa) = 33.59668 35.11498 34.35583
#
# Velocity S-wave (km/s) = 4.01347 4.10316 4.05856
# Velocity P-wave (km/s) = 7.39109 7.56347 7.47778
#
# Compressibility (1/GPa) = 0.01446264
#
# Stress axis : x y z
#
# Youngs Moduli (GPa) = 83.65101 91.87655 132.50291
#
# Poissons Ratio (x) = 0.32155 0.19792
# Poissons Ratio (y) = 0.29276 0.39327
# Poissons Ratio (z) = 0.12495 0.27269
#
# Static dielectric constant tensor:
#      x y z
#    x 3.575940 0.000000 0.000000 
#    y 0.000000 3.808290 0.000000 
#    z 0.000000 0.000000 3.906190 
# 
# 
# High freq. dielectric constant tensor:
#      x y z
#    x 1.798540 0.000000 0.000000 
#    y 0.000000 1.832140 0.000000 
#    z 0.000000 0.000000 1.837400 
# 
# From -- ./inp_files/19943.got.cif
#   From: 2010.03.12/outbox.cif.g09.slc.cpg/sg59_10_cif.got.tgz:19943.got - 2010.04.16 16:29:54.
