data_PCOD8240234
_publ_section_title
;
Structure prediction by ZEFSAII (Michael W. Deem and Ramdas Pophale) SiO2 
 PCOD8240234
Probable space group: P M M N
;
_chemical_formula_sum "Si O2"
_cell_formula_units_Z 48
_cell_length_a 19.877313
_cell_length_b 14.453510
_cell_length_c 8.932056
_cell_angle_alpha 90.000000
_cell_angle_beta 90.000000
_cell_angle_gamma 90.000000
_cell_volume 2566.152377
_symmetry_space_group_name_H-M "P M M N"
_symmetry_group_IT_number 59
_space_group.IT_coordinate_system_code '2'
_symmetry_cell_setting 'orthorhombic'
loop_
_space_group_symop_operation_xyz
x,y,z
1/2-x,1/2-y,z
1/2+x,-y,-z
-x,1/2+y,-z
-x,-y,-z
1/2+x,1/2+y,-z
1/2-x,y,z
x,1/2-y,z
loop_
_atom_site_type_symbol
_atom_site_label
_atom_site_fract_x
_atom_site_fract_y
_atom_site_fract_z
Si Si1 0.594240 0.355148 0.617832
Si Si2 0.537952 0.850165 0.215987
Si Si3 0.045294 0.426762 0.088297
Si Si4 0.826109 0.146631 0.133061
Si Si5 0.064015 0.950475 0.683191
Si Si6 0.174350 0.962589 0.166429
O O1 0.610410 0.250000 0.564291
O O2 0.542206 0.356214 0.756416
O O3 0.560824 0.416631 0.487144
O O4 0.660560 0.406760 0.679176
O O5 0.564253 0.750000 0.278644
O O6 0.570008 0.937718 0.302484
O O7 0.553080 0.847009 0.036719
O O8 0.119755 0.456784 0.139843
O O9 0.001313 0.404280 0.235886
O O10 0.000000 0.500000 0.000000
O O11 0.750000 0.144017 0.191333
O O12 0.855337 0.250000 0.135166
O O13 0.867286 0.084277 0.245950
O O14 0.831461 0.111072 0.965197
O O15 0.250000 0.004958 0.174753
#
# Coordination Sequence:
#
# PCOD8240234 Si02
#       6
#     8   8   8   8   8   8
#     4  11  22  34  54  86 120 154 189 230 287 358
#     4  10  20  35  57  84 112 146 196 251 293 331
#     4  10  18  36  58  83 109 147 197 249 286 334
#     4  10  20  34  55  84 117 149 184 230 290 358
#     4  11  20  36  57  82 118 155 193 238 287 341
#     4  11  21  36  57  82 117 156 187 228 291 356
#
# _framework density 18.705045999999999
#
# number of rings (size 3 to 8) (size 9 to 14) (size 15 to 20)
#    0.000    1.500    6.667    1.500    0.000    4.333 
#    0.000    0.000    0.000    2.000    0.000    0.000 
#    0.000    0.000    0.000    0.000    0.000    0.000 
#
# Total GULP energy -594792.254187 kJ/mol
# GULP energy per Si atom -12391.505296 kJ/mol
# Density = 1.866247 g / cm^3
# Si number density = 18.705046 Si / 1000 Ang^3
#
#
#
# Elastic Constant Matrix: (Units=GPa)
#
#
# Indices 1 2 3 4 5 6 
#
# 1 107.6748 35.0116 41.3947 0.0000 0.0000 0.0000
# 2 35.0116 89.6535 37.7996 0.0000 0.0000 0.0000
# 3 41.3947 37.7996 91.8517 0.0000 0.0000 0.0000
# 4 0.0000 0.0000 0.0000 23.0924 0.0000 0.0000
# 5 0.0000 0.0000 0.0000 0.0000 10.9427 0.0000
# 6 0.0000 0.0000 0.0000 0.0000 0.0000 21.8068
#
#
#
# Elastic Compliance Matrix: (Units=1/GPa)
#
#
# Indices 1 2 3 4 5 6 
#
# 1 0.011812 -0.002866 -0.004144 0.000000 0.000000 0.000000
# 2 -0.002866 0.014191 -0.004548 0.000000 0.000000 0.000000
# 3 -0.004144 -0.004548 0.014627 0.000000 0.000000 0.000000
# 4 0.000000 0.000000 0.000000 0.043304 0.000000 0.000000
# 5 0.000000 0.000000 0.000000 0.000000 0.091385 0.000000
# 6 0.000000 0.000000 0.000000 0.000000 0.000000 0.045857
#
#
# Mechanical properties :
#
#
# Convention : Reuss Voigt Hill
#
# Bulk Modulus (GPa) = 57.09997 57.51020 57.30509
# Shear Modulus (GPa) = 19.98954 22.83331 21.41143
#
# Velocity S-wave (km/s) = 3.27260 3.49765 3.38699
# Velocity P-wave (km/s) = 6.69871 6.86469 6.78220
#
# Compressibility (1/GPa) = 0.01751314
#
# Stress axis : x y z
#
# Youngs Moduli (GPa) = 84.65834 70.46774 68.36880
#
# Poissons Ratio (x) = 0.20194 0.28333
# Poissons Ratio (y) = 0.24260 0.31097
# Poissons Ratio (z) = 0.35083 0.32052
#
# Static dielectric constant tensor:
#      x y z
#    x 3.469620 0.000000 0.000000 
#    y 0.000000 3.579430 0.000000 
#    z 0.000000 0.000000 3.765170 
# 
# 
# High freq. dielectric constant tensor:
#      x y z
#    x 1.708960 0.000000 0.000000 
#    y 0.000000 1.710820 0.000000 
#    z 0.000000 0.000000 1.726130 
# 
# From -- ./inp_files/10248.got.cif
#   From: 2010.03.12/outbox.cif.g09.slc.cpg/sg59_6_cif.got.tgz:10248.got - 2010.04.16 16:29:54.
