data_PCOD8240578
_publ_section_title
;
Structure prediction by ZEFSAII (Michael W. Deem and Ramdas Pophale) SiO2 
 PCOD8240578
Probable space group: P M M N
;
_chemical_formula_sum "Si O2"
_cell_formula_units_Z 64
_cell_length_a 19.009247
_cell_length_b 8.974700
_cell_length_c 21.183473
_cell_angle_alpha 90.000000
_cell_angle_beta 90.000000
_cell_angle_gamma 90.000000
_cell_volume 3613.948984
_symmetry_space_group_name_H-M "P M M N"
_symmetry_group_IT_number 59
_space_group.IT_coordinate_system_code '2'
_symmetry_cell_setting 'orthorhombic'
loop_
_space_group_symop_operation_xyz
x,y,z
1/2-x,1/2-y,z
1/2+x,-y,-z
-x,1/2+y,-z
-x,-y,-z
1/2+x,1/2+y,-z
1/2-x,y,z
x,1/2-y,z
loop_
_atom_site_type_symbol
_atom_site_label
_atom_site_fract_x
_atom_site_fract_y
_atom_site_fract_z
Si Si1 0.365474 0.412724 0.264974
Si Si2 0.467137 0.925979 0.439094
Si Si3 0.916211 0.424487 0.848840
Si Si4 0.172754 0.075884 0.398980
Si Si5 0.167774 0.077799 0.899837
Si Si6 0.059968 0.573409 0.811622
Si Si7 0.830581 0.422984 0.972042
Si Si8 0.980945 0.413488 0.321020
O O1 0.338222 0.250000 0.242384
O O2 0.362277 0.526862 0.206770
O O3 0.320977 0.470101 0.325057
O O4 0.444294 0.396735 0.288734
O O5 0.468664 0.750000 0.445844
O O6 0.500000 0.000000 0.500000
O O7 0.386319 0.979284 0.433819
O O8 0.515151 0.971700 0.379027
O O9 0.928973 0.250000 0.843094
O O10 0.880356 0.469629 0.914463
O O11 0.990787 0.505488 0.844193
O O12 0.250000 0.046512 0.429460
O O13 0.151458 0.250000 0.404326
O O14 0.250000 0.050498 0.889334
O O15 0.147014 0.250000 0.895925
O O16 0.128859 0.988890 0.844962
O O17 0.144129 0.017346 0.967950
O O18 0.055415 0.750000 0.819263
O O19 0.068069 0.529865 0.736929
O O20 0.750000 0.460172 0.954102
O O21 0.839098 0.250000 0.988920
O O22 0.956610 0.250000 0.346111
#
# Coordination Sequence:
#
# PCOD8240578 Si02
#       8
#     8   8   8   8   8   8   8   8
#     4   8  15  28  45  67  97 131 163 196 239 292
#     4  11  21  33  53  79 107 140 175 210 250 296
#     4  10  19  30  47  72 101 132 167 209 251 291
#     4   9  18  33  51  72 102 138 174 212 252 295
#     4  10  21  36  54  75  96 121 160 210 259 308
#     4  10  20  34  54  76 100 131 162 200 250 301
#     4   9  19  35  50  65  92 131 170 207 252 305
#     4   8  16  32  51  73 100 127 160 199 238 286
#
# _framework density 17.709161000000002
#
# number of rings (size 3 to 8) (size 9 to 14) (size 15 to 20)
#    0.000    2.625    0.000    3.750    0.000    8.000 
#    0.000    0.000    0.000    0.750    0.000    3.500 
#    0.000    0.000    0.000    0.000    0.000    0.000 
#
# Total GULP energy -793286.689610 kJ/mol
# GULP energy per Si atom -12395.104525 kJ/mol
# Density = 1.766885 g / cm^3
# Si number density = 17.709161 Si / 1000 Ang^3
#
#
#
# Elastic Constant Matrix: (Units=GPa)
#
#
# Indices 1 2 3 4 5 6 
#
# 1 65.3075 47.3347 58.8371 0.0000 0.0000 0.0000
# 2 47.3347 110.8815 73.2976 0.0000 0.0000 0.0000
# 3 58.8371 73.2976 127.0739 0.0000 0.0000 0.0000
# 4 0.0000 0.0000 0.0000 32.3136 0.0000 0.0000
# 5 0.0000 0.0000 0.0000 0.0000 18.3208 0.0000
# 6 0.0000 0.0000 0.0000 0.0000 0.0000 21.2199
#
#
#
# Elastic Compliance Matrix: (Units=1/GPa)
#
#
# Indices 1 2 3 4 5 6 
#
# 1 0.028210 -0.005509 -0.009884 0.000000 0.000000 0.000000
# 2 -0.005509 0.015652 -0.006478 0.000000 0.000000 0.000000
# 3 -0.009884 -0.006478 0.016182 0.000000 0.000000 0.000000
# 4 0.000000 0.000000 0.000000 0.030947 0.000000 0.000000
# 5 0.000000 0.000000 0.000000 0.000000 0.054583 0.000000
# 6 0.000000 0.000000 0.000000 0.000000 0.000000 0.047126
#
#
# Mechanical properties :
#
#
# Convention : Reuss Voigt Hill
#
# Bulk Modulus (GPa) = 61.33753 73.57798 67.45775
# Shear Modulus (GPa) = 20.67183 22.62377 21.64780
#
# Velocity S-wave (km/s) = 3.42028 3.57812 3.50009
# Velocity P-wave (km/s) = 7.09288 7.66216 7.38301
#
# Compressibility (1/GPa) = 0.01630323
#
# Stress axis : x y z
#
# Youngs Moduli (GPa) = 35.44888 63.88776 61.79574
#
# Poissons Ratio (x) = 0.35195 0.61079
# Poissons Ratio (y) = 0.19528 0.40030
# Poissons Ratio (z) = 0.35038 0.41385
#
# Static dielectric constant tensor:
#      x y z
#    x 4.093630 0.000000 0.000000 
#    y 0.000000 3.363770 0.000000 
#    z 0.000000 0.000000 3.556710 
# 
# 
# High freq. dielectric constant tensor:
#      x y z
#    x 1.663870 0.000000 0.000000 
#    y 0.000000 1.687760 0.000000 
#    z 0.000000 0.000000 1.678910 
# 
# From -- ./inp_files/30928.got.cif
#   From: 2010.03.12/outbox.cif.g09.slc.cpg/sg59_16_cif.got.tgz:30928.got - 2010.04.16 16:29:54.
