data_PCOD8240358
_publ_section_title
;
Structure prediction by ZEFSAII (Michael W. Deem and Ramdas Pophale) SiO2 
 PCOD8240358
Probable space group: P M M N
;
_chemical_formula_sum "Si O2"
_cell_formula_units_Z 48
_cell_length_a 9.112065
_cell_length_b 21.548830
_cell_length_c 15.208954
_cell_angle_alpha 90.000000
_cell_angle_beta 90.000000
_cell_angle_gamma 90.000000
_cell_volume 2986.344119
_symmetry_space_group_name_H-M "P M M N"
_symmetry_group_IT_number 59
_space_group.IT_coordinate_system_code '2'
_symmetry_cell_setting 'orthorhombic'
loop_
_space_group_symop_operation_xyz
x,y,z
1/2-x,1/2-y,z
1/2+x,-y,-z
-x,1/2+y,-z
-x,-y,-z
1/2+x,1/2+y,-z
1/2-x,y,z
x,1/2-y,z
loop_
_atom_site_type_symbol
_atom_site_label
_atom_site_fract_x
_atom_site_fract_y
_atom_site_fract_z
Si Si1 0.420998 0.094106 0.160314
Si Si2 0.578165 0.936607 0.025586
Si Si3 0.080088 0.544983 0.189158
Si Si4 0.920650 0.412636 0.434892
Si Si5 0.418349 0.534446 0.382164
Si Si6 0.424574 0.320602 0.313988
O O1 0.250000 0.092984 0.179438
O O2 0.487947 0.145692 0.225813
O O3 0.480815 0.025651 0.183977
O O4 0.451665 0.110197 0.056908
O O5 0.750000 0.947934 0.038070
O O6 0.509108 0.912909 0.118130
O O7 0.500000 0.000000 0.000000
O O8 0.250000 0.548660 0.162514
O O9 0.052541 0.568753 0.288775
O O10 0.750000 0.405370 0.413037
O O11 0.949602 0.416837 0.539876
O O12 0.977938 0.474950 0.388859
O O13 0.006998 0.352975 0.399735
O O14 0.250000 0.510530 0.386192
O O15 0.250000 0.324286 0.320895
O O16 0.479274 0.250000 0.310744
#
# Coordination Sequence:
#
# PCOD8240358 Si02
#       6
#     8   8   8   8   8   8
#     4   8  14  26  41  58  83 114 143 177 212 252
#     4   9  16  25  38  58  86 114 141 173 213 257
#     4   9  15  26  43  61  86 115 142 175 213 263
#     4  10  19  29  44  67  91 116 148 191 231 265
#     4   9  17  30  46  63  90 123 149 177 226 283
#     4  10  19  32  49  64  84 121 159 184 217 271
#
# _framework density 16.073163999999998
#
# number of rings (size 3 to 8) (size 9 to 14) (size 15 to 20)
#    0.000    2.833    1.667    2.000    0.000    1.667 
#    0.000    0.833    0.000    0.000    0.000    1.167 
#    0.000    4.000    0.000    0.000    0.000    0.000 
#
# Total GULP energy -594734.472471 kJ/mol
# GULP energy per Si atom -12390.301510 kJ/mol
# Density = 1.603658 g / cm^3
# Si number density = 16.073164 Si / 1000 Ang^3
#
#
#
# Elastic Constant Matrix: (Units=GPa)
#
#
# Indices 1 2 3 4 5 6 
#
# 1 53.4228 22.7981 44.8183 0.0000 0.0000 0.0000
# 2 22.7981 60.1934 43.0533 0.0000 0.0000 0.0000
# 3 44.8183 43.0533 151.1398 0.0000 0.0000 0.0000
# 4 0.0000 0.0000 0.0000 16.9729 0.0000 0.0000
# 5 0.0000 0.0000 0.0000 0.0000 28.3594 0.0000
# 6 0.0000 0.0000 0.0000 0.0000 0.0000 14.6919
#
#
#
# Elastic Compliance Matrix: (Units=1/GPa)
#
#
# Indices 1 2 3 4 5 6 
#
# 1 0.026293 -0.005503 -0.006229 0.000000 0.000000 0.000000
# 2 -0.005503 0.022016 -0.004640 0.000000 0.000000 0.000000
# 3 -0.006229 -0.004640 0.009785 0.000000 0.000000 0.000000
# 4 0.000000 0.000000 0.000000 0.058917 0.000000 0.000000
# 5 0.000000 0.000000 0.000000 0.000000 0.035262 0.000000
# 6 0.000000 0.000000 0.000000 0.000000 0.000000 0.068065
#
#
# Mechanical properties :
#
#
# Convention : Reuss Voigt Hill
#
# Bulk Modulus (GPa) = 39.44699 54.01061 46.72880
# Shear Modulus (GPa) = 19.11816 22.27725 20.69770
#
# Velocity S-wave (km/s) = 3.45258 3.72693 3.59237
# Velocity P-wave (km/s) = 6.36311 7.22467 6.80753
#
# Compressibility (1/GPa) = 0.02535048
#
# Stress axis : x y z
#
# Youngs Moduli (GPa) = 38.03310 45.42195 102.19519
#
# Poissons Ratio (x) = 0.24995 0.63660
# Poissons Ratio (y) = 0.20929 0.47414
# Poissons Ratio (z) = 0.23692 0.21074
#
# Static dielectric constant tensor:
#      x y z
#    x 3.019930 0.000000 0.000000 
#    y 0.000000 2.660750 0.000000 
#    z 0.000000 0.000000 3.713110 
# 
# 
# High freq. dielectric constant tensor:
#      x y z
#    x 1.609360 0.000000 0.000000 
#    y 0.000000 1.547730 0.000000 
#    z 0.000000 0.000000 1.641200 
# 
# From -- ./inp_files/20741.got.cif
#   From: 2010.03.12/outbox.cif.g09.slc.cpg/sg59_11_cif.got.tgz:20741.got - 2010.04.16 16:29:54.
