data_PCOD8240547
_publ_section_title
;
Structure prediction by ZEFSAII (Michael W. Deem and Ramdas Pophale) SiO2 
 PCOD8240547
Probable space group: P M M N
;
_chemical_formula_sum "Si O2"
_cell_formula_units_Z 64
_cell_length_a 9.420960
_cell_length_b 17.276485
_cell_length_c 23.120539
_cell_angle_alpha 90.000000
_cell_angle_beta 90.000000
_cell_angle_gamma 90.000000
_cell_volume 3763.123762
_symmetry_space_group_name_H-M "P M M N"
_symmetry_group_IT_number 59
_space_group.IT_coordinate_system_code '2'
_symmetry_cell_setting 'orthorhombic'
loop_
_space_group_symop_operation_xyz
x,y,z
1/2-x,1/2-y,z
1/2+x,-y,-z
-x,1/2+y,-z
-x,-y,-z
1/2+x,1/2+y,-z
1/2-x,y,z
x,1/2-y,z
loop_
_atom_site_type_symbol
_atom_site_label
_atom_site_fract_x
_atom_site_fract_y
_atom_site_fract_z
Si Si1 0.916171 0.469616 0.863327
Si Si2 0.916824 0.990861 0.736008
Si Si3 0.085896 0.892881 0.573219
Si Si4 0.089622 0.447382 0.634768
Si Si5 0.087164 0.164628 0.323522
Si Si6 0.586001 0.660307 0.466563
Si Si7 0.589254 0.562485 0.968193
Si Si8 0.583813 0.837331 0.069244
O O1 0.750000 0.448213 0.862378
O O2 0.974279 0.487487 0.799406
O O3 0.942209 0.550291 0.899706
O O4 0.998889 0.396314 0.889768
O O5 0.750000 0.003267 0.732284
O O6 0.958731 0.901494 0.722253
O O7 0.987444 0.048608 0.689998
O O8 0.250000 0.868568 0.569477
O O9 0.008731 0.837814 0.619377
O O10 0.014340 0.883921 0.511094
O O11 0.065694 0.981201 0.591713
O O12 0.250000 0.446573 0.658490
O O13 0.054756 0.370743 0.598046
O O14 0.250000 0.151337 0.342629
O O15 0.068029 0.250000 0.295124
O O16 0.750000 0.644763 0.483144
O O17 0.547875 0.750000 0.467121
O O18 0.750000 0.539580 0.980261
O O19 0.500000 0.500000 0.000000
O O20 0.557328 0.644450 0.000080
O O21 0.750000 0.844884 0.084188
O O22 0.530008 0.750000 0.080422
#
# Coordination Sequence:
#
# PCOD8240547 Si02
#       8
#     8   8   8   8   8   8   8   8
#     4   9  17  30  48  69  93 123 157 190 226 269
#     4   9  18  32  49  68  90 119 156 191 222 263
#     4  10  19  30  47  70  92 114 144 183 226 275
#     4   9  19  34  49  66  89 119 153 186 224 270
#     4   9  17  30  47  66  90 119 148 181 224 272
#     4  10  20  33  48  66  89 116 146 183 228 276
#     4   8  14  26  44  65  90 118 146 178 219 265
#     4   9  17  29  46  70  97 123 154 192 230 267
#
# _framework density 17.007147
#
# number of rings (size 3 to 8) (size 9 to 14) (size 15 to 20)
#    0.000    2.875    0.000    1.125    0.000    3.750 
#    0.000    1.250    0.000    6.000    0.000    0.000 
#    0.000    9.000    0.000    0.000    0.000    0.000 
#
# Total GULP energy -793052.070814 kJ/mol
# GULP energy per Si atom -12391.438606 kJ/mol
# Density = 1.696844 g / cm^3
# Si number density = 17.007147 Si / 1000 Ang^3
#
#
#
# Elastic Constant Matrix: (Units=GPa)
#
#
# Indices 1 2 3 4 5 6 
#
# 1 52.9098 27.6760 46.5750 0.0000 0.0000 0.0000
# 2 27.6760 60.3972 47.5738 0.0000 0.0000 0.0000
# 3 46.5750 47.5738 127.8752 0.0000 0.0000 0.0000
# 4 0.0000 0.0000 0.0000 18.1068 0.0000 0.0000
# 5 0.0000 0.0000 0.0000 0.0000 24.8006 0.0000
# 6 0.0000 0.0000 0.0000 0.0000 0.0000 20.4624
#
#
#
# Elastic Compliance Matrix: (Units=1/GPa)
#
#
# Indices 1 2 3 4 5 6 
#
# 1 0.029906 -0.007248 -0.008196 0.000000 0.000000 0.000000
# 2 -0.007248 0.025177 -0.006727 0.000000 0.000000 0.000000
# 3 -0.008196 -0.006727 0.013308 0.000000 0.000000 0.000000
# 4 0.000000 0.000000 0.000000 0.055228 0.000000 0.000000
# 5 0.000000 0.000000 0.000000 0.000000 0.040322 0.000000
# 6 0.000000 0.000000 0.000000 0.000000 0.000000 0.048870
#
#
# Mechanical properties :
#
#
# Convention : Reuss Voigt Hill
#
# Bulk Modulus (GPa) = 41.58134 53.87019 47.72576
# Shear Modulus (GPa) = 18.85593 20.63110 19.74352
#
# Velocity S-wave (km/s) = 3.33334 3.48671 3.41089
# Velocity P-wave (km/s) = 6.27035 6.92484 6.60570
#
# Compressibility (1/GPa) = 0.02404925
#
# Stress axis : x y z
#
# Youngs Moduli (GPa) = 33.43797 39.71893 75.14383
#
# Poissons Ratio (x) = 0.28789 0.61587
# Poissons Ratio (y) = 0.24237 0.50547
# Poissons Ratio (z) = 0.27405 0.26718
#
# Static dielectric constant tensor:
#      x y z
#    x 3.188090 0.000000 0.000000 
#    y 0.000000 3.285410 0.000000 
#    z 0.000000 0.000000 3.377210 
# 
# 
# High freq. dielectric constant tensor:
#      x y z
#    x 1.656350 0.000000 0.000000 
#    y 0.000000 1.645290 0.000000 
#    z 0.000000 0.000000 1.644730 
# 
# From -- ./inp_files/31728.got.cif
#   From: 2010.03.12/outbox.cif.g09.slc.cpg/sg59_16_cif.got.tgz:31728.got - 2010.04.16 16:29:54.
