data_PCOD8240589
_publ_section_title
;
Structure prediction by ZEFSAII (Michael W. Deem and Ramdas Pophale) SiO2 
 PCOD8240589
Probable space group: P M M N
;
_chemical_formula_sum "Si O2"
_cell_formula_units_Z 64
_cell_length_a 9.174683
_cell_length_b 25.221217
_cell_length_c 15.447070
_cell_angle_alpha 90.000000
_cell_angle_beta 90.000000
_cell_angle_gamma 90.000000
_cell_volume 3574.400572
_symmetry_space_group_name_H-M "P M M N"
_symmetry_group_IT_number 59
_space_group.IT_coordinate_system_code '2'
_symmetry_cell_setting 'orthorhombic'
loop_
_space_group_symop_operation_xyz
x,y,z
1/2-x,1/2-y,z
1/2+x,-y,-z
-x,1/2+y,-z
-x,-y,-z
1/2+x,1/2+y,-z
1/2-x,y,z
x,1/2-y,z
loop_
_atom_site_type_symbol
_atom_site_label
_atom_site_fract_x
_atom_site_fract_y
_atom_site_fract_z
Si Si1 0.920284 0.517842 0.126795
Si Si2 0.914651 0.935521 0.624717
Si Si3 0.416443 0.548876 0.295971
Si Si4 0.580029 0.690434 0.876888
Si Si5 0.581946 0.154737 0.290795
Si Si6 0.409747 0.690790 0.521790
Si Si7 0.581239 0.578427 0.952155
Si Si8 0.580788 0.895387 0.441347
O O1 0.750000 0.509644 0.143664
O O2 0.994808 0.545340 0.207899
O O3 0.988674 0.459610 0.111001
O O4 0.950109 0.559412 0.049486
O O5 0.750000 0.913781 0.633851
O O6 0.965064 0.931007 0.524556
O O7 0.015265 0.903260 0.691170
O O8 0.927778 0.995938 0.649049
O O9 0.250000 0.563990 0.274645
O O10 0.488885 0.592938 0.355930
O O11 0.750000 0.686756 0.856406
O O12 0.543659 0.750000 0.915310
O O13 0.495795 0.684353 0.787438
O O14 0.536802 0.640880 0.940542
O O15 0.750000 0.147603 0.266165
O O16 0.556908 0.190034 0.375885
O O17 0.250000 0.663889 0.505814
O O18 0.405600 0.750000 0.488094
O O19 0.538584 0.664037 0.467861
O O20 0.750000 0.570026 0.927568
O O21 0.750000 0.900600 0.418723
#
# Coordination Sequence:
#
# PCOD8240589 Si02
#       8
#     8   8   8   8   8   8   8   8
#     4  10  20  34  54  77  99 127 164 208 253 296
#     4   9  19  33  48  69 100 136 168 200 239 286
#     4  11  21  33  50  72 100 132 164 199 245 297
#     4  10  20  33  50  72 100 134 166 197 240 295
#     4  10  19  30  47  73 103 133 166 202 239 283
#     4   9  18  33  50  67  93 130 167 202 243 289
#     4   9  19  36  54  74 101 129 161 202 249 301
#     4  10  20  33  49  71  98 127 164 206 244 286
#
# _framework density 17.905100000000001
#
# number of rings (size 3 to 8) (size 9 to 14) (size 15 to 20)
#    0.000    2.250    0.000    3.000    0.000    7.000 
#    0.000    0.000    0.000    0.750    0.000    1.750 
#    0.000    0.000    0.000    0.000    0.000    0.000 
#
# Total GULP energy -793381.801784 kJ/mol
# GULP energy per Si atom -12396.590653 kJ/mol
# Density = 1.786435 g / cm^3
# Si number density = 17.905100 Si / 1000 Ang^3
#
#
#
# Elastic Constant Matrix: (Units=GPa)
#
#
# Indices 1 2 3 4 5 6 
#
# 1 76.0335 42.7294 47.0631 0.0000 0.0000 0.0000
# 2 42.7294 98.1925 45.6215 0.0000 0.0000 0.0000
# 3 47.0631 45.6215 90.2560 0.0000 0.0000 0.0000
# 4 0.0000 0.0000 0.0000 16.3302 0.0000 0.0000
# 5 0.0000 0.0000 0.0000 0.0000 29.9070 0.0000
# 6 0.0000 0.0000 0.0000 0.0000 0.0000 24.7097
#
#
#
# Elastic Compliance Matrix: (Units=1/GPa)
#
#
# Indices 1 2 3 4 5 6 
#
# 1 0.021405 -0.005396 -0.008434 0.000000 0.000000 0.000000
# 2 -0.005396 0.014670 -0.004602 0.000000 0.000000 0.000000
# 3 -0.008434 -0.004602 0.017803 0.000000 0.000000 0.000000
# 4 0.000000 0.000000 0.000000 0.061236 0.000000 0.000000
# 5 0.000000 0.000000 0.000000 0.000000 0.033437 0.000000
# 6 0.000000 0.000000 0.000000 0.000000 0.000000 0.040470
#
#
# Mechanical properties :
#
#
# Convention : Reuss Voigt Hill
#
# Bulk Modulus (GPa) = 58.77029 59.47892 59.12460
# Shear Modulus (GPa) = 21.59300 22.79392 22.19346
#
# Velocity S-wave (km/s) = 3.47647 3.57184 3.52448
# Velocity P-wave (km/s) = 7.00064 7.09238 7.04666
#
# Compressibility (1/GPa) = 0.01701540
#
# Stress axis : x y z
#
# Youngs Moduli (GPa) = 46.71807 68.16543 56.16932
#
# Poissons Ratio (x) = 0.36783 0.47373
# Poissons Ratio (y) = 0.25210 0.25847
# Poissons Ratio (z) = 0.39401 0.31367
#
# Static dielectric constant tensor:
#      x y z
#    x 3.471550 0.000000 0.000000 
#    y 0.000000 3.321580 0.000000 
#    z 0.000000 0.000000 3.178790 
# 
# 
# High freq. dielectric constant tensor:
#      x y z
#    x 1.702660 0.000000 0.000000 
#    y 0.000000 1.682030 0.000000 
#    z 0.000000 0.000000 1.674560 
# 
# From -- ./inp_files/21603.got.cif
#   From: 2010.03.12/outbox.cif.g09.slc.cpg/sg59_11_cif.got.tgz:21603.got - 2010.04.16 16:29:54.
