data_PCOD8240084
_publ_section_title
;
Structure prediction by ZEFSAII (Michael W. Deem and Ramdas Pophale) SiO2 
 PCOD8240084
Probable space group: P M M N
;
_chemical_formula_sum "Si O2"
_cell_formula_units_Z 56
_cell_length_a 8.920729
_cell_length_b 21.902232
_cell_length_c 15.019914
_cell_angle_alpha 90.000000
_cell_angle_beta 90.000000
_cell_angle_gamma 90.000000
_cell_volume 2934.649017
_symmetry_space_group_name_H-M "P M M N"
_symmetry_group_IT_number 59
_space_group.IT_coordinate_system_code '2'
_symmetry_cell_setting 'orthorhombic'
loop_
_space_group_symop_operation_xyz
x,y,z
1/2-x,1/2-y,z
1/2+x,-y,-z
-x,1/2+y,-z
-x,-y,-z
1/2+x,1/2+y,-z
1/2-x,y,z
x,1/2-y,z
loop_
_atom_site_type_symbol
_atom_site_label
_atom_site_fract_x
_atom_site_fract_y
_atom_site_fract_z
Si Si1 0.077297 0.919101 0.654154
Si Si2 0.423902 0.447084 0.692322
Si Si3 0.925921 0.817722 0.969096
Si Si4 0.927333 0.750000 0.437890
Si Si5 0.076911 0.359018 0.845333
Si Si6 0.575051 0.250000 0.751127
Si Si7 0.576417 0.126881 0.536554
Si Si8 0.573779 0.679907 0.774044
O O1 0.250000 0.913378 0.679643
O O2 0.052270 0.916910 0.547994
O O3 0.995838 0.863301 0.700449
O O4 0.012781 0.984071 0.687991
O O5 0.250000 0.445548 0.664078
O O6 0.446981 0.422757 0.793351
O O7 0.511637 0.404040 0.624622
O O8 0.750000 0.812154 0.956143
O O9 0.988496 0.750000 0.993638
O O10 0.989020 0.838944 0.872726
O O11 0.964397 0.865042 0.049280
O O12 0.750000 0.750000 0.447680
O O13 0.973075 0.750000 0.335535
O O14 0.992870 0.809916 0.485248
O O15 0.250000 0.336998 0.835040
O O16 0.963933 0.309831 0.806301
O O17 0.750000 0.250000 0.726064
O O18 0.750000 0.140997 0.553954
O O19 0.750000 0.671261 0.768239
O O20 0.528894 0.750000 0.753905
#
# Coordination Sequence:
#
# PCOD8240084 Si02
#       8
#     8   8   8   4   8   4   8   8
#     4  10  23  40  56  78 112 150 186 228 283 335
#     4  10  21  37  57  82 111 149 192 224 263 337
#     4   8  14  28  53  82 109 138 182 233 278 326
#     4  12  24  38  56  81 112 145 184 229 276 332
#     4  10  18  32  57  82 109 148 188 223 271 331
#     4  12  22  32  50  81 120 147 178 227 276 326
#     4  11  23  38  57  81 113 147 182 230 285 328
#     4   9  19  36  58  83 107 138 189 243 281 326
#
# _framework density 19.082350000000002
#
# number of rings (size 3 to 8) (size 9 to 14) (size 15 to 20)
#    0.000    2.000    2.143    3.000    1.000    2.000 
#    0.000    1.429    0.000    0.000    0.000    0.000 
#    0.000    0.000    0.000    0.000    0.000    0.000 
#
# Total GULP energy -694203.609503 kJ/mol
# GULP energy per Si atom -12396.493027 kJ/mol
# Density = 1.903892 g / cm^3
# Si number density = 19.082350 Si / 1000 Ang^3
#
#
#
# Elastic Constant Matrix: (Units=GPa)
#
#
# Indices 1 2 3 4 5 6 
#
# 1 63.2342 33.9424 20.6090 0.0000 0.0000 0.0000
# 2 33.9424 101.7844 32.6019 0.0000 0.0000 0.0000
# 3 20.6090 32.6019 85.1859 0.0000 0.0000 0.0000
# 4 0.0000 0.0000 0.0000 23.1571 0.0000 0.0000
# 5 0.0000 0.0000 0.0000 0.0000 18.4599 0.0000
# 6 0.0000 0.0000 0.0000 0.0000 0.0000 18.9644
#
#
#
# Elastic Compliance Matrix: (Units=1/GPa)
#
#
# Indices 1 2 3 4 5 6 
#
# 1 0.019745 -0.005760 -0.002572 0.000000 0.000000 0.000000
# 2 -0.005760 0.012878 -0.003535 0.000000 0.000000 0.000000
# 3 -0.002572 -0.003535 0.013714 0.000000 0.000000 0.000000
# 4 0.000000 0.000000 0.000000 0.043183 0.000000 0.000000
# 5 0.000000 0.000000 0.000000 0.000000 0.054171 0.000000
# 6 0.000000 0.000000 0.000000 0.000000 0.000000 0.052730
#
#
# Mechanical properties :
#
#
# Convention : Reuss Voigt Hill
#
# Bulk Modulus (GPa) = 44.24475 47.16790 45.70633
# Shear Modulus (GPa) = 21.95962 22.98637 22.47300
#
# Velocity S-wave (km/s) = 3.39600 3.47448 3.43546
# Velocity P-wave (km/s) = 6.21399 6.39279 6.30402
#
# Compressibility (1/GPa) = 0.02260155
#
# Stress axis : x y z
#
# Youngs Moduli (GPa) = 50.64681 77.65248 72.91716
#
# Poissons Ratio (x) = 0.44731 0.18756
# Poissons Ratio (y) = 0.29175 0.25776
# Poissons Ratio (z) = 0.13027 0.27450
#
# Static dielectric constant tensor:
#      x y z
#    x 3.296770 0.000000 0.000000 
#    y 0.000000 3.540100 0.000000 
#    z 0.000000 0.000000 3.699550 
# 
# 
# High freq. dielectric constant tensor:
#      x y z
#    x 1.722260 0.000000 0.000000 
#    y 0.000000 1.728480 0.000000 
#    z 0.000000 0.000000 1.749950 
# 
# From -- ./inp_files/21232.got.cif
#   From: 2010.03.12/outbox.cif.g09.slc.cpg/sg59_11_cif.got.tgz:21232.got - 2010.04.16 16:29:54.
