data_PCOD8240845
_publ_section_title
;
Structure prediction by ZEFSAII (Michael W. Deem and Ramdas Pophale) SiO2 
 PCOD8240845
Probable space group: P M M N
;
_chemical_formula_sum "Si O2"
_cell_formula_units_Z 56
_cell_length_a 19.318775
_cell_length_b 8.946867
_cell_length_c 17.958014
_cell_angle_alpha 90.000000
_cell_angle_beta 90.000000
_cell_angle_gamma 90.000000
_cell_volume 3103.908224
_symmetry_space_group_name_H-M "P M M N"
_symmetry_group_IT_number 59
_space_group.IT_coordinate_system_code '2'
_symmetry_cell_setting 'orthorhombic'
loop_
_space_group_symop_operation_xyz
x,y,z
1/2-x,1/2-y,z
1/2+x,-y,-z
-x,1/2+y,-z
-x,-y,-z
1/2+x,1/2+y,-z
1/2-x,y,z
x,1/2-y,z
loop_
_atom_site_type_symbol
_atom_site_label
_atom_site_fract_x
_atom_site_fract_y
_atom_site_fract_z
Si Si1 0.572297 0.071702 0.872134
Si Si2 0.578280 0.076186 0.706855
Si Si3 0.327646 0.927059 0.998354
Si Si4 0.073038 0.572979 0.866667
Si Si5 0.170445 0.075180 0.575311
Si Si6 0.329169 0.573369 0.424601
Si Si7 0.079248 0.075273 0.712214
O O1 0.562497 0.250000 0.873828
O O2 0.594938 0.015180 0.789768
O O3 0.498670 0.000454 0.893253
O O4 0.630383 0.014865 0.929488
O O5 0.594676 0.250000 0.706728
O O6 0.627100 0.002734 0.643911
O O7 0.498950 0.042865 0.686541
O O8 0.250000 0.995619 0.998595
O O9 0.323157 0.750000 0.001960
O O10 0.367541 0.977768 0.924162
O O11 0.063394 0.750000 0.865372
O O12 0.097510 0.515985 0.786224
O O13 0.250000 0.033583 0.589615
O O14 0.158937 0.250000 0.564104
O O15 0.128266 0.016544 0.646464
O O16 0.142271 0.994744 0.501430
O O17 0.250000 0.525540 0.411597
O O18 0.337947 0.750000 0.430006
O O19 0.090532 0.250000 0.729280
#
# Coordination Sequence:
#
# PCOD8240845 Si02
#       7
#     8   8   8   8   8   8   8
#     4   9  17  32  53  71  93 128 163 193 229 280
#     4   8  15  28  46  68  90 114 149 189 224 262
#     4   9  18  31  48  73 100 125 158 198 236 275
#     4  10  19  31  49  72  98 125 155 196 241 282
#     4   9  18  32  48  66  90 121 155 189 228 277
#     4   9  17  29  45  66  92 119 148 185 229 275
#     4   9  18  33  50  67  90 121 157 193 229 275
#
# _framework density 18.041771000000001
#
# number of rings (size 3 to 8) (size 9 to 14) (size 15 to 20)
#    0.000    3.000    0.000    1.714    0.000    2.286 
#    0.000    6.429    0.000    3.429    0.000    0.000 
#    0.000    0.000    0.000    0.000    0.000    0.000 
#
# Total GULP energy -694271.623568 kJ/mol
# GULP energy per Si atom -12397.707564 kJ/mol
# Density = 1.800071 g / cm^3
# Si number density = 18.041771 Si / 1000 Ang^3
#
#
#
# Elastic Constant Matrix: (Units=GPa)
#
#
# Indices 1 2 3 4 5 6 
#
# 1 124.5028 27.3672 103.1377 0.0000 0.0000 0.0000
# 2 27.3672 28.7126 32.8568 0.0000 0.0000 0.0000
# 3 103.1377 32.8568 162.1526 0.0000 0.0000 0.0000
# 4 0.0000 0.0000 0.0000 24.8430 0.0000 0.0000
# 5 0.0000 0.0000 0.0000 0.0000 38.6817 0.0000
# 6 0.0000 0.0000 0.0000 0.0000 0.0000 19.1977
#
#
#
# Elastic Compliance Matrix: (Units=1/GPa)
#
#
# Indices 1 2 3 4 5 6 
#
# 1 0.017542 -0.005145 -0.010115 0.000000 0.000000 0.000000
# 2 -0.005145 0.046850 -0.006221 0.000000 0.000000 0.000000
# 3 -0.010115 -0.006221 0.013861 0.000000 0.000000 0.000000
# 4 0.000000 0.000000 0.000000 0.040253 0.000000 0.000000
# 5 0.000000 0.000000 0.000000 0.000000 0.025852 0.000000
# 6 0.000000 0.000000 0.000000 0.000000 0.000000 0.052090
#
#
# Mechanical properties :
#
#
# Convention : Reuss Voigt Hill
#
# Bulk Modulus (GPa) = 28.33505 71.34352 49.83928
# Shear Modulus (GPa) = 19.90642 26.67823 23.29232
#
# Velocity S-wave (km/s) = 3.32528 3.84955 3.59698
# Velocity P-wave (km/s) = 5.52111 7.70637 6.70338
#
# Compressibility (1/GPa) = 0.03529199
#
# Stress axis : x y z
#
# Youngs Moduli (GPa) = 57.00453 21.34451 72.14242
#
# Poissons Ratio (x) = 0.10982 0.72975
# Poissons Ratio (y) = 0.29329 0.44878
# Poissons Ratio (z) = 0.57662 0.13278
#
# Static dielectric constant tensor:
#      x y z
#    x 3.477150 0.000000 0.000000 
#    y 0.000000 2.996470 0.000000 
#    z 0.000000 0.000000 3.643400 
# 
# 
# High freq. dielectric constant tensor:
#      x y z
#    x 1.695720 0.000000 0.000000 
#    y 0.000000 1.663170 0.000000 
#    z 0.000000 0.000000 1.712510 
# 
# From -- ./inp_files/24180.got.cif
#   From: 2010.03.12/outbox.cif.g09.slc.cpg/sg59_13_cif.got.tgz:24180.got - 2010.04.16 16:29:54.
