data_PCOD8240537
_publ_section_title
;
Structure prediction by ZEFSAII (Michael W. Deem and Ramdas Pophale) SiO2 
 PCOD8240537
Probable space group: P M M N
;
_chemical_formula_sum "Si O2"
_cell_formula_units_Z 56
_cell_length_a 12.840133
_cell_length_b 19.883323
_cell_length_c 12.369855
_cell_angle_alpha 90.000000
_cell_angle_beta 90.000000
_cell_angle_gamma 90.000000
_cell_volume 3158.079792
_symmetry_space_group_name_H-M "P M M N"
_symmetry_group_IT_number 59
_space_group.IT_coordinate_system_code '2'
_symmetry_cell_setting 'orthorhombic'
loop_
_space_group_symop_operation_xyz
x,y,z
1/2-x,1/2-y,z
1/2+x,-y,-z
-x,1/2+y,-z
-x,-y,-z
1/2+x,1/2+y,-z
1/2-x,y,z
x,1/2-y,z
loop_
_atom_site_type_symbol
_atom_site_label
_atom_site_fract_x
_atom_site_fract_y
_atom_site_fract_z
Si Si1 0.631434 0.326905 0.491622
Si Si2 0.627427 0.947527 0.412315
Si Si3 0.489501 0.421778 0.377539
Si Si4 0.866191 0.458971 0.029576
Si Si5 0.447482 0.484112 0.173700
Si Si6 0.128994 0.675272 0.090866
Si Si7 0.543272 0.118031 0.705544
O O1 0.750000 0.335856 0.452720
O O2 0.602618 0.250000 0.513018
O O3 0.554450 0.353884 0.398369
O O4 0.615821 0.367138 0.602815
O O5 0.750000 0.950782 0.391844
O O6 0.603907 0.929783 0.537047
O O7 0.576635 0.889438 0.335300
O O8 0.573230 0.017892 0.384087
O O9 0.438951 0.420543 0.256111
O O10 0.750000 0.455560 0.074192
O O11 0.934728 0.485878 0.127977
O O12 0.871901 0.513333 0.930542
O O13 0.904742 0.384270 0.991404
O O14 0.417693 0.547800 0.246222
O O15 0.250000 0.664546 0.122511
O O16 0.112164 0.750000 0.039657
O O17 0.058933 0.672969 0.200080
#
# Coordination Sequence:
#
# PCOD8240537 Si02
#       7
#     8   8   8   8   8   8   8
#     4  10  19  30  46  71 102 130 154 184 226 282
#     4   9  17  29  45  68  95 120 151 190 228 270
#     4   9  18  30  46  67  93 124 153 186 228 274
#     4   9  18  31  47  69  96 121 151 197 242 280
#     4   9  18  31  45  66  92 120 156 194 236 277
#     4   9  16  28  48  72  97 125 153 183 229 289
#     4   9  17  28  45  68  94 123 154 189 231 275
#
# _framework density 17.732295000000001
#
# number of rings (size 3 to 8) (size 9 to 14) (size 15 to 20)
#    0.000    2.857    0.000    2.143    0.000    5.143 
#    0.000    4.286    0.000   12.429    0.000    0.000 
#    0.000   11.429    0.000    0.000    0.000    0.000 
#
# Total GULP energy -693799.648562 kJ/mol
# GULP energy per Si atom -12389.279439 kJ/mol
# Density = 1.769194 g / cm^3
# Si number density = 17.732295 Si / 1000 Ang^3
#
#
#
# Elastic Constant Matrix: (Units=GPa)
#
#
# Indices 1 2 3 4 5 6 
#
# 1 54.2079 20.5948 -6.7267 0.0000 0.0000 0.0000
# 2 20.5948 64.3106 21.3931 0.0000 0.0000 0.0000
# 3 -6.7267 21.3931 54.3656 0.0000 0.0000 0.0000
# 4 0.0000 0.0000 0.0000 19.2721 0.0000 0.0000
# 5 0.0000 0.0000 0.0000 0.0000 14.1424 0.0000
# 6 0.0000 0.0000 0.0000 0.0000 0.0000 23.7958
#
#
#
# Elastic Compliance Matrix: (Units=1/GPa)
#
#
# Indices 1 2 3 4 5 6 
#
# 1 0.022878 -0.009513 0.006574 0.000000 0.000000 0.000000
# 2 -0.009513 0.021847 -0.009774 0.000000 0.000000 0.000000
# 3 0.006574 -0.009774 0.023054 0.000000 0.000000 0.000000
# 4 0.000000 0.000000 0.000000 0.051889 0.000000 0.000000
# 5 0.000000 0.000000 0.000000 0.000000 0.070709 0.000000
# 6 0.000000 0.000000 0.000000 0.000000 0.000000 0.042024
#
#
# Mechanical properties :
#
#
# Convention : Reuss Voigt Hill
#
# Bulk Modulus (GPa) = 23.61154 27.04518 25.32836
# Shear Modulus (GPa) = 18.38611 20.61692 19.50152
#
# Velocity S-wave (km/s) = 3.22354 3.41350 3.31988
# Velocity P-wave (km/s) = 5.21531 5.55167 5.38612
#
# Compressibility (1/GPa) = 0.04235217
#
# Stress axis : x y z
#
# Youngs Moduli (GPa) = 43.71095 45.77194 43.37718
#
# Poissons Ratio (x) = 0.43544 -0.28517
# Poissons Ratio (y) = 0.41583 0.42398
# Poissons Ratio (z) = -0.28736 0.44738
#
# Static dielectric constant tensor:
#      x y z
#    x 3.142120 0.000000 0.000000 
#    y 0.000000 3.298100 0.000000 
#    z 0.000000 0.000000 3.481320 
# 
# 
# High freq. dielectric constant tensor:
#      x y z
#    x 1.664510 0.000000 0.000000 
#    y 0.000000 1.660170 0.000000 
#    z 0.000000 0.000000 1.684730 
# 
# From -- ./inp_files/15996.got.cif
#   From: 2010.03.12/outbox.cif.g09.slc.cpg/sg59_8_cif.got.tgz:15996.got - 2010.04.16 16:29:54.
