data_PCOD8240346
_publ_section_title
;
Structure prediction by ZEFSAII (Michael W. Deem and Ramdas Pophale) SiO2 
 PCOD8240346
Probable space group: P M M N
;
_chemical_formula_sum "Si O2"
_cell_formula_units_Z 48
_cell_length_a 23.789477
_cell_length_b 9.261275
_cell_length_c 13.714719
_cell_angle_alpha 90.000000
_cell_angle_beta 90.000000
_cell_angle_gamma 90.000000
_cell_volume 3021.639077
_symmetry_space_group_name_H-M "P M M N"
_symmetry_group_IT_number 59
_space_group.IT_coordinate_system_code '2'
_symmetry_cell_setting 'orthorhombic'
loop_
_space_group_symop_operation_xyz
x,y,z
1/2-x,1/2-y,z
1/2+x,-y,-z
-x,1/2+y,-z
-x,-y,-z
1/2+x,1/2+y,-z
1/2-x,y,z
x,1/2-y,z
loop_
_atom_site_type_symbol
_atom_site_label
_atom_site_fract_x
_atom_site_fract_y
_atom_site_fract_z
Si Si1 0.919623 0.581050 0.955516
Si Si2 0.973165 0.917146 0.365099
Si Si3 0.689001 0.578639 0.852500
Si Si4 0.017262 0.417314 0.855481
Si Si5 0.314936 0.417821 0.367796
Si Si6 0.587127 0.418859 0.529489
O O1 0.924126 0.750000 0.934713
O O2 0.857531 0.522310 0.928989
O O3 0.962549 0.506912 0.882158
O O4 0.932776 0.544721 0.068378
O O5 0.959580 0.750000 0.386256
O O6 0.962734 0.958127 0.252521
O O7 0.037868 0.951457 0.392446
O O8 0.930359 0.014503 0.425842
O O9 0.750000 0.515671 0.883815
O O10 0.692250 0.750000 0.852899
O O11 0.674344 0.528928 0.742826
O O12 0.000597 0.250000 0.861887
O O13 0.250000 0.444593 0.397043
O O14 0.330489 0.250000 0.379718
O O15 0.354707 0.510392 0.437416
O O16 0.597198 0.250000 0.515424
#
# Coordination Sequence:
#
# PCOD8240346 Si02
#       6
#     8   8   8   8   8   8
#     4   9  16  26  43  65  86 111 142 174 209 250
#     4   9  18  31  44  60  87 118 144 175 217 263
#     4   8  14  25  42  64  87 110 138 171 205 244
#     4   9  17  28  42  62  88 115 140 171 213 255
#     4   9  17  29  45  64  87 115 141 168 210 259
#     4  10  19  29  44  65  85 110 145 182 218 253
#
# _framework density 15.885417
#
# number of rings (size 3 to 8) (size 9 to 14) (size 15 to 20)
#    0.000    3.000    0.000    2.500    0.000    1.667 
#    0.000    0.000    0.000    2.500    0.000    4.667 
#    0.000    0.000    0.000    0.000    0.000    0.000 
#
# Total GULP energy -595052.434056 kJ/mol
# GULP energy per Si atom -12396.925709 kJ/mol
# Density = 1.584926 g / cm^3
# Si number density = 15.885417 Si / 1000 Ang^3
#
#
#
# Elastic Constant Matrix: (Units=GPa)
#
#
# Indices 1 2 3 4 5 6 
#
# 1 126.0146 47.5309 74.9081 0.0000 0.0000 0.0000
# 2 47.5309 51.2328 45.0264 0.0000 0.0000 0.0000
# 3 74.9081 45.0264 113.4826 0.0000 0.0000 0.0000
# 4 0.0000 0.0000 0.0000 18.4957 0.0000 0.0000
# 5 0.0000 0.0000 0.0000 0.0000 23.9535 0.0000
# 6 0.0000 0.0000 0.0000 0.0000 0.0000 23.8210
#
#
#
# Elastic Compliance Matrix: (Units=1/GPa)
#
#
# Indices 1 2 3 4 5 6 
#
# 1 0.014911 -0.007959 -0.006685 0.000000 0.000000 0.000000
# 2 -0.007959 0.034217 -0.008323 0.000000 0.000000 0.000000
# 3 -0.006685 -0.008323 0.016527 0.000000 0.000000 0.000000
# 4 0.000000 0.000000 0.000000 0.054067 0.000000 0.000000
# 5 0.000000 0.000000 0.000000 0.000000 0.041748 0.000000
# 6 0.000000 0.000000 0.000000 0.000000 0.000000 0.041980
#
#
# Mechanical properties :
#
#
# Convention : Reuss Voigt Hill
#
# Bulk Modulus (GPa) = 50.70454 69.51786 60.11120
# Shear Modulus (GPa) = 19.53461 21.47168 20.50315
#
# Velocity S-wave (km/s) = 3.51054 3.68048 3.59651
# Velocity P-wave (km/s) = 6.95845 7.86882 7.42760
#
# Compressibility (1/GPa) = 0.01972210
#
# Stress axis : x y z
#
# Youngs Moduli (GPa) = 67.06321 29.22525 60.50798
#
# Poissons Ratio (x) = 0.23260 0.40449
# Poissons Ratio (y) = 0.53374 0.50359
# Poissons Ratio (z) = 0.44831 0.24324
#
# Static dielectric constant tensor:
#      x y z
#    x 3.224920 0.000000 0.000000 
#    y 0.000000 2.880730 0.000000 
#    z 0.000000 0.000000 3.029020 
# 
# 
# High freq. dielectric constant tensor:
#      x y z
#    x 1.602160 0.000000 0.000000 
#    y 0.000000 1.597430 0.000000 
#    z 0.000000 0.000000 1.601980 
# 
# From -- ./inp_files/15945.got.cif
#   From: 2010.03.12/outbox.cif.g09.slc.cpg/sg59_8_cif.got.tgz:15945.got - 2010.04.16 16:29:54.
