data_PCOD8240255
_publ_section_title
;
Structure prediction by ZEFSAII (Michael W. Deem and Ramdas Pophale) SiO2 
 PCOD8240255
Probable space group: P M M N
;
_chemical_formula_sum "Si O2"
_cell_formula_units_Z 64
_cell_length_a 9.057656
_cell_length_b 24.553099
_cell_length_c 18.233817
_cell_angle_alpha 90.000000
_cell_angle_beta 90.000000
_cell_angle_gamma 90.000000
_cell_volume 4055.082827
_symmetry_space_group_name_H-M "P M M N"
_symmetry_group_IT_number 59
_space_group.IT_coordinate_system_code '2'
_symmetry_cell_setting 'orthorhombic'
loop_
_space_group_symop_operation_xyz
x,y,z
1/2-x,1/2-y,z
1/2+x,-y,-z
-x,1/2+y,-z
-x,-y,-z
1/2+x,1/2+y,-z
1/2-x,y,z
x,1/2-y,z
loop_
_atom_site_type_symbol
_atom_site_label
_atom_site_fract_x
_atom_site_fract_y
_atom_site_fract_z
Si Si1 0.916378 0.922565 0.461502
Si Si2 0.585141 0.812325 0.222458
Si Si3 0.578192 0.811218 0.052361
Si Si4 0.082887 0.955162 0.597073
Si Si5 0.579097 0.082952 0.980420
Si Si6 0.921467 0.003604 0.114066
Si Si7 0.920281 0.108631 0.675854
Si Si8 0.077317 0.010247 0.264523
O O1 0.750000 0.902554 0.474750
O O2 0.004836 0.916113 0.537636
O O3 0.990437 0.884889 0.399774
O O4 0.920277 0.984164 0.433918
O O5 0.750000 0.835908 0.236030
O O6 0.579778 0.750000 0.247163
O O7 0.542404 0.817933 0.137813
O O8 0.465254 0.843957 0.269327
O O9 0.750000 0.821376 0.036438
O O10 0.534072 0.750000 0.026732
O O11 0.482616 0.855934 0.008900
O O12 0.250000 0.935189 0.609845
O O13 0.994198 0.951294 0.673359
O O14 0.750000 0.084744 0.958141
O O15 0.492389 0.052366 0.915345
O O16 0.554249 0.051987 0.056521
O O17 0.750000 0.992201 0.129491
O O18 0.000888 0.023374 0.187570
O O19 0.750000 0.113726 0.655478
O O20 0.954946 0.052106 0.715851
O O21 0.250000 0.023308 0.259479
#
# Coordination Sequence:
#
# PCOD8240255 Si02
#       8
#     8   8   8   8   8   8   8   8
#     4   9  16  26  40  57  79 109 141 170 202 240
#     4   9  18  31  44  59  81 109 141 176 213 253
#     4   9  18  32  49  67  87 114 147 182 222 267
#     4   9  16  26  40  58  82 110 138 170 206 242
#     4  10  20  32  46  65  88 115 148 185 224 266
#     4  10  20  32  45  62  87 119 151 183 222 267
#     4  10  19  28  40  60  84 110 142 178 213 252
#     4  10  19  29  42  62  86 112 145 180 214 256
#
# _framework density 15.782660999999999
#
# number of rings (size 3 to 8) (size 9 to 14) (size 15 to 20)
#    0.000    2.500    0.000    3.750    0.000    9.000 
#    0.000    1.250    0.000    0.000    0.000    0.000 
#    0.000    1.000    0.000    7.250    0.000    6.125 
#
# Total GULP energy -793670.048483 kJ/mol
# GULP energy per Si atom -12401.094508 kJ/mol
# Density = 1.574674 g / cm^3
# Si number density = 15.782661 Si / 1000 Ang^3
#
#
#
# Elastic Constant Matrix: (Units=GPa)
#
#
# Indices 1 2 3 4 5 6 
#
# 1 110.3845 34.6226 53.7269 0.0000 0.0000 0.0000
# 2 34.6226 58.7295 20.6145 0.0000 0.0000 0.0000
# 3 53.7269 20.6145 80.8251 0.0000 0.0000 0.0000
# 4 0.0000 0.0000 0.0000 16.3765 0.0000 0.0000
# 5 0.0000 0.0000 0.0000 0.0000 32.2540 0.0000
# 6 0.0000 0.0000 0.0000 0.0000 0.0000 23.3244
#
#
#
# Elastic Compliance Matrix: (Units=1/GPa)
#
#
# Indices 1 2 3 4 5 6 
#
# 1 0.015041 -0.005884 -0.008497 0.000000 0.000000 0.000000
# 2 -0.005884 0.021004 -0.001445 0.000000 0.000000 0.000000
# 3 -0.008497 -0.001445 0.018389 0.000000 0.000000 0.000000
# 4 0.000000 0.000000 0.000000 0.061063 0.000000 0.000000
# 5 0.000000 0.000000 0.000000 0.000000 0.031004 0.000000
# 6 0.000000 0.000000 0.000000 0.000000 0.000000 0.042874
#
#
# Mechanical properties :
#
#
# Convention : Reuss Voigt Hill
#
# Bulk Modulus (GPa) = 43.89884 51.98524 47.94204
# Shear Modulus (GPa) = 21.87021 23.78932 22.82977
#
# Velocity S-wave (km/s) = 3.72655 3.88662 3.80743
# Velocity P-wave (km/s) = 6.81111 7.29046 7.05486
#
# Compressibility (1/GPa) = 0.02277965
#
# Stress axis : x y z
#
# Youngs Moduli (GPa) = 66.48633 47.61108 54.37907
#
# Poissons Ratio (x) = 0.28016 0.46207
# Poissons Ratio (y) = 0.39122 0.07860
# Poissons Ratio (z) = 0.56495 0.06882
#
# Static dielectric constant tensor:
#      x y z
#    x 3.124410 0.000000 0.000000 
#    y 0.000000 2.694710 0.000000 
#    z 0.000000 0.000000 2.959190 
# 
# 
# High freq. dielectric constant tensor:
#      x y z
#    x 1.622960 0.000000 0.000000 
#    y 0.000000 1.560280 0.000000 
#    z 0.000000 0.000000 1.598010 
# 
# From -- ./inp_files/26440.got.cif
#   From: 2010.03.12/outbox.cif.g09.slc.cpg/sg59_14_cif.got.tgz:26440.got - 2010.04.16 16:29:54.
