data_PCOD8240533
_publ_section_title
;
Structure prediction by ZEFSAII (Michael W. Deem and Ramdas Pophale) SiO2 
 PCOD8240533
Probable space group: P M M N
;
_chemical_formula_sum "Si O2"
_cell_formula_units_Z 64
_cell_length_a 9.371262
_cell_length_b 21.633486
_cell_length_c 18.922427
_cell_angle_alpha 90.000000
_cell_angle_beta 90.000000
_cell_angle_gamma 90.000000
_cell_volume 3836.201628
_symmetry_space_group_name_H-M "P M M N"
_symmetry_group_IT_number 59
_space_group.IT_coordinate_system_code '2'
_symmetry_cell_setting 'orthorhombic'
loop_
_space_group_symop_operation_xyz
x,y,z
1/2-x,1/2-y,z
1/2+x,-y,-z
-x,1/2+y,-z
-x,-y,-z
1/2+x,1/2+y,-z
1/2-x,y,z
x,1/2-y,z
loop_
_atom_site_type_symbol
_atom_site_label
_atom_site_fract_x
_atom_site_fract_y
_atom_site_fract_z
Si Si1 0.084739 0.949696 0.455417
Si Si2 0.586912 0.007604 0.812627
Si Si3 0.091120 0.612972 0.592801
Si Si4 0.416360 0.944851 0.039017
Si Si5 0.584605 0.868899 0.836464
Si Si6 0.416659 0.680462 0.964240
Si Si7 0.418715 0.485281 0.669562
Si Si8 0.906992 0.820852 0.691159
O O1 0.250000 0.969464 0.442285
O O2 0.079709 0.890453 0.507558
O O3 0.002960 0.936445 0.381369
O O4 0.000000 0.000000 0.500000
O O5 0.750000 0.012716 0.784646
O O6 0.556039 0.055053 0.876448
O O7 0.478866 0.020572 0.748645
O O8 0.560821 0.941345 0.849464
O O9 0.250000 0.628796 0.616004
O O10 0.043562 0.551061 0.634726
O O11 0.994251 0.668688 0.619565
O O12 0.250000 0.955927 0.022291
O O13 0.465867 0.875712 0.015586
O O14 0.500000 0.000000 0.000000
O O15 0.750000 0.849523 0.842243
O O16 0.497572 0.827519 0.890720
O O17 0.524176 0.855641 0.758070
O O18 0.250000 0.674696 0.948762
O O19 0.451421 0.750000 0.994433
O O20 0.250000 0.471166 0.669700
O O21 0.750000 0.847865 0.677385
O O22 0.902344 0.750000 0.710655
#
# Coordination Sequence:
#
# PCOD8240533 Si02
#       8
#     8   8   8   8   8   8   8   8
#     4   9  17  29  45  67  93 121 154 191 232 279
#     4  10  19  31  49  71  95 129 163 199 250 297
#     4   9  18  30  44  64  90 121 155 191 233 276
#     4  10  20  34  51  72  99 129 166 208 253 304
#     4  10  19  32  49  69  95 129 168 205 244 291
#     4  10  21  35  51  72  98 130 166 207 254 302
#     4  10  19  30  46  70  96 123 155 193 240 292
#     4  10  20  31  43  62  90 126 164 198 232 276
#
# _framework density 16.683168999999999
#
# number of rings (size 3 to 8) (size 9 to 14) (size 15 to 20)
#    0.000    2.250    2.500    1.875    0.000    5.000 
#    0.000    0.000    0.000    0.000    0.000    0.875 
#    0.000    5.000    0.000    0.000    0.000    0.000 
#
# Total GULP energy -793120.942516 kJ/mol
# GULP energy per Si atom -12392.514727 kJ/mol
# Density = 1.664520 g / cm^3
# Si number density = 16.683169 Si / 1000 Ang^3
#
#
#
# Elastic Constant Matrix: (Units=GPa)
#
#
# Indices 1 2 3 4 5 6 
#
# 1 76.9303 32.8660 51.3146 0.0000 0.0000 0.0000
# 2 32.8660 72.4383 41.2202 0.0000 0.0000 0.0000
# 3 51.3146 41.2202 95.7735 0.0000 0.0000 0.0000
# 4 0.0000 0.0000 0.0000 20.0797 0.0000 0.0000
# 5 0.0000 0.0000 0.0000 0.0000 30.9258 0.0000
# 6 0.0000 0.0000 0.0000 0.0000 0.0000 19.4766
#
#
#
# Elastic Compliance Matrix: (Units=1/GPa)
#
#
# Indices 1 2 3 4 5 6 
#
# 1 0.021137 -0.004166 -0.009532 0.000000 0.000000 0.000000
# 2 -0.004166 0.019103 -0.005990 0.000000 0.000000 0.000000
# 3 -0.009532 -0.005990 0.018126 0.000000 0.000000 0.000000
# 4 0.000000 0.000000 0.000000 0.049801 0.000000 0.000000
# 5 0.000000 0.000000 0.000000 0.000000 0.032335 0.000000
# 6 0.000000 0.000000 0.000000 0.000000 0.000000 0.051344
#
#
# Mechanical properties :
#
#
# Convention : Reuss Voigt Hill
#
# Bulk Modulus (GPa) = 52.65624 55.10487 53.88055
# Shear Modulus (GPa) = 21.04798 22.07918 21.56358
#
# Velocity S-wave (km/s) = 3.55580 3.64186 3.59908
# Velocity P-wave (km/s) = 6.96342 7.12644 7.04540
#
# Compressibility (1/GPa) = 0.01899110
#
# Stress axis : x y z
#
# Youngs Moduli (GPa) = 47.31150 52.34646 55.16815
#
# Poissons Ratio (x) = 0.21807 0.52585
# Poissons Ratio (y) = 0.19709 0.33045
# Poissons Ratio (z) = 0.45096 0.31355
#
# Static dielectric constant tensor:
#      x y z
#    x 3.211400 0.000000 0.000000 
#    y 0.000000 3.004450 0.000000 
#    z 0.000000 0.000000 3.253890 
# 
# 
# High freq. dielectric constant tensor:
#      x y z
#    x 1.648840 0.000000 0.000000 
#    y 0.000000 1.604560 0.000000 
#    z 0.000000 0.000000 1.639960 
# 
# From -- ./inp_files/29660.got.cif
#   From: 2010.03.12/outbox.cif.g09.slc.cpg/sg59_15_cif.got.tgz:29660.got - 2010.04.16 16:29:54.
