data_PCOD8240406
_publ_section_title
;
Structure prediction by ZEFSAII (Michael W. Deem and Ramdas Pophale) SiO2 
 PCOD8240406
Probable space group: P M M N
;
_chemical_formula_sum "Si O2"
_cell_formula_units_Z 48
_cell_length_a 23.030990
_cell_length_b 9.129107
_cell_length_c 12.361442
_cell_angle_alpha 90.000000
_cell_angle_beta 90.000000
_cell_angle_gamma 90.000000
_cell_volume 2599.022502
_symmetry_space_group_name_H-M "P M M N"
_symmetry_group_IT_number 59
_space_group.IT_coordinate_system_code '2'
_symmetry_cell_setting 'orthorhombic'
loop_
_space_group_symop_operation_xyz
x,y,z
1/2-x,1/2-y,z
1/2+x,-y,-z
-x,1/2+y,-z
-x,-y,-z
1/2+x,1/2+y,-z
1/2-x,y,z
x,1/2-y,z
loop_
_atom_site_type_symbol
_atom_site_label
_atom_site_fract_x
_atom_site_fract_y
_atom_site_fract_z
Si Si1 0.611875 0.912417 0.805597
Si Si2 0.373067 0.576058 0.791863
Si Si3 0.183183 0.081593 0.986170
Si Si4 0.988161 0.092176 0.102121
Si Si5 0.562325 0.421031 0.617526
Si Si6 0.570947 0.920984 0.392565
O O1 0.637576 0.750000 0.776393
O O2 0.544281 0.892528 0.825975
O O3 0.610756 0.025863 0.705788
O O4 0.645568 0.976565 0.911070
O O5 0.363596 0.750000 0.779134
O O6 0.326478 0.511835 0.876664
O O7 0.435567 0.522426 0.833249
O O8 0.376384 0.499120 0.674600
O O9 0.250000 0.065768 0.019322
O O10 0.166082 0.250000 0.962275
O O11 0.966750 0.250000 0.061063
O O12 0.000000 0.000000 0.000000
O O13 0.572987 0.250000 0.595273
O O14 0.494881 0.447478 0.652819
O O15 0.575599 0.513407 0.511529
O O16 0.585261 0.750000 0.397129
#
# Coordination Sequence:
#
# PCOD8240406 Si02
#       6
#     8   8   8   8   8   8
#     4  10  19  33  52  75 107 142 175 216 264 317
#     4  11  21  33  52  78 109 140 174 219 268 318
#     4  10  22  39  57  77 103 140 184 224 264 313
#     4  10  19  29  46  74 106 138 171 210 262 320
#     4  10  20  32  50  78 111 144 177 214 260 317
#     4  10  20  33  51  76 110 147 178 211 258 319
#
# _framework density 18.468482000000002
#
# number of rings (size 3 to 8) (size 9 to 14) (size 15 to 20)
#    0.000    1.833    3.333    1.500    0.000    3.667 
#    0.000    0.000    0.000    1.000    0.000    2.333 
#    0.000    0.000    0.000    0.000    0.000    0.000 
#
# Total GULP energy -594694.774990 kJ/mol
# GULP energy per Si atom -12389.474479 kJ/mol
# Density = 1.842645 g / cm^3
# Si number density = 18.468482 Si / 1000 Ang^3
#
#
#
# Elastic Constant Matrix: (Units=GPa)
#
#
# Indices 1 2 3 4 5 6 
#
# 1 49.9996 18.1675 20.4685 0.0000 0.0000 0.0000
# 2 18.1675 98.1944 55.1362 0.0000 0.0000 0.0000
# 3 20.4685 55.1362 91.6449 0.0000 0.0000 0.0000
# 4 0.0000 0.0000 0.0000 36.6632 0.0000 0.0000
# 5 0.0000 0.0000 0.0000 0.0000 15.7543 0.0000
# 6 0.0000 0.0000 0.0000 0.0000 0.0000 20.0199
#
#
#
# Elastic Compliance Matrix: (Units=1/GPa)
#
#
# Indices 1 2 3 4 5 6 
#
# 1 0.022271 -0.002005 -0.003768 0.000000 0.000000 0.000000
# 2 -0.002005 0.015560 -0.008913 0.000000 0.000000 0.000000
# 3 -0.003768 -0.008913 0.017116 0.000000 0.000000 0.000000
# 4 0.000000 0.000000 0.000000 0.027275 0.000000 0.000000
# 5 0.000000 0.000000 0.000000 0.000000 0.063475 0.000000
# 6 0.000000 0.000000 0.000000 0.000000 0.000000 0.049950
#
#
# Mechanical properties :
#
#
# Convention : Reuss Voigt Hill
#
# Bulk Modulus (GPa) = 39.10186 47.48703 43.29444
# Shear Modulus (GPa) = 21.40926 24.22528 22.81727
#
# Velocity S-wave (km/s) = 3.40844 3.62568 3.51874
# Velocity P-wave (km/s) = 6.05873 6.57995 6.32471
#
# Compressibility (1/GPa) = 0.02557423
#
# Stress axis : x y z
#
# Youngs Moduli (GPa) = 44.90124 64.26882 58.42558
#
# Poissons Ratio (x) = 0.12884 0.22015
# Poissons Ratio (y) = 0.09002 0.52077
# Poissons Ratio (z) = 0.16919 0.57285
#
# Static dielectric constant tensor:
#      x y z
#    x 3.072550 0.000000 0.000000 
#    y 0.000000 3.541750 0.000000 
#    z 0.000000 0.000000 3.377090 
# 
# 
# High freq. dielectric constant tensor:
#      x y z
#    x 1.672630 0.000000 0.000000 
#    y 0.000000 1.723920 0.000000 
#    z 0.000000 0.000000 1.716680 
# 
# From -- ./inp_files/14333.got.cif
#   From: 2010.03.12/outbox.cif.g09.slc.cpg/sg59_8_cif.got.tgz:14333.got - 2010.04.16 16:29:54.
