data_PCOD8240228
_publ_section_title
;
Structure prediction by ZEFSAII (Michael W. Deem and Ramdas Pophale) SiO2 
 PCOD8240228
Probable space group: P M M N
;
_chemical_formula_sum "Si O2"
_cell_formula_units_Z 64
_cell_length_a 30.553381
_cell_length_b 8.985368
_cell_length_c 11.914435
_cell_angle_alpha 90.000000
_cell_angle_beta 90.000000
_cell_angle_gamma 90.000000
_cell_volume 3270.910015
_symmetry_space_group_name_H-M "P M M N"
_symmetry_group_IT_number 59
_space_group.IT_coordinate_system_code '2'
_symmetry_cell_setting 'orthorhombic'
loop_
_space_group_symop_operation_xyz
x,y,z
1/2-x,1/2-y,z
1/2+x,-y,-z
-x,1/2+y,-z
-x,-y,-z
1/2+x,1/2+y,-z
1/2-x,y,z
x,1/2-y,z
loop_
_atom_site_type_symbol
_atom_site_label
_atom_site_fract_x
_atom_site_fract_y
_atom_site_fract_z
Si Si1 0.201462 0.926658 0.001262
Si Si2 0.126227 0.925052 0.402531
Si Si3 0.956545 0.076909 0.460246
Si Si4 0.547207 0.573990 0.005802
Si Si5 0.119202 0.573991 0.143340
Si Si6 0.299162 0.081482 0.534694
Si Si7 0.577566 0.417604 0.221421
Si Si8 0.178579 0.919657 0.754937
O O1 0.250000 0.980737 0.039801
O O2 0.199231 0.750000 0.999909
O O3 0.191848 0.986244 0.876017
O O4 0.164014 0.985729 0.085530
O O5 0.130246 0.750000 0.419413
O O6 0.084837 0.988780 0.471545
O O7 0.121020 0.969136 0.273170
O O8 0.170717 0.993353 0.448628
O O9 0.960310 0.250000 0.486891
O O10 0.952471 0.045617 0.327976
O O11 0.000000 0.000000 0.500000
O O12 0.542924 0.750000 0.991264
O O13 0.577499 0.509296 0.907673
O O14 0.500000 0.500000 0.000000
O O15 0.568472 0.536920 0.125527
O O16 0.113339 0.750000 0.124112
O O17 0.250000 0.072689 0.486893
O O18 0.316004 0.250000 0.541919
O O19 0.298627 0.015054 0.659458
O O20 0.568442 0.250000 0.175938
O O21 0.626921 0.429924 0.263219
O O22 0.194896 0.750000 0.744132
#
# Coordination Sequence:
#
# PCOD8240228 Si02
#       8
#     8   8   8   8   8   8   8   8
#     4   9  17  31  56  89 119 150 190 239 295 348
#     4  10  22  41  63  86 115 158 205 247 293 355
#     4  10  22  39  59  88 120 152 197 246 297 355
#     4  12  26  42  63  90 122 159 202 246 297 358
#     4  10  21  40  63  88 122 156 197 251 297 349
#     4  11  24  39  57  86 124 161 200 250 304 356
#     4  10  20  39  64  89 120 156 196 247 300 350
#     4  10  18  35  62  87 118 156 198 246 295 352
#
# _framework density 19.566420000000001
#
# number of rings (size 3 to 8) (size 9 to 14) (size 15 to 20)
#    0.000    1.750    2.500    1.875    1.750    4.000 
#    0.000    1.250    0.000    0.375    0.000    0.000 
#    0.000    0.000    0.000    0.000    0.000    0.000 
#
# Total GULP energy -793747.824461 kJ/mol
# GULP energy per Si atom -12402.309757 kJ/mol
# Density = 1.952189 g / cm^3
# Si number density = 19.566420 Si / 1000 Ang^3
#
#
#
# Elastic Constant Matrix: (Units=GPa)
#
#
# Indices 1 2 3 4 5 6 
#
# 1 113.5125 36.2760 49.1027 0.0000 0.0000 0.0000
# 2 36.2760 58.8467 48.3365 0.0000 0.0000 0.0000
# 3 49.1027 48.3365 114.1685 0.0000 0.0000 0.0000
# 4 0.0000 0.0000 0.0000 21.0953 0.0000 0.0000
# 5 0.0000 0.0000 0.0000 0.0000 29.9552 0.0000
# 6 0.0000 0.0000 0.0000 0.0000 0.0000 29.3671
#
#
#
# Elastic Compliance Matrix: (Units=1/GPa)
#
#
# Indices 1 2 3 4 5 6 
#
# 1 0.011608 -0.004684 -0.003010 0.000000 0.000000 0.000000
# 2 -0.004684 0.027944 -0.009816 0.000000 0.000000 0.000000
# 3 -0.003010 -0.009816 0.014209 0.000000 0.000000 0.000000
# 4 0.000000 0.000000 0.000000 0.047404 0.000000 0.000000
# 5 0.000000 0.000000 0.000000 0.000000 0.033383 0.000000
# 6 0.000000 0.000000 0.000000 0.000000 0.000000 0.034052
#
#
# Mechanical properties :
#
#
# Convention : Reuss Voigt Hill
#
# Bulk Modulus (GPa) = 53.35623 61.55091 57.45357
# Shear Modulus (GPa) = 23.82459 26.27102 25.04781
#
# Velocity S-wave (km/s) = 3.49324 3.66821 3.58179
# Velocity P-wave (km/s) = 6.60294 7.03326 6.82149
#
# Compressibility (1/GPa) = 0.01874195
#
# Stress axis : x y z
#
# Youngs Moduli (GPa) = 86.14506 35.78618 70.37608
#
# Poissons Ratio (x) = 0.16762 0.21180
# Poissons Ratio (y) = 0.40349 0.69083
# Poissons Ratio (z) = 0.25926 0.35129
#
# Static dielectric constant tensor:
#      x y z
#    x 3.783160 0.000000 0.000000 
#    y 0.000000 3.420810 0.000000 
#    z 0.000000 0.000000 3.643610 
# 
# 
# High freq. dielectric constant tensor:
#      x y z
#    x 1.777170 0.000000 0.000000 
#    y 0.000000 1.735930 0.000000 
#    z 0.000000 0.000000 1.767510 
# 
# From -- ./inp_files/19205.got.cif
#   From: 2010.03.12/outbox.cif.g09.slc.cpg/sg59_10_cif.got.tgz:19205.got - 2010.04.16 16:29:54.
