data_PCOD8240671
_publ_section_title
;
Structure prediction by ZEFSAII (Michael W. Deem and Ramdas Pophale) SiO2 
 PCOD8240671
Probable space group: P M M N
;
_chemical_formula_sum "Si O2"
_cell_formula_units_Z 64
_cell_length_a 9.210416
_cell_length_b 15.620417
_cell_length_c 23.965157
_cell_angle_alpha 90.000000
_cell_angle_beta 90.000000
_cell_angle_gamma 90.000000
_cell_volume 3447.880047
_symmetry_space_group_name_H-M "P M M N"
_symmetry_group_IT_number 59
_space_group.IT_coordinate_system_code '2'
_symmetry_cell_setting 'orthorhombic'
loop_
_space_group_symop_operation_xyz
x,y,z
1/2-x,1/2-y,z
1/2+x,-y,-z
-x,1/2+y,-z
-x,-y,-z
1/2+x,1/2+y,-z
1/2-x,y,z
x,1/2-y,z
loop_
_atom_site_type_symbol
_atom_site_label
_atom_site_fract_x
_atom_site_fract_y
_atom_site_fract_z
Si Si1 0.417636 0.092956 0.063450
Si Si2 0.581560 0.651490 0.564297
Si Si3 0.923031 0.006717 0.368699
Si Si4 0.420156 0.342408 0.824648
Si Si5 0.076998 0.996703 0.757815
Si Si6 0.916825 0.155143 0.165084
Si Si7 0.416195 0.419094 0.939778
Si Si8 0.922207 0.844452 0.437436
O O1 0.250000 0.093549 0.079894
O O2 0.500302 0.153998 0.106267
O O3 0.476017 0.997293 0.068880
O O4 0.441940 0.125906 0.999836
O O5 0.750000 0.627114 0.571046
O O6 0.555253 0.750000 0.581847
O O7 0.485971 0.591176 0.603054
O O8 0.529407 0.636895 0.500774
O O9 0.750000 0.011329 0.372372
O O10 0.983037 0.920028 0.398073
O O11 0.979909 0.005312 0.305302
O O12 0.250000 0.342170 0.812890
O O13 0.486069 0.250000 0.806726
O O14 0.488841 0.419034 0.788120
O O15 0.450321 0.352783 0.890568
O O16 0.250000 0.997719 0.758637
O O17 0.018902 0.913203 0.790856
O O18 0.750000 0.133214 0.152510
O O19 0.934213 0.250000 0.191043
O O20 0.250000 0.452801 0.935708
O O21 0.750000 0.842363 0.434413
O O22 0.980746 0.750000 0.418640
#
# Coordination Sequence:
#
# PCOD8240671 Si02
#       8
#     8   8   8   8   8   8   8   8
#     4  10  19  30  50  77 101 126 159 205 253 293
#     4   9  18  33  51  71 101 140 170 195 242 306
#     4  10  19  30  51  79 101 127 167 215 254 284
#     4   9  16  28  50  75  96 123 159 198 241 293
#     4   9  18  32  48  71 101 128 162 207 249 292
#     4  10  20  35  53  68  92 135 173 202 247 304
#     4   9  17  31  51  74 102 131 158 193 245 305
#     4   8  15  29  49  75 107 136 161 196 248 304
#
# _framework density 18.562131000000001
#
# number of rings (size 3 to 8) (size 9 to 14) (size 15 to 20)
#    0.000    2.750    1.250    1.500    0.000    2.500 
#    0.000    5.625    0.000    1.500    0.000    0.000 
#    0.000    0.000    0.000    0.000    0.000    0.000 
#
# Total GULP energy -793282.824463 kJ/mol
# GULP energy per Si atom -12395.044132 kJ/mol
# Density = 1.851988 g / cm^3
# Si number density = 18.562131 Si / 1000 Ang^3
#
#
#
# Elastic Constant Matrix: (Units=GPa)
#
#
# Indices 1 2 3 4 5 6 
#
# 1 32.8334 26.3607 27.5672 0.0000 0.0000 0.0000
# 2 26.3607 144.8177 84.7959 0.0000 0.0000 0.0000
# 3 27.5672 84.7959 139.3540 0.0000 0.0000 0.0000
# 4 0.0000 0.0000 0.0000 16.3959 0.0000 0.0000
# 5 0.0000 0.0000 0.0000 0.0000 20.2767 0.0000
# 6 0.0000 0.0000 0.0000 0.0000 0.0000 18.6523
#
#
#
# Elastic Compliance Matrix: (Units=1/GPa)
#
#
# Indices 1 2 3 4 5 6 
#
# 1 0.037887 -0.003896 -0.005124 0.000000 0.000000 0.000000
# 2 -0.003896 0.011128 -0.006001 0.000000 0.000000 0.000000
# 3 -0.005124 -0.006001 0.011841 0.000000 0.000000 0.000000
# 4 0.000000 0.000000 0.000000 0.060991 0.000000 0.000000
# 5 0.000000 0.000000 0.000000 0.000000 0.049318 0.000000
# 6 0.000000 0.000000 0.000000 0.000000 0.000000 0.053613
#
#
# Mechanical properties :
#
#
# Convention : Reuss Voigt Hill
#
# Bulk Modulus (GPa) = 32.45237 66.05031 49.25134
# Shear Modulus (GPa) = 18.86153 22.95042 20.90597
#
# Velocity S-wave (km/s) = 3.19114 3.52008 3.35964
# Velocity P-wave (km/s) = 5.57664 7.22370 6.45294
#
# Compressibility (1/GPa) = 0.03081439
#
# Stress axis : x y z
#
# Youngs Moduli (GPa) = 26.39425 89.86363 84.45287
#
# Poissons Ratio (x) = 0.35012 0.43274
# Poissons Ratio (y) = 0.10284 0.50676
# Poissons Ratio (z) = 0.13525 0.53923
#
# Static dielectric constant tensor:
#      x y z
#    x 2.987960 0.000000 0.000000 
#    y 0.000000 3.591950 0.000000 
#    z 0.000000 0.000000 3.584660 
# 
# 
# High freq. dielectric constant tensor:
#      x y z
#    x 1.670870 0.000000 0.000000 
#    y 0.000000 1.726150 0.000000 
#    z 0.000000 0.000000 1.720840 
# 
# From -- ./inp_files/31580.got.cif
#   From: 2010.03.12/outbox.cif.g09.slc.cpg/sg59_16_cif.got.tgz:31580.got - 2010.04.16 16:29:54.
