data_PCOD8240571
_publ_section_title
;
Structure prediction by ZEFSAII (Michael W. Deem and Ramdas Pophale) SiO2 
 PCOD8240571
Probable space group: P M M N
;
_chemical_formula_sum "Si O2"
_cell_formula_units_Z 64
_cell_length_a 9.430301
_cell_length_b 19.779399
_cell_length_c 20.111184
_cell_angle_alpha 90.000000
_cell_angle_beta 90.000000
_cell_angle_gamma 90.000000
_cell_volume 3751.252395
_symmetry_space_group_name_H-M "P M M N"
_symmetry_group_IT_number 59
_space_group.IT_coordinate_system_code '2'
_symmetry_cell_setting 'orthorhombic'
loop_
_space_group_symop_operation_xyz
x,y,z
1/2-x,1/2-y,z
1/2+x,-y,-z
-x,1/2+y,-z
-x,-y,-z
1/2+x,1/2+y,-z
1/2-x,y,z
x,1/2-y,z
loop_
_atom_site_type_symbol
_atom_site_label
_atom_site_fract_x
_atom_site_fract_y
_atom_site_fract_z
Si Si1 0.083624 0.171643 0.606222
Si Si2 0.419226 0.825484 0.664854
Si Si3 0.083135 0.939864 0.760928
Si Si4 0.406874 0.830155 0.518204
Si Si5 0.914017 0.091387 0.952260
Si Si6 0.413121 0.327404 0.858409
Si Si7 0.918679 0.588827 0.267737
Si Si8 0.587165 0.463216 0.091579
O O1 0.250000 0.161808 0.596961
O O2 0.045931 0.250000 0.620071
O O3 0.023292 0.126955 0.666997
O O4 0.011055 0.143463 0.539227
O O5 0.250000 0.822998 0.667811
O O6 0.478939 0.750000 0.680047
O O7 0.483658 0.878271 0.718440
O O8 0.465398 0.850855 0.591185
O O9 0.250000 0.939949 0.749553
O O10 0.046442 0.928183 0.838621
O O11 0.023079 0.012035 0.735222
O O12 0.250000 0.860968 0.506165
O O13 0.397539 0.750000 0.516190
O O14 0.750000 0.092947 0.931949
O O15 0.993400 0.157115 0.923815
O O16 0.932470 0.090776 0.032237
O O17 0.984523 0.025935 0.919376
O O18 0.250000 0.344282 0.874656
O O19 0.432223 0.250000 0.837981
O O20 0.472349 0.372102 0.797654
O O21 0.750000 0.591110 0.268363
O O22 0.750000 0.489789 0.093850
#
# Coordination Sequence:
#
# PCOD8240571 Si02
#       8
#     8   8   8   8   8   8   8   8
#     4   9  16  26  42  64  87 113 150 192 227 261
#     4   8  14  25  43  68  92 113 144 187 232 276
#     4   9  15  26  47  69  88 115 153 193 227 267
#     4   8  14  26  43  62  86 116 148 181 222 275
#     4  10  19  30  47  71  97 123 154 195 237 276
#     4  10  19  32  50  69  93 128 165 198 232 275
#     4   9  16  27  44  66  89 116 155 197 227 262
#     4   9  17  31  50  70  91 120 158 192 229 279
#
# _framework density 17.060967999999999
#
# number of rings (size 3 to 8) (size 9 to 14) (size 15 to 20)
#    0.000    3.000    1.250    1.500    0.000    2.250 
#    0.000    1.875    0.000    4.500    0.000    0.000 
#    0.000    0.000    0.000    0.000    0.000    0.000 
#
# Total GULP energy -793260.685040 kJ/mol
# GULP energy per Si atom -12394.698204 kJ/mol
# Density = 1.702214 g / cm^3
# Si number density = 17.060968 Si / 1000 Ang^3
#
#
#
# Elastic Constant Matrix: (Units=GPa)
#
#
# Indices 1 2 3 4 5 6 
#
# 1 42.2229 23.9966 39.8315 0.0000 0.0000 0.0000
# 2 23.9966 92.4826 70.1682 0.0000 0.0000 0.0000
# 3 39.8315 70.1682 155.3677 0.0000 0.0000 0.0000
# 4 0.0000 0.0000 0.0000 30.6682 0.0000 0.0000
# 5 0.0000 0.0000 0.0000 0.0000 23.0780 0.0000
# 6 0.0000 0.0000 0.0000 0.0000 0.0000 14.9307
#
#
#
# Elastic Compliance Matrix: (Units=1/GPa)
#
#
# Indices 1 2 3 4 5 6 
#
# 1 0.031829 -0.003145 -0.006739 0.000000 0.000000 0.000000
# 2 -0.003145 0.016760 -0.006763 0.000000 0.000000 0.000000
# 3 -0.006739 -0.006763 0.011218 0.000000 0.000000 0.000000
# 4 0.000000 0.000000 0.000000 0.032607 0.000000 0.000000
# 5 0.000000 0.000000 0.000000 0.000000 0.043331 0.000000
# 6 0.000000 0.000000 0.000000 0.000000 0.000000 0.066976
#
#
# Mechanical properties :
#
#
# Convention : Reuss Voigt Hill
#
# Bulk Modulus (GPa) = 37.71853 62.00731 49.86292
# Shear Modulus (GPa) = 20.42022 24.14052 22.28037
#
# Velocity S-wave (km/s) = 3.46337 3.76567 3.61768
# Velocity P-wave (km/s) = 6.17652 7.43845 6.83666
#
# Compressibility (1/GPa) = 0.02651217
#
# Stress axis : x y z
#
# Youngs Moduli (GPa) = 31.41767 59.66539 89.13880
#
# Poissons Ratio (x) = 0.18767 0.60075
# Poissons Ratio (y) = 0.09882 0.60284
# Poissons Ratio (z) = 0.21174 0.40351
#
# Static dielectric constant tensor:
#      x y z
#    x 2.933180 0.000000 0.000000 
#    y 0.000000 3.171200 0.000000 
#    z 0.000000 0.000000 3.534750 
# 
# 
# High freq. dielectric constant tensor:
#      x y z
#    x 1.615670 0.000000 0.000000 
#    y 0.000000 1.635710 0.000000 
#    z 0.000000 0.000000 1.669870 
# 
# From -- ./inp_files/29712.got.cif
#   From: 2010.03.12/outbox.cif.g09.slc.cpg/sg59_15_cif.got.tgz:29712.got - 2010.04.16 16:29:54.
