data_PCOD8240914
_publ_section_title
;
Structure prediction by ZEFSAII (Michael W. Deem and Ramdas Pophale) SiO2 
 PCOD8240914
Probable space group: P M M N
;
_chemical_formula_sum "Si O2"
_cell_formula_units_Z 48
_cell_length_a 13.787729
_cell_length_b 9.336728
_cell_length_c 20.539835
_cell_angle_alpha 90.000000
_cell_angle_beta 90.000000
_cell_angle_gamma 90.000000
_cell_volume 2644.139696
_symmetry_space_group_name_H-M "P M M N"
_symmetry_group_IT_number 59
_space_group.IT_coordinate_system_code '2'
_symmetry_cell_setting 'orthorhombic'
loop_
_space_group_symop_operation_xyz
x,y,z
1/2-x,1/2-y,z
1/2+x,-y,-z
-x,1/2+y,-z
-x,-y,-z
1/2+x,1/2+y,-z
1/2-x,y,z
x,1/2-y,z
loop_
_atom_site_type_symbol
_atom_site_label
_atom_site_fract_x
_atom_site_fract_y
_atom_site_fract_z
Si Si1 0.529515 0.582576 0.157118
Si Si2 0.549857 0.082637 0.405044
Si Si3 0.138472 0.416979 0.112101
Si Si4 0.862223 0.917060 0.288274
Si Si5 0.359580 0.414115 0.479538
Si Si6 0.856917 0.579946 0.033253
O O1 0.508785 0.750000 0.153079
O O2 0.426519 0.502631 0.164316
O O3 0.601005 0.546189 0.216176
O O4 0.575851 0.520101 0.090664
O O5 0.573126 0.250000 0.399878
O O6 0.436504 0.054386 0.422022
O O7 0.571959 0.007935 0.336973
O O8 0.619564 0.016404 0.459744
O O9 0.250000 0.455960 0.125301
O O10 0.120357 0.250000 0.122306
O O11 0.107740 0.465380 0.038804
O O12 0.750000 0.962450 0.293908
O O13 0.875333 0.750000 0.304356
O O14 0.250000 0.443215 0.454062
O O15 0.370630 0.250000 0.503391
O O16 0.750000 0.516287 0.044969
O O17 0.851898 0.750000 0.037473
#
# Coordination Sequence:
#
# PCOD8240914 Si02
#       6
#     8   8   8   8   8   8
#     4  10  19  31  50  73  95 124 165 208 243 282
#     4  10  20  33  52  79 106 132 166 205 241 280
#     4   9  18  32  49  69  95 127 160 198 250 305
#     4  10  21  36  52  71  99 134 166 196 239 295
#     4   9  18  34  55  77 103 134 165 199 242 290
#     4   8  14  27  48  72  96 123 158 200 247 299
#
# _framework density 18.153352000000002
#
# number of rings (size 3 to 8) (size 9 to 14) (size 15 to 20)
#    0.000    2.667    0.000    3.000    0.000    6.333 
#    0.000    0.833    0.000    5.500    0.000    0.000 
#    0.000    0.000    0.000    0.000    0.000    0.000 
#
# Total GULP energy -595071.932074 kJ/mol
# GULP energy per Si atom -12397.331918 kJ/mol
# Density = 1.811203 g / cm^3
# Si number density = 18.153352 Si / 1000 Ang^3
#
#
#
# Elastic Constant Matrix: (Units=GPa)
#
#
# Indices 1 2 3 4 5 6 
#
# 1 125.8383 49.6790 54.6420 0.0000 0.0000 0.0000
# 2 49.6790 55.6488 39.9085 0.0000 0.0000 0.0000
# 3 54.6420 39.9085 63.2823 0.0000 0.0000 0.0000
# 4 0.0000 0.0000 0.0000 27.7760 0.0000 0.0000
# 5 0.0000 0.0000 0.0000 0.0000 26.1413 0.0000
# 6 0.0000 0.0000 0.0000 0.0000 0.0000 28.8105
#
#
#
# Elastic Compliance Matrix: (Units=1/GPa)
#
#
# Indices 1 2 3 4 5 6 
#
# 1 0.014073 -0.007027 -0.007720 0.000000 0.000000 0.000000
# 2 -0.007027 0.036316 -0.016835 0.000000 0.000000 0.000000
# 3 -0.007720 -0.016835 0.033085 0.000000 0.000000 0.000000
# 4 0.000000 0.000000 0.000000 0.036002 0.000000 0.000000
# 5 0.000000 0.000000 0.000000 0.000000 0.038254 0.000000
# 6 0.000000 0.000000 0.000000 0.000000 0.000000 0.034710
#
#
# Mechanical properties :
#
#
# Convention : Reuss Voigt Hill
#
# Bulk Modulus (GPa) = 49.23622 59.24760 54.24191
# Shear Modulus (GPa) = 19.05672 23.24820 21.15246
#
# Velocity S-wave (km/s) = 3.24352 3.58251 3.41722
# Velocity P-wave (km/s) = 6.41938 7.05837 6.74645
#
# Compressibility (1/GPa) = 0.02031025
#
# Stress axis : x y z
#
# Youngs Moduli (GPa) = 71.05765 27.53587 30.22494
#
# Poissons Ratio (x) = 0.19349 0.23334
# Poissons Ratio (y) = 0.49931 0.50884
# Poissons Ratio (z) = 0.54858 0.46357
#
# Static dielectric constant tensor:
#      x y z
#    x 3.488460 0.000000 0.000000 
#    y 0.000000 3.138250 0.000000 
#    z 0.000000 0.000000 3.251910 
# 
# 
# High freq. dielectric constant tensor:
#      x y z
#    x 1.713720 0.000000 0.000000 
#    y 0.000000 1.685860 0.000000 
#    z 0.000000 0.000000 1.685960 
# 
# From -- ./inp_files/30205.got.cif
#   From: 2010.03.12/outbox.cif.g09.slc.cpg/sg59_16_cif.got.tgz:30205.got - 2010.04.16 16:29:54.
