data_PCOD8240861
_publ_section_title
;
Structure prediction by ZEFSAII (Michael W. Deem and Ramdas Pophale) SiO2 
 PCOD8240861
Probable space group: P M M N
;
_chemical_formula_sum "Si O2"
_cell_formula_units_Z 64
_cell_length_a 9.359075
_cell_length_b 33.288861
_cell_length_c 11.079457
_cell_angle_alpha 90.000000
_cell_angle_beta 90.000000
_cell_angle_gamma 90.000000
_cell_volume 3451.837477
_symmetry_space_group_name_H-M "P M M N"
_symmetry_group_IT_number 59
_space_group.IT_coordinate_system_code '2'
_symmetry_cell_setting 'orthorhombic'
loop_
_space_group_symop_operation_xyz
x,y,z
1/2-x,1/2-y,z
1/2+x,-y,-z
-x,1/2+y,-z
-x,-y,-z
1/2+x,1/2+y,-z
1/2-x,y,z
x,1/2-y,z
loop_
_atom_site_type_symbol
_atom_site_label
_atom_site_fract_x
_atom_site_fract_y
_atom_site_fract_z
Si Si1 0.583779 0.068537 0.966572
Si Si2 0.582160 0.632620 0.644290
Si Si3 0.584281 0.595310 0.395450
Si Si4 0.416867 0.362261 0.852714
Si Si5 0.911275 0.203551 0.963467
Si Si6 0.082942 0.704206 0.759463
Si Si7 0.411539 0.972322 0.284750
Si Si8 0.915163 0.943623 0.802345
O O1 0.750000 0.077415 0.988498
O O2 0.516776 0.047994 0.084231
O O3 0.500933 0.110156 0.947291
O O4 0.557180 0.039613 0.853619
O O5 0.750000 0.641338 0.641044
O O6 0.526462 0.617493 0.514273
O O7 0.503905 0.673984 0.675013
O O8 0.543623 0.598365 0.740958
O O9 0.750000 0.585486 0.409204
O O10 0.551277 0.624575 0.283786
O O11 0.510058 0.552134 0.377187
O O12 0.250000 0.363804 0.883147
O O13 0.478612 0.317854 0.872776
O O14 0.750000 0.187643 0.942779
O O15 0.919447 0.250000 0.930918
O O16 0.957948 0.196172 0.101630
O O17 0.250000 0.696840 0.739047
O O18 0.042726 0.750000 0.724197
O O19 0.250000 0.961490 0.319817
O O20 0.440617 0.020117 0.293570
O O21 0.750000 0.944133 0.844638
#
# Coordination Sequence:
#
# PCOD8240861 Si02
#       8
#     8   8   8   8   8   8   8   8
#     4  10  19  31  49  73 101 132 166 204 252 308
#     4  10  21  36  53  74 101 134 171 210 250 292
#     4   9  20  37  52  69  98 135 173 211 249 290
#     4  10  19  32  51  72  97 131 168 206 248 295
#     4   9  18  33  53  78 107 132 156 196 250 305
#     4   9  19  36  56  78 104 131 159 197 246 297
#     4   9  19  34  51  73 101 133 168 209 255 299
#     4  10  20  33  50  75 105 132 165 211 255 298
#
# _framework density 18.540849000000001
#
# number of rings (size 3 to 8) (size 9 to 14) (size 15 to 20)
#    0.000    2.500    0.000    2.625    0.000    6.000 
#    0.000    1.875    0.000    3.750    0.000    0.000 
#    0.000    0.000    0.000    0.000    0.000    0.000 
#
# Total GULP energy -793679.693123 kJ/mol
# GULP energy per Si atom -12401.245205 kJ/mol
# Density = 1.849865 g / cm^3
# Si number density = 18.540849 Si / 1000 Ang^3
#
#
#
# Elastic Constant Matrix: (Units=GPa)
#
#
# Indices 1 2 3 4 5 6 
#
# 1 72.2743 43.0252 30.1783 0.0000 0.0000 0.0000
# 2 43.0252 98.4749 24.5978 0.0000 0.0000 0.0000
# 3 30.1783 24.5978 46.1181 0.0000 0.0000 0.0000
# 4 0.0000 0.0000 0.0000 23.7851 0.0000 0.0000
# 5 0.0000 0.0000 0.0000 0.0000 24.8369 0.0000
# 6 0.0000 0.0000 0.0000 0.0000 0.0000 35.5825
#
#
#
# Elastic Compliance Matrix: (Units=1/GPa)
#
#
# Indices 1 2 3 4 5 6 
#
# 1 0.022712 -0.007165 -0.011040 0.000000 0.000000 0.000000
# 2 -0.007165 0.013976 -0.002766 0.000000 0.000000 0.000000
# 3 -0.011040 -0.002766 0.030383 0.000000 0.000000 0.000000
# 4 0.000000 0.000000 0.000000 0.042043 0.000000 0.000000
# 5 0.000000 0.000000 0.000000 0.000000 0.040263 0.000000
# 6 0.000000 0.000000 0.000000 0.000000 0.000000 0.028104
#
#
# Mechanical properties :
#
#
# Convention : Reuss Voigt Hill
#
# Bulk Modulus (GPa) = 39.79528 45.82997 42.81263
# Shear Modulus (GPa) = 21.94922 24.77863 23.36392
#
# Velocity S-wave (km/s) = 3.44442 3.65969 3.55369
# Velocity P-wave (km/s) = 6.10973 6.52915 6.32292
#
# Compressibility (1/GPa) = 0.02512861
#
# Stress axis : x y z
#
# Youngs Moduli (GPa) = 44.03049 71.54935 32.91335
#
# Poissons Ratio (x) = 0.51268 0.36336
# Poissons Ratio (y) = 0.31549 0.09103
# Poissons Ratio (z) = 0.48610 0.19788
#
# Static dielectric constant tensor:
#      x y z
#    x 3.352210 0.000000 0.000000 
#    y 0.000000 3.412990 0.000000 
#    z 0.000000 0.000000 3.259160 
# 
# 
# High freq. dielectric constant tensor:
#      x y z
#    x 1.717200 0.000000 0.000000 
#    y 0.000000 1.723520 0.000000 
#    z 0.000000 0.000000 1.703750 
# 
# From -- ./inp_files/15061.got.cif
#   From: 2010.03.12/outbox.cif.g09.slc.cpg/sg59_8_cif.got.tgz:15061.got - 2010.04.16 16:29:54.
