data_PCOD8240045
_publ_section_title
;
Structure prediction by ZEFSAII (Michael W. Deem and Ramdas Pophale) SiO2 
 PCOD8240045
Probable space group: P M M N
;
_chemical_formula_sum "Si O2"
_cell_formula_units_Z 48
_cell_length_a 14.880067
_cell_length_b 8.967551
_cell_length_c 18.957460
_cell_angle_alpha 90.000000
_cell_angle_beta 90.000000
_cell_angle_gamma 90.000000
_cell_volume 2529.640992
_symmetry_space_group_name_H-M "P M M N"
_symmetry_group_IT_number 59
_space_group.IT_coordinate_system_code '2'
_symmetry_cell_setting 'orthorhombic'
loop_
_space_group_symop_operation_xyz
x,y,z
1/2-x,1/2-y,z
1/2+x,-y,-z
-x,1/2+y,-z
-x,-y,-z
1/2+x,1/2+y,-z
1/2-x,y,z
x,1/2-y,z
loop_
_atom_site_type_symbol
_atom_site_label
_atom_site_fract_x
_atom_site_fract_y
_atom_site_fract_z
Si Si1 0.503078 0.424710 0.605468
Si Si2 0.645044 0.924396 0.509256
Si Si3 0.905185 0.425735 0.994857
Si Si4 0.498417 0.426631 0.244998
Si Si5 0.653290 0.426385 0.144488
Si Si6 0.851886 0.419061 0.841314
O O1 0.517744 0.250000 0.614636
O O2 0.412726 0.460215 0.560906
O O3 0.595154 0.489144 0.572270
O O4 0.486733 0.499780 0.679968
O O5 0.750000 0.975948 0.500940
O O6 0.641550 0.750000 0.527004
O O7 0.916684 0.250000 0.997029
O O8 0.857276 0.474978 0.922411
O O9 0.850941 0.482041 0.063435
O O10 0.000000 0.500000 0.000000
O O11 0.502862 0.250000 0.253735
O O12 0.575433 0.493294 0.193531
O O13 0.404163 0.471827 0.210846
O O14 0.750000 0.476728 0.174981
O O15 0.643290 0.250000 0.145770
O O16 0.750000 0.426502 0.815986
O O17 0.889131 0.250000 0.834831
#
# Coordination Sequence:
#
# PCOD8240045 Si02
#       6
#     8   8   8   8   8   8
#     4  10  21  37  58  85 116 147 178 218 265 318
#     4   9  19  38  63  88 113 143 179 218 263 315
#     4  10  18  32  55  78 103 137 180 230 280 328
#     4  11  22  36  55  80 111 147 183 224 271 321
#     4   9  18  33  53  77 105 140 182 225 272 326
#     4  10  21  36  55  78 105 142 186 231 280 330
#
# _framework density 18.975024999999999
#
# number of rings (size 3 to 8) (size 9 to 14) (size 15 to 20)
#    0.000    2.167    1.667    1.500    0.000    4.667 
#    0.000    0.000    0.000    5.000    0.000    0.000 
#    0.000    0.000    0.000    0.000    0.000    0.000 
#
# Total GULP energy -595025.484171 kJ/mol
# GULP energy per Si atom -12396.364254 kJ/mol
# Density = 1.893184 g / cm^3
# Si number density = 18.975025 Si / 1000 Ang^3
#
#
#
# Elastic Constant Matrix: (Units=GPa)
#
#
# Indices 1 2 3 4 5 6 
#
# 1 125.9087 28.2217 37.2529 0.0000 0.0000 0.0000
# 2 28.2217 39.5579 37.4955 0.0000 0.0000 0.0000
# 3 37.2529 37.4955 109.3022 0.0000 0.0000 0.0000
# 4 0.0000 0.0000 0.0000 17.6700 0.0000 0.0000
# 5 0.0000 0.0000 0.0000 0.0000 5.5692 0.0000
# 6 0.0000 0.0000 0.0000 0.0000 0.0000 27.2939
#
#
#
# Elastic Compliance Matrix: (Units=1/GPa)
#
#
# Indices 1 2 3 4 5 6 
#
# 1 0.009590 -0.005547 -0.001365 0.000000 0.000000 0.000000
# 2 -0.005547 0.040669 -0.012060 0.000000 0.000000 0.000000
# 3 -0.001365 -0.012060 0.013752 0.000000 0.000000 0.000000
# 4 0.000000 0.000000 0.000000 0.056593 0.000000 0.000000
# 5 0.000000 0.000000 0.000000 0.000000 0.179558 0.000000
# 6 0.000000 0.000000 0.000000 0.000000 0.000000 0.036638
#
#
# Mechanical properties :
#
#
# Convention : Reuss Voigt Hill
#
# Bulk Modulus (GPa) = 38.36781 53.41210 45.88996
# Shear Modulus (GPa) = 13.04006 21.55988 17.29997
#
# Velocity S-wave (km/s) = 2.62434 3.37445 3.02275
# Velocity P-wave (km/s) = 5.42650 6.58728 6.03487
#
# Compressibility (1/GPa) = 0.02606352
#
# Stress axis : x y z
#
# Youngs Moduli (GPa) = 104.27921 24.58896 72.71882
#
# Poissons Ratio (x) = 0.13640 0.09929
# Poissons Ratio (y) = 0.57846 0.87702
# Poissons Ratio (z) = 0.14239 0.29655
#
# Static dielectric constant tensor:
#      x y z
#    x 3.606280 0.000000 0.000000 
#    y 0.000000 3.299990 0.000000 
#    z 0.000000 0.000000 4.495120 
# 
# 
# High freq. dielectric constant tensor:
#      x y z
#    x 1.745240 0.000000 0.000000 
#    y 0.000000 1.718550 0.000000 
#    z 0.000000 0.000000 1.740060 
# 
# From -- ./inp_files/25421.got.cif
#   From: 2010.03.12/outbox.cif.g09.slc.cpg/sg59_13_cif.got.tgz:25421.got - 2010.04.16 16:29:54.
