data_PCOD8240545
_publ_section_title
;
Structure prediction by ZEFSAII (Michael W. Deem and Ramdas Pophale) SiO2 
 PCOD8240545
Probable space group: P M M N
;
_chemical_formula_sum "Si O2"
_cell_formula_units_Z 64
_cell_length_a 8.791549
_cell_length_b 28.658896
_cell_length_c 15.503551
_cell_angle_alpha 90.000000
_cell_angle_beta 90.000000
_cell_angle_gamma 90.000000
_cell_volume 3906.214067
_symmetry_space_group_name_H-M "P M M N"
_symmetry_group_IT_number 59
_space_group.IT_coordinate_system_code '2'
_symmetry_cell_setting 'orthorhombic'
loop_
_space_group_symop_operation_xyz
x,y,z
1/2-x,1/2-y,z
1/2+x,-y,-z
-x,1/2+y,-z
-x,-y,-z
1/2+x,1/2+y,-z
1/2-x,y,z
x,1/2-y,z
loop_
_atom_site_type_symbol
_atom_site_label
_atom_site_fract_x
_atom_site_fract_y
_atom_site_fract_z
Si Si1 0.430797 0.199526 0.594227
Si Si2 0.429343 0.105607 0.668187
Si Si3 0.929350 0.393833 0.343018
Si Si4 0.073725 0.950292 0.988476
Si Si5 0.576583 0.446405 0.820941
Si Si6 0.930720 0.550798 0.498628
Si Si7 0.571006 0.944852 0.817866
Si Si8 0.072175 0.197094 0.397367
O O1 0.250000 0.200546 0.596060
O O2 0.493877 0.250000 0.626102
O O3 0.495017 0.158162 0.654802
O O4 0.481534 0.190579 0.495965
O O5 0.250000 0.107447 0.664703
O O6 0.477240 0.085813 0.759770
O O7 0.488890 0.073578 0.590280
O O8 0.750000 0.399094 0.353195
O O9 0.011767 0.418863 0.421995
O O10 0.981036 0.417687 0.255025
O O11 0.976855 0.339364 0.339930
O O12 0.250000 0.955342 0.963633
O O13 0.985345 0.924332 0.910625
O O14 0.055193 0.925813 0.082061
O O15 0.000000 0.000000 0.000000
O O16 0.750000 0.442173 0.791195
O O17 0.526677 0.500456 0.813025
O O18 0.750000 0.547866 0.503895
O O19 0.000000 0.500000 0.500000
O O20 0.750000 0.936612 0.808110
O O21 0.250000 0.185723 0.387401
O O22 0.037713 0.250000 0.366235
#
# Coordination Sequence:
#
# PCOD8240545 Si02
#       8
#     8   8   8   8   8   8   8   8
#     4   8  14  28  49  69  89 117 156 202 247 282
#     4  10  19  30  47  69  92 123 163 200 233 282
#     4  12  23  33  48  72 101 133 165 203 249 298
#     4   9  17  31  49  70  96 126 161 201 246 292
#     4   9  19  32  47  69  98 129 157 194 242 290
#     4  11  22  35  47  65  96 133 173 206 240 287
#     4  10  20  34  51  70  95 129 168 207 244 290
#     4   9  17  33  55  72  92 126 165 207 252 294
#
# _framework density 16.384150000000002
#
# number of rings (size 3 to 8) (size 9 to 14) (size 15 to 20)
#    0.000    2.250    1.250    4.500    0.000    6.250 
#    0.000    0.000    0.000    0.375    0.000    0.875 
#    0.000    3.000    0.000    0.000    0.000    0.000 
#
# Total GULP energy -793297.299310 kJ/mol
# GULP energy per Si atom -12395.270302 kJ/mol
# Density = 1.634686 g / cm^3
# Si number density = 16.384150 Si / 1000 Ang^3
#
#
#
# Elastic Constant Matrix: (Units=GPa)
#
#
# Indices 1 2 3 4 5 6 
#
# 1 50.3416 30.2702 25.3570 0.0000 0.0000 0.0000
# 2 30.2702 100.3068 41.3281 0.0000 0.0000 0.0000
# 3 25.3570 41.3281 92.9362 0.0000 0.0000 0.0000
# 4 0.0000 0.0000 0.0000 7.2486 0.0000 0.0000
# 5 0.0000 0.0000 0.0000 0.0000 28.3815 0.0000
# 6 0.0000 0.0000 0.0000 0.0000 0.0000 21.8160
#
#
#
# Elastic Compliance Matrix: (Units=1/GPa)
#
#
# Indices 1 2 3 4 5 6 
#
# 1 0.025628 -0.005942 -0.004350 0.000000 0.000000 0.000000
# 2 -0.005942 0.013583 -0.004419 0.000000 0.000000 0.000000
# 3 -0.004350 -0.004419 0.013912 0.000000 0.000000 0.000000
# 4 0.000000 0.000000 0.000000 0.137958 0.000000 0.000000
# 5 0.000000 0.000000 0.000000 0.000000 0.035234 0.000000
# 6 0.000000 0.000000 0.000000 0.000000 0.000000 0.045838
#
#
# Mechanical properties :
#
#
# Convention : Reuss Voigt Hill
#
# Bulk Modulus (GPa) = 42.19159 48.61057 45.40108
# Shear Modulus (GPa) = 16.15631 21.26450 18.71041
#
# Velocity S-wave (km/s) = 3.14362 3.60651 3.38299
# Velocity P-wave (km/s) = 6.24370 6.86121 6.55973
#
# Compressibility (1/GPa) = 0.02370140
#
# Stress axis : x y z
#
# Youngs Moduli (GPa) = 39.01953 73.62010 71.87928
#
# Poissons Ratio (x) = 0.43742 0.31270
# Poissons Ratio (y) = 0.23184 0.31765
# Poissons Ratio (z) = 0.16975 0.32535
#
# Static dielectric constant tensor:
#      x y z
#    x 3.060930 0.000000 0.000000 
#    y 0.000000 3.205140 0.000000 
#    z 0.000000 0.000000 3.301130 
# 
# 
# High freq. dielectric constant tensor:
#      x y z
#    x 1.626980 0.000000 0.000000 
#    y 0.000000 1.613680 0.000000 
#    z 0.000000 0.000000 1.621920 
# 
# From -- ./inp_files/21827.got.cif
#   From: 2010.03.12/outbox.cif.g09.slc.cpg/sg59_11_cif.got.tgz:21827.got - 2010.04.16 16:29:54.
