data_PCOD8240460
_publ_section_title
;
Structure prediction by ZEFSAII (Michael W. Deem and Ramdas Pophale) SiO2 
 PCOD8240460
Probable space group: P M M N
;
_chemical_formula_sum "Si O2"
_cell_formula_units_Z 64
_cell_length_a 8.975347
_cell_length_b 14.522202
_cell_length_c 28.610665
_cell_angle_alpha 90.000000
_cell_angle_beta 90.000000
_cell_angle_gamma 90.000000
_cell_volume 3729.165637
_symmetry_space_group_name_H-M "P M M N"
_symmetry_group_IT_number 59
_space_group.IT_coordinate_system_code '2'
_symmetry_cell_setting 'orthorhombic'
loop_
_space_group_symop_operation_xyz
x,y,z
1/2-x,1/2-y,z
1/2+x,-y,-z
-x,1/2+y,-z
-x,-y,-z
1/2+x,1/2+y,-z
1/2-x,y,z
x,1/2-y,z
loop_
_atom_site_type_symbol
_atom_site_label
_atom_site_fract_x
_atom_site_fract_y
_atom_site_fract_z
Si Si1 0.584277 0.649920 0.075062
Si Si2 0.572776 0.646757 0.348681
Si Si3 0.427571 0.469520 0.840576
Si Si4 0.926976 0.149954 0.114178
Si Si5 0.426384 0.595703 0.988284
Si Si6 0.574548 0.643210 0.522363
Si Si7 0.574446 0.523850 0.432664
Si Si8 0.927197 0.646670 0.244668
O O1 0.750000 0.613552 0.061048
O O2 0.596733 0.750000 0.098679
O O3 0.511723 0.583312 0.113676
O O4 0.482208 0.662158 0.029339
O O5 0.750000 0.648459 0.351113
O O6 0.514587 0.750000 0.361063
O O7 0.512692 0.570598 0.385075
O O8 0.517865 0.618783 0.296638
O O9 0.250000 0.460523 0.839266
O O10 0.480956 0.575181 0.847342
O O11 0.494600 0.425478 0.793088
O O12 0.750000 0.149257 0.112118
O O13 0.987116 0.250000 0.130055
O O14 0.986185 0.129019 0.062044
O O15 0.250000 0.590047 0.988678
O O16 0.500000 0.500000 0.000000
O O17 0.750000 0.642509 0.530456
O O18 0.516552 0.750000 0.524848
O O19 0.531505 0.597254 0.472900
O O20 0.500572 0.576895 0.561472
O O21 0.750000 0.507101 0.431293
O O22 0.750000 0.644096 0.243420
O O23 0.982275 0.750000 0.232552
#
# Coordination Sequence:
#
# PCOD8240460 Si02
#       8
#     8   8   8   8   8   8   8   8
#     4  10  19  30  45  66  90 115 141 170 207 251
#     4   8  13  22  38  61  87 114 145 178 216 264
#     4   9  15  25  40  60  86 112 139 172 208 249
#     4   9  17  28  42  58  78 108 142 171 203 246
#     4  11  20  32  47  63  86 113 144 177 214 254
#     4   9  17  28  41  59  86 120 155 187 220 263
#     4   9  16  26  42  63  87 116 149 187 228 263
#     4   8  13  21  36  60  87 113 139 170 211 259
#
# _framework density 17.162015
#
# number of rings (size 3 to 8) (size 9 to 14) (size 15 to 20)
#    0.000    2.875    1.250    2.250    0.000    4.000 
#    0.000    0.000    0.000    1.875    0.000    4.375 
#    0.000    1.000    0.000    0.125    0.000    0.000 
#
# Total GULP energy -792920.197715 kJ/mol
# GULP energy per Si atom -12389.378089 kJ/mol
# Density = 1.712295 g / cm^3
# Si number density = 17.162015 Si / 1000 Ang^3
#
#
#
# Elastic Constant Matrix: (Units=GPa)
#
#
# Indices 1 2 3 4 5 6 
#
# 1 18.7723 16.6486 13.9110 0.0000 0.0000 0.0000
# 2 16.6486 157.8739 79.7133 0.0000 0.0000 0.0000
# 3 13.9110 79.7133 124.1057 0.0000 0.0000 0.0000
# 4 0.0000 0.0000 0.0000 32.8055 0.0000 0.0000
# 5 0.0000 0.0000 0.0000 0.0000 13.7348 0.0000
# 6 0.0000 0.0000 0.0000 0.0000 0.0000 16.8697
#
#
#
# Elastic Compliance Matrix: (Units=1/GPa)
#
#
# Indices 1 2 3 4 5 6 
#
# 1 0.060041 -0.004342 -0.003941 0.000000 0.000000 0.000000
# 2 -0.004342 0.009688 -0.005736 0.000000 0.000000 0.000000
# 3 -0.003941 -0.005736 0.012184 0.000000 0.000000 0.000000
# 4 0.000000 0.000000 0.000000 0.030483 0.000000 0.000000
# 5 0.000000 0.000000 0.000000 0.000000 0.072808 0.000000
# 6 0.000000 0.000000 0.000000 0.000000 0.000000 0.059278
#
#
# Mechanical properties :
#
#
# Convention : Reuss Voigt Hill
#
# Bulk Modulus (GPa) = 18.56152 57.92197 38.24175
# Shear Modulus (GPa) = 17.21299 25.38059 21.29679
#
# Velocity S-wave (km/s) = 3.17041 3.84979 3.52650
# Velocity P-wave (km/s) = 4.92351 7.32015 6.23801
#
# Compressibility (1/GPa) = 0.05387490
#
# Stress axis : x y z
#
# Youngs Moduli (GPa) = 16.65526 103.21725 82.07628
#
# Poissons Ratio (x) = 0.44812 0.32350
# Poissons Ratio (y) = 0.07231 0.47080
# Poissons Ratio (z) = 0.06565 0.59207
#
# Static dielectric constant tensor:
#      x y z
#    x 2.838410 0.000000 0.000000 
#    y 0.000000 3.365560 0.000000 
#    z 0.000000 0.000000 3.022680 
# 
# 
# High freq. dielectric constant tensor:
#      x y z
#    x 1.605670 0.000000 0.000000 
#    y 0.000000 1.670120 0.000000 
#    z 0.000000 0.000000 1.648010 
# 
# From -- ./inp_files/33247.got.cif
#   From: 2010.03.12/outbox.cif.g09.slc.cpg/sg59_17_cif.got.tgz:33247.got - 2010.04.16 16:29:54.
