data_PCOD8240632
_publ_section_title
;
Structure prediction by ZEFSAII (Michael W. Deem and Ramdas Pophale) SiO2 
 PCOD8240632
Probable space group: P M M N
;
_chemical_formula_sum "Si O2"
_cell_formula_units_Z 64
_cell_length_a 15.729729
_cell_length_b 9.396086
_cell_length_c 22.983468
_cell_angle_alpha 90.000000
_cell_angle_beta 90.000000
_cell_angle_gamma 90.000000
_cell_volume 3396.907993
_symmetry_space_group_name_H-M "P M M N"
_symmetry_group_IT_number 59
_space_group.IT_coordinate_system_code '2'
_symmetry_cell_setting 'orthorhombic'
loop_
_space_group_symop_operation_xyz
x,y,z
1/2-x,1/2-y,z
1/2+x,-y,-z
-x,1/2+y,-z
-x,-y,-z
1/2+x,1/2+y,-z
1/2-x,y,z
x,1/2-y,z
loop_
_atom_site_type_symbol
_atom_site_label
_atom_site_fract_x
_atom_site_fract_y
_atom_site_fract_z
Si Si1 0.153933 0.915336 0.931222
Si Si2 0.653642 0.588412 0.525491
Si Si3 0.846245 0.914449 0.952558
Si Si4 0.157274 0.088695 0.679394
Si Si5 0.599947 0.089917 0.422662
Si Si6 0.577766 0.909158 0.641049
Si Si7 0.989463 0.583503 0.859840
Si Si8 0.011119 0.582171 0.257247
O O1 0.250000 0.950869 0.908544
O O2 0.145277 0.750000 0.946337
O O3 0.083084 0.958576 0.883754
O O4 0.133141 0.998354 0.989817
O O5 0.750000 0.575180 0.504486
O O6 0.619488 0.750000 0.518184
O O7 0.598092 0.484390 0.485593
O O8 0.649527 0.546561 0.594177
O O9 0.750000 0.946486 0.930161
O O10 0.856518 0.750000 0.968954
O O11 0.915069 0.958741 0.904550
O O12 0.250000 0.076112 0.709845
O O13 0.138220 0.250000 0.659421
O O14 0.085477 0.040679 0.725175
O O15 0.160484 0.993473 0.621838
O O16 0.634444 0.250000 0.429508
O O17 0.506523 0.086196 0.397238
O O18 0.592764 0.750000 0.666405
O O19 0.575513 0.019969 0.694274
O O20 0.985897 0.750000 0.844093
O O21 0.969385 0.491420 0.803463
O O22 0.025754 0.750000 0.251802
#
# Coordination Sequence:
#
# PCOD8240632 Si02
#       8
#     8   8   8   8   8   8   8   8
#     4   9  18  32  51  78 110 139 165 197 243 296
#     4  10  20  33  50  72  96 123 156 194 239 292
#     4   9  18  33  53  77 103 133 171 210 246 287
#     4   9  18  33  50  68  95 129 161 197 242 291
#     4  10  19  30  48  74  99 123 154 193 239 292
#     4   9  19  36  53  68  92 127 162 196 239 290
#     4  10  20  34  52  74 103 137 169 204 247 293
#     4  10  21  35  52  73  95 125 168 209 243 285
#
# _framework density 18.840662999999999
#
# number of rings (size 3 to 8) (size 9 to 14) (size 15 to 20)
#    0.000    2.500    0.000    1.875    0.000    5.000 
#    0.000    0.625    0.000    3.750    0.000    0.000 
#    0.000    0.000    0.000    0.000    0.000    0.000 
#
# Total GULP energy -793453.812356 kJ/mol
# GULP energy per Si atom -12397.715818 kJ/mol
# Density = 1.879778 g / cm^3
# Si number density = 18.840663 Si / 1000 Ang^3
#
#
#
# Elastic Constant Matrix: (Units=GPa)
#
#
# Indices 1 2 3 4 5 6 
#
# 1 49.1609 18.4547 24.9030 0.0000 0.0000 0.0000
# 2 18.4547 80.5018 57.2646 0.0000 0.0000 0.0000
# 3 24.9030 57.2646 109.2402 0.0000 0.0000 0.0000
# 4 0.0000 0.0000 0.0000 34.8954 0.0000 0.0000
# 5 0.0000 0.0000 0.0000 0.0000 17.7112 0.0000
# 6 0.0000 0.0000 0.0000 0.0000 0.0000 17.2606
#
#
#
# Elastic Compliance Matrix: (Units=1/GPa)
#
#
# Indices 1 2 3 4 5 6 
#
# 1 0.023307 -0.002493 -0.004006 0.000000 0.000000 0.000000
# 2 -0.002493 0.020075 -0.009955 0.000000 0.000000 0.000000
# 3 -0.004006 -0.009955 0.015286 0.000000 0.000000 0.000000
# 4 0.000000 0.000000 0.000000 0.028657 0.000000 0.000000
# 5 0.000000 0.000000 0.000000 0.000000 0.056462 0.000000
# 6 0.000000 0.000000 0.000000 0.000000 0.000000 0.057935
#
#
# Mechanical properties :
#
#
# Convention : Reuss Voigt Hill
#
# Bulk Modulus (GPa) = 38.82176 48.90527 43.86352
# Shear Modulus (GPa) = 20.55773 23.19213 21.87493
#
# Velocity S-wave (km/s) = 3.30682 3.51231 3.41111
# Velocity P-wave (km/s) = 5.93550 6.51629 6.23266
#
# Compressibility (1/GPa) = 0.02575875
#
# Stress axis : x y z
#
# Youngs Moduli (GPa) = 42.90615 49.81261 65.41931
#
# Poissons Ratio (x) = 0.12419 0.26208
# Poissons Ratio (y) = 0.10697 0.65126
# Poissons Ratio (z) = 0.17189 0.49590
#
# Static dielectric constant tensor:
#      x y z
#    x 3.575850 0.000000 0.000000 
#    y 0.000000 3.516610 0.000000 
#    z 0.000000 0.000000 3.283770 
# 
# 
# High freq. dielectric constant tensor:
#      x y z
#    x 1.729780 0.000000 0.000000 
#    y 0.000000 1.731100 0.000000 
#    z 0.000000 0.000000 1.716140 
# 
# From -- ./inp_files/29433.got.cif
#   From: 2010.03.12/outbox.cif.g09.slc.cpg/sg59_15_cif.got.tgz:29433.got - 2010.04.16 16:29:54.
