data_PCOD8240153
_publ_section_title
;
Structure prediction by ZEFSAII (Michael W. Deem and Ramdas Pophale) SiO2 
 PCOD8240153
Probable space group: P M M N
;
_chemical_formula_sum "Si O2"
_cell_formula_units_Z 40
_cell_length_a 10.935962
_cell_length_b 18.824711
_cell_length_c 10.031526
_cell_angle_alpha 90.000000
_cell_angle_beta 90.000000
_cell_angle_gamma 90.000000
_cell_volume 2065.153383
_symmetry_space_group_name_H-M "P M M N"
_symmetry_group_IT_number 59
_space_group.IT_coordinate_system_code '2'
_symmetry_cell_setting 'orthorhombic'
loop_
_space_group_symop_operation_xyz
x,y,z
1/2-x,1/2-y,z
1/2+x,-y,-z
-x,1/2+y,-z
-x,-y,-z
1/2+x,1/2+y,-z
1/2-x,y,z
x,1/2-y,z
loop_
_atom_site_type_symbol
_atom_site_label
_atom_site_fract_x
_atom_site_fract_y
_atom_site_fract_z
Si Si1 0.386019 0.250000 0.042500
Si Si2 0.393838 0.829821 0.317270
Si Si3 0.384773 0.750000 0.759889
Si Si4 0.890303 0.034910 0.167567
Si Si5 0.112608 0.888875 0.584770
Si Si6 0.978194 0.610772 0.071989
O O1 0.250000 0.250000 0.110775
O O2 0.501957 0.250000 0.139403
O O3 0.393075 0.320970 0.952808
O O4 0.250000 0.824418 0.339569
O O5 0.449430 0.750000 0.314633
O O6 0.452885 0.874972 0.441510
O O7 0.418507 0.869669 0.179175
O O8 0.250000 0.750000 0.832792
O O9 0.394529 0.683295 0.665717
O O10 0.750000 0.059977 0.164323
O O11 0.945361 0.050611 0.316969
O O12 0.896961 0.952325 0.132561
O O13 0.960871 0.084893 0.064212
O O14 0.250000 0.912806 0.552884
#
# Coordination Sequence:
#
# PCOD8240153 Si02
#       6
#     4   8   4   8   8   8
#     4  12  24  37  56  86 122 158 192 240 299 349
#     4  10  19  32  55  88 117 141 185 249 296 337
#     4  10  18  33  60  88 112 150 198 238 281 345
#     4  10  21  37  56  80 111 148 197 245 289 341
#     4   9  17  32  57  86 113 141 185 245 297 334
#     4  11  22  36  55  81 112 158 190 235 288 354
#
# _framework density 19.369022000000001
#
# number of rings (size 3 to 8) (size 9 to 14) (size 15 to 20)
#    0.000    1.800    4.000    1.200    0.000    1.600 
#    0.000    0.000    0.000    3.600    0.000    0.000 
#    0.000    0.000    0.000    0.000    0.000    0.000 
#
# Total GULP energy -495550.177459 kJ/mol
# GULP energy per Si atom -12388.754436 kJ/mol
# Density = 1.932494 g / cm^3
# Si number density = 19.369022 Si / 1000 Ang^3
#
#
#
# Elastic Constant Matrix: (Units=GPa)
#
#
# Indices 1 2 3 4 5 6 
#
# 1 62.3969 12.0692 18.8970 0.0000 0.0000 0.0000
# 2 12.0692 94.1172 25.8117 0.0000 0.0000 0.0000
# 3 18.8970 25.8117 102.0423 0.0000 0.0000 0.0000
# 4 0.0000 0.0000 0.0000 20.3296 0.0000 0.0000
# 5 0.0000 0.0000 0.0000 0.0000 15.6523 0.0000
# 6 0.0000 0.0000 0.0000 0.0000 0.0000 20.6090
#
#
#
# Elastic Compliance Matrix: (Units=1/GPa)
#
#
# Indices 1 2 3 4 5 6 
#
# 1 0.017155 -0.001428 -0.002816 0.000000 0.000000 0.000000
# 2 -0.001428 0.011536 -0.002654 0.000000 0.000000 0.000000
# 3 -0.002816 -0.002654 0.010993 0.000000 0.000000 0.000000
# 4 0.000000 0.000000 0.000000 0.049189 0.000000 0.000000
# 5 0.000000 0.000000 0.000000 0.000000 0.063888 0.000000
# 6 0.000000 0.000000 0.000000 0.000000 0.000000 0.048523
#
#
# Mechanical properties :
#
#
# Convention : Reuss Voigt Hill
#
# Bulk Modulus (GPa) = 38.62565 41.34578 39.98572
# Shear Modulus (GPa) = 22.35055 24.77008 23.56032
#
# Velocity S-wave (km/s) = 3.40064 3.57998 3.49146
# Velocity P-wave (km/s) = 5.95016 6.20331 6.07805
#
# Compressibility (1/GPa) = 0.02588953
#
# Stress axis : x y z
#
# Youngs Moduli (GPa) = 58.29075 86.68597 90.97063
#
# Poissons Ratio (x) = 0.12376 0.25616
# Poissons Ratio (y) = 0.08322 0.24140
# Poissons Ratio (z) = 0.16414 0.23003
#
# Static dielectric constant tensor:
#      x y z
#    x 3.148710 0.000000 0.000000 
#    y 0.000000 3.872430 0.000000 
#    z 0.000000 0.000000 3.741560 
# 
# 
# High freq. dielectric constant tensor:
#      x y z
#    x 1.706330 0.000000 0.000000 
#    y 0.000000 1.767740 0.000000 
#    z 0.000000 0.000000 1.762000 
# 
# From -- ./inp_files/7406.got.cif
#   From: 2010.03.12/outbox.cif.g09.slc.cpg/sg59_4_cif.got.tgz:7406.got - 2010.04.16 16:29:54.
