data_PCOD8240192
_publ_section_title
;
Structure prediction by ZEFSAII (Michael W. Deem and Ramdas Pophale) SiO2 
 PCOD8240192
Probable space group: P M M N
;
_chemical_formula_sum "Si O2"
_cell_formula_units_Z 64
_cell_length_a 9.045748
_cell_length_b 19.046881
_cell_length_c 19.635435
_cell_angle_alpha 90.000000
_cell_angle_beta 90.000000
_cell_angle_gamma 90.000000
_cell_volume 3383.053613
_symmetry_space_group_name_H-M "P M M N"
_symmetry_group_IT_number 59
_space_group.IT_coordinate_system_code '2'
_symmetry_cell_setting 'orthorhombic'
loop_
_space_group_symop_operation_xyz
x,y,z
1/2-x,1/2-y,z
1/2+x,-y,-z
-x,1/2+y,-z
-x,-y,-z
1/2+x,1/2+y,-z
1/2-x,y,z
x,1/2-y,z
loop_
_atom_site_type_symbol
_atom_site_label
_atom_site_fract_x
_atom_site_fract_y
_atom_site_fract_z
Si Si1 0.075665 0.549102 0.138645
Si Si2 0.077680 0.449133 0.717234
Si Si3 0.578908 0.404479 0.349333
Si Si4 0.575930 0.670291 0.531306
Si Si5 0.574267 0.672293 0.378925
Si Si6 0.573959 0.083746 0.087350
Si Si7 0.575994 0.328709 0.958037
Si Si8 0.074089 0.828128 0.783714
O O1 0.250000 0.536551 0.140084
O O2 0.036577 0.626501 0.109409
O O3 0.011850 0.541396 0.213836
O O4 0.003582 0.492143 0.087796
O O5 0.250000 0.441815 0.736469
O O6 0.052241 0.514299 0.667171
O O7 0.013502 0.381982 0.676917
O O8 0.750000 0.387391 0.359892
O O9 0.496907 0.385484 0.418583
O O10 0.513305 0.358604 0.287243
O O11 0.750000 0.660611 0.535440
O O12 0.531576 0.750000 0.551295
O O13 0.518197 0.653656 0.454919
O O14 0.750000 0.669609 0.379772
O O15 0.518897 0.750000 0.358170
O O16 0.750000 0.073089 0.085270
O O17 0.518842 0.123682 0.154863
O O18 0.515671 0.129456 0.023785
O O19 0.750000 0.321089 0.966538
O O20 0.506151 0.250000 0.953019
O O21 0.250000 0.828056 0.783124
O O22 0.010892 0.750000 0.793759
#
# Coordination Sequence:
#
# PCOD8240192 Si02
#       8
#     8   8   8   8   8   8   8   8
#     4  11  22  35  53  79 112 143 169 212 271 317
#     4  10  20  36  56  77 102 137 182 220 253 304
#     4  10  19  31  48  74 106 136 170 217 259 300
#     4   9  18  33  52  75 104 138 172 209 261 319
#     4   8  16  33  56  78 101 133 175 220 261 305
#     4  10  18  34  58  79 101 137 180 216 250 304
#     4   9  19  35  56  82 108 137 177 219 259 308
#     4   9  16  27  47  74 100 130 171 213 249 289
#
# _framework density 18.917819999999999
#
# number of rings (size 3 to 8) (size 9 to 14) (size 15 to 20)
#    0.000    2.500    1.250    2.250    0.000    3.750 
#    0.000    1.250    0.000    4.875    0.000    0.000 
#    0.000    0.000    0.000    0.000    0.000    0.000 
#
# Total GULP energy -793482.066834 kJ/mol
# GULP energy per Si atom -12398.157294 kJ/mol
# Density = 1.887476 g / cm^3
# Si number density = 18.917820 Si / 1000 Ang^3
#
#
#
# Elastic Constant Matrix: (Units=GPa)
#
#
# Indices 1 2 3 4 5 6 
#
# 1 35.7426 32.4862 24.6755 0.0000 0.0000 0.0000
# 2 32.4862 127.0728 44.8470 0.0000 0.0000 0.0000
# 3 24.6755 44.8470 73.0269 0.0000 0.0000 0.0000
# 4 0.0000 0.0000 0.0000 37.1554 0.0000 0.0000
# 5 0.0000 0.0000 0.0000 0.0000 14.3459 0.0000
# 6 0.0000 0.0000 0.0000 0.0000 0.0000 17.4850
#
#
#
# Elastic Compliance Matrix: (Units=1/GPa)
#
#
# Indices 1 2 3 4 5 6 
#
# 1 0.041006 -0.007141 -0.009470 0.000000 0.000000 0.000000
# 2 -0.007141 0.011291 -0.004521 0.000000 0.000000 0.000000
# 3 -0.009470 -0.004521 0.019670 0.000000 0.000000 0.000000
# 4 0.000000 0.000000 0.000000 0.026914 0.000000 0.000000
# 5 0.000000 0.000000 0.000000 0.000000 0.069706 0.000000
# 6 0.000000 0.000000 0.000000 0.000000 0.000000 0.057192
#
#
# Mechanical properties :
#
#
# Convention : Reuss Voigt Hill
#
# Bulk Modulus (GPa) = 33.66741 48.87329 41.27035
# Shear Modulus (GPa) = 17.98924 22.71952 20.35438
#
# Velocity S-wave (km/s) = 3.08704 3.46924 3.28371
# Velocity P-wave (km/s) = 5.52645 6.47597 6.01996
#
# Compressibility (1/GPa) = 0.02970231
#
# Stress axis : x y z
#
# Youngs Moduli (GPa) = 24.38650 88.56926 50.83899
#
# Poissons Ratio (x) = 0.63247 0.48147
# Poissons Ratio (y) = 0.17414 0.22984
# Poissons Ratio (z) = 0.23095 0.40041
#
# Static dielectric constant tensor:
#      x y z
#    x 2.998450 0.000000 0.000000 
#    y 0.000000 3.792510 0.000000 
#    z 0.000000 0.000000 3.553760 
# 
# 
# High freq. dielectric constant tensor:
#      x y z
#    x 1.686300 0.000000 0.000000 
#    y 0.000000 1.747120 0.000000 
#    z 0.000000 0.000000 1.742430 
# 
# From -- ./inp_files/29396.got.cif
#   From: 2010.03.12/outbox.cif.g09.slc.cpg/sg59_15_cif.got.tgz:29396.got - 2010.04.16 16:29:54.
