data_PCOD8240315
_publ_section_title
;
Structure prediction by ZEFSAII (Michael W. Deem and Ramdas Pophale) SiO2 
 PCOD8240315
Probable space group: P M M N
;
_chemical_formula_sum "Si O2"
_cell_formula_units_Z 40
_cell_length_a 18.395091
_cell_length_b 9.218952
_cell_length_c 13.852364
_cell_angle_alpha 90.000000
_cell_angle_beta 90.000000
_cell_angle_gamma 90.000000
_cell_volume 2349.131830
_symmetry_space_group_name_H-M "P M M N"
_symmetry_group_IT_number 59
_space_group.IT_coordinate_system_code '2'
_symmetry_cell_setting 'orthorhombic'
loop_
_space_group_symop_operation_xyz
x,y,z
1/2-x,1/2-y,z
1/2+x,-y,-z
-x,1/2+y,-z
-x,-y,-z
1/2+x,1/2+y,-z
1/2-x,y,z
x,1/2-y,z
loop_
_atom_site_type_symbol
_atom_site_label
_atom_site_fract_x
_atom_site_fract_y
_atom_site_fract_z
Si Si1 0.328931 0.078511 0.188399
Si Si2 0.975000 0.577527 0.904220
Si Si3 0.961324 0.421103 0.294126
Si Si4 0.167488 0.578826 0.575710
Si Si5 0.893206 0.579202 0.609943
O O1 0.250000 0.014210 0.157538
O O2 0.327819 0.250000 0.182647
O O3 0.392484 0.024063 0.117246
O O4 0.344504 0.034174 0.298543
O O5 0.979704 0.750000 0.917723
O O6 0.025574 0.522467 0.815041
O O7 0.000000 0.500000 0.000000
O O8 0.968695 0.250000 0.288703
O O9 0.882752 0.471024 0.333877
O O10 0.024369 0.473918 0.367809
O O11 0.250000 0.530408 0.598211
O O12 0.161881 0.750000 0.560278
O O13 0.138421 0.504542 0.480291
O O14 0.889459 0.750000 0.588550
#
# Coordination Sequence:
#
# PCOD8240315 Si02
#       5
#     8   8   8   8   8
#     4   8  14  26  45  67  88 112 143 178 219 264
#     4   9  17  31  50  67  85 112 146 183 220 261
#     4   8  16  31  47  63  86 118 151 177 211 264
#     4  10  19  29  42  63  93 125 150 173 207 254
#     4   9  16  28  48  68  86 113 149 185 215 249
#
# _framework density 17.027567999999999
#
# number of rings (size 3 to 8) (size 9 to 14) (size 15 to 20)
#    0.000    3.200    0.000    3.600    0.000    1.200 
#    0.000    6.000    0.000    3.000    0.000    0.000 
#    0.000    0.000    0.000    0.000    0.000    0.000 
#
# Total GULP energy -495650.904140 kJ/mol
# GULP energy per Si atom -12391.272603 kJ/mol
# Density = 1.698881 g / cm^3
# Si number density = 17.027568 Si / 1000 Ang^3
#
#
#
# Elastic Constant Matrix: (Units=GPa)
#
#
# Indices 1 2 3 4 5 6 
#
# 1 170.1181 30.0477 102.5541 0.0000 0.0000 0.0000
# 2 30.0477 18.8647 31.3838 0.0000 0.0000 0.0000
# 3 102.5541 31.3838 135.8936 0.0000 0.0000 0.0000
# 4 0.0000 0.0000 0.0000 28.5035 0.0000 0.0000
# 5 0.0000 0.0000 0.0000 0.0000 21.3721 0.0000
# 6 0.0000 0.0000 0.0000 0.0000 0.0000 16.9798
#
#
#
# Elastic Compliance Matrix: (Units=1/GPa)
#
#
# Indices 1 2 3 4 5 6 
#
# 1 0.011206 -0.006138 -0.007039 0.000000 0.000000 0.000000
# 2 -0.006138 0.089444 -0.016024 0.000000 0.000000 0.000000
# 3 -0.007039 -0.016024 0.016372 0.000000 0.000000 0.000000
# 4 0.000000 0.000000 0.000000 0.035083 0.000000 0.000000
# 5 0.000000 0.000000 0.000000 0.000000 0.046790 0.000000
# 6 0.000000 0.000000 0.000000 0.000000 0.000000 0.058893
#
#
# Mechanical properties :
#
#
# Convention : Reuss Voigt Hill
#
# Bulk Modulus (GPa) = 17.05946 72.53861 44.79904
# Shear Modulus (GPa) = 14.89285 24.09715 19.49500
#
# Velocity S-wave (km/s) = 2.96063 3.76597 3.38732
# Velocity P-wave (km/s) = 4.66128 7.84877 6.45487
#
# Compressibility (1/GPa) = 0.05861850
#
# Stress axis : x y z
#
# Youngs Moduli (GPa) = 89.23846 11.18013 61.08157
#
# Poissons Ratio (x) = 0.06863 0.42996
# Poissons Ratio (y) = 0.54778 0.97878
# Poissons Ratio (z) = 0.62816 0.17915
#
# Static dielectric constant tensor:
#      x y z
#    x 3.875860 0.000000 0.000000 
#    y 0.000000 2.761010 0.000000 
#    z 0.000000 0.000000 3.140130 
# 
# 
# High freq. dielectric constant tensor:
#      x y z
#    x 1.670040 0.000000 0.000000 
#    y 0.000000 1.613460 0.000000 
#    z 0.000000 0.000000 1.646580 
# 
# From -- ./inp_files/13873.got.cif
#   From: 2010.03.12/outbox.cif.g09.slc.cpg/sg59_7_cif.got.tgz:13873.got - 2010.04.16 16:29:54.
