data_PCOD8240565
_publ_section_title
;
Structure prediction by ZEFSAII (Michael W. Deem and Ramdas Pophale) SiO2 
 PCOD8240565
Probable space group: P M M N
;
_chemical_formula_sum "Si O2"
_cell_formula_units_Z 64
_cell_length_a 9.329726
_cell_length_b 18.524498
_cell_length_c 20.653542
_cell_angle_alpha 90.000000
_cell_angle_beta 90.000000
_cell_angle_gamma 90.000000
_cell_volume 3569.520490
_symmetry_space_group_name_H-M "P M M N"
_symmetry_group_IT_number 59
_space_group.IT_coordinate_system_code '2'
_symmetry_cell_setting 'orthorhombic'
loop_
_space_group_symop_operation_xyz
x,y,z
1/2-x,1/2-y,z
1/2+x,-y,-z
-x,1/2+y,-z
-x,-y,-z
1/2+x,1/2+y,-z
1/2-x,y,z
x,1/2-y,z
loop_
_atom_site_type_symbol
_atom_site_label
_atom_site_fract_x
_atom_site_fract_y
_atom_site_fract_z
Si Si1 0.579281 0.079064 0.188817
Si Si2 0.582993 0.582693 0.436026
Si Si3 0.579468 0.831382 0.311742
Si Si4 0.916897 0.415594 0.436863
Si Si5 0.579298 0.168310 0.310993
Si Si6 0.079928 0.829971 0.930422
Si Si7 0.079545 0.415183 0.814109
Si Si8 0.084311 0.665633 0.075662
O O1 0.750000 0.081348 0.189495
O O2 0.518385 0.123681 0.249948
O O3 0.518341 0.114575 0.122751
O O4 0.524964 0.997132 0.192910
O O5 0.750000 0.597165 0.447497
O O6 0.522726 0.627785 0.375383
O O7 0.500636 0.609838 0.499485
O O8 0.552127 0.499075 0.421254
O O9 0.750000 0.832398 0.311408
O O10 0.519494 0.750000 0.311752
O O11 0.521671 0.871773 0.248108
O O12 0.750000 0.401690 0.449254
O O13 0.975373 0.369011 0.376821
O O14 0.750000 0.167377 0.309469
O O15 0.520639 0.250000 0.307771
O O16 0.250000 0.826266 0.925913
O O17 0.018027 0.750000 0.915907
O O18 0.036623 0.854782 0.002583
O O19 0.250000 0.411069 0.819636
O O20 0.014500 0.381195 0.878239
O O21 0.250000 0.646088 0.087569
O O22 0.057692 0.750000 0.088640
#
# Coordination Sequence:
#
# PCOD8240565 Si02
#       8
#     8   8   8   8   8   8   8   8
#     4   9  16  26  43  68  94 119 151 189 226 268
#     4   9  17  30  47  64  85 117 151 179 214 265
#     4   9  17  29  45  64  86 114 149 185 217 254
#     4   9  17  29  45  67  93 115 139 179 227 267
#     4   9  16  26  43  67  93 120 150 187 230 271
#     4   8  14  26  44  65  91 123 155 186 221 264
#     4  10  19  30  47  71  95 118 148 190 234 270
#     4   9  18  32  48  66  91 123 155 186 223 269
#
# _framework density 17.929579
#
# number of rings (size 3 to 8) (size 9 to 14) (size 15 to 20)
#    0.000    3.000    0.000    2.250    0.000    6.250 
#    0.000    0.625    0.000    3.000    0.000    0.000 
#    0.000    3.000    0.000    0.000    0.000    0.000 
#
# Total GULP energy -793501.929572 kJ/mol
# GULP energy per Si atom -12398.467650 kJ/mol
# Density = 1.788877 g / cm^3
# Si number density = 17.929579 Si / 1000 Ang^3
#
#
#
# Elastic Constant Matrix: (Units=GPa)
#
#
# Indices 1 2 3 4 5 6 
#
# 1 18.0804 24.1037 29.7280 0.0000 0.0000 0.0000
# 2 24.1037 139.0509 104.0309 0.0000 0.0000 0.0000
# 3 29.7280 104.0309 182.4853 0.0000 0.0000 0.0000
# 4 0.0000 0.0000 0.0000 41.2440 0.0000 0.0000
# 5 0.0000 0.0000 0.0000 0.0000 21.5014 0.0000
# 6 0.0000 0.0000 0.0000 0.0000 0.0000 13.7947
#
#
#
# Elastic Compliance Matrix: (Units=1/GPa)
#
#
# Indices 1 2 3 4 5 6 
#
# 1 0.079395 -0.007125 -0.008872 0.000000 0.000000 0.000000
# 2 -0.007125 0.013179 -0.006353 0.000000 0.000000 0.000000
# 3 -0.008872 -0.006353 0.010547 0.000000 0.000000 0.000000
# 4 0.000000 0.000000 0.000000 0.024246 0.000000 0.000000
# 5 0.000000 0.000000 0.000000 0.000000 0.046509 0.000000
# 6 0.000000 0.000000 0.000000 0.000000 0.000000 0.072491
#
#
# Mechanical properties :
#
#
# Convention : Reuss Voigt Hill
#
# Bulk Modulus (GPa) = 17.11698 72.81576 44.96637
# Shear Modulus (GPa) = 16.10099 27.42496 21.76297
#
# Velocity S-wave (km/s) = 2.99994 3.91524 3.48775
# Velocity P-wave (km/s) = 4.64403 7.81915 6.43063
#
# Compressibility (1/GPa) = 0.05842151
#
# Stress axis : x y z
#
# Youngs Moduli (GPa) = 12.59529 75.87631 94.81656
#
# Poissons Ratio (x) = 0.54061 0.84123
# Poissons Ratio (y) = 0.08974 0.60233
# Poissons Ratio (z) = 0.11175 0.48201
#
# Static dielectric constant tensor:
#      x y z
#    x 2.736030 0.000000 0.000000 
#    y 0.000000 3.497740 0.000000 
#    z 0.000000 0.000000 3.553950 
# 
# 
# High freq. dielectric constant tensor:
#      x y z
#    x 1.629560 0.000000 0.000000 
#    y 0.000000 1.700200 0.000000 
#    z 0.000000 0.000000 1.711160 
# 
# From -- ./inp_files/30173.got.cif
#   From: 2010.03.12/outbox.cif.g09.slc.cpg/sg59_16_cif.got.tgz:30173.got - 2010.04.16 16:29:54.
