data_PCOD8240579
_publ_section_title
;
Structure prediction by ZEFSAII (Michael W. Deem and Ramdas Pophale) SiO2 
 PCOD8240579
Probable space group: P M M N
;
_chemical_formula_sum "Si O2"
_cell_formula_units_Z 48
_cell_length_a 9.006412
_cell_length_b 20.002624
_cell_length_c 15.036919
_cell_angle_alpha 90.000000
_cell_angle_beta 90.000000
_cell_angle_gamma 90.000000
_cell_volume 2708.929119
_symmetry_space_group_name_H-M "P M M N"
_symmetry_group_IT_number 59
_space_group.IT_coordinate_system_code '2'
_symmetry_cell_setting 'orthorhombic'
loop_
_space_group_symop_operation_xyz
x,y,z
1/2-x,1/2-y,z
1/2+x,-y,-z
-x,1/2+y,-z
-x,-y,-z
1/2+x,1/2+y,-z
1/2-x,y,z
x,1/2-y,z
loop_
_atom_site_type_symbol
_atom_site_label
_atom_site_fract_x
_atom_site_fract_y
_atom_site_fract_z
Si Si1 0.085045 0.910458 0.938056
Si Si2 0.415328 0.066582 0.895309
Si Si3 0.420599 0.933154 0.468680
Si Si4 0.919856 0.468011 0.727858
Si Si5 0.420674 0.326974 0.413354
Si Si6 0.426537 0.607448 0.743912
O O1 0.250000 0.886051 0.962659
O O2 0.030250 0.875670 0.846470
O O3 0.085585 0.989147 0.919960
O O4 0.980217 0.891833 0.020974
O O5 0.250000 0.093041 0.876303
O O6 0.514174 0.077370 0.807337
O O7 0.250000 0.935450 0.500552
O O8 0.430860 0.925519 0.362341
O O9 0.499778 0.869127 0.510283
O O10 0.500000 0.000000 0.500000
O O11 0.750000 0.486520 0.750845
O O12 0.012324 0.535588 0.714123
O O13 0.250000 0.350014 0.405223
O O14 0.433562 0.250000 0.440718
O O15 0.500451 0.336823 0.318368
O O16 0.250000 0.606236 0.732447
#
# Coordination Sequence:
#
# PCOD8240579 Si02
#       6
#     8   8   8   8   8   8
#     4   8  15  26  40  63  95 129 163 200 246 298
#     4   9  16  25  40  65  96 131 166 202 246 297
#     4  11  22  35  55  79 104 137 177 221 268 318
#     4  10  19  30  47  72 102 134 168 211 261 311
#     4  11  24  39  54  75 105 140 177 219 267 319
#     4  10  19  31  50  73  98 133 172 211 257 309
#
# _framework density 17.719180000000001
#
# number of rings (size 3 to 8) (size 9 to 14) (size 15 to 20)
#    0.000    2.167    1.667    3.500    0.000    8.000 
#    0.000    0.000    0.000    0.000    0.000    1.167 
#    0.000    9.333    0.000    0.000    0.000    0.000 
#
# Total GULP energy -595135.019109 kJ/mol
# GULP energy per Si atom -12398.646231 kJ/mol
# Density = 1.767885 g / cm^3
# Si number density = 17.719180 Si / 1000 Ang^3
#
#
#
# Elastic Constant Matrix: (Units=GPa)
#
#
# Indices 1 2 3 4 5 6 
#
# 1 143.1391 38.2274 69.3047 0.0000 0.0000 0.0000
# 2 38.2274 48.5906 34.5425 0.0000 0.0000 0.0000
# 3 69.3047 34.5425 125.4066 0.0000 0.0000 0.0000
# 4 0.0000 0.0000 0.0000 17.5067 0.0000 0.0000
# 5 0.0000 0.0000 0.0000 0.0000 35.1340 0.0000
# 6 0.0000 0.0000 0.0000 0.0000 0.0000 19.0918
#
#
#
# Elastic Compliance Matrix: (Units=1/GPa)
#
#
# Indices 1 2 3 4 5 6 
#
# 1 0.010475 -0.005130 -0.004376 0.000000 0.000000 0.000000
# 2 -0.005130 0.028104 -0.004906 0.000000 0.000000 0.000000
# 3 -0.004376 -0.004906 0.011744 0.000000 0.000000 0.000000
# 4 0.000000 0.000000 0.000000 0.057121 0.000000 0.000000
# 5 0.000000 0.000000 0.000000 0.000000 0.028462 0.000000
# 6 0.000000 0.000000 0.000000 0.000000 0.000000 0.052378
#
#
# Mechanical properties :
#
#
# Convention : Reuss Voigt Hill
#
# Bulk Modulus (GPa) = 46.51476 66.80951 56.66214
# Shear Modulus (GPa) = 22.29414 26.01728 24.15571
#
# Velocity S-wave (km/s) = 3.55095 3.83601 3.69623
# Velocity P-wave (km/s) = 6.56661 7.57671 7.08967
#
# Compressibility (1/GPa) = 0.02149855
#
# Stress axis : x y z
#
# Youngs Moduli (GPa) = 95.46556 35.58251 85.15276
#
# Poissons Ratio (x) = 0.18255 0.37261
# Poissons Ratio (y) = 0.48976 0.41775
# Poissons Ratio (z) = 0.41774 0.17456
#
# Static dielectric constant tensor:
#      x y z
#    x 3.562500 0.000000 0.000000 
#    y 0.000000 2.757740 0.000000 
#    z 0.000000 0.000000 3.689700 
# 
# 
# High freq. dielectric constant tensor:
#      x y z
#    x 1.705190 0.000000 0.000000 
#    y 0.000000 1.613050 0.000000 
#    z 0.000000 0.000000 1.702460 
# 
# From -- ./inp_files/20733.got.cif
#   From: 2010.03.12/outbox.cif.g09.slc.cpg/sg59_11_cif.got.tgz:20733.got - 2010.04.16 16:29:54.
