data_PCOD8240034
_publ_section_title
;
Structure prediction by ZEFSAII (Michael W. Deem and Ramdas Pophale) SiO2 
 PCOD8240034
Probable space group: P M M N
;
_chemical_formula_sum "Si O2"
_cell_formula_units_Z 40
_cell_length_a 8.665963
_cell_length_b 24.690732
_cell_length_c 10.276445
_cell_angle_alpha 90.000000
_cell_angle_beta 90.000000
_cell_angle_gamma 90.000000
_cell_volume 2198.840351
_symmetry_space_group_name_H-M "P M M N"
_symmetry_group_IT_number 59
_space_group.IT_coordinate_system_code '2'
_symmetry_cell_setting 'orthorhombic'
loop_
_space_group_symop_operation_xyz
x,y,z
1/2-x,1/2-y,z
1/2+x,-y,-z
-x,1/2+y,-z
-x,-y,-z
1/2+x,1/2+y,-z
1/2-x,y,z
x,1/2-y,z
loop_
_atom_site_type_symbol
_atom_site_label
_atom_site_fract_x
_atom_site_fract_y
_atom_site_fract_z
Si Si1 0.931270 0.529069 0.124048
Si Si2 0.065269 0.633961 0.233031
Si Si3 0.081281 0.750000 0.216837
Si Si4 0.421008 0.750000 0.525466
Si Si5 0.931608 0.034704 0.383830
Si Si6 0.932298 0.861432 0.516412
O O1 0.750000 0.536617 0.108258
O O2 0.974700 0.493625 0.248921
O O3 0.008414 0.588168 0.134701
O O4 0.000000 0.500000 0.000000
O O5 0.250000 0.635617 0.241365
O O6 0.000359 0.692689 0.179558
O O7 0.000533 0.622555 0.376252
O O8 0.250000 0.750000 0.152069
O O9 0.094355 0.750000 0.371719
O O10 0.250000 0.750000 0.588534
O O11 0.512441 0.696582 0.570398
O O12 0.750000 0.040422 0.403264
O O13 0.009370 0.093822 0.381456
O O14 0.000000 0.000000 0.500000
O O15 0.750000 0.862043 0.505216
#
# Coordination Sequence:
#
# PCOD8240034 Si02
#       6
#     8   8   4   4   8   8
#     4  11  24  39  56  80 111 147 189 231 282 337
#     4  10  18  32  54  78 110 145 182 227 275 327
#     4   7  14  27  47  76 103 136 175 216 268 320
#     4   9  17  31  49  74 109 146 181 224 280 330
#     4  11  22  36  56  81 110 145 185 228 277 333
#     4  11  20  31  51  81 113 144 183 229 279 332
#
# _framework density 18.191407999999999
#
# number of rings (size 3 to 8) (size 9 to 14) (size 15 to 20)
#    0.000    1.800    2.000    5.100    0.000    2.400 
#    0.000    1.500    0.000    1.200    0.000    2.800 
#    0.000    0.000    0.000    0.000    0.000    0.000 
#
# Total GULP energy -495880.859668 kJ/mol
# GULP energy per Si atom -12397.021492 kJ/mol
# Density = 1.815000 g / cm^3
# Si number density = 18.191408 Si / 1000 Ang^3
#
#
#
# Elastic Constant Matrix: (Units=GPa)
#
#
# Indices 1 2 3 4 5 6 
#
# 1 110.3001 65.5719 45.4903 0.0000 0.0000 0.0000
# 2 65.5719 194.5123 59.0078 0.0000 0.0000 0.0000
# 3 45.4903 59.0078 73.9164 0.0000 0.0000 0.0000
# 4 0.0000 0.0000 0.0000 21.0442 0.0000 0.0000
# 5 0.0000 0.0000 0.0000 0.0000 22.4295 0.0000
# 6 0.0000 0.0000 0.0000 0.0000 0.0000 35.4683
#
#
#
# Elastic Compliance Matrix: (Units=1/GPa)
#
#
# Indices 1 2 3 4 5 6 
#
# 1 0.013072 -0.002595 -0.005974 0.000000 0.000000 0.000000
# 2 -0.002595 0.007299 -0.004230 0.000000 0.000000 0.000000
# 3 -0.005974 -0.004230 0.020582 0.000000 0.000000 0.000000
# 4 0.000000 0.000000 0.000000 0.047519 0.000000 0.000000
# 5 0.000000 0.000000 0.000000 0.000000 0.044584 0.000000
# 6 0.000000 0.000000 0.000000 0.000000 0.000000 0.028194
#
#
# Mechanical properties :
#
#
# Convention : Reuss Voigt Hill
#
# Bulk Modulus (GPa) = 65.11875 79.87432 72.49654
# Shear Modulus (GPa) = 26.04622 29.69899 27.87261
#
# Velocity S-wave (km/s) = 3.78800 4.04491 3.91856
# Velocity P-wave (km/s) = 7.41661 8.11283 7.77252
#
# Compressibility (1/GPa) = 0.01535656
#
# Stress axis : x y z
#
# Youngs Moduli (GPa) = 76.49714 137.00609 48.58582
#
# Poissons Ratio (x) = 0.35547 0.29025
# Poissons Ratio (y) = 0.19848 0.20552
# Poissons Ratio (z) = 0.45698 0.57954
#
# Static dielectric constant tensor:
#      x y z
#    x 3.427970 0.000000 0.000000 
#    y 0.000000 4.052570 0.000000 
#    z 0.000000 0.000000 3.041040 
# 
# 
# High freq. dielectric constant tensor:
#      x y z
#    x 1.712700 0.000000 0.000000 
#    y 0.000000 1.734080 0.000000 
#    z 0.000000 0.000000 1.647900 
# 
# From -- ./inp_files/14433.got.cif
#   From: 2010.03.12/outbox.cif.g09.slc.cpg/sg59_8_cif.got.tgz:14433.got - 2010.04.16 16:29:54.
