data_PCOD8240009
_publ_section_title
;
Structure prediction by ZEFSAII (Michael W. Deem and Ramdas Pophale) SiO2 
 PCOD8240009
Probable space group: P M M N
;
_chemical_formula_sum "Si O2"
_cell_formula_units_Z 52
_cell_length_a 9.278142
_cell_length_b 14.125225
_cell_length_c 21.658851
_cell_angle_alpha 90.000000
_cell_angle_beta 90.000000
_cell_angle_gamma 90.000000
_cell_volume 2838.518983
_symmetry_space_group_name_H-M "P M M N"
_symmetry_group_IT_number 59
_space_group.IT_coordinate_system_code '2'
_symmetry_cell_setting 'orthorhombic'
loop_
_space_group_symop_operation_xyz
x,y,z
1/2-x,1/2-y,z
1/2+x,-y,-z
-x,1/2+y,-z
-x,-y,-z
1/2+x,1/2+y,-z
1/2-x,y,z
x,1/2-y,z
loop_
_atom_site_type_symbol
_atom_site_label
_atom_site_fract_x
_atom_site_fract_y
_atom_site_fract_z
Si Si1 0.084875 0.140843 0.493899
Si Si2 0.917687 0.012442 0.404488
Si Si3 0.916449 0.250000 0.001482
Si Si4 0.976795 0.250000 0.866379
Si Si5 0.416824 0.934827 0.293341
Si Si6 0.595324 0.460643 0.844399
Si Si7 0.911904 0.750000 0.262656
Si Si8 0.583497 0.448916 0.053427
O O1 0.250000 0.127596 0.471890
O O2 0.048065 0.250000 0.507085
O O3 0.057905 0.083632 0.556904
O O4 0.978581 0.102739 0.441189
O O5 0.750000 0.029780 0.389718
O O6 0.008413 0.004674 0.341810
O O7 0.750000 0.250000 0.977884
O O8 0.018918 0.250000 0.939800
O O9 0.947660 0.162041 0.046030
O O10 0.099854 0.250000 0.812962
O O11 0.891546 0.152687 0.854664
O O12 0.250000 0.915489 0.311008
O O13 0.428662 0.985362 0.227013
O O14 0.504795 0.838135 0.290891
O O15 0.750000 0.501480 0.866458
O O16 0.468712 0.512412 0.880934
O O17 0.750000 0.750000 0.288655
O O18 0.750000 0.473820 0.047385
O O19 0.500000 0.500000 0.000000
#
# Coordination Sequence:
#
# PCOD8240009 Si02
#       8
#     8   8   4   4   8   8   4   8
#     4   9  19  36  57  81 114 152 184 222 273 324
#     4  10  20  34  56  86 115 145 185 231 273 318
#     4  10  20  36  54  74 104 141 171 210 269 335
#     4  10  18  32  53  76 109 144 171 206 267 336
#     4  10  21  36  55  78 110 150 186 220 273 336
#     4  10  20  36  56  78 106 141 179 218 265 322
#     4  10  21  34  49  78 113 143 182 228 274 321
#     4  11  22  36  55  78 104 137 177 219 270 322
#
# _framework density 18.319413000000001
#
# number of rings (size 3 to 8) (size 9 to 14) (size 15 to 20)
#    0.000    2.000    1.538    2.308    1.077    6.462 
#    0.000    1.538    1.692    0.000    0.000    0.000 
#    0.000    0.000    0.000    0.000    0.000    0.000 
#
# Total GULP energy -644563.000743 kJ/mol
# GULP energy per Si atom -12395.442322 kJ/mol
# Density = 1.827772 g / cm^3
# Si number density = 18.319413 Si / 1000 Ang^3
#
#
#
# Elastic Constant Matrix: (Units=GPa)
#
#
# Indices 1 2 3 4 5 6 
#
# 1 126.0886 39.6991 51.1319 0.0000 0.0000 0.0000
# 2 39.6991 89.3796 34.5673 0.0000 0.0000 0.0000
# 3 51.1319 34.5673 95.4492 0.0000 0.0000 0.0000
# 4 0.0000 0.0000 0.0000 23.6842 0.0000 0.0000
# 5 0.0000 0.0000 0.0000 0.0000 30.1746 0.0000
# 6 0.0000 0.0000 0.0000 0.0000 0.0000 21.0484
#
#
#
# Elastic Compliance Matrix: (Units=1/GPa)
#
#
# Indices 1 2 3 4 5 6 
#
# 1 0.010769 -0.002968 -0.004694 0.000000 0.000000 0.000000
# 2 -0.002968 0.013828 -0.003418 0.000000 0.000000 0.000000
# 3 -0.004694 -0.003418 0.014229 0.000000 0.000000 0.000000
# 4 0.000000 0.000000 0.000000 0.042222 0.000000 0.000000
# 5 0.000000 0.000000 0.000000 0.000000 0.033140 0.000000
# 6 0.000000 0.000000 0.000000 0.000000 0.000000 0.047510
#
#
# Mechanical properties :
#
#
# Convention : Reuss Voigt Hill
#
# Bulk Modulus (GPa) = 60.00046 62.41266 61.20656
# Shear Modulus (GPa) = 26.39716 27.34938 26.87327
#
# Velocity S-wave (km/s) = 3.80009 3.86802 3.83421
# Velocity P-wave (km/s) = 7.21649 7.35472 7.28593
#
# Compressibility (1/GPa) = 0.01666654
#
# Stress axis : x y z
#
# Youngs Moduli (GPa) = 92.86021 72.31508 70.27746
#
# Poissons Ratio (x) = 0.21461 0.32989
# Poissons Ratio (y) = 0.27558 0.24022
# Poissons Ratio (z) = 0.43589 0.24719
#
# Static dielectric constant tensor:
#      x y z
#    x 3.587920 0.000000 0.000000 
#    y 0.000000 2.975200 0.000000 
#    z 0.000000 0.000000 3.432450 
# 
# 
# High freq. dielectric constant tensor:
#      x y z
#    x 1.713170 0.000000 0.000000 
#    y 0.000000 1.691440 0.000000 
#    z 0.000000 0.000000 1.707850 
# 
# From -- ./inp_files/28946.got.cif
#   From: 2010.03.12/outbox.cif.g09.slc.cpg/sg59_15_cif.got.tgz:28946.got - 2010.04.16 16:29:54.
