data_PCOD8240734
_publ_section_title
;
Structure prediction by ZEFSAII (Michael W. Deem and Ramdas Pophale) SiO2 
 PCOD8240734
Probable space group: P M M N
;
_chemical_formula_sum "Si O2"
_cell_formula_units_Z 64
_cell_length_a 9.594820
_cell_length_b 28.150447
_cell_length_c 13.924618
_cell_angle_alpha 90.000000
_cell_angle_beta 90.000000
_cell_angle_gamma 90.000000
_cell_volume 3761.018043
_symmetry_space_group_name_H-M "P M M N"
_symmetry_group_IT_number 59
_space_group.IT_coordinate_system_code '2'
_symmetry_cell_setting 'orthorhombic'
loop_
_space_group_symop_operation_xyz
x,y,z
1/2-x,1/2-y,z
1/2+x,-y,-z
-x,1/2+y,-z
-x,-y,-z
1/2+x,1/2+y,-z
1/2-x,y,z
x,1/2-y,z
loop_
_atom_site_type_symbol
_atom_site_label
_atom_site_fract_x
_atom_site_fract_y
_atom_site_fract_z
Si Si1 0.583520 0.802650 0.064461
Si Si2 0.414888 0.427210 0.614983
Si Si3 0.084816 0.486810 0.905887
Si Si4 0.588516 0.394397 0.434551
Si Si5 0.589490 0.196192 0.320513
Si Si6 0.096568 0.193759 0.146736
Si Si7 0.586667 0.023653 0.294168
Si Si8 0.414129 0.111643 0.815089
O O1 0.750000 0.800614 0.067065
O O2 0.523521 0.750000 0.087508
O O3 0.520455 0.840007 0.141060
O O4 0.537957 0.820476 0.958192
O O5 0.250000 0.425686 0.594640
O O6 0.493732 0.407737 0.523195
O O7 0.469339 0.480324 0.639539
O O8 0.458131 0.393545 0.704196
O O9 0.250000 0.491372 0.925850
O O10 0.035033 0.520512 0.816586
O O11 0.039850 0.433477 0.877845
O O12 0.000000 0.500000 0.000000
O O13 0.750000 0.403460 0.460536
O O14 0.561085 0.339174 0.409261
O O15 0.545163 0.426531 0.342556
O O16 0.750000 0.194802 0.290258
O O17 0.544533 0.250000 0.349692
O O18 0.506446 0.175822 0.229276
O O19 0.250000 0.171467 0.164705
O O20 0.107944 0.250000 0.150219
O O21 0.750000 0.015253 0.288652
O O22 0.250000 0.115293 0.821138
#
# Coordination Sequence:
#
# PCOD8240734 Si02
#       8
#     8   8   8   8   8   8   8   8
#     4   8  13  23  42  67  90 113 145 180 212 253
#     4   9  17  31  49  67  88 113 143 181 224 262
#     4   9  17  30  46  65  92 121 146 173 211 261
#     4  10  19  31  48  66  84 112 150 185 218 259
#     4   9  18  31  44  60  86 118 146 173 213 265
#     4   8  14  25  42  63  85 109 139 177 214 244
#     4   8  16  31  48  65  88 118 146 175 216 263
#     4   8  15  28  44  61  87 121 145 169 216 268
#
# _framework density 17.016670000000001
#
# number of rings (size 3 to 8) (size 9 to 14) (size 15 to 20)
#    0.000    3.375    0.000    2.625    0.000    1.500 
#    0.000    3.750    0.000    1.500    0.000    0.000 
#    0.000    0.000    0.000    0.000    0.000    0.000 
#
# Total GULP energy -793039.017078 kJ/mol
# GULP energy per Si atom -12391.234642 kJ/mol
# Density = 1.697794 g / cm^3
# Si number density = 17.016670 Si / 1000 Ang^3
#
#
#
# Elastic Constant Matrix: (Units=GPa)
#
#
# Indices 1 2 3 4 5 6 
#
# 1 38.7461 30.2845 46.5654 0.0000 0.0000 0.0000
# 2 30.2845 92.9969 65.8522 0.0000 0.0000 0.0000
# 3 46.5654 65.8522 131.9803 0.0000 0.0000 0.0000
# 4 0.0000 0.0000 0.0000 26.4023 0.0000 0.0000
# 5 0.0000 0.0000 0.0000 0.0000 24.5735 0.0000
# 6 0.0000 0.0000 0.0000 0.0000 0.0000 14.1849
#
#
#
# Elastic Compliance Matrix: (Units=1/GPa)
#
#
# Indices 1 2 3 4 5 6 
#
# 1 0.046533 -0.005455 -0.013696 0.000000 0.000000 0.000000
# 2 -0.005455 0.017268 -0.006691 0.000000 0.000000 0.000000
# 3 -0.013696 -0.006691 0.015748 0.000000 0.000000 0.000000
# 4 0.000000 0.000000 0.000000 0.037876 0.000000 0.000000
# 5 0.000000 0.000000 0.000000 0.000000 0.040694 0.000000
# 6 0.000000 0.000000 0.000000 0.000000 0.000000 0.070497
#
#
# Mechanical properties :
#
#
# Convention : Reuss Voigt Hill
#
# Bulk Modulus (GPa) = 35.88897 61.01415 48.45156
# Shear Modulus (GPa) = 17.26599 21.10022 19.18310
#
# Velocity S-wave (km/s) = 3.18881 3.52515 3.36119
# Velocity P-wave (km/s) = 5.89019 7.24584 6.60290
#
# Compressibility (1/GPa) = 0.02786372
#
# Stress axis : x y z
#
# Youngs Moduli (GPa) = 21.49028 57.91226 63.50198
#
# Poissons Ratio (x) = 0.31593 0.86971
# Poissons Ratio (y) = 0.11723 0.42489
# Poissons Ratio (z) = 0.29433 0.38749
#
# Static dielectric constant tensor:
#      x y z
#    x 2.925610 0.000000 0.000000 
#    y 0.000000 3.458000 0.000000 
#    z 0.000000 0.000000 3.299340 
# 
# 
# High freq. dielectric constant tensor:
#      x y z
#    x 1.615250 0.000000 0.000000 
#    y 0.000000 1.652670 0.000000 
#    z 0.000000 0.000000 1.655620 
# 
# From -- ./inp_files/16341.got.cif
#   From: 2010.03.12/outbox.cif.g09.slc.cpg/sg59_9_cif.got.tgz:16341.got - 2010.04.16 16:29:54.
