data_PCOD8240878
_publ_section_title
;
Structure prediction by ZEFSAII (Michael W. Deem and Ramdas Pophale) SiO2 
 PCOD8240878
Probable space group: P M M N
;
_chemical_formula_sum "Si O2"
_cell_formula_units_Z 64
_cell_length_a 9.179502
_cell_length_b 18.471148
_cell_length_c 20.710775
_cell_angle_alpha 90.000000
_cell_angle_beta 90.000000
_cell_angle_gamma 90.000000
_cell_volume 3511.634923
_symmetry_space_group_name_H-M "P M M N"
_symmetry_group_IT_number 59
_space_group.IT_coordinate_system_code '2'
_symmetry_cell_setting 'orthorhombic'
loop_
_space_group_symop_operation_xyz
x,y,z
1/2-x,1/2-y,z
1/2+x,-y,-z
-x,1/2+y,-z
-x,-y,-z
1/2+x,1/2+y,-z
1/2-x,y,z
x,1/2-y,z
loop_
_atom_site_type_symbol
_atom_site_label
_atom_site_fract_x
_atom_site_fract_y
_atom_site_fract_z
Si Si1 0.421353 0.334297 0.995110
Si Si2 0.922836 0.075911 0.501154
Si Si3 0.421025 0.166380 0.248997
Si Si4 0.922651 0.585100 0.876792
Si Si5 0.423060 0.669207 0.380527
Si Si6 0.076402 0.920880 0.117266
Si Si7 0.419869 0.833102 0.622845
Si Si8 0.077120 0.669054 0.237984
O O1 0.250000 0.346683 0.985179
O O2 0.462247 0.250000 0.992887
O O3 0.507585 0.376032 0.940322
O O4 0.475190 0.366412 0.063294
O O5 0.750000 0.065981 0.503855
O O6 0.984358 0.116434 0.564597
O O7 0.971006 0.120759 0.438404
O O8 0.000000 0.000000 0.500000
O O9 0.250000 0.154767 0.257422
O O10 0.459548 0.250000 0.235757
O O11 0.483936 0.119968 0.189183
O O12 0.496532 0.138040 0.314121
O O13 0.750000 0.585339 0.873088
O O14 0.980576 0.503308 0.885100
O O15 0.250000 0.670541 0.384237
O O16 0.482817 0.750000 0.393436
O O17 0.474572 0.643040 0.309221
O O18 0.250000 0.916646 0.111207
O O19 0.018919 0.886477 0.184352
O O20 0.250000 0.842340 0.636184
O O21 0.460572 0.750000 0.608398
O O22 0.250000 0.671259 0.236218
O O23 0.017095 0.750000 0.223550
#
# Coordination Sequence:
#
# PCOD8240878 Si02
#       8
#     8   8   8   8   8   8   8   8
#     4  10  20  34  51  69  93 128 165 198 235 283
#     4  10  20  32  48  71  98 127 159 198 242 286
#     4   9  17  31  52  75  97 125 164 204 238 280
#     4   9  18  32  50  72  98 128 161 197 238 284
#     4   8  14  27  48  70  90 119 161 198 226 269
#     4  10  19  31  49  73  99 124 153 195 244 287
#     4   9  18  33  51  71  98 131 165 202 245 290
#     4   8  14  25  43  68  93 114 144 191 237 270
#
# _framework density 18.225128000000002
#
# number of rings (size 3 to 8) (size 9 to 14) (size 15 to 20)
#    0.000    2.875    0.000    2.250    0.000    5.250 
#    0.000    3.750    0.000    3.375    0.000    1.750 
#    0.000    0.000    0.000    0.000    0.000    0.000 
#
# Total GULP energy -793455.348391 kJ/mol
# GULP energy per Si atom -12397.739819 kJ/mol
# Density = 1.818365 g / cm^3
# Si number density = 18.225128 Si / 1000 Ang^3
#
#
#
# Elastic Constant Matrix: (Units=GPa)
#
#
# Indices 1 2 3 4 5 6 
#
# 1 19.2887 28.3692 34.7324 0.0000 0.0000 0.0000
# 2 28.3692 130.8334 94.0091 0.0000 0.0000 0.0000
# 3 34.7324 94.0091 180.2325 0.0000 0.0000 0.0000
# 4 0.0000 0.0000 0.0000 20.8487 0.0000 0.0000
# 5 0.0000 0.0000 0.0000 0.0000 25.3072 0.0000
# 6 0.0000 0.0000 0.0000 0.0000 0.0000 23.0968
#
#
#
# Elastic Compliance Matrix: (Units=1/GPa)
#
#
# Indices 1 2 3 4 5 6 
#
# 1 0.088415 -0.011082 -0.011258 0.000000 0.000000 0.000000
# 2 -0.011082 0.013614 -0.004966 0.000000 0.000000 0.000000
# 3 -0.011258 -0.004966 0.010308 0.000000 0.000000 0.000000
# 4 0.000000 0.000000 0.000000 0.047965 0.000000 0.000000
# 5 0.000000 0.000000 0.000000 0.000000 0.039514 0.000000
# 6 0.000000 0.000000 0.000000 0.000000 0.000000 0.043296
#
#
# Mechanical properties :
#
#
# Convention : Reuss Voigt Hill
#
# Bulk Modulus (GPa) = 17.32324 71.61956 44.47140
# Shear Modulus (GPa) = 15.77459 25.40013 20.58736
#
# Velocity S-wave (km/s) = 2.94520 3.73726 3.36462
# Velocity P-wave (km/s) = 4.59253 7.61612 6.28875
#
# Compressibility (1/GPa) = 0.05772593
#
# Stress axis : x y z
#
# Youngs Moduli (GPa) = 11.31030 73.45248 97.01278
#
# Poissons Ratio (x) = 0.81401 1.09216
# Poissons Ratio (y) = 0.12534 0.48172
# Poissons Ratio (z) = 0.12733 0.36473
#
# Static dielectric constant tensor:
#      x y z
#    x 2.916450 0.000000 0.000000 
#    y 0.000000 3.522690 0.000000 
#    z 0.000000 0.000000 3.753830 
# 
# 
# High freq. dielectric constant tensor:
#      x y z
#    x 1.655640 0.000000 0.000000 
#    y 0.000000 1.710170 0.000000 
#    z 0.000000 0.000000 1.725350 
# 
# From -- ./inp_files/27170.got.cif
#   From: 2010.03.12/outbox.cif.g09.slc.cpg/sg59_14_cif.got.tgz:27170.got - 2010.04.16 16:29:54.
