data_PCOD8240775
_publ_section_title
;
Structure prediction by ZEFSAII (Michael W. Deem and Ramdas Pophale) SiO2 
 PCOD8240775
Probable space group: P M M N
;
_chemical_formula_sum "Si O2"
_cell_formula_units_Z 64
_cell_length_a 29.411965
_cell_length_b 9.184173
_cell_length_c 13.071286
_cell_angle_alpha 90.000000
_cell_angle_beta 90.000000
_cell_angle_gamma 90.000000
_cell_volume 3530.875573
_symmetry_space_group_name_H-M "P M M N"
_symmetry_group_IT_number 59
_space_group.IT_coordinate_system_code '2'
_symmetry_cell_setting 'orthorhombic'
loop_
_space_group_symop_operation_xyz
x,y,z
1/2-x,1/2-y,z
1/2+x,-y,-z
-x,1/2+y,-z
-x,-y,-z
1/2+x,1/2+y,-z
1/2-x,y,z
x,1/2-y,z
loop_
_atom_site_type_symbol
_atom_site_label
_atom_site_fract_x
_atom_site_fract_y
_atom_site_fract_z
Si Si1 0.196688 0.580842 0.205337
Si Si2 0.302807 0.079197 0.411086
Si Si3 0.361139 0.418848 0.039396
Si Si4 0.531702 0.087204 0.225906
Si Si5 0.037266 0.410621 0.059333
Si Si6 0.466711 0.082305 0.572932
Si Si7 0.616848 0.580247 0.182597
Si Si8 0.863933 0.917962 0.407313
O O1 0.250000 0.555425 0.190931
O O2 0.184116 0.750000 0.213494
O O3 0.179729 0.502200 0.309030
O O4 0.173378 0.513963 0.105010
O O5 0.250000 0.048102 0.429597
O O6 0.313083 0.250000 0.396052
O O7 0.328569 0.012960 0.511260
O O8 0.355776 0.250000 0.071065
O O9 0.412187 0.477370 0.062541
O O10 0.350785 0.438476 0.917042
O O11 0.547389 0.250000 0.259657
O O12 0.482801 0.099509 0.172887
O O13 0.523176 0.977470 0.316446
O O14 0.571473 0.013392 0.156974
O O15 0.041238 0.250000 0.008946
O O16 0.000000 0.500000 0.000000
O O17 0.479386 0.250000 0.568491
O O18 0.413920 0.055211 0.545914
O O19 0.500000 0.000000 0.500000
O O20 0.603444 0.750000 0.198087
O O21 0.639340 0.520929 0.289596
O O22 0.851448 0.750000 0.400046
#
# Coordination Sequence:
#
# PCOD8240775 Si02
#       8
#     8   8   8   8   8   8   8   8
#     4  10  22  39  56  76 104 136 172 217 268 318
#     4   9  17  33  58  81 101 128 165 209 260 317
#     4  10  20  34  54  79 107 141 180 218 262 316
#     4  10  19  31  48  71 101 137 175 212 253 303
#     4  10  20  32  49  75 106 138 175 218 256 301
#     4  10  20  34  50  68  98 137 173 213 259 308
#     4   9  17  32  52  74 105 141 173 207 254 308
#     4   8  16  31  52  77 102 130 163 207 258 303
#
# _framework density 18.125817000000001
#
# number of rings (size 3 to 8) (size 9 to 14) (size 15 to 20)
#    0.000    2.500    1.250    1.875    0.000    3.250 
#    0.000    8.750    0.000    2.250    0.000    1.750 
#    0.000    0.000    0.000    0.000    0.000    0.000 
#
# Total GULP energy -793080.552762 kJ/mol
# GULP energy per Si atom -12391.883637 kJ/mol
# Density = 1.808456 g / cm^3
# Si number density = 18.125817 Si / 1000 Ang^3
#
#
#
# Elastic Constant Matrix: (Units=GPa)
#
#
# Indices 1 2 3 4 5 6 
#
# 1 64.0756 41.0600 58.9209 0.0000 0.0000 0.0000
# 2 41.0600 77.1633 47.2584 0.0000 0.0000 0.0000
# 3 58.9209 47.2584 121.1488 0.0000 0.0000 0.0000
# 4 0.0000 0.0000 0.0000 25.2244 0.0000 0.0000
# 5 0.0000 0.0000 0.0000 0.0000 35.7680 0.0000
# 6 0.0000 0.0000 0.0000 0.0000 0.0000 25.9274
#
#
#
# Elastic Compliance Matrix: (Units=1/GPa)
#
#
# Indices 1 2 3 4 5 6 
#
# 1 0.033494 -0.010309 -0.012269 0.000000 0.000000 0.000000
# 2 -0.010309 0.020201 -0.002866 0.000000 0.000000 0.000000
# 3 -0.012269 -0.002866 0.015339 0.000000 0.000000 0.000000
# 4 0.000000 0.000000 0.000000 0.039644 0.000000 0.000000
# 5 0.000000 0.000000 0.000000 0.000000 0.027958 0.000000
# 6 0.000000 0.000000 0.000000 0.000000 0.000000 0.038569
#
#
# Mechanical properties :
#
#
# Convention : Reuss Voigt Hill
#
# Bulk Modulus (GPa) = 55.10715 61.87405 58.49060
# Shear Modulus (GPa) = 21.53859 25.06051 23.29955
#
# Velocity S-wave (km/s) = 3.45089 3.72235 3.58919
# Velocity P-wave (km/s) = 6.80784 7.25841 7.03673
#
# Compressibility (1/GPa) = 0.01814647
#
# Stress axis : x y z
#
# Youngs Moduli (GPa) = 29.85590 49.50371 65.19264
#
# Poissons Ratio (x) = 0.51034 0.79982
# Poissons Ratio (y) = 0.30779 0.18685
# Poissons Ratio (z) = 0.36629 0.14188
#
# Static dielectric constant tensor:
#      x y z
#    x 3.263100 0.000000 0.000000 
#    y 0.000000 3.353140 0.000000 
#    z 0.000000 0.000000 3.593670 
# 
# 
# High freq. dielectric constant tensor:
#      x y z
#    x 1.681190 0.000000 0.000000 
#    y 0.000000 1.691550 0.000000 
#    z 0.000000 0.000000 1.711530 
# 
# From -- ./inp_files/19323.got.cif
#   From: 2010.03.12/outbox.cif.g09.slc.cpg/sg59_10_cif.got.tgz:19323.got - 2010.04.16 16:29:54.
