data_PCOD8240091
_publ_section_title
;
Structure prediction by ZEFSAII (Michael W. Deem and Ramdas Pophale) SiO2 
 PCOD8240091
Probable space group: P M M N
;
_chemical_formula_sum "Si O2"
_cell_formula_units_Z 56
_cell_length_a 15.277778
_cell_length_b 8.559029
_cell_length_c 21.250826
_cell_angle_alpha 90.000000
_cell_angle_beta 90.000000
_cell_angle_gamma 90.000000
_cell_volume 2778.820591
_symmetry_space_group_name_H-M "P M M N"
_symmetry_group_IT_number 59
_space_group.IT_coordinate_system_code '2'
_symmetry_cell_setting 'orthorhombic'
loop_
_space_group_symop_operation_xyz
x,y,z
1/2-x,1/2-y,z
1/2+x,-y,-z
-x,1/2+y,-z
-x,-y,-z
1/2+x,1/2+y,-z
1/2-x,y,z
x,1/2-y,z
loop_
_atom_site_type_symbol
_atom_site_label
_atom_site_fract_x
_atom_site_fract_y
_atom_site_fract_z
Si Si1 0.345676 0.435494 0.636982
Si Si2 0.489060 0.068916 0.146725
Si Si3 0.848624 0.929916 0.632108
Si Si4 0.095617 0.066261 0.503684
Si Si5 0.150508 0.930759 0.054811
Si Si6 0.849954 0.932328 0.078216
Si Si7 0.007485 0.567418 0.282090
O O1 0.250000 0.489906 0.661361
O O2 0.351896 0.250000 0.635143
O O3 0.358459 0.502496 0.566288
O O4 0.420121 0.498300 0.683972
O O5 0.471973 0.250000 0.134412
O O6 0.415288 0.971773 0.110419
O O7 0.586574 0.024574 0.124853
O O8 0.478653 0.032142 0.219752
O O9 0.750000 0.952395 0.656628
O O10 0.878928 0.750000 0.639727
O O11 0.851578 0.981100 0.558921
O O12 0.910378 0.041964 0.672329
O O13 0.090084 0.250000 0.510171
O O14 0.000000 0.000000 0.500000
O O15 0.250000 0.968093 0.076388
O O16 0.139984 0.750000 0.036927
O O17 0.124996 0.030984 0.993695
O O18 0.750000 0.984760 0.091971
O O19 0.862645 0.750000 0.090556
O O20 0.999676 0.750000 0.265419
#
# Coordination Sequence:
#
# PCOD8240091 Si02
#       7
#     8   8   8   8   8   8   8
#     4   9  18  34  57  83 110 144 186 231 283 343
#     4  12  25  40  60  85 119 160 200 243 292 348
#     4  10  21  37  58  83 113 150 190 234 289 351
#     4  10  18  32  57  85 113 144 183 232 287 343
#     4  10  21  39  64  93 123 154 193 242 293 345
#     4  10  21  39  64  93 124 157 195 239 287 342
#     4  11  23  39  58  82 112 150 195 243 290 343
#
# _framework density 20.152435000000001
#
# number of rings (size 3 to 8) (size 9 to 14) (size 15 to 20)
#    0.000    1.714    1.429    3.429    0.000    4.857 
#    0.000    1.429    0.000    4.286    0.000    0.000 
#    0.000    0.000    0.000    0.000    0.000    0.000 
#
# Total GULP energy -694523.833089 kJ/mol
# GULP energy per Si atom -12402.211305 kJ/mol
# Density = 2.010657 g / cm^3
# Si number density = 20.152435 Si / 1000 Ang^3
#
#
#
# Elastic Constant Matrix: (Units=GPa)
#
#
# Indices 1 2 3 4 5 6 
#
# 1 104.4125 15.3003 21.4400 0.0000 0.0000 0.0000
# 2 15.3003 42.0110 11.8300 0.0000 0.0000 0.0000
# 3 21.4400 11.8300 69.3527 0.0000 0.0000 0.0000
# 4 0.0000 0.0000 0.0000 23.1720 0.0000 0.0000
# 5 0.0000 0.0000 0.0000 0.0000 12.7824 0.0000
# 6 0.0000 0.0000 0.0000 0.0000 0.0000 29.1218
#
#
#
# Elastic Compliance Matrix: (Units=1/GPa)
#
#
# Indices 1 2 3 4 5 6 
#
# 1 0.010594 -0.003084 -0.002749 0.000000 0.000000 0.000000
# 2 -0.003084 0.025902 -0.003465 0.000000 0.000000 0.000000
# 3 -0.002749 -0.003465 0.015860 0.000000 0.000000 0.000000
# 4 0.000000 0.000000 0.000000 0.043156 0.000000 0.000000
# 5 0.000000 0.000000 0.000000 0.000000 0.078233 0.000000
# 6 0.000000 0.000000 0.000000 0.000000 0.000000 0.034338
#
#
# Mechanical properties :
#
#
# Convention : Reuss Voigt Hill
#
# Bulk Modulus (GPa) = 29.62087 34.76853 32.19470
# Shear Modulus (GPa) = 21.01442 24.16231 22.58836
#
# Velocity S-wave (km/s) = 3.23270 3.46638 3.35158
# Velocity P-wave (km/s) = 5.35389 5.77159 5.56666
#
# Compressibility (1/GPa) = 0.03375998
#
# Stress axis : x y z
#
# Youngs Moduli (GPa) = 94.39484 38.60676 63.05214
#
# Poissons Ratio (x) = 0.11907 0.17333
# Poissons Ratio (y) = 0.29113 0.21847
# Poissons Ratio (z) = 0.25948 0.13377
#
# Static dielectric constant tensor:
#      x y z
#    x 5.327030 0.000000 0.000000 
#    y 0.000000 3.488050 0.000000 
#    z 0.000000 0.000000 3.665750 
# 
# 
# High freq. dielectric constant tensor:
#      x y z
#    x 1.799670 0.000000 0.000000 
#    y 0.000000 1.771090 0.000000 
#    z 0.000000 0.000000 1.783950 
# 
# From -- ./inp_files/29057.got.cif
#   From: 2010.03.12/outbox.cif.g09.slc.cpg/sg59_15_cif.got.tgz:29057.got - 2010.04.16 16:29:54.
