data_PCOD8240377
_publ_section_title
;
Structure prediction by ZEFSAII (Michael W. Deem and Ramdas Pophale) SiO2 
 PCOD8240377
Probable space group: P M M N
;
_chemical_formula_sum "Si O2"
_cell_formula_units_Z 64
_cell_length_a 33.054854
_cell_length_b 9.470550
_cell_length_c 11.475418
_cell_angle_alpha 90.000000
_cell_angle_beta 90.000000
_cell_angle_gamma 90.000000
_cell_volume 3592.352610
_symmetry_space_group_name_H-M "P M M N"
_symmetry_group_IT_number 59
_space_group.IT_coordinate_system_code '2'
_symmetry_cell_setting 'orthorhombic'
loop_
_space_group_symop_operation_xyz
x,y,z
1/2-x,1/2-y,z
1/2+x,-y,-z
-x,1/2+y,-z
-x,-y,-z
1/2+x,1/2+y,-z
1/2-x,y,z
x,1/2-y,z
loop_
_atom_site_type_symbol
_atom_site_label
_atom_site_fract_x
_atom_site_fract_y
_atom_site_fract_z
Si Si1 0.867027 0.083997 0.629080
Si Si2 0.978989 0.083027 0.264169
Si Si3 0.296511 0.084045 0.255938
Si Si4 0.602626 0.082914 0.380861
Si Si5 0.702831 0.906905 0.008057
Si Si6 0.935973 0.416630 0.032419
Si Si7 0.945874 0.415730 0.773479
Si Si8 0.855389 0.083302 0.150132
O O1 0.857372 0.250000 0.623425
O O2 0.882711 0.024600 0.504927
O O3 0.901811 0.050464 0.722493
O O4 0.825918 0.003428 0.660246
O O5 0.986335 0.250000 0.275449
O O6 0.942747 0.030632 0.348847
O O7 0.968107 0.038796 0.130990
O O8 0.019743 0.999520 0.298680
O O9 0.250000 0.047549 0.287819
O O10 0.304324 0.250000 0.272650
O O11 0.305836 0.038599 0.122950
O O12 0.600223 0.250000 0.383063
O O13 0.634738 0.035623 0.282379
O O14 0.750000 0.903213 0.031342
O O15 0.684634 0.750000 0.023320
O O16 0.684916 0.009646 0.105312
O O17 0.933636 0.250000 0.026064
O O18 0.891645 0.471203 0.067803
O O19 0.947232 0.475868 0.905498
O O20 0.955485 0.250000 0.764735
O O21 0.849202 0.250000 0.142641
#
# Coordination Sequence:
#
# PCOD8240377 Si02
#       8
#     8   8   8   8   8   8   8   8
#     4  10  20  34  52  73  98 130 167 205 243 282
#     4   9  17  31  49  65  89 129 166 194 237 294
#     4   9  19  36  55  75 101 129 155 191 241 291
#     4   8  17  34  51  68  95 130 166 205 244 278
#     4   9  18  32  49  72 103 129 147 182 242 300
#     4   8  15  28  45  66  92 121 154 197 247 290
#     4  10  19  29  44  70 100 123 153 203 248 280
#     4   9  16  30  52  71  90 123 165 201 234 281
#
# _framework density 17.815622999999999
#
# number of rings (size 3 to 8) (size 9 to 14) (size 15 to 20)
#    0.000    3.000    0.000    3.375    0.000    3.000 
#    0.000    6.250    0.000    3.750    0.000    0.000 
#    0.000    0.000    0.000    0.000    0.000    0.000 
#
# Total GULP energy -793321.163248 kJ/mol
# GULP energy per Si atom -12395.643176 kJ/mol
# Density = 1.777507 g / cm^3
# Si number density = 17.815623 Si / 1000 Ang^3
#
#
#
# Elastic Constant Matrix: (Units=GPa)
#
#
# Indices 1 2 3 4 5 6 
#
# 1 98.2996 44.0501 50.9789 0.0000 0.0000 0.0000
# 2 44.0501 44.9435 31.6621 0.0000 0.0000 0.0000
# 3 50.9789 31.6621 80.4792 0.0000 0.0000 0.0000
# 4 0.0000 0.0000 0.0000 15.7806 0.0000 0.0000
# 5 0.0000 0.0000 0.0000 0.0000 23.3803 0.0000
# 6 0.0000 0.0000 0.0000 0.0000 0.0000 34.1694
#
#
#
# Elastic Compliance Matrix: (Units=1/GPa)
#
#
# Indices 1 2 3 4 5 6 
#
# 1 0.020710 -0.015296 -0.007101 0.000000 0.000000 0.000000
# 2 -0.015296 0.042079 -0.006866 0.000000 0.000000 0.000000
# 3 -0.007101 -0.006866 0.019625 0.000000 0.000000 0.000000
# 4 0.000000 0.000000 0.000000 0.063369 0.000000 0.000000
# 5 0.000000 0.000000 0.000000 0.000000 0.042771 0.000000
# 6 0.000000 0.000000 0.000000 0.000000 0.000000 0.029266
#
#
# Mechanical properties :
#
#
# Convention : Reuss Voigt Hill
#
# Bulk Modulus (GPa) = 41.86081 53.01162 47.43622
# Shear Modulus (GPa) = 17.58667 21.13481 19.36074
#
# Velocity S-wave (km/s) = 3.14530 3.44802 3.30013
# Velocity P-wave (km/s) = 6.06121 6.75811 6.41912
#
# Compressibility (1/GPa) = 0.02388869
#
# Stress axis : x y z
#
# Youngs Moduli (GPa) = 48.28612 23.76504 50.95650
#
# Poissons Ratio (x) = 0.36350 0.36183
# Poissons Ratio (y) = 0.73857 0.34985
# Poissons Ratio (z) = 0.34287 0.16316
#
# Static dielectric constant tensor:
#      x y z
#    x 3.216110 0.000000 0.000000 
#    y 0.000000 2.949960 0.000000 
#    z 0.000000 0.000000 3.610360 
# 
# 
# High freq. dielectric constant tensor:
#      x y z
#    x 1.690030 0.000000 0.000000 
#    y 0.000000 1.659140 0.000000 
#    z 0.000000 0.000000 1.685220 
# 
# From -- ./inp_files/19351.got.cif
#   From: 2010.03.12/outbox.cif.g09.slc.cpg/sg59_10_cif.got.tgz:19351.got - 2010.04.16 16:29:54.
