data_PCOD8240411
_publ_section_title
;
Structure prediction by ZEFSAII (Michael W. Deem and Ramdas Pophale) SiO2 
 PCOD8240411
Probable space group: P M M N
;
_chemical_formula_sum "Si O2"
_cell_formula_units_Z 40
_cell_length_a 20.698520
_cell_length_b 9.448801
_cell_length_c 12.426492
_cell_angle_alpha 90.000000
_cell_angle_beta 90.000000
_cell_angle_gamma 90.000000
_cell_volume 2430.326041
_symmetry_space_group_name_H-M "P M M N"
_symmetry_group_IT_number 59
_space_group.IT_coordinate_system_code '2'
_symmetry_cell_setting 'orthorhombic'
loop_
_space_group_symop_operation_xyz
x,y,z
1/2-x,1/2-y,z
1/2+x,-y,-z
-x,1/2+y,-z
-x,-y,-z
1/2+x,1/2+y,-z
1/2-x,y,z
x,1/2-y,z
loop_
_atom_site_type_symbol
_atom_site_label
_atom_site_fract_x
_atom_site_fract_y
_atom_site_fract_z
Si Si1 0.962205 0.411673 0.142011
Si Si2 0.557866 0.410858 0.376703
Si Si3 0.088808 0.413184 0.430996
Si Si4 0.674875 0.585206 0.767120
Si Si5 0.586324 0.085681 0.913087
O O1 0.989325 0.250000 0.143227
O O2 0.922939 0.441160 0.252433
O O3 0.021823 0.518369 0.136079
O O4 0.913598 0.433901 0.042393
O O5 0.571447 0.250000 0.409391
O O6 0.600695 0.505388 0.456729
O O7 0.482117 0.447352 0.386351
O O8 0.099091 0.250000 0.457121
O O9 0.139918 0.465287 0.342215
O O10 0.750000 0.553803 0.753712
O O11 0.660649 0.750000 0.789655
O O12 0.648780 0.494344 0.867337
O O13 0.588650 0.250000 0.880304
#
# Coordination Sequence:
#
# PCOD8240411 Si02
#       5
#     8   8   8   8   8
#     4   9  17  31  48  69  99 129 154 189 240 293
#     4   9  16  28  47  68  95 124 150 189 237 284
#     4   9  17  29  45  68  94 121 157 194 232 278
#     4  10  20  35  52  67  93 132 164 193 234 284
#     4  10  19  29  47  73  98 124 159 199 236 276
#
# _framework density 16.458697000000001
#
# number of rings (size 3 to 8) (size 9 to 14) (size 15 to 20)
#    0.000    2.600    2.000    0.600    0.000    2.800 
#    0.000    0.000    0.000    1.200    0.000    5.600 
#    0.000    0.000    0.000    0.000    0.000    0.000 
#
# Total GULP energy -495961.819124 kJ/mol
# GULP energy per Si atom -12399.045478 kJ/mol
# Density = 1.642124 g / cm^3
# Si number density = 16.458697 Si / 1000 Ang^3
#
#
#
# Elastic Constant Matrix: (Units=GPa)
#
#
# Indices 1 2 3 4 5 6 
#
# 1 67.7774 39.1132 45.9393 0.0000 0.0000 0.0000
# 2 39.1132 76.3182 62.6637 0.0000 0.0000 0.0000
# 3 45.9393 62.6637 138.2855 0.0000 0.0000 0.0000
# 4 0.0000 0.0000 0.0000 31.5357 0.0000 0.0000
# 5 0.0000 0.0000 0.0000 0.0000 21.5545 0.0000
# 6 0.0000 0.0000 0.0000 0.0000 0.0000 20.0113
#
#
#
# Elastic Compliance Matrix: (Units=1/GPa)
#
#
# Indices 1 2 3 4 5 6 
#
# 1 0.021963 -0.008385 -0.003497 0.000000 0.000000 0.000000
# 2 -0.008385 0.024068 -0.008121 0.000000 0.000000 0.000000
# 3 -0.003497 -0.008121 0.012073 0.000000 0.000000 0.000000
# 4 0.000000 0.000000 0.000000 0.031710 0.000000 0.000000
# 5 0.000000 0.000000 0.000000 0.000000 0.046394 0.000000
# 6 0.000000 0.000000 0.000000 0.000000 0.000000 0.049972
#
#
# Mechanical properties :
#
#
# Convention : Reuss Voigt Hill
#
# Bulk Modulus (GPa) = 55.25110 64.20148 59.72629
# Shear Modulus (GPa) = 21.53143 23.59797 22.56470
#
# Velocity S-wave (km/s) = 3.62084 3.79062 3.70670
# Velocity P-wave (km/s) = 7.15004 7.63222 7.39506
#
# Compressibility (1/GPa) = 0.01809919
#
# Stress axis : x y z
#
# Youngs Moduli (GPa) = 45.53099 41.54823 82.82960
#
# Poissons Ratio (x) = 0.34839 0.28962
# Poissons Ratio (y) = 0.38178 0.67265
# Poissons Ratio (z) = 0.15920 0.33741
#
# Static dielectric constant tensor:
#      x y z
#    x 2.713730 0.000000 0.000000 
#    y 0.000000 3.155980 0.000000 
#    z 0.000000 0.000000 3.392510 
# 
# 
# High freq. dielectric constant tensor:
#      x y z
#    x 1.582340 0.000000 0.000000 
#    y 0.000000 1.637610 0.000000 
#    z 0.000000 0.000000 1.646270 
# 
# From -- ./inp_files/14029.got.cif
#   From: 2010.03.12/outbox.cif.g09.slc.cpg/sg59_8_cif.got.tgz:14029.got - 2010.04.16 16:29:54.
