data_PCOD8240106
_publ_section_title
;
Structure prediction by ZEFSAII (Michael W. Deem and Ramdas Pophale) SiO2 
 PCOD8240106
Probable space group: P M M N
;
_chemical_formula_sum "Si O2"
_cell_formula_units_Z 56
_cell_length_a 9.186891
_cell_length_b 23.995465
_cell_length_c 14.777792
_cell_angle_alpha 90.000000
_cell_angle_beta 90.000000
_cell_angle_gamma 90.000000
_cell_volume 3257.671463
_symmetry_space_group_name_H-M "P M M N"
_symmetry_group_IT_number 59
_space_group.IT_coordinate_system_code '2'
_symmetry_cell_setting 'orthorhombic'
loop_
_space_group_symop_operation_xyz
x,y,z
1/2-x,1/2-y,z
1/2+x,-y,-z
-x,1/2+y,-z
-x,-y,-z
1/2+x,1/2+y,-z
1/2-x,y,z
x,1/2-y,z
loop_
_atom_site_type_symbol
_atom_site_label
_atom_site_fract_x
_atom_site_fract_y
_atom_site_fract_z
Si Si1 0.422540 0.934793 0.861979
Si Si2 0.577870 0.750000 0.792955
Si Si3 0.420218 0.365134 0.284018
Si Si4 0.581640 0.360692 0.967002
Si Si5 0.416429 0.424072 0.460277
Si Si6 0.923166 0.750000 0.998932
Si Si7 0.080331 0.541683 0.376918
Si Si8 0.419601 0.955943 0.172421
O O1 0.250000 0.940147 0.854204
O O2 0.488842 0.911085 0.769649
O O3 0.489736 0.995889 0.878041
O O4 0.468588 0.894786 0.944446
O O5 0.750000 0.750000 0.790764
O O6 0.518685 0.804363 0.741577
O O7 0.521469 0.750000 0.895414
O O8 0.250000 0.372817 0.258996
O O9 0.444480 0.372996 0.391458
O O10 0.750000 0.343492 0.975396
O O11 0.485968 0.305294 0.954109
O O12 0.553669 0.398184 0.878977
O O13 0.250000 0.428008 0.489883
O O14 0.506716 0.415359 0.552442
O O15 0.463859 0.479514 0.406280
O O16 0.750000 0.750000 0.007560
O O17 0.250000 0.552681 0.382067
O O18 0.024093 0.552141 0.275192
O O19 0.250000 0.973211 0.170435
#
# Coordination Sequence:
#
# PCOD8240106 Si02
#       8
#     8   4   8   8   8   4   8   8
#     4  11  21  31  48  78 108 135 166 212 260 298
#     4   9  18  31  53  76  95 130 174 209 241 297
#     4  10  18  33  52  73 102 137 172 202 248 315
#     4  10  22  37  53  74 105 139 174 214 258 304
#     4   9  17  29  48  72  99 130 160 202 252 298
#     4  11  21  35  57  78  99 134 178 219 255 295
#     4   9  17  30  49  72  97 128 167 204 244 300
#     4  10  20  36  54  73 102 143 177 206 252 312
#
# _framework density 17.190192
#
# number of rings (size 3 to 8) (size 9 to 14) (size 15 to 20)
#    0.000    2.143    2.857    1.071    0.000    2.286 
#    0.000    0.357    0.000    0.857    0.000    2.000 
#    0.000    0.000    0.000    0.000    0.000    0.000 
#
# Total GULP energy -694453.584310 kJ/mol
# GULP energy per Si atom -12400.956863 kJ/mol
# Density = 1.715107 g / cm^3
# Si number density = 17.190192 Si / 1000 Ang^3
#
#
#
# Elastic Constant Matrix: (Units=GPa)
#
#
# Indices 1 2 3 4 5 6 
#
# 1 56.0662 43.6062 37.8268 0.0000 0.0000 0.0000
# 2 43.6062 102.4724 46.1072 0.0000 0.0000 0.0000
# 3 37.8268 46.1072 97.2296 0.0000 0.0000 0.0000
# 4 0.0000 0.0000 0.0000 23.3667 0.0000 0.0000
# 5 0.0000 0.0000 0.0000 0.0000 26.5612 0.0000
# 6 0.0000 0.0000 0.0000 0.0000 0.0000 24.1123
#
#
#
# Elastic Compliance Matrix: (Units=1/GPa)
#
#
# Indices 1 2 3 4 5 6 
#
# 1 0.030142 -0.009598 -0.007175 0.000000 0.000000 0.000000
# 2 -0.009598 0.015462 -0.003598 0.000000 0.000000 0.000000
# 3 -0.007175 -0.003598 0.014783 0.000000 0.000000 0.000000
# 4 0.000000 0.000000 0.000000 0.042796 0.000000 0.000000
# 5 0.000000 0.000000 0.000000 0.000000 0.037649 0.000000
# 6 0.000000 0.000000 0.000000 0.000000 0.000000 0.041473
#
#
# Mechanical properties :
#
#
# Convention : Reuss Voigt Hill
#
# Bulk Modulus (GPa) = 50.90631 56.76096 53.83364
# Shear Modulus (GPa) = 21.77745 23.35657 22.56701
#
# Velocity S-wave (km/s) = 3.56315 3.69007 3.62717
# Velocity P-wave (km/s) = 6.82685 7.15867 6.99473
#
# Compressibility (1/GPa) = 0.01964393
#
# Stress axis : x y z
#
# Youngs Moduli (GPa) = 33.17615 64.67411 67.64688
#
# Poissons Ratio (x) = 0.62076 0.48537
# Poissons Ratio (y) = 0.31843 0.24340
# Poissons Ratio (z) = 0.23804 0.23270
#
# Static dielectric constant tensor:
#      x y z
#    x 3.096520 0.000000 0.000000 
#    y 0.000000 3.171480 0.000000 
#    z 0.000000 0.000000 3.295300 
# 
# 
# High freq. dielectric constant tensor:
#      x y z
#    x 1.655160 0.000000 0.000000 
#    y 0.000000 1.644980 0.000000 
#    z 0.000000 0.000000 1.661200 
# 
# From -- ./inp_files/21122.got.cif
#   From: 2010.03.12/outbox.cif.g09.slc.cpg/sg59_11_cif.got.tgz:21122.got - 2010.04.16 16:29:54.
