data_PCOD8240440
_publ_section_title
;
Structure prediction by ZEFSAII (Michael W. Deem and Ramdas Pophale) SiO2 
 PCOD8240440
Probable space group: P M M N
;
_chemical_formula_sum "Si O2"
_cell_formula_units_Z 48
_cell_length_a 25.660681
_cell_length_b 9.462483
_cell_length_c 11.755748
_cell_angle_alpha 90.000000
_cell_angle_beta 90.000000
_cell_angle_gamma 90.000000
_cell_volume 2854.457347
_symmetry_space_group_name_H-M "P M M N"
_symmetry_group_IT_number 59
_space_group.IT_coordinate_system_code '2'
_symmetry_cell_setting 'orthorhombic'
loop_
_space_group_symop_operation_xyz
x,y,z
1/2-x,1/2-y,z
1/2+x,-y,-z
-x,1/2+y,-z
-x,-y,-z
1/2+x,1/2+y,-z
1/2-x,y,z
x,1/2-y,z
loop_
_atom_site_type_symbol
_atom_site_label
_atom_site_fract_x
_atom_site_fract_y
_atom_site_fract_z
Si Si1 0.576761 0.412051 0.295319
Si Si2 0.690400 0.414608 0.654029
Si Si3 0.950596 0.413778 0.043538
Si Si4 0.625414 0.584612 0.480102
Si Si5 0.538602 0.908238 0.657967
Si Si6 0.398376 0.910944 0.180355
O O1 0.596462 0.250000 0.297482
O O2 0.619413 0.511249 0.356736
O O3 0.522609 0.427236 0.364513
O O4 0.569351 0.466429 0.166127
O O5 0.750000 0.450390 0.681843
O O6 0.682975 0.250000 0.622048
O O7 0.672181 0.509579 0.548005
O O8 0.657609 0.456302 0.767531
O O9 0.967456 0.250000 0.051951
O O10 0.902210 0.434791 0.955479
O O11 0.000000 0.500000 0.000000
O O12 0.638126 0.750000 0.465160
O O13 0.571136 0.556326 0.545220
O O14 0.551197 0.750000 0.698056
O O15 0.554527 0.005445 0.762647
O O16 0.409116 0.750000 0.212316
#
# Coordination Sequence:
#
# PCOD8240440 Si02
#       6
#     8   8   8   8   8   8
#     4  10  19  30  44  64  97 136 166 194 232 282
#     4   9  18  34  55  74  93 119 152 196 251 299
#     4  10  19  30  46  68  98 134 167 199 234 280
#     4  10  20  31  46  70  96 123 160 202 241 284
#     4   9  17  29  44  65  95 129 161 195 236 281
#     4   9  17  29  47  72  96 122 160 202 239 281
#
# _framework density 16.815805999999998
#
# number of rings (size 3 to 8) (size 9 to 14) (size 15 to 20)
#    0.000    2.500    1.667    1.000    0.000    2.333 
#    0.000    0.000    0.000    1.000    0.000    4.667 
#    0.000    0.000    0.000    0.000    0.000    0.000 
#
# Total GULP energy -595010.347863 kJ/mol
# GULP energy per Si atom -12396.048914 kJ/mol
# Density = 1.677753 g / cm^3
# Si number density = 16.815806 Si / 1000 Ang^3
#
#
#
# Elastic Constant Matrix: (Units=GPa)
#
#
# Indices 1 2 3 4 5 6 
#
# 1 68.8021 33.5465 41.3843 0.0000 0.0000 0.0000
# 2 33.5465 61.7271 42.4308 0.0000 0.0000 0.0000
# 3 41.3843 42.4308 103.2873 0.0000 0.0000 0.0000
# 4 0.0000 0.0000 0.0000 21.6195 0.0000 0.0000
# 5 0.0000 0.0000 0.0000 0.0000 16.4676 0.0000
# 6 0.0000 0.0000 0.0000 0.0000 0.0000 21.1670
#
#
#
# Elastic Compliance Matrix: (Units=1/GPa)
#
#
# Indices 1 2 3 4 5 6 
#
# 1 0.021720 -0.008113 -0.005370 0.000000 0.000000 0.000000
# 2 -0.008113 0.025606 -0.007268 0.000000 0.000000 0.000000
# 3 -0.005370 -0.007268 0.014819 0.000000 0.000000 0.000000
# 4 0.000000 0.000000 0.000000 0.046255 0.000000 0.000000
# 5 0.000000 0.000000 0.000000 0.000000 0.060725 0.000000
# 6 0.000000 0.000000 0.000000 0.000000 0.000000 0.047243
#
#
# Mechanical properties :
#
#
# Convention : Reuss Voigt Hill
#
# Bulk Modulus (GPa) = 48.44306 52.05995 50.25151
# Shear Modulus (GPa) = 18.88569 19.61448 19.25008
#
# Velocity S-wave (km/s) = 3.35489 3.41901 3.38710
# Velocity P-wave (km/s) = 6.62402 6.82732 6.72644
#
# Compressibility (1/GPa) = 0.02064279
#
# Stress axis : x y z
#
# Youngs Moduli (GPa) = 46.04039 39.05397 67.48054
#
# Poissons Ratio (x) = 0.31684 0.36236
# Poissons Ratio (y) = 0.37352 0.49047
# Poissons Ratio (z) = 0.24723 0.28385
#
# Static dielectric constant tensor:
#      x y z
#    x 2.934390 0.000000 0.000000 
#    y 0.000000 3.201910 0.000000 
#    z 0.000000 0.000000 3.208480 
# 
# 
# High freq. dielectric constant tensor:
#      x y z
#    x 1.612230 0.000000 0.000000 
#    y 0.000000 1.652180 0.000000 
#    z 0.000000 0.000000 1.645650 
# 
# From -- ./inp_files/14320.got.cif
#   From: 2010.03.12/outbox.cif.g09.slc.cpg/sg59_8_cif.got.tgz:14320.got - 2010.04.16 16:29:54.
