data_PCOD8240800
_publ_section_title
;
Structure prediction by ZEFSAII (Michael W. Deem and Ramdas Pophale) SiO2 
 PCOD8240800
Probable space group: P M M N
;
_chemical_formula_sum "Si O2"
_cell_formula_units_Z 64
_cell_length_a 9.524503
_cell_length_b 23.852287
_cell_length_c 16.235771
_cell_angle_alpha 90.000000
_cell_angle_beta 90.000000
_cell_angle_gamma 90.000000
_cell_volume 3688.461599
_symmetry_space_group_name_H-M "P M M N"
_symmetry_group_IT_number 59
_space_group.IT_coordinate_system_code '2'
_symmetry_cell_setting 'orthorhombic'
loop_
_space_group_symop_operation_xyz
x,y,z
1/2-x,1/2-y,z
1/2+x,-y,-z
-x,1/2+y,-z
-x,-y,-z
1/2+x,1/2+y,-z
1/2-x,y,z
x,1/2-y,z
loop_
_atom_site_type_symbol
_atom_site_label
_atom_site_fract_x
_atom_site_fract_y
_atom_site_fract_z
Si Si1 0.588515 0.186882 0.314787
Si Si2 0.907881 0.450137 0.032672
Si Si3 0.411632 0.391660 0.625653
Si Si4 0.406450 0.608340 0.132774
Si Si5 0.414257 0.313726 0.475876
Si Si6 0.090884 0.187980 0.778093
Si Si7 0.416676 0.523442 0.274753
Si Si8 0.585964 0.078712 0.214987
O O1 0.750000 0.182619 0.342209
O O2 0.553748 0.250000 0.282981
O O3 0.495977 0.171151 0.393278
O O4 0.555077 0.142457 0.242725
O O5 0.750000 0.473108 0.041642
O O6 0.960352 0.425468 0.119465
O O7 0.916344 0.402051 0.964232
O O8 0.000000 0.500000 0.000000
O O9 0.250000 0.412743 0.620488
O O10 0.459723 0.360566 0.542323
O O11 0.429471 0.345000 0.694479
O O12 0.514526 0.443393 0.647713
O O13 0.250000 0.624752 0.159775
O O14 0.504551 0.661058 0.147933
O O15 0.452055 0.554897 0.188595
O O16 0.250000 0.318584 0.457662
O O17 0.450321 0.250000 0.505496
O O18 0.250000 0.188136 0.808023
O O19 0.034129 0.250000 0.761712
O O20 0.250000 0.516514 0.289629
O O21 0.490949 0.463044 0.269410
O O22 0.750000 0.063260 0.226944
#
# Coordination Sequence:
#
# PCOD8240800 Si02
#       8
#     8   8   8   8   8   8   8   8
#     4   9  19  36  55  75 100 129 164 208 253 297
#     4  10  19  32  51  75 100 126 164 206 246 294
#     4   9  17  30  49  73 102 133 167 205 246 294
#     4   9  18  31  45  68 100 128 159 201 246 289
#     4   9  17  31  53  78 101 129 169 213 253 296
#     4   9  17  29  46  68  96 132 168 198 235 288
#     4  10  19  31  48  73 105 134 163 203 249 296
#     4  10  20  34  54  76  99 130 168 205 249 304
#
# _framework density 17.351406999999998
#
# number of rings (size 3 to 8) (size 9 to 14) (size 15 to 20)
#    0.000    2.625    1.250    0.750    0.000    3.750 
#    0.000    1.250    0.000    4.500    0.000    1.750 
#    0.000    0.000    0.000    0.000    0.000    0.000 
#
# Total GULP energy -793415.919647 kJ/mol
# GULP energy per Si atom -12397.123744 kJ/mol
# Density = 1.731191 g / cm^3
# Si number density = 17.351407 Si / 1000 Ang^3
#
#
#
# Elastic Constant Matrix: (Units=GPa)
#
#
# Indices 1 2 3 4 5 6 
#
# 1 66.5754 53.0959 45.1824 0.0000 0.0000 0.0000
# 2 53.0959 106.3298 56.9235 0.0000 0.0000 0.0000
# 3 45.1824 56.9235 101.8012 0.0000 0.0000 0.0000
# 4 0.0000 0.0000 0.0000 22.0756 0.0000 0.0000
# 5 0.0000 0.0000 0.0000 0.0000 24.9984 0.0000
# 6 0.0000 0.0000 0.0000 0.0000 0.0000 27.1275
#
#
#
# Elastic Compliance Matrix: (Units=1/GPa)
#
#
# Indices 1 2 3 4 5 6 
#
# 1 0.027682 -0.010341 -0.006504 0.000000 0.000000 0.000000
# 2 -0.010341 0.017286 -0.005076 0.000000 0.000000 0.000000
# 3 -0.006504 -0.005076 0.015548 0.000000 0.000000 0.000000
# 4 0.000000 0.000000 0.000000 0.045299 0.000000 0.000000
# 5 0.000000 0.000000 0.000000 0.000000 0.040003 0.000000
# 6 0.000000 0.000000 0.000000 0.000000 0.000000 0.036863
#
#
# Mechanical properties :
#
#
# Convention : Reuss Voigt Hill
#
# Bulk Modulus (GPa) = 59.97321 65.01219 62.49270
# Shear Modulus (GPa) = 21.54433 22.80726 22.17580
#
# Velocity S-wave (km/s) = 3.52752 3.62944 3.57885
# Velocity P-wave (km/s) = 7.15752 7.42382 7.29189
#
# Compressibility (1/GPa) = 0.01667411
#
# Stress axis : x y z
#
# Youngs Moduli (GPa) = 36.12488 57.85020 64.31770
#
# Poissons Ratio (x) = 0.59824 0.41829
# Poissons Ratio (y) = 0.37358 0.32647
# Poissons Ratio (z) = 0.23494 0.29365
#
# Static dielectric constant tensor:
#      x y z
#    x 3.322030 0.000000 0.000000 
#    y 0.000000 3.274870 0.000000 
#    z 0.000000 0.000000 3.227870 
# 
# 
# High freq. dielectric constant tensor:
#      x y z
#    x 1.671050 0.000000 0.000000 
#    y 0.000000 1.661570 0.000000 
#    z 0.000000 0.000000 1.657110 
# 
# From -- ./inp_files/21503.got.cif
#   From: 2010.03.12/outbox.cif.g09.slc.cpg/sg59_11_cif.got.tgz:21503.got - 2010.04.16 16:29:54.
