data_PCOD8240892
_publ_section_title
;
Structure prediction by ZEFSAII (Michael W. Deem and Ramdas Pophale) SiO2 
 PCOD8240892
Probable space group: P M M N
;
_chemical_formula_sum "Si O2"
_cell_formula_units_Z 64
_cell_length_a 9.480307
_cell_length_b 18.722481
_cell_length_c 19.803931
_cell_angle_alpha 90.000000
_cell_angle_beta 90.000000
_cell_angle_gamma 90.000000
_cell_volume 3515.096112
_symmetry_space_group_name_H-M "P M M N"
_symmetry_group_IT_number 59
_space_group.IT_coordinate_system_code '2'
_symmetry_cell_setting 'orthorhombic'
loop_
_space_group_symop_operation_xyz
x,y,z
1/2-x,1/2-y,z
1/2+x,-y,-z
-x,1/2+y,-z
-x,-y,-z
1/2+x,1/2+y,-z
1/2-x,y,z
x,1/2-y,z
loop_
_atom_site_type_symbol
_atom_site_label
_atom_site_fract_x
_atom_site_fract_y
_atom_site_fract_z
Si Si1 0.082632 0.670633 0.113342
Si Si2 0.410741 0.830722 0.704693
Si Si3 0.582560 0.329574 0.036550
Si Si4 0.088111 0.915467 0.836846
Si Si5 0.916980 0.450379 0.786898
Si Si6 0.913684 0.913221 0.596978
Si Si7 0.915195 0.666982 0.462678
Si Si8 0.086874 0.571245 0.367353
O O1 0.250000 0.673176 0.116114
O O2 0.022816 0.750000 0.128767
O O3 0.025602 0.616372 0.169594
O O4 0.034508 0.645373 0.038382
O O5 0.250000 0.837443 0.679614
O O6 0.465870 0.750000 0.696433
O O7 0.423288 0.851976 0.782718
O O8 0.504486 0.883301 0.660804
O O9 0.750000 0.326669 0.041578
O O10 0.522572 0.250000 0.050457
O O11 0.526697 0.385037 0.092504
O O12 0.250000 0.941567 0.843550
O O13 0.990910 0.980106 0.815212
O O14 0.750000 0.461082 0.793597
O O15 0.961563 0.437891 0.709776
O O16 0.750000 0.897094 0.609601
O O17 0.967333 0.874702 0.529282
O O18 0.941810 0.997912 0.591904
O O19 0.750000 0.655449 0.450730
O O20 0.953679 0.750000 0.470894
O O21 0.996482 0.635116 0.398779
O O22 0.250000 0.593298 0.371498
#
# Coordination Sequence:
#
# PCOD8240892 Si02
#       8
#     8   8   8   8   8   8   8   8
#     4   8  15  29  50  74  99 132 174 218 260 299
#     4  10  20  32  49  76 106 137 174 213 252 298
#     4   8  14  27  48  73 101 135 176 216 253 298
#     4  10  19  31  49  74 105 138 171 210 256 304
#     4  10  20  34  52  77 106 133 170 215 256 306
#     4  10  20  37  57  78 105 138 172 207 257 315
#     4  10  22  38  56  79 105 134 171 215 262 313
#     4  10  21  36  55  78 105 139 176 214 257 308
#
# _framework density 18.207184000000002
#
# number of rings (size 3 to 8) (size 9 to 14) (size 15 to 20)
#    0.000    2.500    1.250    1.875    0.000    5.000 
#    0.000    1.250    0.000    1.500    0.000    1.750 
#    0.000    0.000    0.000    0.000    0.000    0.000 
#
# Total GULP energy -793569.473840 kJ/mol
# GULP energy per Si atom -12399.523029 kJ/mol
# Density = 1.816574 g / cm^3
# Si number density = 18.207184 Si / 1000 Ang^3
#
#
#
# Elastic Constant Matrix: (Units=GPa)
#
#
# Indices 1 2 3 4 5 6 
#
# 1 31.0929 31.6778 32.4583 0.0000 0.0000 0.0000
# 2 31.6778 95.4832 70.1039 0.0000 0.0000 0.0000
# 3 32.4583 70.1039 127.4017 0.0000 0.0000 0.0000
# 4 0.0000 0.0000 0.0000 39.9694 0.0000 0.0000
# 5 0.0000 0.0000 0.0000 0.0000 13.1167 0.0000
# 6 0.0000 0.0000 0.0000 0.0000 0.0000 23.1626
#
#
#
# Elastic Compliance Matrix: (Units=1/GPa)
#
#
# Indices 1 2 3 4 5 6 
#
# 1 0.051365 -0.012471 -0.006224 0.000000 0.000000 0.000000
# 2 -0.012471 0.020600 -0.008158 0.000000 0.000000 0.000000
# 3 -0.006224 -0.008158 0.013924 0.000000 0.000000 0.000000
# 4 0.000000 0.000000 0.000000 0.025019 0.000000 0.000000
# 5 0.000000 0.000000 0.000000 0.000000 0.076239 0.000000
# 6 0.000000 0.000000 0.000000 0.000000 0.000000 0.043173
#
#
# Mechanical properties :
#
#
# Convention : Reuss Voigt Hill
#
# Bulk Modulus (GPa) = 31.07294 58.05087 44.56191
# Shear Modulus (GPa) = 16.96331 23.23227 20.09779
#
# Velocity S-wave (km/s) = 3.05566 3.57598 3.32601
# Velocity P-wave (km/s) = 5.43624 7.00021 6.26720
#
# Compressibility (1/GPa) = 0.03218234
#
# Stress axis : x y z
#
# Youngs Moduli (GPa) = 19.46859 48.54295 71.81885
#
# Poissons Ratio (x) = 0.60540 0.44698
# Poissons Ratio (y) = 0.24280 0.58591
# Poissons Ratio (z) = 0.12117 0.39602
#
# Static dielectric constant tensor:
#      x y z
#    x 3.025790 0.000000 0.000000 
#    y 0.000000 3.474280 0.000000 
#    z 0.000000 0.000000 3.564260 
# 
# 
# High freq. dielectric constant tensor:
#      x y z
#    x 1.670310 0.000000 0.000000 
#    y 0.000000 1.709870 0.000000 
#    z 0.000000 0.000000 1.715400 
# 
# From -- ./inp_files/29372.got.cif
#   From: 2010.03.12/outbox.cif.g09.slc.cpg/sg59_15_cif.got.tgz:29372.got - 2010.04.16 16:29:54.
