data_PCOD8240053
_publ_section_title
;
Structure prediction by ZEFSAII (Michael W. Deem and Ramdas Pophale) SiO2 
 PCOD8240053
Probable space group: P M M N
;
_chemical_formula_sum "Si O2"
_cell_formula_units_Z 48
_cell_length_a 20.521169
_cell_length_b 9.093531
_cell_length_c 14.443744
_cell_angle_alpha 90.000000
_cell_angle_beta 90.000000
_cell_angle_gamma 90.000000
_cell_volume 2695.345428
_symmetry_space_group_name_H-M "P M M N"
_symmetry_group_IT_number 59
_space_group.IT_coordinate_system_code '2'
_symmetry_cell_setting 'orthorhombic'
loop_
_space_group_symop_operation_xyz
x,y,z
1/2-x,1/2-y,z
1/2+x,-y,-z
-x,1/2+y,-z
-x,-y,-z
1/2+x,1/2+y,-z
1/2-x,y,z
x,1/2-y,z
loop_
_atom_site_type_symbol
_atom_site_label
_atom_site_fract_x
_atom_site_fract_y
_atom_site_fract_z
Si Si1 0.627967 0.577066 0.247976
Si Si2 0.177820 0.424292 0.556028
Si Si3 0.441650 0.578318 0.051826
Si Si4 0.522298 0.421442 0.745129
Si Si5 0.555698 0.924826 0.560632
Si Si6 0.322908 0.579905 0.929683
O O1 0.637662 0.750000 0.240711
O O2 0.656470 0.513847 0.343903
O O3 0.552543 0.533351 0.241362
O O4 0.667582 0.506362 0.164972
O O5 0.250000 0.484590 0.530407
O O6 0.178654 0.250000 0.561764
O O7 0.125832 0.474755 0.479229
O O8 0.453845 0.750000 0.038536
O O9 0.439989 0.539285 0.160448
O O10 0.500000 0.500000 0.000000
O O11 0.373113 0.525801 0.008485
O O12 0.528441 0.250000 0.718231
O O13 0.553971 0.519894 0.665530
O O14 0.546184 0.750000 0.555777
O O15 0.500000 0.000000 0.500000
O O16 0.250000 0.550640 0.967130
O O17 0.334583 0.750000 0.907492
#
# Coordination Sequence:
#
# PCOD8240053 Si02
#       6
#     8   8   8   8   8   8
#     4  10  18  32  55  80 107 138 174 217 265 319
#     4   9  18  33  52  75 104 138 174 212 261 316
#     4  10  20  35  55  76 105 141 177 220 264 313
#     4  10  20  35  54  81 109 135 177 224 264 313
#     4  11  21  35  56  80 107 141 178 219 265 317
#     4  10  21  35  51  77 111 143 176 217 270 324
#
# _framework density 17.808477
#
# number of rings (size 3 to 8) (size 9 to 14) (size 15 to 20)
#    0.000    2.000    3.333    1.000    0.000    2.333 
#    0.000    0.833    0.000    4.000    0.000    0.000 
#    0.000    0.000    0.000    0.000    0.000    0.000 
#
# Total GULP energy -595230.425313 kJ/mol
# GULP energy per Si atom -12400.633861 kJ/mol
# Density = 1.776794 g / cm^3
# Si number density = 17.808477 Si / 1000 Ang^3
#
#
#
# Elastic Constant Matrix: (Units=GPa)
#
#
# Indices 1 2 3 4 5 6 
#
# 1 148.9181 40.2969 77.1179 0.0000 0.0000 0.0000
# 2 40.2969 41.5351 43.3542 0.0000 0.0000 0.0000
# 3 77.1179 43.3542 133.5564 0.0000 0.0000 0.0000
# 4 0.0000 0.0000 0.0000 30.8443 0.0000 0.0000
# 5 0.0000 0.0000 0.0000 0.0000 32.0930 0.0000
# 6 0.0000 0.0000 0.0000 0.0000 0.0000 17.7489
#
#
#
# Elastic Compliance Matrix: (Units=1/GPa)
#
#
# Indices 1 2 3 4 5 6 
#
# 1 0.010427 -0.005795 -0.004139 0.000000 0.000000 0.000000
# 2 -0.005795 0.039635 -0.009520 0.000000 0.000000 0.000000
# 3 -0.004139 -0.009520 0.012968 0.000000 0.000000 0.000000
# 4 0.000000 0.000000 0.000000 0.032421 0.000000 0.000000
# 5 0.000000 0.000000 0.000000 0.000000 0.031159 0.000000
# 6 0.000000 0.000000 0.000000 0.000000 0.000000 0.056342
#
#
# Mechanical properties :
#
#
# Convention : Reuss Voigt Hill
#
# Bulk Modulus (GPa) = 41.45768 71.72750 56.59259
# Shear Modulus (GPa) = 21.74842 27.01994 24.38418
#
# Velocity S-wave (km/s) = 3.49841 3.89942 3.70435
# Velocity P-wave (km/s) = 6.29673 7.78708 7.08122
#
# Compressibility (1/GPa) = 0.02412098
#
# Stress axis : x y z
#
# Youngs Moduli (GPa) = 95.90531 25.23000 77.11331
#
# Poissons Ratio (x) = 0.14622 0.31921
# Poissons Ratio (y) = 0.55581 0.73410
# Poissons Ratio (z) = 0.39700 0.24018
#
# Static dielectric constant tensor:
#      x y z
#    x 3.574800 0.000000 0.000000 
#    y 0.000000 3.137870 0.000000 
#    z 0.000000 0.000000 3.422080 
# 
# 
# High freq. dielectric constant tensor:
#      x y z
#    x 1.693190 0.000000 0.000000 
#    y 0.000000 1.670020 0.000000 
#    z 0.000000 0.000000 1.691360 
# 
# From -- ./inp_files/20700.got.cif
#   From: 2010.03.12/outbox.cif.g09.slc.cpg/sg59_11_cif.got.tgz:20700.got - 2010.04.16 16:29:54.
