data_PCOD8240078
_publ_section_title
;
Structure prediction by ZEFSAII (Michael W. Deem and Ramdas Pophale) SiO2 
 PCOD8240078
Probable space group: P M M N
;
_chemical_formula_sum "Si O2"
_cell_formula_units_Z 56
_cell_length_a 9.065900
_cell_length_b 15.604793
_cell_length_c 19.853427
_cell_angle_alpha 90.000000
_cell_angle_beta 90.000000
_cell_angle_gamma 90.000000
_cell_volume 2808.693956
_symmetry_space_group_name_H-M "P M M N"
_symmetry_group_IT_number 59
_space_group.IT_coordinate_system_code '2'
_symmetry_cell_setting 'orthorhombic'
loop_
_space_group_symop_operation_xyz
x,y,z
1/2-x,1/2-y,z
1/2+x,-y,-z
-x,1/2+y,-z
-x,-y,-z
1/2+x,1/2+y,-z
1/2-x,y,z
x,1/2-y,z
loop_
_atom_site_type_symbol
_atom_site_label
_atom_site_fract_x
_atom_site_fract_y
_atom_site_fract_z
Si Si1 0.578043 0.347421 0.325633
Si Si2 0.579912 0.935276 0.947754
Si Si3 0.575614 0.929405 0.793776
Si Si4 0.915368 0.155783 0.620353
Si Si5 0.423265 0.504879 0.571599
Si Si6 0.915487 0.750000 0.005569
Si Si7 0.415523 0.889021 0.232489
Si Si8 0.924496 0.250000 0.861423
O O1 0.750000 0.363687 0.314494
O O2 0.547431 0.250000 0.350987
O O3 0.500719 0.357234 0.252419
O O4 0.518821 0.415073 0.382491
O O5 0.750000 0.962517 0.950824
O O6 0.519936 0.938958 0.871058
O O7 0.557117 0.835375 0.963445
O O8 0.500000 0.000000 0.000000
O O9 0.750000 0.911077 0.791356
O O10 0.516521 0.016782 0.758256
O O11 0.750000 0.127676 0.596313
O O12 0.953261 0.250000 0.589755
O O13 0.917446 0.166428 0.700354
O O14 0.038534 0.086452 0.603872
O O15 0.500000 0.500000 0.500000
O O16 0.250000 0.513366 0.561182
O O17 0.750000 0.750000 0.036004
O O18 0.039783 0.750000 0.061391
O O19 0.250000 0.908402 0.207600
O O20 0.494901 0.834187 0.173827
O O21 0.750000 0.250000 0.848758
#
# Coordination Sequence:
#
# PCOD8240078 Si02
#       8
#     8   8   8   8   8   4   8   4
#     4  10  23  42  62  88 121 156 196 245 302 357
#     4  10  22  39  58  83 117 157 200 248 301 356
#     4  10  20  35  60  87 113 151 201 250 297 351
#     4  10  19  35  60  89 121 155 189 233 291 349
#     4  11  24  42  64  90 123 160 198 241 291 350
#     4  10  22  38  52  76 118 155 190 241 302 353
#     4   9  16  29  53  85 114 141 184 239 286 338
#     4  10  18  32  56  84 112 149 198 239 282 353
#
# _framework density 19.938092000000001
#
# number of rings (size 3 to 8) (size 9 to 14) (size 15 to 20)
#    0.000    2.000    2.143    1.286    1.000    4.000 
#    0.000    2.857    0.000    0.000    0.000    0.000 
#    0.000    0.000    0.000    0.000    0.000    0.000 
#
# Total GULP energy -693790.070169 kJ/mol
# GULP energy per Si atom -12389.108396 kJ/mol
# Density = 1.989271 g / cm^3
# Si number density = 19.938092 Si / 1000 Ang^3
#
#
#
# Elastic Constant Matrix: (Units=GPa)
#
#
# Indices 1 2 3 4 5 6 
#
# 1 45.9056 34.7267 37.9959 0.0000 0.0000 0.0000
# 2 34.7267 136.4526 49.1568 0.0000 0.0000 0.0000
# 3 37.9959 49.1568 116.3059 0.0000 0.0000 0.0000
# 4 0.0000 0.0000 0.0000 19.9249 0.0000 0.0000
# 5 0.0000 0.0000 0.0000 0.0000 30.5727 0.0000
# 6 0.0000 0.0000 0.0000 0.0000 0.0000 28.3581
#
#
#
# Elastic Compliance Matrix: (Units=1/GPa)
#
#
# Indices 1 2 3 4 5 6 
#
# 1 0.032808 -0.005295 -0.008480 0.000000 0.000000 0.000000
# 2 -0.005295 0.009499 -0.002285 0.000000 0.000000 0.000000
# 3 -0.008480 -0.002285 0.012334 0.000000 0.000000 0.000000
# 4 0.000000 0.000000 0.000000 0.050189 0.000000 0.000000
# 5 0.000000 0.000000 0.000000 0.000000 0.032709 0.000000
# 6 0.000000 0.000000 0.000000 0.000000 0.000000 0.035263
#
#
# Mechanical properties :
#
#
# Convention : Reuss Voigt Hill
#
# Bulk Modulus (GPa) = 44.40185 60.26923 52.33554
# Shear Modulus (GPa) = 23.53717 27.55678 25.54698
#
# Velocity S-wave (km/s) = 3.43959 3.72172 3.58343
# Velocity P-wave (km/s) = 6.17192 6.98298 6.58994
#
# Compressibility (1/GPa) = 0.02252158
#
# Stress axis : x y z
#
# Youngs Moduli (GPa) = 30.48013 105.27161 81.07477
#
# Poissons Ratio (x) = 0.55737 0.68754
# Poissons Ratio (y) = 0.16138 0.18527
# Poissons Ratio (z) = 0.25848 0.24057
#
# Static dielectric constant tensor:
#      x y z
#    x 3.196100 0.000000 0.000000 
#    y 0.000000 4.240470 0.000000 
#    z 0.000000 0.000000 3.658760 
# 
# 
# High freq. dielectric constant tensor:
#      x y z
#    x 1.742890 0.000000 0.000000 
#    y 0.000000 1.797840 0.000000 
#    z 0.000000 0.000000 1.777260 
# 
# From -- ./inp_files/29253.got.cif
#   From: 2010.03.12/outbox.cif.g09.slc.cpg/sg59_15_cif.got.tgz:29253.got - 2010.04.16 16:29:54.
