data_PCOD8240752
_publ_section_title
;
Structure prediction by ZEFSAII (Michael W. Deem and Ramdas Pophale) SiO2 
 PCOD8240752
Probable space group: P M M N
;
_chemical_formula_sum "Si O2"
_cell_formula_units_Z 64
_cell_length_a 30.433689
_cell_length_b 9.113826
_cell_length_c 14.264525
_cell_angle_alpha 90.000000
_cell_angle_beta 90.000000
_cell_angle_gamma 90.000000
_cell_volume 3956.513442
_symmetry_space_group_name_H-M "P M M N"
_symmetry_group_IT_number 59
_space_group.IT_coordinate_system_code '2'
_symmetry_cell_setting 'orthorhombic'
loop_
_space_group_symop_operation_xyz
x,y,z
1/2-x,1/2-y,z
1/2+x,-y,-z
-x,1/2+y,-z
-x,-y,-z
1/2+x,1/2+y,-z
1/2-x,y,z
x,1/2-y,z
loop_
_atom_site_type_symbol
_atom_site_label
_atom_site_fract_x
_atom_site_fract_y
_atom_site_fract_z
Si Si1 0.389679 0.081174 0.576946
Si Si2 0.123353 0.584539 0.927001
Si Si3 0.536447 0.579547 0.563640
Si Si4 0.202421 0.423198 0.641740
Si Si5 0.299943 0.418901 0.852441
Si Si6 0.958001 0.079888 0.957520
Si Si7 0.931347 0.416266 0.254813
Si Si8 0.018295 0.580366 0.248109
O O1 0.393312 0.250000 0.611917
O O2 0.414280 0.061978 0.477935
O O3 0.337989 0.033733 0.572484
O O4 0.414318 0.974242 0.646884
O O5 0.133441 0.750000 0.958025
O O6 0.169032 0.497196 0.928891
O O7 0.106751 0.575000 0.820763
O O8 0.086732 0.515966 0.996631
O O9 0.500000 0.500000 0.500000
O O10 0.523244 0.750000 0.570366
O O11 0.539123 0.509655 0.666419
O O12 0.250000 0.485051 0.605172
O O13 0.206680 0.250000 0.649094
O O14 0.193386 0.483084 0.747004
O O15 0.250000 0.443735 0.885223
O O16 0.313170 0.250000 0.853316
O O17 0.963110 0.250000 0.986059
O O18 0.952832 0.060435 0.845655
O O19 0.000000 0.000000 0.000000
O O20 0.948271 0.250000 0.268139
O O21 0.970790 0.518749 0.221057
O O22 0.014470 0.750000 0.277844
#
# Coordination Sequence:
#
# PCOD8240752 Si02
#       8
#     8   8   8   8   8   8   8   8
#     4  10  19  31  48  69  94 127 164 195 232 283
#     4  10  20  32  46  70  99 128 161 199 244 288
#     4  11  22  33  48  71  98 127 164 203 238 285
#     4   8  14  26  45  68  93 120 152 190 229 276
#     4   9  17  29  47  71  97 127 161 194 233 287
#     4  10  21  35  50  70  95 126 166 204 243 292
#     4  11  20  29  46  69  98 129 159 198 238 280
#     4  11  22  35  50  67  93 130 167 203 241 284
#
# _framework density 16.175858000000002
#
# number of rings (size 3 to 8) (size 9 to 14) (size 15 to 20)
#    0.000    2.000    3.750    1.875    0.000    2.250 
#    0.000    0.000    0.000    0.375    0.000    0.875 
#    0.000    3.000    0.000    0.000    0.000    0.000 
#
# Total GULP energy -793257.166312 kJ/mol
# GULP energy per Si atom -12394.643224 kJ/mol
# Density = 1.613904 g / cm^3
# Si number density = 16.175858 Si / 1000 Ang^3
#
#
#
# Elastic Constant Matrix: (Units=GPa)
#
#
# Indices 1 2 3 4 5 6 
#
# 1 118.7824 38.9857 38.6034 0.0000 0.0000 0.0000
# 2 38.9857 71.7971 35.6494 0.0000 0.0000 0.0000
# 3 38.6034 35.6494 69.2518 0.0000 0.0000 0.0000
# 4 0.0000 0.0000 0.0000 21.3256 0.0000 0.0000
# 5 0.0000 0.0000 0.0000 0.0000 27.0578 0.0000
# 6 0.0000 0.0000 0.0000 0.0000 0.0000 22.4957
#
#
#
# Elastic Compliance Matrix: (Units=1/GPa)
#
#
# Indices 1 2 3 4 5 6 
#
# 1 0.011059 -0.003955 -0.004129 0.000000 0.000000 0.000000
# 2 -0.003955 0.020125 -0.008155 0.000000 0.000000 0.000000
# 3 -0.004129 -0.008155 0.020940 0.000000 0.000000 0.000000
# 4 0.000000 0.000000 0.000000 0.046892 0.000000 0.000000
# 5 0.000000 0.000000 0.000000 0.000000 0.036958 0.000000
# 6 0.000000 0.000000 0.000000 0.000000 0.000000 0.044453
#
#
# Mechanical properties :
#
#
# Convention : Reuss Voigt Hill
#
# Bulk Modulus (GPa) = 50.90175 54.03427 52.46801
# Shear Modulus (GPa) = 22.78401 23.94867 23.36634
#
# Velocity S-wave (km/s) = 3.75710 3.85193 3.80481
# Velocity P-wave (km/s) = 7.09627 7.29794 7.19781
#
# Compressibility (1/GPa) = 0.01964569
#
# Stress axis : x y z
#
# Youngs Moduli (GPa) = 90.42798 49.68943 47.75622
#
# Poissons Ratio (x) = 0.19651 0.19716
# Poissons Ratio (y) = 0.35763 0.38947
# Poissons Ratio (z) = 0.37334 0.40524
#
# Static dielectric constant tensor:
#      x y z
#    x 3.459550 0.000000 0.000000 
#    y 0.000000 3.060350 0.000000 
#    z 0.000000 0.000000 2.918960 
# 
# 
# High freq. dielectric constant tensor:
#      x y z
#    x 1.618340 0.000000 0.000000 
#    y 0.000000 1.618190 0.000000 
#    z 0.000000 0.000000 1.592400 
# 
# From -- ./inp_files/25054.got.cif
#   From: 2010.03.12/outbox.cif.g09.slc.cpg/sg59_13_cif.got.tgz:25054.got - 2010.04.16 16:29:54.
