data_PCOD8240808
_publ_section_title
;
Structure prediction by ZEFSAII (Michael W. Deem and Ramdas Pophale) SiO2 
 PCOD8240808
Probable space group: P M M N
;
_chemical_formula_sum "Si O2"
_cell_formula_units_Z 64
_cell_length_a 9.330983
_cell_length_b 14.349210
_cell_length_c 28.231528
_cell_angle_alpha 90.000000
_cell_angle_beta 90.000000
_cell_angle_gamma 90.000000
_cell_volume 3779.982369
_symmetry_space_group_name_H-M "P M M N"
_symmetry_group_IT_number 59
_space_group.IT_coordinate_system_code '2'
_symmetry_cell_setting 'orthorhombic'
loop_
_space_group_symop_operation_xyz
x,y,z
1/2-x,1/2-y,z
1/2+x,-y,-z
-x,1/2+y,-z
-x,-y,-z
1/2+x,1/2+y,-z
1/2-x,y,z
x,1/2-y,z
loop_
_atom_site_type_symbol
_atom_site_label
_atom_site_fract_x
_atom_site_fract_y
_atom_site_fract_z
Si Si1 0.415908 0.857685 0.706957
Si Si2 0.083150 0.145988 0.568978
Si Si3 0.917640 0.462505 0.384254
Si Si4 0.581703 0.642749 0.802004
Si Si5 0.585037 0.357391 0.023462
Si Si6 0.083803 0.962721 0.882248
Si Si7 0.914605 0.141458 0.475838
Si Si8 0.915533 0.854305 0.068673
O O1 0.250000 0.881041 0.718104
O O2 0.433489 0.750000 0.692405
O O3 0.509644 0.882969 0.752362
O O4 0.480712 0.920673 0.664337
O O5 0.250000 0.144192 0.556306
O O6 0.034337 0.250000 0.584784
O O7 0.049615 0.073398 0.611533
O O8 0.001783 0.111831 0.522237
O O9 0.750000 0.440363 0.383152
O O10 0.981405 0.411578 0.430586
O O11 0.750000 0.624173 0.798138
O O12 0.548702 0.750000 0.815609
O O13 0.515594 0.574696 0.840812
O O14 0.750000 0.376312 0.011937
O O15 0.553992 0.250000 0.034880
O O16 0.535126 0.414833 0.069012
O O17 0.497668 0.390273 0.977684
O O18 0.250000 0.940103 0.870771
O O19 0.057512 0.073991 0.888062
O O20 0.750000 0.113110 0.484527
O O21 0.931451 0.250000 0.465484
O O22 0.750000 0.854734 0.054456
O O23 0.965550 0.750000 0.083998
#
# Coordination Sequence:
#
# PCOD8240808 Si02
#       8
#     8   8   8   8   8   8   8   8
#     4   9  17  31  51  70  87 111 144 181 223 271
#     4   9  17  28  41  60  89 121 149 178 213 254
#     4   9  16  27  45  66  86 112 148 184 216 256
#     4  10  21  35  50  71  97 119 142 181 233 282
#     4   9  17  28  43  66  95 125 158 193 227 267
#     4  10  19  31  49  70  93 125 161 192 224 268
#     4   9  16  26  41  62  88 116 147 182 216 252
#     4   9  18  31  46  67  96 127 159 195 230 262
#
# _framework density 16.931294999999999
#
# number of rings (size 3 to 8) (size 9 to 14) (size 15 to 20)
#    0.000    2.750    0.000    1.875    0.000    3.750 
#    0.000    2.500    0.000    3.750    0.000    3.500 
#    0.000    0.000    0.000    0.000    0.000    0.000 
#
# Total GULP energy -793477.693185 kJ/mol
# GULP energy per Si atom -12398.088956 kJ/mol
# Density = 1.689276 g / cm^3
# Si number density = 16.931295 Si / 1000 Ang^3
#
#
#
# Elastic Constant Matrix: (Units=GPa)
#
#
# Indices 1 2 3 4 5 6 
#
# 1 55.1299 37.4685 52.8609 0.0000 0.0000 0.0000
# 2 37.4685 91.6411 74.2244 0.0000 0.0000 0.0000
# 3 52.8609 74.2244 118.1249 0.0000 0.0000 0.0000
# 4 0.0000 0.0000 0.0000 29.3390 0.0000 0.0000
# 5 0.0000 0.0000 0.0000 0.0000 24.5026 0.0000
# 6 0.0000 0.0000 0.0000 0.0000 0.0000 17.8679
#
#
#
# Elastic Compliance Matrix: (Units=1/GPa)
#
#
# Indices 1 2 3 4 5 6 
#
# 1 0.032183 -0.003042 -0.012491 0.000000 0.000000 0.000000
# 2 -0.003042 0.022509 -0.012782 0.000000 0.000000 0.000000
# 3 -0.012491 -0.012782 0.022087 0.000000 0.000000 0.000000
# 4 0.000000 0.000000 0.000000 0.034084 0.000000 0.000000
# 5 0.000000 0.000000 0.000000 0.000000 0.040812 0.000000
# 6 0.000000 0.000000 0.000000 0.000000 0.000000 0.055966
#
#
# Mechanical properties :
#
#
# Convention : Reuss Voigt Hill
#
# Bulk Modulus (GPa) = 49.62926 66.00038 57.81482
# Shear Modulus (GPa) = 18.45111 21.03139 19.74125
#
# Velocity S-wave (km/s) = 3.30474 3.52825 3.41832
# Velocity P-wave (km/s) = 6.62854 7.46083 7.05697
#
# Compressibility (1/GPa) = 0.02014940
#
# Stress axis : x y z
#
# Youngs Moduli (GPa) = 31.07272 44.42713 45.27542
#
# Poissons Ratio (x) = 0.13513 0.56551
# Poissons Ratio (y) = 0.09451 0.57873
# Poissons Ratio (z) = 0.38812 0.56789
#
# Static dielectric constant tensor:
#      x y z
#    x 3.064490 0.000000 0.000000 
#    y 0.000000 3.373760 0.000000 
#    z 0.000000 0.000000 3.071350 
# 
# 
# High freq. dielectric constant tensor:
#      x y z
#    x 1.637420 0.000000 0.000000 
#    y 0.000000 1.658570 0.000000 
#    z 0.000000 0.000000 1.631740 
# 
# From -- ./inp_files/33214.got.cif
#   From: 2010.03.12/outbox.cif.g09.slc.cpg/sg59_17_cif.got.tgz:33214.got - 2010.04.16 16:29:54.
