data_PCOD8240187
_publ_section_title
;
Structure prediction by ZEFSAII (Michael W. Deem and Ramdas Pophale) SiO2 
 PCOD8240187
Probable space group: P M M N
;
_chemical_formula_sum "Si O2"
_cell_formula_units_Z 48
_cell_length_a 16.131009
_cell_length_b 16.783115
_cell_length_c 9.184698
_cell_angle_alpha 90.000000
_cell_angle_beta 90.000000
_cell_angle_gamma 90.000000
_cell_volume 2486.560239
_symmetry_space_group_name_H-M "P M M N"
_symmetry_group_IT_number 59
_space_group.IT_coordinate_system_code '2'
_symmetry_cell_setting 'orthorhombic'
loop_
_space_group_symop_operation_xyz
x,y,z
1/2-x,1/2-y,z
1/2+x,-y,-z
-x,1/2+y,-z
-x,-y,-z
1/2+x,1/2+y,-z
1/2-x,y,z
x,1/2-y,z
loop_
_atom_site_type_symbol
_atom_site_label
_atom_site_fract_x
_atom_site_fract_y
_atom_site_fract_z
Si Si1 0.070904 0.345009 0.698302
Si Si2 0.586146 0.399469 0.528185
Si Si3 0.993420 0.407610 0.968487
Si Si4 0.017658 0.158707 0.281409
Si Si5 0.157497 0.659699 0.196694
Si Si6 0.845157 0.573994 0.538903
O O1 0.057011 0.250000 0.691001
O O2 0.152658 0.371495 0.609002
O O3 0.000254 0.395096 0.614896
O O4 0.068282 0.375500 0.864960
O O5 0.566819 0.361474 0.370526
O O6 0.651925 0.351894 0.627978
O O7 0.619605 0.487447 0.501700
O O8 0.997990 0.357226 0.114427
O O9 0.904983 0.396315 0.890496
O O10 0.000000 0.500000 0.000000
O O11 0.040523 0.250000 0.306182
O O12 0.098525 0.109558 0.331756
O O13 0.250000 0.638530 0.145712
O O14 0.134244 0.750000 0.158684
O O15 0.750000 0.569760 0.592231
#
# Coordination Sequence:
#
# PCOD8240187 Si02
#       6
#     8   8   8   8   8   8
#     4  10  20  37  59  79 106 147 190 223 262 331
#     4  10  18  34  56  82 108 138 181 222 267 326
#     4  11  21  37  58  82 113 147 186 226 272 333
#     4  11  21  35  58  84 111 143 183 232 279 324
#     4  10  20  36  58  82 111 147 184 224 273 331
#     4  11  22  36  56  82 113 147 184 231 280 322
#
# _framework density 19.303775999999999
#
# number of rings (size 3 to 8) (size 9 to 14) (size 15 to 20)
#    0.000    1.500    0.000   11.000    0.000    1.333 
#    0.000    5.000    0.000    6.000    0.000    0.000 
#    0.000    0.000    0.000    0.000    0.000    0.000 
#
# Total GULP energy -594920.465748 kJ/mol
# GULP energy per Si atom -12394.176370 kJ/mol
# Density = 1.925984 g / cm^3
# Si number density = 19.303776 Si / 1000 Ang^3
#
#
#
# Elastic Constant Matrix: (Units=GPa)
#
#
# Indices 1 2 3 4 5 6 
#
# 1 75.5976 52.3960 24.3220 0.0000 0.0000 0.0000
# 2 52.3960 84.3610 22.1466 0.0000 0.0000 0.0000
# 3 24.3220 22.1466 118.0626 0.0000 0.0000 0.0000
# 4 0.0000 0.0000 0.0000 36.2977 0.0000 0.0000
# 5 0.0000 0.0000 0.0000 0.0000 19.4966 0.0000
# 6 0.0000 0.0000 0.0000 0.0000 0.0000 24.5051
#
#
#
# Elastic Compliance Matrix: (Units=1/GPa)
#
#
# Indices 1 2 3 4 5 6 
#
# 1 0.023775 -0.014179 -0.002238 0.000000 0.000000 0.000000
# 2 -0.014179 0.020924 -0.001004 0.000000 0.000000 0.000000
# 3 -0.002238 -0.001004 0.009119 0.000000 0.000000 0.000000
# 4 0.000000 0.000000 0.000000 0.027550 0.000000 0.000000
# 5 0.000000 0.000000 0.000000 0.000000 0.051291 0.000000
# 6 0.000000 0.000000 0.000000 0.000000 0.000000 0.040808
#
#
# Mechanical properties :
#
#
# Convention : Reuss Voigt Hill
#
# Bulk Modulus (GPa) = 52.69736 52.86115 52.77926
# Shear Modulus (GPa) = 23.29528 28.00366 25.64947
#
# Velocity S-wave (km/s) = 3.47763 3.81292 3.64913
# Velocity P-wave (km/s) = 6.59420 6.84308 6.71979
#
# Compressibility (1/GPa) = 0.01897628
#
# Stress axis : x y z
#
# Youngs Moduli (GPa) = 42.06013 47.79205 109.65526
#
# Poissons Ratio (x) = 0.67765 0.24543
# Poissons Ratio (y) = 0.59638 0.11009
# Poissons Ratio (z) = 0.09414 0.04798
#
# Static dielectric constant tensor:
#      x y z
#    x 3.568090 0.000000 0.000000 
#    y 0.000000 3.773440 0.000000 
#    z 0.000000 0.000000 3.883690 
# 
# 
# High freq. dielectric constant tensor:
#      x y z
#    x 1.726950 0.000000 0.000000 
#    y 0.000000 1.767690 0.000000 
#    z 0.000000 0.000000 1.751670 
# 
# From -- ./inp_files/10253.got.cif
#   From: 2010.03.12/outbox.cif.g09.slc.cpg/sg59_6_cif.got.tgz:10253.got - 2010.04.16 16:29:54.
