data_PCOD8240102
_publ_section_title
;
Structure prediction by ZEFSAII (Michael W. Deem and Ramdas Pophale) SiO2 
 PCOD8240102
Probable space group: P M M N
;
_chemical_formula_sum "Si O2"
_cell_formula_units_Z 48
_cell_length_a 9.988038
_cell_length_b 19.731135
_cell_length_c 13.752867
_cell_angle_alpha 90.000000
_cell_angle_beta 90.000000
_cell_angle_gamma 90.000000
_cell_volume 2710.350750
_symmetry_space_group_name_H-M "P M M N"
_symmetry_group_IT_number 59
_space_group.IT_coordinate_system_code '2'
_symmetry_cell_setting 'orthorhombic'
loop_
_space_group_symop_operation_xyz
x,y,z
1/2-x,1/2-y,z
1/2+x,-y,-z
-x,1/2+y,-z
-x,-y,-z
1/2+x,1/2+y,-z
1/2-x,y,z
x,1/2-y,z
loop_
_atom_site_type_symbol
_atom_site_label
_atom_site_fract_x
_atom_site_fract_y
_atom_site_fract_z
Si Si1 0.405309 0.061391 0.527519
Si Si2 0.750000 0.070495 0.848612
Si Si3 0.250000 0.625700 0.940493
Si Si4 0.018322 0.326521 0.145647
Si Si5 0.096408 0.101862 0.323843
Si Si6 0.250000 0.080366 0.068961
Si Si7 0.502918 0.047846 0.728454
Si Si8 0.250000 0.475663 0.860598
O O1 0.250000 0.037323 0.534617
O O2 0.419076 0.116652 0.439949
O O3 0.454925 0.089644 0.632214
O O4 0.500000 0.000000 0.500000
O O5 0.620336 0.088096 0.783551
O O6 0.750000 0.991642 0.877572
O O7 0.750000 0.117987 0.943109
O O8 0.376963 0.668703 0.907170
O O9 0.250000 0.553866 0.888183
O O10 0.072056 0.250000 0.136246
O O11 0.007250 0.346187 0.260472
O O12 0.117020 0.379338 0.095346
O O13 0.250000 0.111247 0.289760
O O14 0.053154 0.025407 0.303871
O O15 0.250000 0.071777 0.954041
O O16 0.380925 0.041141 0.801009
#
# Coordination Sequence:
#
# PCOD8240102 Si02
#       8
#     8   4   4   8   8   4   8   4
#     4   9  19  29  47  72 108 139 165 207 255 311
#     4  11  20  34  56  72 112 145 172 217 275 331
#     4  11  23  36  49  79 108 141 177 217 274 317
#     4  12  22  36  54  74 105 141 179 220 260 316
#     4  10  18  33  49  74 106 140 175 208 257 322
#     4  11  21  36  49  79 102 141 181 223 264 315
#     4  11  17  32  49  79 105 142 170 209 269 324
#     4  11  20  30  56  74 108 137 172 225 271 321
#
# _framework density 17.709883999999999
#
# number of rings (size 3 to 8) (size 9 to 14) (size 15 to 20)
#    0.000    1.333    5.833    1.500    1.167    2.667 
#    0.000    0.000    0.000    0.000    0.000    7.000 
#    0.000    0.000    0.000    0.000    0.000    0.000 
#
# Total GULP energy -594997.690008 kJ/mol
# GULP energy per Si atom -12395.785208 kJ/mol
# Density = 1.766958 g / cm^3
# Si number density = 17.709884 Si / 1000 Ang^3
#
#
#
# Elastic Constant Matrix: (Units=GPa)
#
#
# Indices 1 2 3 4 5 6 
#
# 1 103.8361 2.8959 51.1353 0.0000 0.0000 0.0000
# 2 2.8959 42.7780 24.5394 0.0000 0.0000 0.0000
# 3 51.1353 24.5394 154.0482 0.0000 0.0000 0.0000
# 4 0.0000 0.0000 0.0000 12.3427 0.0000 0.0000
# 5 0.0000 0.0000 0.0000 0.0000 33.2475 0.0000
# 6 0.0000 0.0000 0.0000 0.0000 0.0000 13.3232
#
#
#
# Elastic Compliance Matrix: (Units=1/GPa)
#
#
# Indices 1 2 3 4 5 6 
#
# 1 0.011607 0.001568 -0.004103 0.000000 0.000000 0.000000
# 2 0.001568 0.025939 -0.004652 0.000000 0.000000 0.000000
# 3 -0.004103 -0.004652 0.008594 0.000000 0.000000 0.000000
# 4 0.000000 0.000000 0.000000 0.081019 0.000000 0.000000
# 5 0.000000 0.000000 0.000000 0.000000 0.030077 0.000000
# 6 0.000000 0.000000 0.000000 0.000000 0.000000 0.075057
#
#
# Mechanical properties :
#
#
# Convention : Reuss Voigt Hill
#
# Bulk Modulus (GPa) = 31.48005 50.86704 41.17354
# Shear Modulus (GPa) = 19.43573 26.58879 23.01226
#
# Velocity S-wave (km/s) = 3.31637 3.87893 3.60863
# Velocity P-wave (km/s) = 5.69899 6.98901 6.37670
#
# Compressibility (1/GPa) = 0.03176615
#
# Stress axis : x y z
#
# Youngs Moduli (GPa) = 86.15299 38.55163 116.35411
#
# Poissons Ratio (x) = -0.06044 0.47736
# Poissons Ratio (y) = -0.13506 0.54133
# Poissons Ratio (z) = 0.35346 0.17936
#
# Static dielectric constant tensor:
#      x y z
#    x 3.158760 0.000000 0.000000 
#    y 0.000000 2.783280 0.000000 
#    z 0.000000 0.000000 4.087310 
# 
# 
# High freq. dielectric constant tensor:
#      x y z
#    x 1.701480 0.000000 0.000000 
#    y 0.000000 1.617350 0.000000 
#    z 0.000000 0.000000 1.711260 
# 
# From -- ./inp_files/20628.got.cif
#   From: 2010.03.12/outbox.cif.g09.slc.cpg/sg59_11_cif.got.tgz:20628.got - 2010.04.16 16:29:54.
