data_PCOD8240744
_publ_section_title
;
Structure prediction by ZEFSAII (Michael W. Deem and Ramdas Pophale) SiO2 
 PCOD8240744
Probable space group: P M M N
;
_chemical_formula_sum "Si O2"
_cell_formula_units_Z 40
_cell_length_a 9.358379
_cell_length_b 21.045364
_cell_length_c 11.605762
_cell_angle_alpha 90.000000
_cell_angle_beta 90.000000
_cell_angle_gamma 90.000000
_cell_volume 2285.760542
_symmetry_space_group_name_H-M "P M M N"
_symmetry_group_IT_number 59
_space_group.IT_coordinate_system_code '2'
_symmetry_cell_setting 'orthorhombic'
loop_
_space_group_symop_operation_xyz
x,y,z
1/2-x,1/2-y,z
1/2+x,-y,-z
-x,1/2+y,-z
-x,-y,-z
1/2+x,1/2+y,-z
1/2-x,y,z
x,1/2-y,z
loop_
_atom_site_type_symbol
_atom_site_label
_atom_site_fract_x
_atom_site_fract_y
_atom_site_fract_z
Si Si1 0.414530 0.407046 0.537436
Si Si2 0.086082 0.539047 0.661292
Si Si3 0.408081 0.824016 0.300951
Si Si4 0.919140 0.447800 0.074870
Si Si5 0.919491 0.320228 0.955620
O O1 0.250000 0.392560 0.514216
O O2 0.489833 0.413656 0.413703
O O3 0.438358 0.468047 0.617357
O O4 0.483334 0.348739 0.604033
O O5 0.250000 0.560429 0.647948
O O6 0.036261 0.542557 0.793077
O O7 0.250000 0.855477 0.315249
O O8 0.393379 0.750000 0.320862
O O9 0.471140 0.837746 0.173470
O O10 0.750000 0.456414 0.055859
O O11 0.970563 0.376592 0.039983
O O12 0.000000 0.500000 0.000000
O O13 0.750000 0.315755 0.953892
O O14 0.979459 0.250000 0.993223
#
# Coordination Sequence:
#
# PCOD8240744 Si02
#       5
#     8   8   8   8   8
#     4  10  19  31  48  68  93 125 158 196 238 280
#     4   9  19  33  47  68  97 126 157 194 240 289
#     4   9  17  30  49  71  94 121 154 192 233 280
#     4  10  19  31  50  74  99 126 159 202 244 287
#     4   8  15  29  49  72  96 124 158 193 233 284
#
# _framework density 17.499645999999998
#
# number of rings (size 3 to 8) (size 9 to 14) (size 15 to 20)
#    0.000    2.800    0.000    3.000    0.000    2.000 
#    0.000    1.000    0.000    5.400    0.000    0.000 
#    0.000    0.000    0.000    0.000    0.000    0.000 
#
# Total GULP energy -495891.744293 kJ/mol
# GULP energy per Si atom -12397.293607 kJ/mol
# Density = 1.745982 g / cm^3
# Si number density = 17.499646 Si / 1000 Ang^3
#
#
#
# Elastic Constant Matrix: (Units=GPa)
#
#
# Indices 1 2 3 4 5 6 
#
# 1 63.0154 32.1888 55.3200 0.0000 0.0000 0.0000
# 2 32.1888 72.8675 59.7376 0.0000 0.0000 0.0000
# 3 55.3200 59.7376 147.0998 0.0000 0.0000 0.0000
# 4 0.0000 0.0000 0.0000 29.1746 0.0000 0.0000
# 5 0.0000 0.0000 0.0000 0.0000 22.3369 0.0000
# 6 0.0000 0.0000 0.0000 0.0000 0.0000 24.9141
#
#
#
# Elastic Compliance Matrix: (Units=1/GPa)
#
#
# Indices 1 2 3 4 5 6 
#
# 1 0.024835 -0.004968 -0.007322 0.000000 0.000000 0.000000
# 2 -0.004968 0.021567 -0.006890 0.000000 0.000000 0.000000
# 3 -0.007322 -0.006890 0.012350 0.000000 0.000000 0.000000
# 4 0.000000 0.000000 0.000000 0.034276 0.000000 0.000000
# 5 0.000000 0.000000 0.000000 0.000000 0.044769 0.000000
# 6 0.000000 0.000000 0.000000 0.000000 0.000000 0.040138
#
#
# Mechanical properties :
#
#
# Convention : Reuss Voigt Hill
#
# Bulk Modulus (GPa) = 49.04086 64.16391 56.60238
# Shear Modulus (GPa) = 22.41235 24.33421 23.37328
#
# Velocity S-wave (km/s) = 3.58261 3.73306 3.65861
# Velocity P-wave (km/s) = 6.72296 7.43817 7.08959
#
# Compressibility (1/GPa) = 0.02039116
#
# Stress axis : x y z
#
# Youngs Moduli (GPa) = 40.26618 46.36819 80.97289
#
# Poissons Ratio (x) = 0.23035 0.59290
# Poissons Ratio (y) = 0.20003 0.55790
# Poissons Ratio (z) = 0.29484 0.31948
#
# Static dielectric constant tensor:
#      x y z
#    x 3.104130 0.000000 0.000000 
#    y 0.000000 3.350520 0.000000 
#    z 0.000000 0.000000 3.333380 
# 
# 
# High freq. dielectric constant tensor:
#      x y z
#    x 1.656130 0.000000 0.000000 
#    y 0.000000 1.669940 0.000000 
#    z 0.000000 0.000000 1.676110 
# 
# From -- ./inp_files/13864.got.cif
#   From: 2010.03.12/outbox.cif.g09.slc.cpg/sg59_7_cif.got.tgz:13864.got - 2010.04.16 16:29:54.
