data_PCOD8240254
_publ_section_title
;
Structure prediction by ZEFSAII (Michael W. Deem and Ramdas Pophale) SiO2 
 PCOD8240254
Probable space group: P M M N
;
_chemical_formula_sum "Si O2"
_cell_formula_units_Z 64
_cell_length_a 26.585824
_cell_length_b 9.220812
_cell_length_c 17.990180
_cell_angle_alpha 90.000000
_cell_angle_beta 90.000000
_cell_angle_gamma 90.000000
_cell_volume 4410.164626
_symmetry_space_group_name_H-M "P M M N"
_symmetry_group_IT_number 59
_space_group.IT_coordinate_system_code '2'
_symmetry_cell_setting 'orthorhombic'
loop_
_space_group_symop_operation_xyz
x,y,z
1/2-x,1/2-y,z
1/2+x,-y,-z
-x,1/2+y,-z
-x,-y,-z
1/2+x,1/2+y,-z
1/2-x,y,z
x,1/2-y,z
loop_
_atom_site_type_symbol
_atom_site_label
_atom_site_fract_x
_atom_site_fract_y
_atom_site_fract_z
Si Si1 0.004983 0.920831 0.172221
Si Si2 0.953507 0.082693 0.465409
Si Si3 0.603851 0.581767 0.576403
Si Si4 0.807050 0.920279 0.841264
Si Si5 0.194369 0.422442 0.325353
Si Si6 0.540632 0.418141 0.048398
Si Si7 0.007153 0.413470 0.321846
Si Si8 0.894507 0.084771 0.914713
O O1 0.995700 0.750000 0.166402
O O2 0.058401 0.966066 0.136121
O O3 0.003262 0.969441 0.257257
O O4 0.959452 0.003355 0.128768
O O5 0.955317 0.250000 0.489822
O O6 0.958398 0.068847 0.375917
O O7 0.903536 0.007706 0.499463
O O8 0.000000 0.000000 0.500000
O O9 0.609570 0.750000 0.555443
O O10 0.653677 0.518346 0.616140
O O11 0.557676 0.556412 0.632066
O O12 0.750000 0.959773 0.864460
O O13 0.815724 0.750000 0.844737
O O14 0.817861 0.978765 0.757797
O O15 0.845301 0.991732 0.898685
O O16 0.250000 0.475421 0.349763
O O17 0.192403 0.250000 0.323245
O O18 0.525824 0.250000 0.057722
O O19 0.500000 0.500000 0.000000
O O20 0.592936 0.432665 0.002817
O O21 0.008660 0.250000 0.289066
O O22 0.881947 0.250000 0.895333
#
# Coordination Sequence:
#
# PCOD8240254 Si02
#       8
#     8   8   8   8   8   8   8   8
#     4  10  19  28  40  60  82 105 135 166 198 237
#     4   9  17  28  40  55  77 104 133 165 200 237
#     4   9  16  26  41  59  78 105 139 168 199 237
#     4   9  17  28  42  59  78 104 138 170 197 227
#     4   8  14  25  40  58  80 105 135 169 199 229
#     4   9  17  29  42  57  79 105 134 165 197 235
#     4   9  17  27  39  56  78 106 136 164 198 238
#     4   9  18  29  40  57  80 106 133 161 197 236
#
# _framework density 14.51193
#
# number of rings (size 3 to 8) (size 9 to 14) (size 15 to 20)
#    0.000    3.000    0.000    4.125    0.000    6.750 
#    0.000    0.625    0.000    1.125    0.000    0.000 
#    0.000    1.000    0.000    7.500    0.000    3.875 
#
# Total GULP energy -793106.700969 kJ/mol
# GULP energy per Si atom -12392.292203 kJ/mol
# Density = 1.447890 g / cm^3
# Si number density = 14.511930 Si / 1000 Ang^3
#
#
#
# Elastic Constant Matrix: (Units=GPa)
#
#
# Indices 1 2 3 4 5 6 
#
# 1 77.6604 36.3822 42.6091 0.0000 0.0000 0.0000
# 2 36.3822 71.7293 41.0378 0.0000 0.0000 0.0000
# 3 42.6091 41.0378 68.9129 0.0000 0.0000 0.0000
# 4 0.0000 0.0000 0.0000 27.1723 0.0000 0.0000
# 5 0.0000 0.0000 0.0000 0.0000 25.0935 0.0000
# 6 0.0000 0.0000 0.0000 0.0000 0.0000 19.5879
#
#
#
# Elastic Compliance Matrix: (Units=1/GPa)
#
#
# Indices 1 2 3 4 5 6 
#
# 1 0.020512 -0.004775 -0.009839 0.000000 0.000000 0.000000
# 2 -0.004775 0.022257 -0.010302 0.000000 0.000000 0.000000
# 3 -0.009839 -0.010302 0.026729 0.000000 0.000000 0.000000
# 4 0.000000 0.000000 0.000000 0.036802 0.000000 0.000000
# 5 0.000000 0.000000 0.000000 0.000000 0.039851 0.000000
# 6 0.000000 0.000000 0.000000 0.000000 0.000000 0.051052
#
#
# Mechanical properties :
#
#
# Convention : Reuss Voigt Hill
#
# Bulk Modulus (GPa) = 50.84725 50.92898 50.88812
# Shear Modulus (GPa) = 19.71683 20.92230 20.31957
#
# Velocity S-wave (km/s) = 3.69000 3.80113 3.74598
# Velocity P-wave (km/s) = 7.29857 7.37805 7.33842
#
# Compressibility (1/GPa) = 0.01966675
#
# Stress axis : x y z
#
# Youngs Moduli (GPa) = 48.75251 44.92965 37.41191
#
# Poissons Ratio (x) = 0.21453 0.36810
# Poissons Ratio (y) = 0.23278 0.38541
# Poissons Ratio (z) = 0.47968 0.46286
#
# Static dielectric constant tensor:
#      x y z
#    x 2.879620 0.000000 0.000000 
#    y 0.000000 2.850180 0.000000 
#    z 0.000000 0.000000 3.153670 
# 
# 
# High freq. dielectric constant tensor:
#      x y z
#    x 1.521980 0.000000 0.000000 
#    y 0.000000 1.555120 0.000000 
#    z 0.000000 0.000000 1.541720 
# 
# From -- ./inp_files/26633.got.cif
#   From: 2010.03.12/outbox.cif.g09.slc.cpg/sg59_14_cif.got.tgz:26633.got - 2010.04.16 16:29:54.
