data_PCOD8240965
_publ_section_title
;
Structure prediction by ZEFSAII (Michael W. Deem and Ramdas Pophale) SiO2 
 PCOD8240965
Probable space group: P M M N
;
_chemical_formula_sum "Si O2"
_cell_formula_units_Z 40
_cell_length_a 8.935678
_cell_length_b 10.215742
_cell_length_c 24.377571
_cell_angle_alpha 90.000000
_cell_angle_beta 90.000000
_cell_angle_gamma 90.000000
_cell_volume 2225.296356
_symmetry_space_group_name_H-M "P M M N"
_symmetry_group_IT_number 59
_space_group.IT_coordinate_system_code '2'
_symmetry_cell_setting 'orthorhombic'
loop_
_space_group_symop_operation_xyz
x,y,z
1/2-x,1/2-y,z
1/2+x,-y,-z
-x,1/2+y,-z
-x,-y,-z
1/2+x,1/2+y,-z
1/2-x,y,z
x,1/2-y,z
loop_
_atom_site_type_symbol
_atom_site_label
_atom_site_fract_x
_atom_site_fract_y
_atom_site_fract_z
Si Si1 0.072772 0.484369 0.622376
Si Si2 0.915291 0.595138 0.162951
Si Si3 0.078858 0.905031 0.270040
Si Si4 0.571727 0.250000 0.557156
Si Si5 0.572489 0.601416 0.041244
Si Si6 0.426659 0.750000 0.566889
O O1 0.250000 0.464601 0.617608
O O2 0.016955 0.623090 0.599306
O O3 0.024500 0.476085 0.685538
O O4 0.989353 0.377093 0.586795
O O5 0.750000 0.534373 0.172842
O O6 0.901763 0.750000 0.165642
O O7 0.976438 0.557090 0.102638
O O8 0.027463 0.544805 0.210034
O O9 0.250000 0.946353 0.278812
O O10 0.057966 0.750000 0.276271
O O11 0.750000 0.250000 0.560891
O O12 0.510492 0.250000 0.494988
O O13 0.750000 0.595354 0.036050
O O14 0.517118 0.750000 0.028903
O O15 0.500000 0.500000 0.000000
O O16 0.250000 0.750000 0.563896
#
# Coordination Sequence:
#
# PCOD8240965 Si02
#       6
#     8   8   8   4   8   4
#     4  11  21  36  57  79 104 139 177 211 258 314
#     4   8  15  29  49  73 101 134 174 216 259 306
#     4  10  19  31  50  78 108 132 167 219 266 305
#     4  11  21  37  57  81 109 133 170 221 260 301
#     4   9  18  32  51  77 108 140 176 218 261 309
#     4   9  22  39  55  77 107 139 174 215 256 309
#
# _framework density 17.975135000000002
#
# number of rings (size 3 to 8) (size 9 to 14) (size 15 to 20)
#    0.000    2.400    1.000    3.300    0.000    2.000 
#    0.000    7.000    2.200    0.000    0.000    0.000 
#    0.000    0.000    0.000    0.000    0.000    0.000 
#
# Total GULP energy -495925.916339 kJ/mol
# GULP energy per Si atom -12398.147908 kJ/mol
# Density = 1.793422 g / cm^3
# Si number density = 17.975135 Si / 1000 Ang^3
#
#
#
# Elastic Constant Matrix: (Units=GPa)
#
#
# Indices 1 2 3 4 5 6 
#
# 1 73.2785 37.9728 51.3925 0.0000 0.0000 0.0000
# 2 37.9728 99.6652 66.0532 0.0000 0.0000 0.0000
# 3 51.3925 66.0532 163.5570 0.0000 0.0000 0.0000
# 4 0.0000 0.0000 0.0000 27.3565 0.0000 0.0000
# 5 0.0000 0.0000 0.0000 0.0000 30.9801 0.0000
# 6 0.0000 0.0000 0.0000 0.0000 0.0000 -24.0410
#
#
#
# Elastic Compliance Matrix: (Units=1/GPa)
#
#
# Indices 1 2 3 4 5 6 
#
# 1 0.018844 -0.004445 -0.004126 0.000000 0.000000 0.000000
# 2 -0.004445 0.014749 -0.004560 0.000000 0.000000 0.000000
# 3 -0.004126 -0.004560 0.009252 0.000000 0.000000 0.000000
# 4 0.000000 0.000000 0.000000 0.036554 0.000000 0.000000
# 5 0.000000 0.000000 0.000000 0.000000 0.032279 0.000000
# 6 0.000000 0.000000 0.000000 0.000000 0.000000 -0.041596
#
#
# Mechanical properties :
#
#
# Convention : Reuss Voigt Hill
#
# Bulk Modulus (GPa) = 60.30149 71.92640 66.11395
# Shear Modulus (GPa) = 49.08146 18.93127 34.00637
#
# Velocity S-wave (km/s) = 5.23111 3.24881 4.35427
# Velocity P-wave (km/s) = 8.37293 7.36032 7.88290
#
# Compressibility (1/GPa) = 0.01658334
#
# Stress axis : x y z
#
# Youngs Moduli (GPa) = 53.06855 67.80026 108.08504
#
# Poissons Ratio (x) = 0.30138 0.44594
# Poissons Ratio (y) = 0.23589 0.49285
# Poissons Ratio (z) = 0.21895 0.30916
#
# Static dielectric constant tensor:
#      x y z
#    x 3.299590 0.000000 0.000000 
#    y 0.000000 2.946880 0.000000 
#    z 0.000000 0.000000 3.777150 
# 
# 
# High freq. dielectric constant tensor:
#      x y z
#    x 1.691900 0.000000 0.000000 
#    y 0.000000 1.662520 0.000000 
#    z 0.000000 0.000000 1.713670 
# 
# From -- ./inp_files/32413.got.cif
#   From: 2010.03.12/outbox.cif.g09.slc.cpg/sg59_17_cif.got.tgz:32413.got - 2010.04.16 16:29:54.
