data_PCOD8240880
_publ_section_title
;
Structure prediction by ZEFSAII (Michael W. Deem and Ramdas Pophale) SiO2 
 PCOD8240880
Probable space group: P M M N
;
_chemical_formula_sum "Si O2"
_cell_formula_units_Z 56
_cell_length_a 8.830081
_cell_length_b 19.387491
_cell_length_c 18.374106
_cell_angle_alpha 90.000000
_cell_angle_beta 90.000000
_cell_angle_gamma 90.000000
_cell_volume 3145.520458
_symmetry_space_group_name_H-M "P M M N"
_symmetry_group_IT_number 59
_space_group.IT_coordinate_system_code '2'
_symmetry_cell_setting 'orthorhombic'
loop_
_space_group_symop_operation_xyz
x,y,z
1/2-x,1/2-y,z
1/2+x,-y,-z
-x,1/2+y,-z
-x,-y,-z
1/2+x,1/2+y,-z
1/2-x,y,z
x,1/2-y,z
loop_
_atom_site_type_symbol
_atom_site_label
_atom_site_fract_x
_atom_site_fract_y
_atom_site_fract_z
Si Si1 0.431583 0.075109 0.494444
Si Si2 0.074891 0.170957 0.072757
Si Si3 0.424268 0.830710 0.076117
Si Si4 0.417246 0.415268 0.648247
Si Si5 0.071793 0.429789 0.202281
Si Si6 0.419115 0.920363 0.649349
Si Si7 0.930649 0.576434 0.195929
O O1 0.250000 0.071573 0.490097
O O2 0.485185 0.112677 0.570946
O O3 0.497689 0.111890 0.422210
O O4 0.500000 0.000000 0.500000
O O5 0.250000 0.160632 0.052243
O O6 0.039461 0.250000 0.092794
O O7 0.027143 0.125347 0.141181
O O8 0.976593 0.146469 0.003938
O O9 0.250000 0.851206 0.086356
O O10 0.452541 0.750000 0.087497
O O11 0.524527 0.869545 0.135103
O O12 0.250000 0.384250 0.653134
O O13 0.414003 0.497747 0.643435
O O14 0.497780 0.396501 0.725216
O O15 0.250000 0.440307 0.209514
O O16 0.009480 0.399530 0.278142
O O17 0.998152 0.501776 0.178125
O O18 0.250000 0.889567 0.653306
O O19 0.750000 0.568733 0.200383
#
# Coordination Sequence:
#
# PCOD8240880 Si02
#       7
#     8   8   8   8   8   8   8
#     4   9  14  22  37  58  87 122 158 195 236 279
#     4   9  19  36  55  73  94 123 160 199 240 289
#     4  10  21  36  53  73  96 123 159 200 239 284
#     4   7  13  24  38  59  87 119 153 189 228 272
#     4  10  19  31  49  73  99 126 158 199 245 287
#     4   9  16  26  39  60  92 126 159 193 233 283
#     4  10  19  32  50  72 100 130 159 195 240 289
#
# _framework density 17.803094000000002
#
# number of rings (size 3 to 8) (size 9 to 14) (size 15 to 20)
#    0.000    2.857    0.000    3.857    0.000    2.571 
#    0.000    2.143    0.000    0.000    0.000    1.000 
#    0.000    3.429    0.000    0.000    0.000    0.000 
#
# Total GULP energy -693741.983854 kJ/mol
# GULP energy per Si atom -12388.249712 kJ/mol
# Density = 1.776257 g / cm^3
# Si number density = 17.803094 Si / 1000 Ang^3
#
#
#
# Elastic Constant Matrix: (Units=GPa)
#
#
# Indices 1 2 3 4 5 6 
#
# 1 86.6022 25.6466 61.3219 0.0000 0.0000 0.0000
# 2 25.6466 35.6908 53.6254 0.0000 0.0000 0.0000
# 3 61.3219 53.6254 182.1396 0.0000 0.0000 0.0000
# 4 0.0000 0.0000 0.0000 -2.4699 0.0000 0.0000
# 5 0.0000 0.0000 0.0000 0.0000 31.2654 0.0000
# 6 0.0000 0.0000 0.0000 0.0000 0.0000 13.4921
#
#
#
# Elastic Compliance Matrix: (Units=1/GPa)
#
#
# Indices 1 2 3 4 5 6 
#
# 1 0.015858 -0.006049 -0.003558 0.000000 0.000000 0.000000
# 2 -0.006049 0.052553 -0.013436 0.000000 0.000000 0.000000
# 3 -0.003558 -0.013436 0.010644 0.000000 0.000000 0.000000
# 4 0.000000 0.000000 0.000000 -0.404872 0.000000 0.000000
# 5 0.000000 0.000000 0.000000 0.000000 0.031984 0.000000
# 6 0.000000 0.000000 0.000000 0.000000 0.000000 0.074117
#
#
# Mechanical properties :
#
#
# Convention : Reuss Voigt Hill
#
# Bulk Modulus (GPa) = 30.33217 65.06891 47.70054
# Shear Modulus (GPa) = -30.74279 19.38010 -5.68134
#
# Velocity S-wave (km/s) = -4.16001 3.30294 -1.78833
# Velocity P-wave (km/s) = 2.44943 7.15363 4.75262
#
# Compressibility (1/GPa) = 0.03296830
#
# Stress axis : x y z
#
# Youngs Moduli (GPa) = 63.06037 19.02849 93.95033
#
# Poissons Ratio (x) = 0.11511 0.33426
# Poissons Ratio (y) = 0.38147 1.26230
# Poissons Ratio (z) = 0.22436 0.25566
#
# Static dielectric constant tensor:
#      x y z
#    x 3.358610 0.000000 0.000000 
#    y 0.000000 2.766670 0.000000 
#    z 0.000000 0.000000 3.737130 
# 
# 
# High freq. dielectric constant tensor:
#      x y z
#    x 1.687930 0.000000 0.000000 
#    y 0.000000 1.623700 0.000000 
#    z 0.000000 0.000000 1.718990 
# 
# From -- ./inp_files/26066.got.cif
#   From: 2010.03.12/outbox.cif.g09.slc.cpg/sg59_14_cif.got.tgz:26066.got - 2010.04.16 16:29:54.
