data_PCOD8240031
_publ_section_title
;
Structure prediction by ZEFSAII (Michael W. Deem and Ramdas Pophale) SiO2 
 PCOD8240031
Probable space group: P M M N
;
_chemical_formula_sum "Si O2"
_cell_formula_units_Z 40
_cell_length_a 8.469704
_cell_length_b 26.410939
_cell_length_c 9.272599
_cell_angle_alpha 90.000000
_cell_angle_beta 90.000000
_cell_angle_gamma 90.000000
_cell_volume 2074.213965
_symmetry_space_group_name_H-M "P M M N"
_symmetry_group_IT_number 59
_space_group.IT_coordinate_system_code '2'
_symmetry_cell_setting 'orthorhombic'
loop_
_space_group_symop_operation_xyz
x,y,z
1/2-x,1/2-y,z
1/2+x,-y,-z
-x,1/2+y,-z
-x,-y,-z
1/2+x,1/2+y,-z
1/2-x,y,z
x,1/2-y,z
loop_
_atom_site_type_symbol
_atom_site_label
_atom_site_fract_x
_atom_site_fract_y
_atom_site_fract_z
Si Si1 0.062999 0.250000 0.163855
Si Si2 0.564149 0.653399 0.336288
Si Si3 0.934037 0.051313 0.642137
Si Si4 0.562575 0.750000 0.164168
Si Si5 0.429373 0.442797 0.332504
Si Si6 0.432766 0.841323 0.654313
O O1 0.250000 0.250000 0.175642
O O2 0.996140 0.200135 0.237179
O O3 0.003114 0.250000 0.999699
O O4 0.750000 0.648037 0.316570
O O5 0.480637 0.602489 0.272184
O O6 0.496414 0.700286 0.244523
O O7 0.524838 0.662676 0.503801
O O8 0.750000 0.053246 0.595989
O O9 0.047084 0.051578 0.503584
O O10 0.967088 0.999181 0.732771
O O11 0.750000 0.750000 0.172606
O O12 0.250000 0.427324 0.299305
O O13 0.538736 0.397109 0.273946
O O14 0.250000 0.832630 0.624339
#
# Coordination Sequence:
#
# PCOD8240031 Si02
#       6
#     4   8   8   4   8   8
#     4  11  22  39  56  70  96 133 170 209 254 300
#     4  10  18  32  54  78 103 134 170 206 250 300
#     4   9  16  26  43  72 105 132 163 204 248 293
#     4   9  21  37  54  74  96 129 172 211 248 300
#     4   9  16  27  45  70 101 136 167 199 245 295
#     4  11  21  33  51  79 107 131 166 208 249 295
#
# _framework density 19.284413000000001
#
# number of rings (size 3 to 8) (size 9 to 14) (size 15 to 20)
#    0.000    2.200    0.000    6.900    0.000    3.200 
#    0.000    5.500    0.000    1.200    0.000    0.000 
#    0.000    0.000    0.000    0.000    0.000    0.000 
#
# Total GULP energy -495674.468693 kJ/mol
# GULP energy per Si atom -12391.861717 kJ/mol
# Density = 1.924052 g / cm^3
# Si number density = 19.284413 Si / 1000 Ang^3
#
#
#
# Elastic Constant Matrix: (Units=GPa)
#
#
# Indices 1 2 3 4 5 6 
#
# 1 61.5417 36.4881 10.9309 0.0000 0.0000 0.0000
# 2 36.4881 215.1371 61.4338 0.0000 0.0000 0.0000
# 3 10.9309 61.4338 57.3079 0.0000 0.0000 0.0000
# 4 0.0000 0.0000 0.0000 0.2155 0.0000 0.0000
# 5 0.0000 0.0000 0.0000 0.0000 7.5588 0.0000
# 6 0.0000 0.0000 0.0000 0.0000 0.0000 36.0275
#
#
#
# Elastic Compliance Matrix: (Units=1/GPa)
#
#
# Indices 1 2 3 4 5 6 
#
# 1 0.018068 -0.002998 -0.000232 0.000000 0.000000 0.000000
# 2 -0.002998 0.007196 -0.007143 0.000000 0.000000 0.000000
# 3 -0.000232 -0.007143 0.025151 0.000000 0.000000 0.000000
# 4 0.000000 0.000000 0.000000 4.640198 0.000000 0.000000
# 5 0.000000 0.000000 0.000000 0.000000 0.132295 0.000000
# 6 0.000000 0.000000 0.000000 0.000000 0.000000 0.027757
#
#
# Mechanical properties :
#
#
# Convention : Reuss Voigt Hill
#
# Bulk Modulus (GPa) = 33.70522 61.29914 47.50218
# Shear Modulus (GPa) = 1.02432 23.76931 12.39681
#
# Velocity S-wave (km/s) = 0.72960 3.51460 2.53818
# Velocity P-wave (km/s) = 4.26915 6.95167 5.76851
#
# Compressibility (1/GPa) = 0.02966899
#
# Stress axis : x y z
#
# Youngs Moduli (GPa) = 55.34665 138.96085 39.76038
#
# Poissons Ratio (x) = 0.41661 0.00924
# Poissons Ratio (y) = 0.16593 0.28399
# Poissons Ratio (z) = 0.01286 0.99253
#
# Static dielectric constant tensor:
#      x y z
#    x 3.453830 0.000000 0.000000 
#    y 0.000000 4.493570 0.000000 
#    z 0.000000 0.000000 2.982460 
# 
# 
# High freq. dielectric constant tensor:
#      x y z
#    x 1.752700 0.000000 0.000000 
#    y 0.000000 1.789200 0.000000 
#    z 0.000000 0.000000 1.673770 
# 
# From -- ./inp_files/5897.got.cif
#   From: 2010.03.12/outbox.cif.g09.slc.cpg/sg59_3_cif.got.tgz:5897.got - 2010.04.16 16:29:54.
