data_PCOD8240609
_publ_section_title
;
Structure prediction by ZEFSAII (Michael W. Deem and Ramdas Pophale) SiO2 
 PCOD8240609
Probable space group: P M M N
;
_chemical_formula_sum "Si O2"
_cell_formula_units_Z 64
_cell_length_a 8.958943
_cell_length_b 24.114609
_cell_length_c 15.123057
_cell_angle_alpha 90.000000
_cell_angle_beta 90.000000
_cell_angle_gamma 90.000000
_cell_volume 3267.206520
_symmetry_space_group_name_H-M "P M M N"
_symmetry_group_IT_number 59
_space_group.IT_coordinate_system_code '2'
_symmetry_cell_setting 'orthorhombic'
loop_
_space_group_symop_operation_xyz
x,y,z
1/2-x,1/2-y,z
1/2+x,-y,-z
-x,1/2+y,-z
-x,-y,-z
1/2+x,1/2+y,-z
1/2-x,y,z
x,1/2-y,z
loop_
_atom_site_type_symbol
_atom_site_label
_atom_site_fract_x
_atom_site_fract_y
_atom_site_fract_z
Si Si1 0.921838 0.311088 0.417134
Si Si2 0.416537 0.496588 0.749002
Si Si3 0.421769 0.684715 0.874457
Si Si4 0.575695 0.685562 0.056293
Si Si5 0.572685 0.384224 0.790211
Si Si6 0.082084 0.856341 0.403362
Si Si7 0.072201 0.114745 0.275740
Si Si8 0.091222 0.042500 0.552489
O O1 0.750000 0.323178 0.391721
O O2 0.970098 0.250000 0.382398
O O3 0.935263 0.306521 0.525847
O O4 0.017758 0.359403 0.369556
O O5 0.250000 0.502859 0.793015
O O6 0.513700 0.447752 0.795154
O O7 0.503363 0.554760 0.747836
O O8 0.390763 0.477112 0.651022
O O9 0.250000 0.664979 0.868866
O O10 0.434895 0.750000 0.860367
O O11 0.520815 0.656527 0.799914
O O12 0.488612 0.667112 0.968689
O O13 0.750000 0.672516 0.044172
O O14 0.548025 0.750000 0.077369
O O15 0.509889 0.650232 0.135598
O O16 0.750000 0.384341 0.805906
O O17 0.528687 0.351039 0.698640
O O18 0.250000 0.878336 0.397083
O O19 0.987167 0.899806 0.456787
O O20 0.250000 0.109184 0.277426
O O21 0.250000 0.048445 0.505314
O O22 0.000000 0.000000 0.500000
#
# Coordination Sequence:
#
# PCOD8240609 Si02
#       8
#     8   8   8   8   8   8   8   8
#     4  10  21  37  55  77 109 150 194 237 283 337
#     4  10  21  37  55  77 109 149 191 232 279 337
#     4  10  21  39  63  88 113 145 187 233 282 338
#     4  10  21  38  61  89 119 150 185 227 277 334
#     4  10  20  36  59  87 118 151 190 236 285 335
#     4   9  19  34  52  75 105 142 183 226 271 322
#     4  12  24  37  56  83 114 148 188 235 288 341
#     4  10  19  30  48  72  99 134 177 225 272 320
#
# _framework density 19.588598999999999
#
# number of rings (size 3 to 8) (size 9 to 14) (size 15 to 20)
#    0.000    1.875    0.000    4.125    0.000    9.250 
#    0.000    1.875    0.000    0.000    0.000    0.000 
#    0.000    0.000    0.000    0.000    0.000    0.000 
#
# Total GULP energy -792910.083254 kJ/mol
# GULP energy per Si atom -12389.220051 kJ/mol
# Density = 1.954401 g / cm^3
# Si number density = 19.588599 Si / 1000 Ang^3
#
#
#
# Elastic Constant Matrix: (Units=GPa)
#
#
# Indices 1 2 3 4 5 6 
#
# 1 81.4807 41.0426 26.9010 0.0000 0.0000 0.0000
# 2 41.0426 70.3320 36.2550 0.0000 0.0000 0.0000
# 3 26.9010 36.2550 87.0338 0.0000 0.0000 0.0000
# 4 0.0000 0.0000 0.0000 30.3395 0.0000 0.0000
# 5 0.0000 0.0000 0.0000 0.0000 23.9634 0.0000
# 6 0.0000 0.0000 0.0000 0.0000 0.0000 36.6703
#
#
#
# Elastic Compliance Matrix: (Units=1/GPa)
#
#
# Indices 1 2 3 4 5 6 
#
# 1 0.017529 -0.009470 -0.001473 0.000000 0.000000 0.000000
# 2 -0.009470 0.023222 -0.006746 0.000000 0.000000 0.000000
# 3 -0.001473 -0.006746 0.014755 0.000000 0.000000 0.000000
# 4 0.000000 0.000000 0.000000 0.032960 0.000000 0.000000
# 5 0.000000 0.000000 0.000000 0.000000 0.041730 0.000000
# 6 0.000000 0.000000 0.000000 0.000000 0.000000 0.027270
#
#
# Mechanical properties :
#
#
# Convention : Reuss Voigt Hill
#
# Bulk Modulus (GPa) = 49.68272 49.69373 49.68822
# Shear Modulus (GPa) = 25.05562 27.17117 26.11340
#
# Velocity S-wave (km/s) = 3.58032 3.72841 3.65511
# Velocity P-wave (km/s) = 6.51995 6.63012 6.57526
#
# Compressibility (1/GPa) = 0.02012772
#
# Stress axis : x y z
#
# Youngs Moduli (GPa) = 57.04731 43.06233 67.77145
#
# Poissons Ratio (x) = 0.40779 0.09985
# Poissons Ratio (y) = 0.54023 0.45722
# Poissons Ratio (z) = 0.08405 0.29052
#
# Static dielectric constant tensor:
#      x y z
#    x 4.001910 0.000000 0.000000 
#    y 0.000000 3.573500 0.000000 
#    z 0.000000 0.000000 3.562760 
# 
# 
# High freq. dielectric constant tensor:
#      x y z
#    x 1.776930 0.000000 0.000000 
#    y 0.000000 1.758080 0.000000 
#    z 0.000000 0.000000 1.759300 
# 
# From -- ./inp_files/21496.got.cif
#   From: 2010.03.12/outbox.cif.g09.slc.cpg/sg59_11_cif.got.tgz:21496.got - 2010.04.16 16:29:54.
