data_PCOD8240639
_publ_section_title
;
Structure prediction by ZEFSAII (Michael W. Deem and Ramdas Pophale) SiO2 
 PCOD8240639
Probable space group: P M M N
;
_chemical_formula_sum "Si O2"
_cell_formula_units_Z 64
_cell_length_a 9.026974
_cell_length_b 23.860381
_cell_length_c 16.521729
_cell_angle_alpha 90.000000
_cell_angle_beta 90.000000
_cell_angle_gamma 90.000000
_cell_volume 3558.566287
_symmetry_space_group_name_H-M "P M M N"
_symmetry_group_IT_number 59
_space_group.IT_coordinate_system_code '2'
_symmetry_cell_setting 'orthorhombic'
loop_
_space_group_symop_operation_xyz
x,y,z
1/2-x,1/2-y,z
1/2+x,-y,-z
-x,1/2+y,-z
-x,-y,-z
1/2+x,1/2+y,-z
1/2-x,y,z
x,1/2-y,z
loop_
_atom_site_type_symbol
_atom_site_label
_atom_site_fract_x
_atom_site_fract_y
_atom_site_fract_z
Si Si1 0.915806 0.816337 0.092336
Si Si2 0.076987 0.905041 0.538187
Si Si3 0.575242 0.619871 0.786369
Si Si4 0.075409 0.525051 0.694001
Si Si5 0.423334 0.312545 0.372206
Si Si6 0.924713 0.315148 0.069638
Si Si7 0.578414 0.313600 0.747506
Si Si8 0.077661 0.581537 0.356881
O O1 0.750000 0.841336 0.084142
O O2 0.910128 0.750000 0.094080
O O3 0.988367 0.837213 0.175723
O O4 0.015911 0.835836 0.017180
O O5 0.250000 0.893455 0.539224
O O6 0.030528 0.950203 0.605958
O O7 0.025133 0.925026 0.449792
O O8 0.999103 0.846182 0.555603
O O9 0.750000 0.612652 0.798814
O O10 0.503597 0.559724 0.765568
O O11 0.534861 0.662069 0.714399
O O12 0.503846 0.645272 0.866157
O O13 0.250000 0.526662 0.708742
O O14 0.016498 0.461626 0.697136
O O15 0.250000 0.314300 0.387221
O O16 0.486628 0.250000 0.374107
O O17 0.750000 0.324490 0.073212
O O18 0.965888 0.250000 0.085674
O O19 0.750000 0.314603 0.771966
O O20 0.530721 0.250000 0.723367
O O21 0.545560 0.355061 0.672693
O O22 0.250000 0.566327 0.347510
#
# Coordination Sequence:
#
# PCOD8240639 Si02
#       8
#     8   8   8   8   8   8   8   8
#     4   9  17  30  49  73 101 132 165 200 240 289
#     4   9  19  33  49  71  97 128 168 211 251 293
#     4  10  19  32  50  71  99 134 171 209 247 291
#     4  10  20  34  51  72  99 130 167 210 254 296
#     4   9  18  31  46  67  98 134 167 201 246 296
#     4  10  19  30  48  76 107 136 167 203 243 289
#     4   9  18  33  52  74 101 130 160 199 247 296
#     4  10  20  34  53  75  97 126 166 207 249 298
#
# _framework density 17.984770000000001
#
# number of rings (size 3 to 8) (size 9 to 14) (size 15 to 20)
#    0.000    2.500    0.000    2.250    0.000    5.500 
#    0.000    1.250    0.000    2.250    0.000    0.000 
#    0.000    0.000    0.000    0.000    0.000    0.000 
#
# Total GULP energy -793633.621457 kJ/mol
# GULP energy per Si atom -12400.525335 kJ/mol
# Density = 1.794384 g / cm^3
# Si number density = 17.984770 Si / 1000 Ang^3
#
#
#
# Elastic Constant Matrix: (Units=GPa)
#
#
# Indices 1 2 3 4 5 6 
#
# 1 65.0419 28.7685 32.1848 0.0000 0.0000 0.0000
# 2 28.7685 84.0412 24.5752 0.0000 0.0000 0.0000
# 3 32.1848 24.5752 76.5835 0.0000 0.0000 0.0000
# 4 0.0000 0.0000 0.0000 19.8631 0.0000 0.0000
# 5 0.0000 0.0000 0.0000 0.0000 28.6037 0.0000
# 6 0.0000 0.0000 0.0000 0.0000 0.0000 28.7680
#
#
#
# Elastic Compliance Matrix: (Units=1/GPa)
#
#
# Indices 1 2 3 4 5 6 
#
# 1 0.021254 -0.005146 -0.007281 0.000000 0.000000 0.000000
# 2 -0.005146 0.014377 -0.002451 0.000000 0.000000 0.000000
# 3 -0.007281 -0.002451 0.016904 0.000000 0.000000 0.000000
# 4 0.000000 0.000000 0.000000 0.050345 0.000000 0.000000
# 5 0.000000 0.000000 0.000000 0.000000 0.034961 0.000000
# 6 0.000000 0.000000 0.000000 0.000000 0.000000 0.034761
#
#
# Mechanical properties :
#
#
# Convention : Reuss Voigt Hill
#
# Bulk Modulus (GPa) = 43.89966 44.08039 43.99002
# Shear Modulus (GPa) = 23.81526 24.78948 24.30237
#
# Velocity S-wave (km/s) = 3.64289 3.71665 3.67996
# Velocity P-wave (km/s) = 6.49281 6.55600 6.52448
#
# Compressibility (1/GPa) = 0.02277922
#
# Stress axis : x y z
#
# Youngs Moduli (GPa) = 47.05069 69.55418 59.15843
#
# Poissons Ratio (x) = 0.35796 0.43070
# Poissons Ratio (y) = 0.24214 0.14498
# Poissons Ratio (z) = 0.34255 0.17046
#
# Static dielectric constant tensor:
#      x y z
#    x 3.371010 0.000000 0.000000 
#    y 0.000000 3.260050 0.000000 
#    z 0.000000 0.000000 3.313750 
# 
# 
# High freq. dielectric constant tensor:
#      x y z
#    x 1.701650 0.000000 0.000000 
#    y 0.000000 1.678180 0.000000 
#    z 0.000000 0.000000 1.687490 
# 
# From -- ./inp_files/26334.got.cif
#   From: 2010.03.12/outbox.cif.g09.slc.cpg/sg59_14_cif.got.tgz:26334.got - 2010.04.16 16:29:54.
