data_PCOD8240309
_publ_section_title
;
Structure prediction by ZEFSAII (Michael W. Deem and Ramdas Pophale) SiO2 
 PCOD8240309
Probable space group: P M M N
;
_chemical_formula_sum "Si O2"
_cell_formula_units_Z 64
_cell_length_a 9.610572
_cell_length_b 22.548201
_cell_length_c 17.067853
_cell_angle_alpha 90.000000
_cell_angle_beta 90.000000
_cell_angle_gamma 90.000000
_cell_volume 3698.622676
_symmetry_space_group_name_H-M "P M M N"
_symmetry_group_IT_number 59
_space_group.IT_coordinate_system_code '2'
_symmetry_cell_setting 'orthorhombic'
loop_
_space_group_symop_operation_xyz
x,y,z
1/2-x,1/2-y,z
1/2+x,-y,-z
-x,1/2+y,-z
-x,-y,-z
1/2+x,1/2+y,-z
1/2-x,y,z
x,1/2-y,z
loop_
_atom_site_type_symbol
_atom_site_label
_atom_site_fract_x
_atom_site_fract_y
_atom_site_fract_z
Si Si1 0.587237 0.991231 0.422006
Si Si2 0.463810 0.496235 0.175008
Si Si3 0.415788 0.598510 0.067430
Si Si4 0.595741 0.419208 0.689829
Si Si5 0.099541 0.386211 0.080284
Si Si6 0.411752 0.183464 0.228714
Si Si7 0.586342 0.315395 0.798021
Si Si8 0.597753 0.415877 0.290632
O O1 0.750000 0.976644 0.438529
O O2 0.516565 0.936869 0.375296
O O3 0.500000 0.000000 0.500000
O O4 0.571416 0.051280 0.372552
O O5 0.500575 0.544036 0.107413
O O6 0.380548 0.531100 0.242777
O O7 0.376730 0.444528 0.133532
O O8 0.592157 0.463564 0.218753
O O9 0.250000 0.584751 0.064322
O O10 0.448278 0.657931 0.116448
O O11 0.474778 0.606858 0.980746
O O12 0.750000 0.409381 0.652589
O O13 0.534103 0.359185 0.729228
O O14 0.250000 0.374094 0.039427
O O15 0.059741 0.331991 0.137597
O O16 0.250000 0.177946 0.248743
O O17 0.466251 0.250000 0.244053
O O18 0.489402 0.137697 0.285564
O O19 0.750000 0.310069 0.788942
O O20 0.517073 0.250000 0.790507
O O21 0.750000 0.387304 0.288558
#
# Coordination Sequence:
#
# PCOD8240309 Si02
#       8
#     8   8   8   8   8   8   8   8
#     4  10  20  33  51  78 109 131 149 179 223 274
#     4   9  17  29  45  64  90 122 158 198 243 293
#     4  10  19  29  43  64  90 122 163 206 247 291
#     4   9  16  29  51  73  93 122 160 195 231 279
#     4  10  19  29  42  61  89 123 158 200 249 294
#     4   9  19  35  52  69  92 126 165 200 237 285
#     4   8  15  29  48  68  90 120 160 202 239 278
#     4   9  19  33  51  76  99 121 155 198 236 275
#
# _framework density 17.303737999999999
#
# number of rings (size 3 to 8) (size 9 to 14) (size 15 to 20)
#    0.000    2.750    0.000    2.625    0.000    7.250 
#    0.000    1.875    0.000    1.875    0.000    1.750 
#    0.000    0.000    0.000    0.000    0.000    0.000 
#
# Total GULP energy -792931.933098 kJ/mol
# GULP energy per Si atom -12389.561455 kJ/mol
# Density = 1.726435 g / cm^3
# Si number density = 17.303738 Si / 1000 Ang^3
#
#
#
# Elastic Constant Matrix: (Units=GPa)
#
#
# Indices 1 2 3 4 5 6 
#
# 1 81.2198 42.0155 52.3250 0.0000 0.0000 0.0000
# 2 42.0155 119.2983 42.2975 0.0000 0.0000 0.0000
# 3 52.3250 42.2975 89.9050 0.0000 0.0000 0.0000
# 4 0.0000 0.0000 0.0000 15.8091 0.0000 0.0000
# 5 0.0000 0.0000 0.0000 0.0000 19.8269 0.0000
# 6 0.0000 0.0000 0.0000 0.0000 0.0000 18.4777
#
#
#
# Elastic Compliance Matrix: (Units=1/GPa)
#
#
# Indices 1 2 3 4 5 6 
#
# 1 0.020955 -0.003668 -0.010470 0.000000 0.000000 0.000000
# 2 -0.003668 0.010702 -0.002900 0.000000 0.000000 0.000000
# 3 -0.010470 -0.002900 0.018581 0.000000 0.000000 0.000000
# 4 0.000000 0.000000 0.000000 0.063255 0.000000 0.000000
# 5 0.000000 0.000000 0.000000 0.000000 0.050436 0.000000
# 6 0.000000 0.000000 0.000000 0.000000 0.000000 0.054119
#
#
# Mechanical properties :
#
#
# Convention : Reuss Voigt Hill
#
# Bulk Modulus (GPa) = 61.87561 62.63323 62.25442
# Shear Modulus (GPa) = 19.41644 21.07508 20.24576
#
# Velocity S-wave (km/s) = 3.35340 3.49370 3.42427
# Velocity P-wave (km/s) = 7.12951 7.24910 7.18956
#
# Compressibility (1/GPa) = 0.01616146
#
# Stress axis : x y z
#
# Youngs Moduli (GPa) = 47.72118 93.43612 53.81785
#
# Poissons Ratio (x) = 0.34271 0.56349
# Poissons Ratio (y) = 0.17503 0.15610
# Poissons Ratio (z) = 0.49966 0.27101
#
# Static dielectric constant tensor:
#      x y z
#    x 3.021420 0.000000 0.000000 
#    y 0.000000 3.510340 0.000000 
#    z 0.000000 0.000000 3.055540 
# 
# 
# High freq. dielectric constant tensor:
#      x y z
#    x 1.652950 0.000000 0.000000 
#    y 0.000000 1.662800 0.000000 
#    z 0.000000 0.000000 1.648250 
# 
# From -- ./inp_files/26494.got.cif
#   From: 2010.03.12/outbox.cif.g09.slc.cpg/sg59_14_cif.got.tgz:26494.got - 2010.04.16 16:29:54.
