data_PCOD8240392
_publ_section_title
;
Structure prediction by ZEFSAII (Michael W. Deem and Ramdas Pophale) SiO2 
 PCOD8240392
Probable space group: P M M N
;
_chemical_formula_sum "Si O2"
_cell_formula_units_Z 56
_cell_length_a 19.980240
_cell_length_b 9.077526
_cell_length_c 17.766056
_cell_angle_alpha 90.000000
_cell_angle_beta 90.000000
_cell_angle_gamma 90.000000
_cell_volume 3222.249974
_symmetry_space_group_name_H-M "P M M N"
_symmetry_group_IT_number 59
_space_group.IT_coordinate_system_code '2'
_symmetry_cell_setting 'orthorhombic'
loop_
_space_group_symop_operation_xyz
x,y,z
1/2-x,1/2-y,z
1/2+x,-y,-z
-x,1/2+y,-z
-x,-y,-z
1/2+x,1/2+y,-z
1/2-x,y,z
x,1/2-y,z
loop_
_atom_site_type_symbol
_atom_site_label
_atom_site_fract_x
_atom_site_fract_y
_atom_site_fract_z
Si Si1 0.570472 0.921964 0.493497
Si Si2 0.558632 0.913413 0.331636
Si Si3 0.326925 0.419154 0.068654
Si Si4 0.065997 0.580343 0.971669
Si Si5 0.611895 0.074940 0.796036
Si Si6 0.972770 0.082160 0.193487
Si Si7 0.597970 0.086274 0.631598
O O1 0.559874 0.750000 0.506178
O O2 0.599254 0.953355 0.408899
O O3 0.500000 0.000000 0.500000
O O4 0.618154 0.983521 0.560448
O O5 0.578875 0.750000 0.304086
O O6 0.480865 0.916903 0.353080
O O7 0.572650 0.026755 0.263808
O O8 0.250000 0.429146 0.044442
O O9 0.351050 0.250000 0.074641
O O10 0.335319 0.497085 0.149458
O O11 0.369111 0.502048 0.005228
O O12 0.063887 0.750000 0.998332
O O13 0.071561 0.569656 0.881470
O O14 0.000000 0.500000 0.000000
O O15 0.612461 0.250000 0.807742
O O16 0.632282 0.033952 0.709874
O O17 0.538093 0.017848 0.816843
O O18 0.994968 0.250000 0.208643
O O19 0.621935 0.250000 0.610771
#
# Coordination Sequence:
#
# PCOD8240392 Si02
#       7
#     8   8   8   8   8   8   8
#     4   9  15  22  33  52  80 117 155 189 229 277
#     4   8  15  25  36  55  86 121 156 192 235 284
#     4  11  24  39  54  74 100 130 167 210 255 304
#     4  11  22  35  54  77 101 130 167 209 254 305
#     4  10  19  31  48  68  93 126 162 200 245 295
#     4  10  19  29  45  70  95 122 161 204 244 292
#     4   8  15  25  37  57  83 115 155 192 229 278
#
# _framework density 17.379159999999999
#
# number of rings (size 3 to 8) (size 9 to 14) (size 15 to 20)
#    0.000    2.429    1.429    3.857    0.000    9.143 
#    0.000    0.000    0.000    0.000    0.000    0.000 
#    0.000    1.143    0.000   12.571    0.000   11.286 
#
# Total GULP energy -693998.895725 kJ/mol
# GULP energy per Si atom -12392.837424 kJ/mol
# Density = 1.733960 g / cm^3
# Si number density = 17.379160 Si / 1000 Ang^3
#
#
#
# Elastic Constant Matrix: (Units=GPa)
#
#
# Indices 1 2 3 4 5 6 
#
# 1 38.9959 31.8079 30.0770 0.0000 0.0000 0.0000
# 2 31.8079 128.8969 73.2960 0.0000 0.0000 0.0000
# 3 30.0770 73.2960 134.8749 0.0000 0.0000 0.0000
# 4 0.0000 0.0000 0.0000 36.4987 0.0000 0.0000
# 5 0.0000 0.0000 0.0000 0.0000 13.1186 0.0000
# 6 0.0000 0.0000 0.0000 0.0000 0.0000 16.0136
#
#
#
# Elastic Compliance Matrix: (Units=1/GPa)
#
#
# Indices 1 2 3 4 5 6 
#
# 1 0.033779 -0.005865 -0.004346 0.000000 0.000000 0.000000
# 2 -0.005865 0.012246 -0.005347 0.000000 0.000000 0.000000
# 3 -0.004346 -0.005347 0.011289 0.000000 0.000000 0.000000
# 4 0.000000 0.000000 0.000000 0.027398 0.000000 0.000000
# 5 0.000000 0.000000 0.000000 0.000000 0.076228 0.000000
# 6 0.000000 0.000000 0.000000 0.000000 0.000000 0.062447
#
#
# Mechanical properties :
#
#
# Convention : Reuss Voigt Hill
#
# Bulk Modulus (GPa) = 38.16869 63.68106 50.92487
# Shear Modulus (GPa) = 18.99447 24.29863 21.64655
#
# Velocity S-wave (km/s) = 3.30956 3.74324 3.53306
# Velocity P-wave (km/s) = 6.05097 7.44340 6.78301
#
# Compressibility (1/GPa) = 0.02619948
#
# Stress axis : x y z
#
# Youngs Moduli (GPa) = 29.60417 81.66003 88.58041
#
# Poissons Ratio (x) = 0.47890 0.38494
# Poissons Ratio (y) = 0.17361 0.47365
# Poissons Ratio (z) = 0.12865 0.43664
#
# Static dielectric constant tensor:
#      x y z
#    x 2.610070 0.000000 0.000000 
#    y 0.000000 3.688120 0.000000 
#    z 0.000000 0.000000 4.258070 
# 
# 
# High freq. dielectric constant tensor:
#      x y z
#    x 1.586100 0.000000 0.000000 
#    y 0.000000 1.687160 0.000000 
#    z 0.000000 0.000000 1.695010 
# 
# From -- ./inp_files/30580.got.cif
#   From: 2010.03.12/outbox.cif.g09.slc.cpg/sg59_16_cif.got.tgz:30580.got - 2010.04.16 16:29:54.
