data_PCOD8240396
_publ_section_title
;
Structure prediction by ZEFSAII (Michael W. Deem and Ramdas Pophale) SiO2 
 PCOD8240396
Probable space group: P M M N
;
_chemical_formula_sum "Si O2"
_cell_formula_units_Z 64
_cell_length_a 23.448043
_cell_length_b 9.013645
_cell_length_c 18.891848
_cell_angle_alpha 90.000000
_cell_angle_beta 90.000000
_cell_angle_gamma 90.000000
_cell_volume 3992.836198
_symmetry_space_group_name_H-M "P M M N"
_symmetry_group_IT_number 59
_space_group.IT_coordinate_system_code '2'
_symmetry_cell_setting 'orthorhombic'
loop_
_space_group_symop_operation_xyz
x,y,z
1/2-x,1/2-y,z
1/2+x,-y,-z
-x,1/2+y,-z
-x,-y,-z
1/2+x,1/2+y,-z
1/2-x,y,z
x,1/2-y,z
loop_
_atom_site_type_symbol
_atom_site_label
_atom_site_fract_x
_atom_site_fract_y
_atom_site_fract_z
Si Si1 0.419427 0.421220 0.524930
Si Si2 0.184952 0.921305 0.885036
Si Si3 0.187325 0.075310 0.607812
Si Si4 0.984532 0.578206 0.611610
Si Si5 0.584165 0.078314 0.015561
Si Si6 0.474343 0.077152 0.106538
Si Si7 0.132464 0.425836 0.752002
Si Si8 0.997879 0.574245 0.246761
O O1 0.432199 0.250000 0.545851
O O2 0.353750 0.463025 0.541514
O O3 0.431511 0.448172 0.442004
O O4 0.458168 0.523905 0.573845
O O5 0.250000 0.953774 0.907177
O O6 0.175011 0.750000 0.865430
O O7 0.145159 0.965286 0.951360
O O8 0.169286 0.016205 0.816960
O O9 0.250000 0.004805 0.594550
O O10 0.193286 0.250000 0.616452
O O11 0.160396 0.010986 0.680131
O O12 0.991573 0.750000 0.631147
O O13 0.972125 0.486051 0.682340
O O14 0.580814 0.250000 0.993521
O O15 0.536004 0.040447 0.073500
O O16 0.575170 0.979951 0.945790
O O17 0.465543 0.250000 0.120177
O O18 0.468257 0.991530 0.180275
O O19 0.133657 0.250000 0.753904
O O20 0.067432 0.482414 0.755763
O O21 0.002397 0.750000 0.245492
#
# Coordination Sequence:
#
# PCOD8240396 Si02
#       8
#     8   8   8   8   8   8   8   8
#     4   9  17  31  46  66  92 121 156 193 232 276
#     4  10  20  33  48  67  95 129 161 193 228 270
#     4   9  16  28  46  66  90 122 159 194 226 265
#     4  10  19  29  46  67  92 122 154 193 236 280
#     4   9  18  32  47  67  94 124 156 191 231 276
#     4  10  19  31  49  70  93 121 155 194 236 279
#     4  10  19  30  45  65  93 127 162 194 222 266
#     4  11  20  31  48  69  95 125 156 192 235 282
#
# _framework density 16.028706
#
# number of rings (size 3 to 8) (size 9 to 14) (size 15 to 20)
#    0.000    2.250    2.500    1.500    0.000    2.750 
#    0.000    0.000    0.000    0.375    0.000    0.875 
#    0.000    3.000    0.000    0.000    0.000    0.000 
#
# Total GULP energy -793623.239496 kJ/mol
# GULP energy per Si atom -12400.363117 kJ/mol
# Density = 1.599222 g / cm^3
# Si number density = 16.028706 Si / 1000 Ang^3
#
#
#
# Elastic Constant Matrix: (Units=GPa)
#
#
# Indices 1 2 3 4 5 6 
#
# 1 90.6397 22.9094 57.3116 0.0000 0.0000 0.0000
# 2 22.9094 51.2792 44.8038 0.0000 0.0000 0.0000
# 3 57.3116 44.8038 120.8066 0.0000 0.0000 0.0000
# 4 0.0000 0.0000 0.0000 29.3813 0.0000 0.0000
# 5 0.0000 0.0000 0.0000 0.0000 23.9966 0.0000
# 6 0.0000 0.0000 0.0000 0.0000 0.0000 14.8182
#
#
#
# Elastic Compliance Matrix: (Units=1/GPa)
#
#
# Indices 1 2 3 4 5 6 
#
# 1 0.015780 -0.000753 -0.007207 0.000000 0.000000 0.000000
# 2 -0.000753 0.028885 -0.010356 0.000000 0.000000 0.000000
# 3 -0.007207 -0.010356 0.015537 0.000000 0.000000 0.000000
# 4 0.000000 0.000000 0.000000 0.034035 0.000000 0.000000
# 5 0.000000 0.000000 0.000000 0.000000 0.041673 0.000000
# 6 0.000000 0.000000 0.000000 0.000000 0.000000 0.067485
#
#
# Mechanical properties :
#
#
# Convention : Reuss Voigt Hill
#
# Bulk Modulus (GPa) = 42.42366 56.97500 49.69933
# Shear Modulus (GPa) = 20.17080 22.81927 21.49503
#
# Velocity S-wave (km/s) = 3.55127 3.77722 3.66599
# Velocity P-wave (km/s) = 6.58332 7.39229 6.99950
#
# Compressibility (1/GPa) = 0.02357175
#
# Stress axis : x y z
#
# Youngs Moduli (GPa) = 63.37166 34.61960 64.36144
#
# Poissons Ratio (x) = 0.02607 0.46384
# Poissons Ratio (y) = 0.04772 0.66650
# Poissons Ratio (z) = 0.45671 0.35850
#
# Static dielectric constant tensor:
#      x y z
#    x 3.054170 0.000000 0.000000 
#    y 0.000000 2.964110 0.000000 
#    z 0.000000 0.000000 3.045880 
# 
# 
# High freq. dielectric constant tensor:
#      x y z
#    x 1.590930 0.000000 0.000000 
#    y 0.000000 1.611480 0.000000 
#    z 0.000000 0.000000 1.611160 
# 
# From -- ./inp_files/26499.got.cif
#   From: 2010.03.12/outbox.cif.g09.slc.cpg/sg59_14_cif.got.tgz:26499.got - 2010.04.16 16:29:54.
