data_PCOD8240953
_publ_section_title
;
Structure prediction by ZEFSAII (Michael W. Deem and Ramdas Pophale) SiO2 
 PCOD8240953
Probable space group: P M M N
;
_chemical_formula_sum "Si O2"
_cell_formula_units_Z 64
_cell_length_a 9.748028
_cell_length_b 19.488352
_cell_length_c 18.022666
_cell_angle_alpha 90.000000
_cell_angle_beta 90.000000
_cell_angle_gamma 90.000000
_cell_volume 3423.819945
_symmetry_space_group_name_H-M "P M M N"
_symmetry_group_IT_number 59
_space_group.IT_coordinate_system_code '2'
_symmetry_cell_setting 'orthorhombic'
loop_
_space_group_symop_operation_xyz
x,y,z
1/2-x,1/2-y,z
1/2+x,-y,-z
-x,1/2+y,-z
-x,-y,-z
1/2+x,1/2+y,-z
1/2-x,y,z
x,1/2-y,z
loop_
_atom_site_type_symbol
_atom_site_label
_atom_site_fract_x
_atom_site_fract_y
_atom_site_fract_z
Si Si1 0.911122 0.084444 0.859088
Si Si2 0.603394 0.671222 0.411534
Si Si3 0.412165 0.674169 0.005947
Si Si4 0.910600 0.170785 0.161437
Si Si5 0.594500 0.096635 0.497820
Si Si6 0.404244 0.473937 0.388366
Si Si7 0.908212 0.948059 0.780166
Si Si8 0.406576 0.329703 0.751403
O O1 0.750000 0.096015 0.847757
O O2 0.959591 0.111736 0.940328
O O3 0.987260 0.131202 0.801328
O O4 0.947748 0.004559 0.843328
O O5 0.750000 0.639397 0.439676
O O6 0.626926 0.750000 0.396479
O O7 0.484147 0.662932 0.471772
O O8 0.568472 0.639890 0.331079
O O9 0.250000 0.678705 0.004366
O O10 0.468211 0.750000 0.031265
O O11 0.462707 0.658415 0.922720
O O12 0.750000 0.153328 0.170457
O O13 0.937920 0.250000 0.184776
O O14 0.997999 0.119463 0.212706
O O15 0.750000 0.114428 0.477497
O O16 0.519241 0.075643 0.422277
O O17 0.581240 0.044288 0.566313
O O18 0.250000 0.444686 0.400277
O O19 0.433449 0.482213 0.300806
O O20 0.750000 0.925740 0.789097
O O21 0.250000 0.343585 0.776662
O O22 0.442856 0.250000 0.757189
#
# Coordination Sequence:
#
# PCOD8240953 Si02
#       8
#     8   8   8   8   8   8   8   8
#     4  10  19  31  50  77 107 137 170 209 251 300
#     4   9  18  32  48  67  97 136 168 196 243 303
#     4   8  15  30  52  76 103 138 175 206 244 297
#     4   9  19  37  58  76  97 131 175 217 256 305
#     4  10  19  32  53  77  97 123 166 212 245 284
#     4   9  19  35  51  70 101 135 161 194 249 309
#     4  10  21  35  52  78 108 133 164 209 258 306
#     4   9  18  31  46  69 104 143 179 211 245 293
#
# _framework density 18.692571999999998
#
# number of rings (size 3 to 8) (size 9 to 14) (size 15 to 20)
#    0.000    2.750    0.000    3.000    0.000    4.750 
#    0.000    2.500    0.000    1.500    0.000    0.000 
#    0.000    0.000    0.000    0.000    0.000    0.000 
#
# Total GULP energy -792988.562107 kJ/mol
# GULP energy per Si atom -12390.446283 kJ/mol
# Density = 1.865003 g / cm^3
# Si number density = 18.692572 Si / 1000 Ang^3
#
#
#
# Elastic Constant Matrix: (Units=GPa)
#
#
# Indices 1 2 3 4 5 6 
#
# 1 73.6628 30.6658 27.3925 0.0000 0.0000 0.0000
# 2 30.6658 65.3423 28.4220 0.0000 0.0000 0.0000
# 3 27.3925 28.4220 68.3182 0.0000 0.0000 0.0000
# 4 0.0000 0.0000 0.0000 29.5561 0.0000 0.0000
# 5 0.0000 0.0000 0.0000 0.0000 25.8115 0.0000
# 6 0.0000 0.0000 0.0000 0.0000 0.0000 27.1559
#
#
#
# Elastic Compliance Matrix: (Units=1/GPa)
#
#
# Indices 1 2 3 4 5 6 
#
# 1 0.017940 -0.006460 -0.004506 0.000000 0.000000 0.000000
# 2 -0.006460 0.021011 -0.006151 0.000000 0.000000 0.000000
# 3 -0.004506 -0.006151 0.019003 0.000000 0.000000 0.000000
# 4 0.000000 0.000000 0.000000 0.033834 0.000000 0.000000
# 5 0.000000 0.000000 0.000000 0.000000 0.038742 0.000000
# 6 0.000000 0.000000 0.000000 0.000000 0.000000 0.036824
#
#
# Mechanical properties :
#
#
# Convention : Reuss Voigt Hill
#
# Bulk Modulus (GPa) = 42.15640 42.25376 42.20508
# Shear Modulus (GPa) = 23.86691 24.56089 24.21390
#
# Velocity S-wave (km/s) = 3.57713 3.62876 3.60304
# Velocity P-wave (km/s) = 6.29782 6.34120 6.31955
#
# Compressibility (1/GPa) = 0.02372119
#
# Stress axis : x y z
#
# Youngs Moduli (GPa) = 55.74130 47.59384 52.62315
#
# Poissons Ratio (x) = 0.30743 0.23711
# Poissons Ratio (y) = 0.36006 0.32369
# Poissons Ratio (z) = 0.25116 0.29276
#
# Static dielectric constant tensor:
#      x y z
#    x 3.369710 0.000000 0.000000 
#    y 0.000000 3.379340 0.000000 
#    z 0.000000 0.000000 3.481690 
# 
# 
# High freq. dielectric constant tensor:
#      x y z
#    x 1.718010 0.000000 0.000000 
#    y 0.000000 1.708510 0.000000 
#    z 0.000000 0.000000 1.719200 
# 
# From -- ./inp_files/26318.got.cif
#   From: 2010.03.12/outbox.cif.g09.slc.cpg/sg59_14_cif.got.tgz:26318.got - 2010.04.16 16:29:54.
