data_PCOD8240540
_publ_section_title
;
Structure prediction by ZEFSAII (Michael W. Deem and Ramdas Pophale) SiO2 
 PCOD8240540
Probable space group: P M M N
;
_chemical_formula_sum "Si O2"
_cell_formula_units_Z 32
_cell_length_a 14.318608
_cell_length_b 9.063416
_cell_length_c 14.167772
_cell_angle_alpha 90.000000
_cell_angle_beta 90.000000
_cell_angle_gamma 90.000000
_cell_volume 1838.629707
_symmetry_space_group_name_H-M "P M M N"
_symmetry_group_IT_number 59
_space_group.IT_coordinate_system_code '2'
_symmetry_cell_setting 'orthorhombic'
loop_
_space_group_symop_operation_xyz
x,y,z
1/2-x,1/2-y,z
1/2+x,-y,-z
-x,1/2+y,-z
-x,-y,-z
1/2+x,1/2+y,-z
1/2-x,y,z
x,1/2-y,z
loop_
_atom_site_type_symbol
_atom_site_label
_atom_site_fract_x
_atom_site_fract_y
_atom_site_fract_z
Si Si1 0.602965 0.074778 0.251124
Si Si2 0.250000 0.574139 0.111167
Si Si3 0.250000 0.574864 0.897761
Si Si4 0.892952 0.923253 0.757119
Si Si5 0.250000 0.081818 0.403212
Si Si6 0.750000 0.424575 0.400324
O O1 0.599851 0.250000 0.252156
O O2 0.657563 0.018778 0.157667
O O3 0.497738 0.013266 0.251088
O O4 0.657861 0.018977 0.344407
O O5 0.250000 0.750000 0.117439
O O6 0.157086 0.511760 0.159552
O O7 0.250000 0.514532 0.003894
O O8 0.250000 0.750000 0.898292
O O9 0.888999 0.750000 0.781967
O O10 0.841829 0.953786 0.658079
O O11 0.250000 0.250000 0.437082
O O12 0.250000 0.980939 0.494085
O O13 0.750000 0.250000 0.403649
#
# Coordination Sequence:
#
# PCOD8240540 Si02
#       6
#     8   4   4   8   4   4
#     4   8  15  30  50  69  90 120 157 189 221 270
#     4  10  19  30  46  71  98 119 147 192 236 267
#     4   8  15  28  47  71  96 119 147 190 235 267
#     4   9  18  33  50  66  90 126 159 184 219 274
#     4   9  18  30  43  64  94 123 151 187 231 271
#     4   9  17  30  50  72  90 115 155 195 226 265
#
# _framework density 17.404264999999999
#
# number of rings (size 3 to 8) (size 9 to 14) (size 15 to 20)
#    0.000    3.250    0.000    2.625    0.000    4.000 
#    0.000    1.250    0.000    7.500    0.000    0.000 
#    0.000    0.000    0.000    0.000    0.000    0.000 
#
# Total GULP energy -396655.081708 kJ/mol
# GULP energy per Si atom -12395.471303 kJ/mol
# Density = 1.736465 g / cm^3
# Si number density = 17.404265 Si / 1000 Ang^3
#
#
#
# Elastic Constant Matrix: (Units=GPa)
#
#
# Indices 1 2 3 4 5 6 
#
# 1 184.2860 27.6835 80.1424 0.0000 0.0000 0.0000
# 2 27.6835 29.2589 34.0836 0.0000 0.0000 0.0000
# 3 80.1424 34.0836 148.6006 0.0000 0.0000 0.0000
# 4 0.0000 0.0000 0.0000 24.1826 0.0000 0.0000
# 5 0.0000 0.0000 0.0000 0.0000 13.2905 0.0000
# 6 0.0000 0.0000 0.0000 0.0000 0.0000 17.0019
#
#
#
# Elastic Compliance Matrix: (Units=1/GPa)
#
#
# Indices 1 2 3 4 5 6 
#
# 1 0.007298 -0.003166 -0.003210 0.000000 0.000000 0.000000
# 2 -0.003166 0.048012 -0.009305 0.000000 0.000000 0.000000
# 3 -0.003210 -0.009305 0.010595 0.000000 0.000000 0.000000
# 4 0.000000 0.000000 0.000000 0.041352 0.000000 0.000000
# 5 0.000000 0.000000 0.000000 0.000000 0.075242 0.000000
# 6 0.000000 0.000000 0.000000 0.000000 0.000000 0.058817
#
#
# Mechanical properties :
#
#
# Convention : Reuss Voigt Hill
#
# Bulk Modulus (GPa) = 28.94874 71.77385 50.36129
# Shear Modulus (GPa) = 17.59381 25.57740 21.58560
#
# Velocity S-wave (km/s) = 3.18290 3.83770 3.52554
# Velocity P-wave (km/s) = 5.49336 7.80807 6.75067
#
# Compressibility (1/GPa) = 0.03454382
#
# Stress axis : x y z
#
# Youngs Moduli (GPa) = 137.02882 20.82804 94.38732
#
# Poissons Ratio (x) = 0.06594 0.30295
# Poissons Ratio (y) = 0.43382 0.87826
# Poissons Ratio (z) = 0.43981 0.19380
#
# Static dielectric constant tensor:
#      x y z
#    x 3.648060 0.000000 0.000000 
#    y 0.000000 2.828060 0.000000 
#    z 0.000000 0.000000 3.303960 
# 
# 
# High freq. dielectric constant tensor:
#      x y z
#    x 1.681590 0.000000 0.000000 
#    y 0.000000 1.632590 0.000000 
#    z 0.000000 0.000000 1.674500 
# 
# From -- ./inp_files/22860.got.cif
#   From: 2010.03.12/outbox.cif.g09.slc.cpg/sg59_12_cif.got.tgz:22860.got - 2010.04.16 16:29:54.
