data_PCOD8240314
_publ_section_title
;
Structure prediction by ZEFSAII (Michael W. Deem and Ramdas Pophale) SiO2 
 PCOD8240314
Probable space group: P M M N
;
_chemical_formula_sum "Si O2"
_cell_formula_units_Z 64
_cell_length_a 15.554923
_cell_length_b 17.117596
_cell_length_c 14.993012
_cell_angle_alpha 90.000000
_cell_angle_beta 90.000000
_cell_angle_gamma 90.000000
_cell_volume 3992.082671
_symmetry_space_group_name_H-M "P M M N"
_symmetry_group_IT_number 59
_space_group.IT_coordinate_system_code '2'
_symmetry_cell_setting 'orthorhombic'
loop_
_space_group_symop_operation_xyz
x,y,z
1/2-x,1/2-y,z
1/2+x,-y,-z
-x,1/2+y,-z
-x,-y,-z
1/2+x,1/2+y,-z
1/2-x,y,z
x,1/2-y,z
loop_
_atom_site_type_symbol
_atom_site_label
_atom_site_fract_x
_atom_site_fract_y
_atom_site_fract_z
Si Si1 0.654125 0.343044 0.358686
Si Si2 0.157846 0.339787 0.039653
Si Si3 0.344512 0.395871 0.233525
Si Si4 0.352368 0.837358 0.445501
Si Si5 0.488653 0.909968 0.977833
Si Si6 0.350313 0.927577 0.276928
Si Si7 0.349628 0.658162 0.103037
Si Si8 0.019618 0.839122 0.785347
O O1 0.750000 0.375510 0.338252
O O2 0.655866 0.250000 0.358840
O O3 0.621166 0.370214 0.456659
O O4 0.589405 0.374135 0.283127
O O5 0.250000 0.348930 0.987993
O O6 0.144943 0.250000 0.069959
O O7 0.162147 0.394760 0.126474
O O8 0.074908 0.367046 0.983050
O O9 0.250000 0.370311 0.272465
O O10 0.369850 0.481510 0.267562
O O11 0.424673 0.341061 0.261675
O O12 0.250000 0.834180 0.442305
O O13 0.389142 0.750000 0.429614
O O14 0.390744 0.894258 0.368988
O O15 0.480301 0.894185 0.872092
O O16 0.403226 0.875137 0.020669
O O17 0.500000 0.000000 0.000000
O O18 0.250000 0.910054 0.278677
O O19 0.387961 0.880717 0.192515
O O20 0.250000 0.636019 0.086537
O O21 0.362255 0.750000 0.110867
O O22 0.041624 0.750000 0.811701
#
# Coordination Sequence:
#
# PCOD8240314 Si02
#       8
#     8   8   8   8   8   8   8   8
#     4   8  15  28  46  66  86 110 142 178 212 249
#     4   9  17  31  49  63  77 106 152 197 225 248
#     4   9  16  26  41  61  84 108 136 172 215 256
#     4   8  13  24  43  64  85 112 145 176 207 246
#     4  11  21  31  44  62  88 119 146 178 219 266
#     4   9  16  26  41  62  89 117 142 171 210 256
#     4  10  19  29  42  63  91 119 144 171 209 262
#     4  10  19  31  46  63  84 111 146 183 217 255
#
# _framework density 16.031732000000002
#
# number of rings (size 3 to 8) (size 9 to 14) (size 15 to 20)
#    0.000    2.750    0.000    4.875    0.000    4.250 
#    0.000    1.875    0.000    0.000    0.000    0.000 
#    0.000    1.000    0.000    4.375    0.000    2.500 
#
# Total GULP energy -792883.498959 kJ/mol
# GULP energy per Si atom -12388.804671 kJ/mol
# Density = 1.599524 g / cm^3
# Si number density = 16.031732 Si / 1000 Ang^3
#
#
#
# Elastic Constant Matrix: (Units=GPa)
#
#
# Indices 1 2 3 4 5 6 
#
# 1 90.8910 24.4182 43.8565 0.0000 0.0000 0.0000
# 2 24.4182 62.2324 35.8858 0.0000 0.0000 0.0000
# 3 43.8565 35.8858 81.7836 0.0000 0.0000 0.0000
# 4 0.0000 0.0000 0.0000 18.2355 0.0000 0.0000
# 5 0.0000 0.0000 0.0000 0.0000 13.4928 0.0000
# 6 0.0000 0.0000 0.0000 0.0000 0.0000 18.6240
#
#
#
# Elastic Compliance Matrix: (Units=1/GPa)
#
#
# Indices 1 2 3 4 5 6 
#
# 1 0.014971 -0.001666 -0.007297 0.000000 0.000000 0.000000
# 2 -0.001666 0.021697 -0.008627 0.000000 0.000000 0.000000
# 3 -0.007297 -0.008627 0.019926 0.000000 0.000000 0.000000
# 4 0.000000 0.000000 0.000000 0.054838 0.000000 0.000000
# 5 0.000000 0.000000 0.000000 0.000000 0.074113 0.000000
# 6 0.000000 0.000000 0.000000 0.000000 0.000000 0.053694
#
#
# Mechanical properties :
#
#
# Convention : Reuss Voigt Hill
#
# Bulk Modulus (GPa) = 46.69979 49.24754 47.97366
# Shear Modulus (GPa) = 17.75835 18.78690 18.27263
#
# Velocity S-wave (km/s) = 3.33182 3.42695 3.37972
# Velocity P-wave (km/s) = 6.63281 6.81500 6.72452
#
# Compressibility (1/GPa) = 0.02141337
#
# Stress axis : x y z
#
# Youngs Moduli (GPa) = 66.79703 46.08865 50.18632
#
# Poissons Ratio (x) = 0.07680 0.36620
# Poissons Ratio (y) = 0.11131 0.43295
# Poissons Ratio (z) = 0.48741 0.39760
#
# Static dielectric constant tensor:
#      x y z
#    x 3.330000 0.000000 0.000000 
#    y 0.000000 2.975980 0.000000 
#    z 0.000000 0.000000 4.488080 
# 
# 
# High freq. dielectric constant tensor:
#      x y z
#    x 1.606030 0.000000 0.000000 
#    y 0.000000 1.604870 0.000000 
#    z 0.000000 0.000000 1.587620 
# 
# From -- ./inp_files/23444.got.cif
#   From: 2010.03.12/outbox.cif.g09.slc.cpg/sg59_12_cif.got.tgz:23444.got - 2010.04.16 16:29:54.
