data_PCOD8240591
_publ_section_title
;
Structure prediction by ZEFSAII (Michael W. Deem and Ramdas Pophale) SiO2 
 PCOD8240591
Probable space group: P M M N
;
_chemical_formula_sum "Si O2"
_cell_formula_units_Z 52
_cell_length_a 13.249056
_cell_length_b 18.073299
_cell_length_c 12.455989
_cell_angle_alpha 90.000000
_cell_angle_beta 90.000000
_cell_angle_gamma 90.000000
_cell_volume 2982.638265
_symmetry_space_group_name_H-M "P M M N"
_symmetry_group_IT_number 59
_space_group.IT_coordinate_system_code '2'
_symmetry_cell_setting 'orthorhombic'
loop_
_space_group_symop_operation_xyz
x,y,z
1/2-x,1/2-y,z
1/2+x,-y,-z
-x,1/2+y,-z
-x,-y,-z
1/2+x,1/2+y,-z
1/2-x,y,z
x,1/2-y,z
loop_
_atom_site_type_symbol
_atom_site_label
_atom_site_fract_x
_atom_site_fract_y
_atom_site_fract_z
Si Si1 0.367809 0.025417 0.792789
Si Si2 0.055763 0.402228 0.595237
Si Si3 0.630160 0.591798 0.983114
Si Si4 0.859922 0.750000 0.965269
Si Si5 0.469646 0.087277 0.237376
Si Si6 0.365783 0.996014 0.417780
Si Si7 0.578286 0.750000 0.733698
Si Si8 0.365711 0.250000 0.507141
O O1 0.250000 0.013884 0.780174
O O2 0.406548 0.093114 0.718471
O O3 0.398008 0.041585 0.915863
O O4 0.420717 0.949899 0.754583
O O5 0.121239 0.463049 0.531304
O O6 0.073704 0.320465 0.550917
O O7 0.936768 0.423059 0.587349
O O8 0.750000 0.595711 0.964013
O O9 0.585490 0.674955 0.004148
O O10 0.578649 0.562058 0.875626
O O11 0.750000 0.750000 0.018260
O O12 0.846490 0.750000 0.835023
O O13 0.487788 0.174860 0.255672
O O14 0.395169 0.055835 0.327726
O O15 0.250000 0.970767 0.403193
O O16 0.637702 0.750000 0.621820
O O17 0.250000 0.250000 0.548387
#
# Coordination Sequence:
#
# PCOD8240591 Si02
#       8
#     8   8   8   4   8   8   4   4
#     4  10  20  34  49  69 101 139 169 204 251 307
#     4  10  22  34  50  77 103 131 171 204 249 308
#     4   9  17  29  48  74 101 129 163 201 252 306
#     4   8  15  27  44  70  99 125 152 195 254 303
#     4  10  19  32  52  75 100 127 171 216 255 302
#     4  10  19  35  55  73 100 135 167 207 251 297
#     4  10  19  30  47  74 101 125 160 215 262 301
#     4  12  21  33  53  78 106 132 166 214 258 300
#
# _framework density 17.434229999999999
#
# number of rings (size 3 to 8) (size 9 to 14) (size 15 to 20)
#    0.000    2.154    1.538    2.538    0.000    1.846 
#    0.000    2.308    0.000    0.923    0.000    0.000 
#    0.000    4.923    0.000    0.000    0.000    0.000 
#
# Total GULP energy -644502.881707 kJ/mol
# GULP energy per Si atom -12394.286187 kJ/mol
# Density = 1.739455 g / cm^3
# Si number density = 17.434230 Si / 1000 Ang^3
#
#
#
# Elastic Constant Matrix: (Units=GPa)
#
#
# Indices 1 2 3 4 5 6 
#
# 1 98.7355 50.9437 32.5108 0.0000 0.0000 0.0000
# 2 50.9437 99.6649 25.6782 0.0000 0.0000 0.0000
# 3 32.5108 25.6782 79.6604 0.0000 0.0000 0.0000
# 4 0.0000 0.0000 0.0000 23.3554 0.0000 0.0000
# 5 0.0000 0.0000 0.0000 0.0000 22.5797 0.0000
# 6 0.0000 0.0000 0.0000 0.0000 0.0000 15.5618
#
#
#
# Elastic Compliance Matrix: (Units=1/GPa)
#
#
# Indices 1 2 3 4 5 6 
#
# 1 0.014804 -0.006555 -0.003929 0.000000 0.000000 0.000000
# 2 -0.006555 0.013845 -0.001788 0.000000 0.000000 0.000000
# 3 -0.003929 -0.001788 0.014733 0.000000 0.000000 0.000000
# 4 0.000000 0.000000 0.000000 0.042817 0.000000 0.000000
# 5 0.000000 0.000000 0.000000 0.000000 0.044288 0.000000
# 6 0.000000 0.000000 0.000000 0.000000 0.000000 0.064260
#
#
# Mechanical properties :
#
#
# Convention : Reuss Voigt Hill
#
# Bulk Modulus (GPa) = 53.08138 55.14736 54.11437
# Shear Modulus (GPa) = 22.16636 23.56126 22.86381
#
# Velocity S-wave (km/s) = 3.56958 3.68018 3.62530
# Velocity P-wave (km/s) = 6.89216 7.05398 6.97354
#
# Compressibility (1/GPa) = 0.01883900
#
# Stress axis : x y z
#
# Youngs Moduli (GPa) = 67.55094 72.23025 67.87509
#
# Poissons Ratio (x) = 0.47344 0.26666
# Poissons Ratio (y) = 0.44277 0.12134
# Poissons Ratio (z) = 0.26539 0.12913
#
# Static dielectric constant tensor:
#      x y z
#    x 2.996220 0.000000 0.000000 
#    y 0.000000 3.220500 0.000000 
#    z 0.000000 0.000000 3.403050 
# 
# 
# High freq. dielectric constant tensor:
#      x y z
#    x 1.648700 0.000000 0.000000 
#    y 0.000000 1.662860 0.000000 
#    z 0.000000 0.000000 1.687950 
# 
# From -- ./inp_files/17136.got.cif
#   From: 2010.03.12/outbox.cif.g09.slc.cpg/sg59_9_cif.got.tgz:17136.got - 2010.04.16 16:29:54.
