data_PCOD8240879
_publ_section_title
;
Structure prediction by ZEFSAII (Michael W. Deem and Ramdas Pophale) SiO2 
 PCOD8240879
Probable space group: P M M N
;
_chemical_formula_sum "Si O2"
_cell_formula_units_Z 56
_cell_length_a 19.564139
_cell_length_b 9.651309
_cell_length_c 17.381595
_cell_angle_alpha 90.000000
_cell_angle_beta 90.000000
_cell_angle_gamma 90.000000
_cell_volume 3281.984960
_symmetry_space_group_name_H-M "P M M N"
_symmetry_group_IT_number 59
_space_group.IT_coordinate_system_code '2'
_symmetry_cell_setting 'orthorhombic'
loop_
_space_group_symop_operation_xyz
x,y,z
1/2-x,1/2-y,z
1/2+x,-y,-z
-x,1/2+y,-z
-x,-y,-z
1/2+x,1/2+y,-z
1/2-x,y,z
x,1/2-y,z
loop_
_atom_site_type_symbol
_atom_site_label
_atom_site_fract_x
_atom_site_fract_y
_atom_site_fract_z
Si Si1 0.826244 0.915042 0.319091
Si Si2 0.329946 0.409362 0.130017
Si Si3 0.174013 0.085458 0.956989
Si Si4 0.555972 0.092729 0.597580
Si Si5 0.066712 0.586501 0.225366
Si Si6 0.095249 0.091734 0.534901
Si Si7 0.582534 0.914991 0.180756
O O1 0.750000 0.970153 0.303705
O O2 0.829429 0.750000 0.316344
O O3 0.849764 0.964326 0.403589
O O4 0.875679 0.976127 0.253298
O O5 0.250000 0.427041 0.147419
O O6 0.352144 0.250000 0.141775
O O7 0.370770 0.506468 0.187697
O O8 0.346578 0.459356 0.043128
O O9 0.250000 0.028452 0.936231
O O10 0.176744 0.250000 0.952624
O O11 0.117829 0.026885 0.897155
O O12 0.580183 0.250000 0.586031
O O13 0.565420 0.045710 0.685176
O O14 0.477324 0.074712 0.575932
O O15 0.602234 0.997700 0.542494
O O16 0.077244 0.750000 0.214291
O O17 0.996006 0.536320 0.185618
O O18 0.109157 0.250000 0.511510
O O19 0.585657 0.750000 0.183074
#
# Coordination Sequence:
#
# PCOD8240879 Si02
#       7
#     8   8   8   8   8   8   8
#     4   9  15  24  42  69  99 126 153 191 236 278
#     4   9  19  35  51  68  93 124 159 200 242 283
#     4   8  14  26  45  68  95 128 161 191 230 282
#     4   9  17  30  46  65  92 123 154 191 233 276
#     4  10  19  31  49  73  99 124 156 198 238 281
#     4   9  16  28  46  68  92 120 157 194 228 271
#     4   9  15  25  43  70 100 126 154 190 233 281
#
# _framework density 17.062844999999999
#
# number of rings (size 3 to 8) (size 9 to 14) (size 15 to 20)
#    0.000    3.000    1.429    1.286    0.000    3.143 
#    0.000    0.714    0.000    3.000    0.000    0.000 
#    0.000    3.429    0.000    0.000    0.000    0.000 
#
# Total GULP energy -694182.491553 kJ/mol
# GULP energy per Si atom -12396.115921 kJ/mol
# Density = 1.702401 g / cm^3
# Si number density = 17.062845 Si / 1000 Ang^3
#
#
#
# Elastic Constant Matrix: (Units=GPa)
#
#
# Indices 1 2 3 4 5 6 
#
# 1 75.1372 28.6687 57.1637 0.0000 0.0000 0.0000
# 2 28.6687 35.3065 44.7158 0.0000 0.0000 0.0000
# 3 57.1637 44.7158 134.3945 0.0000 0.0000 0.0000
# 4 0.0000 0.0000 0.0000 20.3913 0.0000 0.0000
# 5 0.0000 0.0000 0.0000 0.0000 29.6366 0.0000
# 6 0.0000 0.0000 0.0000 0.0000 0.0000 18.0338
#
#
#
# Elastic Compliance Matrix: (Units=1/GPa)
#
#
# Indices 1 2 3 4 5 6 
#
# 1 0.021614 -0.010209 -0.005797 0.000000 0.000000 0.000000
# 2 -0.010209 0.053773 -0.013549 0.000000 0.000000 0.000000
# 3 -0.005797 -0.013549 0.014414 0.000000 0.000000 0.000000
# 4 0.000000 0.000000 0.000000 0.049040 0.000000 0.000000
# 5 0.000000 0.000000 0.000000 0.000000 0.033742 0.000000
# 6 0.000000 0.000000 0.000000 0.000000 0.000000 0.055451
#
#
# Mechanical properties :
#
#
# Convention : Reuss Voigt Hill
#
# Bulk Modulus (GPa) = 32.58175 56.21495 44.39835
# Shear Modulus (GPa) = 16.81371 21.23169 19.02270
#
# Velocity S-wave (km/s) = 3.14251 3.53132 3.34258
# Velocity P-wave (km/s) = 5.68364 7.04587 6.40110
#
# Compressibility (1/GPa) = 0.03069202
#
# Stress axis : x y z
#
# Youngs Moduli (GPa) = 46.26540 18.59666 69.37517
#
# Poissons Ratio (x) = 0.18986 0.40215
# Poissons Ratio (y) = 0.47234 0.93996
# Poissons Ratio (z) = 0.26819 0.25197
#
# Static dielectric constant tensor:
#      x y z
#    x 3.195030 0.000000 0.000000 
#    y 0.000000 2.771520 0.000000 
#    z 0.000000 0.000000 3.369750 
# 
# 
# High freq. dielectric constant tensor:
#      x y z
#    x 1.651490 0.000000 0.000000 
#    y 0.000000 1.605510 0.000000 
#    z 0.000000 0.000000 1.669080 
# 
# From -- ./inp_files/28043.got.cif
#   From: 2010.03.12/outbox.cif.g09.slc.cpg/sg59_15_cif.got.tgz:28043.got - 2010.04.16 16:29:54.
