data_PCOD8240330
_publ_section_title
;
Structure prediction by ZEFSAII (Michael W. Deem and Ramdas Pophale) SiO2 
 PCOD8240330
Probable space group: P M M N
;
_chemical_formula_sum "Si O2"
_cell_formula_units_Z 64
_cell_length_a 23.386605
_cell_length_b 9.299860
_cell_length_c 19.113138
_cell_angle_alpha 90.000000
_cell_angle_beta 90.000000
_cell_angle_gamma 90.000000
_cell_volume 4156.957522
_symmetry_space_group_name_H-M "P M M N"
_symmetry_group_IT_number 59
_space_group.IT_coordinate_system_code '2'
_symmetry_cell_setting 'orthorhombic'
loop_
_space_group_symop_operation_xyz
x,y,z
1/2-x,1/2-y,z
1/2+x,-y,-z
-x,1/2+y,-z
-x,-y,-z
1/2+x,1/2+y,-z
1/2-x,y,z
x,1/2-y,z
loop_
_atom_site_type_symbol
_atom_site_label
_atom_site_fract_x
_atom_site_fract_y
_atom_site_fract_z
Si Si1 0.587338 0.082454 0.472320
Si Si2 0.913973 0.584042 0.015257
Si Si3 0.865091 0.578848 0.256136
Si Si4 0.813739 0.578771 0.112404
Si Si5 0.028751 0.915978 0.100267
Si Si6 0.506983 0.582049 0.247272
Si Si7 0.184114 0.418728 0.596859
Si Si8 0.987698 0.415260 0.600241
O O1 0.593808 0.250000 0.455094
O O2 0.568037 0.056846 0.552813
O O3 0.647522 0.003233 0.461320
O O4 0.539759 0.016748 0.421314
O O5 0.906929 0.750000 0.996028
O O6 0.857215 0.522418 0.052978
O O7 0.966369 0.558682 0.067729
O O8 0.923080 0.500706 0.942684
O O9 0.865391 0.750000 0.255468
O O10 0.831527 0.518557 0.188608
O O11 0.833430 0.525142 0.326136
O O12 0.929457 0.516105 0.254803
O O13 0.750000 0.524196 0.094322
O O14 0.816681 0.750000 0.114772
O O15 0.046489 0.750000 0.098279
O O16 0.026547 0.979621 0.179612
O O17 0.514468 0.750000 0.232381
O O18 0.471873 0.551467 0.318782
O O19 0.250000 0.455427 0.583388
O O20 0.171845 0.250000 0.588983
O O21 0.008797 0.250000 0.592590
#
# Coordination Sequence:
#
# PCOD8240330 Si02
#       8
#     8   8   8   8   8   8   8   8
#     4  10  19  29  43  65  90 117 144 178 222 259
#     4   9  16  26  39  59  85 110 135 169 211 250
#     4   9  14  23  40  63  87 110 143 180 205 234
#     4   9  15  23  38  61  86 111 143 179 208 239
#     4   9  16  26  42  61  81 108 140 172 210 249
#     4   9  14  24  44  64  83 110 141 175 210 246
#     4  10  19  30  46  65  86 118 155 184 211 248
#     4   9  17  30  47  64  86 114 146 180 216 260
#
# _framework density 15.395875999999999
#
# number of rings (size 3 to 8) (size 9 to 14) (size 15 to 20)
#    0.000    2.750    2.500    0.750    0.000    2.250 
#    0.000    0.625    0.000    1.125    0.000    0.875 
#    0.000    5.000    0.000    0.000    0.000    0.000 
#
# Total GULP energy -793330.196053 kJ/mol
# GULP energy per Si atom -12395.784313 kJ/mol
# Density = 1.536083 g / cm^3
# Si number density = 15.395876 Si / 1000 Ang^3
#
#
#
# Elastic Constant Matrix: (Units=GPa)
#
#
# Indices 1 2 3 4 5 6 
#
# 1 98.9240 33.0657 65.8352 0.0000 0.0000 0.0000
# 2 33.0657 38.8263 37.4389 0.0000 0.0000 0.0000
# 3 65.8352 37.4389 128.4640 0.0000 0.0000 0.0000
# 4 0.0000 0.0000 0.0000 19.3464 0.0000 0.0000
# 5 0.0000 0.0000 0.0000 0.0000 26.3066 0.0000
# 6 0.0000 0.0000 0.0000 0.0000 0.0000 18.9418
#
#
#
# Elastic Compliance Matrix: (Units=1/GPa)
#
#
# Indices 1 2 3 4 5 6 
#
# 1 0.017157 -0.008530 -0.006307 0.000000 0.000000 0.000000
# 2 -0.008530 0.040064 -0.007304 0.000000 0.000000 0.000000
# 3 -0.006307 -0.007304 0.013145 0.000000 0.000000 0.000000
# 4 0.000000 0.000000 0.000000 0.051689 0.000000 0.000000
# 5 0.000000 0.000000 0.000000 0.000000 0.038013 0.000000
# 6 0.000000 0.000000 0.000000 0.000000 0.000000 0.052793
#
#
# Mechanical properties :
#
#
# Convention : Reuss Voigt Hill
#
# Bulk Modulus (GPa) = 38.33869 59.87711 49.10790
# Shear Modulus (GPa) = 18.80837 21.57727 20.19282
#
# Velocity S-wave (km/s) = 3.49900 3.74772 3.62549
# Velocity P-wave (km/s) = 6.42495 7.59627 7.03503
#
# Compressibility (1/GPa) = 0.02608331
#
# Stress axis : x y z
#
# Youngs Moduli (GPa) = 58.28436 24.96020 76.07400
#
# Poissons Ratio (x) = 0.21292 0.47978
# Poissons Ratio (y) = 0.49718 0.55567
# Poissons Ratio (z) = 0.36758 0.18232
#
# Static dielectric constant tensor:
#      x y z
#    x 2.876650 0.000000 0.000000 
#    y 0.000000 2.663710 0.000000 
#    z 0.000000 0.000000 3.118630 
# 
# 
# High freq. dielectric constant tensor:
#      x y z
#    x 1.566550 0.000000 0.000000 
#    y 0.000000 1.555210 0.000000 
#    z 0.000000 0.000000 1.591040 
# 
# From -- ./inp_files/31053.got.cif
#   From: 2010.03.12/outbox.cif.g09.slc.cpg/sg59_16_cif.got.tgz:31053.got - 2010.04.16 16:29:54.
