data_PCOD8240420
_publ_section_title
;
Structure prediction by ZEFSAII (Michael W. Deem and Ramdas Pophale) SiO2 
 PCOD8240420
Probable space group: P M M N
;
_chemical_formula_sum "Si O2"
_cell_formula_units_Z 56
_cell_length_a 18.458195
_cell_length_b 8.962717
_cell_length_c 20.938236
_cell_angle_alpha 90.000000
_cell_angle_beta 90.000000
_cell_angle_gamma 90.000000
_cell_volume 3463.929177
_symmetry_space_group_name_H-M "P M M N"
_symmetry_group_IT_number 59
_space_group.IT_coordinate_system_code '2'
_symmetry_cell_setting 'orthorhombic'
loop_
_space_group_symop_operation_xyz
x,y,z
1/2-x,1/2-y,z
1/2+x,-y,-z
-x,1/2+y,-z
-x,-y,-z
1/2+x,1/2+y,-z
1/2-x,y,z
x,1/2-y,z
loop_
_atom_site_type_symbol
_atom_site_label
_atom_site_fract_x
_atom_site_fract_y
_atom_site_fract_z
Si Si1 0.165327 0.575110 0.752810
Si Si2 0.670464 0.574956 0.004466
Si Si3 0.087386 0.426942 0.870049
Si Si4 0.667762 0.073832 0.512865
Si Si5 0.105284 0.923181 0.620289
Si Si6 0.462264 0.076482 0.440667
Si Si7 0.967798 0.574355 0.937582
O O1 0.250000 0.543636 0.759932
O O2 0.147344 0.750000 0.759737
O O3 0.123021 0.483300 0.805660
O O4 0.138243 0.508310 0.684906
O O5 0.750000 0.501839 0.993608
O O6 0.678971 0.750000 0.013413
O O7 0.635583 0.513891 0.070369
O O8 0.618981 0.542172 0.942805
O O9 0.080264 0.250000 0.868811
O O10 0.006191 0.497353 0.876589
O O11 0.750000 0.027353 0.527246
O O12 0.656469 0.250000 0.516227
O O13 0.644562 0.010653 0.442937
O O14 0.616797 0.999226 0.567672
O O15 0.124614 0.750000 0.620762
O O16 0.017719 0.949217 0.618618
O O17 0.451607 0.250000 0.454345
O O18 0.500000 0.000000 0.500000
O O19 0.983759 0.750000 0.937066
O O20 0.000000 0.500000 0.000000
#
# Coordination Sequence:
#
# PCOD8240420 Si02
#       7
#     8   8   8   8   8   8   8
#     4  10  19  30  45  64  85 112 148 184 214 250
#     4   8  14  25  42  63  85 109 136 169 211 253
#     4  10  19  30  43  60  88 122 149 174 208 255
#     4   9  16  27  44  65  89 116 144 176 218 266
#     4   8  15  28  44  61  84 116 148 176 211 257
#     4   9  16  27  43  62  85 113 145 180 218 262
#     4   9  16  27  44  64  86 113 145 180 216 257
#
# _framework density 16.166612000000001
#
# number of rings (size 3 to 8) (size 9 to 14) (size 15 to 20)
#    0.000    3.000    0.000    3.857    0.000    2.857 
#    0.000    3.571    0.000   12.000    0.000    1.000 
#    0.000    3.429    0.000    0.000    0.000    0.000 
#
# Total GULP energy -693767.267926 kJ/mol
# GULP energy per Si atom -12388.701213 kJ/mol
# Density = 1.612982 g / cm^3
# Si number density = 16.166612 Si / 1000 Ang^3
#
#
#
# Elastic Constant Matrix: (Units=GPa)
#
#
# Indices 1 2 3 4 5 6 
#
# 1 94.5556 26.0482 20.6811 0.0000 0.0000 0.0000
# 2 26.0482 48.0670 14.0766 0.0000 0.0000 0.0000
# 3 20.6811 14.0766 39.9992 0.0000 0.0000 0.0000
# 4 0.0000 0.0000 0.0000 18.7610 0.0000 0.0000
# 5 0.0000 0.0000 0.0000 0.0000 27.8210 0.0000
# 6 0.0000 0.0000 0.0000 0.0000 0.0000 24.1883
#
#
#
# Elastic Compliance Matrix: (Units=1/GPa)
#
#
# Indices 1 2 3 4 5 6 
#
# 1 0.013212 -0.005752 -0.004807 0.000000 0.000000 0.000000
# 2 -0.005752 0.025699 -0.006070 0.000000 0.000000 0.000000
# 3 -0.004807 -0.006070 0.029622 0.000000 0.000000 0.000000
# 4 0.000000 0.000000 0.000000 0.053302 0.000000 0.000000
# 5 0.000000 0.000000 0.000000 0.000000 0.035944 0.000000
# 6 0.000000 0.000000 0.000000 0.000000 0.000000 0.041342
#
#
# Mechanical properties :
#
#
# Convention : Reuss Voigt Hill
#
# Bulk Modulus (GPa) = 28.34852 33.80373 31.07613
# Shear Modulus (GPa) = 20.48033 22.27512 21.37773
#
# Velocity S-wave (km/s) = 3.56311 3.71596 3.64034
# Velocity P-wave (km/s) = 5.87376 6.27425 6.07730
#
# Compressibility (1/GPa) = 0.03527521
#
# Stress axis : x y z
#
# Youngs Moduli (GPa) = 75.69079 38.91204 33.75875
#
# Poissons Ratio (x) = 0.22382 0.16227
# Poissons Ratio (y) = 0.43537 0.20492
# Poissons Ratio (z) = 0.36382 0.23620
#
# Static dielectric constant tensor:
#      x y z
#    x 3.689770 0.000000 0.000000 
#    y 0.000000 2.993830 0.000000 
#    z 0.000000 0.000000 2.947200 
# 
# 
# High freq. dielectric constant tensor:
#      x y z
#    x 1.631690 0.000000 0.000000 
#    y 0.000000 1.606820 0.000000 
#    z 0.000000 0.000000 1.577990 
# 
# From -- ./inp_files/30578.got.cif
#   From: 2010.03.12/outbox.cif.g09.slc.cpg/sg59_16_cif.got.tgz:30578.got - 2010.04.16 16:29:54.
