data_PCOD8240412
_publ_section_title
;
Structure prediction by ZEFSAII (Michael W. Deem and Ramdas Pophale) SiO2 
 PCOD8240412
Probable space group: P M M N
;
_chemical_formula_sum "Si O2"
_cell_formula_units_Z 64
_cell_length_a 19.170994
_cell_length_b 9.399662
_cell_length_c 19.881346
_cell_angle_alpha 90.000000
_cell_angle_beta 90.000000
_cell_angle_gamma 90.000000
_cell_volume 3582.635723
_symmetry_space_group_name_H-M "P M M N"
_symmetry_group_IT_number 59
_space_group.IT_coordinate_system_code '2'
_symmetry_cell_setting 'orthorhombic'
loop_
_space_group_symop_operation_xyz
x,y,z
1/2-x,1/2-y,z
1/2+x,-y,-z
-x,1/2+y,-z
-x,-y,-z
1/2+x,1/2+y,-z
1/2-x,y,z
x,1/2-y,z
loop_
_atom_site_type_symbol
_atom_site_label
_atom_site_fract_x
_atom_site_fract_y
_atom_site_fract_z
Si Si1 0.430723 0.408318 0.243191
Si Si2 0.041179 0.414103 0.096594
Si Si3 0.093057 0.591751 0.730266
Si Si4 0.090037 0.085863 0.952330
Si Si5 0.427565 0.084666 0.605227
Si Si6 0.668857 0.915559 0.520144
Si Si7 0.912974 0.081715 0.628898
Si Si8 0.829591 0.409802 0.140849
O O1 0.398806 0.250000 0.255538
O O2 0.418059 0.456871 0.165395
O O3 0.512337 0.402811 0.254279
O O4 0.399293 0.521033 0.295910
O O5 0.016229 0.250000 0.102159
O O6 0.974633 0.512380 0.085109
O O7 0.091768 0.435231 0.032752
O O8 0.122163 0.750000 0.715713
O O9 0.109741 0.495684 0.666141
O O10 0.130472 0.524986 0.795053
O O11 0.088649 0.250000 0.932387
O O12 0.158826 0.010060 0.923814
O O13 0.420965 0.250000 0.620555
O O14 0.383806 0.041184 0.539632
O O15 0.509710 0.042034 0.600230
O O16 0.750000 0.947392 0.501797
O O17 0.659177 0.750000 0.538469
O O18 0.646035 0.010709 0.583011
O O19 0.901704 0.250000 0.630606
O O20 0.750000 0.409545 0.160360
O O21 0.856239 0.250000 0.124779
#
# Coordination Sequence:
#
# PCOD8240412 Si02
#       8
#     8   8   8   8   8   8   8   8
#     4   9  16  30  52  73  99 131 164 203 248 301
#     4   9  17  31  50  73 101 131 163 204 253 301
#     4   9  17  30  48  71  97 129 168 205 242 292
#     4  10  19  29  47  74 101 128 164 211 254 294
#     4   9  19  34  52  76 105 134 166 210 257 303
#     4  10  21  37  55  74 100 136 174 208 251 311
#     4  10  20  33  52  79 107 132 165 212 261 305
#     4  10  20  34  49  65  96 141 179 208 244 299
#
# _framework density 17.863942999999999
#
# number of rings (size 3 to 8) (size 9 to 14) (size 15 to 20)
#    0.000    2.500    1.250    1.125    0.000    3.500 
#    0.000    0.000    0.000    0.750    0.000    1.750 
#    0.000    0.000    0.000    0.000    0.000    0.000 
#
# Total GULP energy -793352.576716 kJ/mol
# GULP energy per Si atom -12396.134011 kJ/mol
# Density = 1.782328 g / cm^3
# Si number density = 17.863943 Si / 1000 Ang^3
#
#
#
# Elastic Constant Matrix: (Units=GPa)
#
#
# Indices 1 2 3 4 5 6 
#
# 1 39.1419 23.3887 29.8260 0.0000 0.0000 0.0000
# 2 23.3887 73.9224 57.9094 0.0000 0.0000 0.0000
# 3 29.8260 57.9094 126.8162 0.0000 0.0000 0.0000
# 4 0.0000 0.0000 0.0000 33.5203 0.0000 0.0000
# 5 0.0000 0.0000 0.0000 0.0000 12.2788 0.0000
# 6 0.0000 0.0000 0.0000 0.0000 0.0000 20.6468
#
#
#
# Elastic Compliance Matrix: (Units=1/GPa)
#
#
# Indices 1 2 3 4 5 6 
#
# 1 0.033204 -0.006832 -0.004690 0.000000 0.000000 0.000000
# 2 -0.006832 0.022468 -0.008653 0.000000 0.000000 0.000000
# 3 -0.004690 -0.008653 0.012940 0.000000 0.000000 0.000000
# 4 0.000000 0.000000 0.000000 0.029833 0.000000 0.000000
# 5 0.000000 0.000000 0.000000 0.000000 0.081441 0.000000
# 6 0.000000 0.000000 0.000000 0.000000 0.000000 0.048434
#
#
# Mechanical properties :
#
#
# Convention : Reuss Voigt Hill
#
# Bulk Modulus (GPa) = 35.38239 51.34762 43.36500
# Shear Modulus (GPa) = 17.97989 21.87292 19.92640
#
# Velocity S-wave (km/s) = 3.17597 3.50296 3.34346
# Velocity P-wave (km/s) = 5.77049 6.72065 6.26361
#
# Compressibility (1/GPa) = 0.02826265
#
# Stress axis : x y z
#
# Youngs Moduli (GPa) = 30.11705 44.50813 77.28190
#
# Poissons Ratio (x) = 0.30407 0.36242
# Poissons Ratio (y) = 0.20575 0.66871
# Poissons Ratio (z) = 0.14123 0.38513
#
# Static dielectric constant tensor:
#      x y z
#    x 3.018250 0.000000 0.000000 
#    y 0.000000 3.468840 0.000000 
#    z 0.000000 0.000000 3.616330 
# 
# 
# High freq. dielectric constant tensor:
#      x y z
#    x 1.654240 0.000000 0.000000 
#    y 0.000000 1.691060 0.000000 
#    z 0.000000 0.000000 1.699630 
# 
# From -- ./inp_files/29781.got.cif
#   From: 2010.03.12/outbox.cif.g09.slc.cpg/sg59_15_cif.got.tgz:29781.got - 2010.04.16 16:29:54.
