data_PCOD8240862
_publ_section_title
;
Structure prediction by ZEFSAII (Michael W. Deem and Ramdas Pophale) SiO2 
 PCOD8240862
Probable space group: P M M N
;
_chemical_formula_sum "Si O2"
_cell_formula_units_Z 64
_cell_length_a 31.049406
_cell_length_b 9.086156
_cell_length_c 12.379273
_cell_angle_alpha 90.000000
_cell_angle_beta 90.000000
_cell_angle_gamma 90.000000
_cell_volume 3492.437362
_symmetry_space_group_name_H-M "P M M N"
_symmetry_group_IT_number 59
_space_group.IT_coordinate_system_code '2'
_symmetry_cell_setting 'orthorhombic'
loop_
_space_group_symop_operation_xyz
x,y,z
1/2-x,1/2-y,z
1/2+x,-y,-z
-x,1/2+y,-z
-x,-y,-z
1/2+x,1/2+y,-z
1/2-x,y,z
x,1/2-y,z
loop_
_atom_site_type_symbol
_atom_site_label
_atom_site_fract_x
_atom_site_fract_y
_atom_site_fract_z
Si Si1 0.115175 0.416699 0.812036
Si Si2 0.932200 0.923049 0.849665
Si Si3 0.522574 0.421450 0.404811
Si Si4 0.798112 0.421067 0.806687
Si Si5 0.985168 0.923133 0.192045
Si Si6 0.393386 0.417293 0.571836
Si Si7 0.862638 0.079002 0.990059
Si Si8 0.133628 0.081037 0.332220
O O1 0.122089 0.250000 0.851079
O O2 0.064695 0.460737 0.831368
O O3 0.131572 0.430915 0.686964
O O4 0.143645 0.525818 0.885958
O O5 0.939947 0.750000 0.862977
O O6 0.910705 0.962266 0.731670
O O7 0.899904 0.978174 0.941134
O O8 0.977404 0.003888 0.881182
O O9 0.500000 0.500000 0.500000
O O10 0.512492 0.250000 0.400060
O O11 0.501900 0.498911 0.302673
O O12 0.572673 0.452515 0.418669
O O13 0.750000 0.488321 0.806953
O O14 0.796653 0.250000 0.780729
O O15 0.818721 0.450026 0.924441
O O16 0.825926 0.491461 0.711367
O O17 0.992439 0.750000 0.197853
O O18 0.413223 0.250000 0.566919
O O19 0.367370 0.447474 0.461697
O O20 0.875730 0.250000 0.985836
O O21 0.143140 0.250000 0.307310
#
# Coordination Sequence:
#
# PCOD8240862 Si02
#       8
#     8   8   8   8   8   8   8   8
#     4   9  19  34  50  69  98 136 174 213 253 291
#     4  10  19  31  49  73 101 132 169 215 263 307
#     4  11  20  29  43  64  92 129 173 216 254 293
#     4   9  19  36  57  81 106 128 153 194 249 302
#     4  10  20  33  47  66  95 132 174 218 261 301
#     4   9  18  33  50  70  99 132 165 204 249 294
#     4  10  20  34  53  74  98 131 170 210 251 300
#     4   9  18  32  52  78 104 130 161 199 247 302
#
# _framework density 18.325312
#
# number of rings (size 3 to 8) (size 9 to 14) (size 15 to 20)
#    0.000    2.375    0.000    3.750    0.000    5.750 
#    0.000    0.000    0.000    0.750    0.000    3.500 
#    0.000    0.000    0.000    0.000    0.000    0.000 
#
# Total GULP energy -792886.820583 kJ/mol
# GULP energy per Si atom -12388.856572 kJ/mol
# Density = 1.828360 g / cm^3
# Si number density = 18.325312 Si / 1000 Ang^3
#
#
#
# Elastic Constant Matrix: (Units=GPa)
#
#
# Indices 1 2 3 4 5 6 
#
# 1 71.7005 31.9362 31.9049 0.0000 0.0000 0.0000
# 2 31.9362 68.5293 34.3252 0.0000 0.0000 0.0000
# 3 31.9049 34.3252 100.0888 0.0000 0.0000 0.0000
# 4 0.0000 0.0000 0.0000 30.6069 0.0000 0.0000
# 5 0.0000 0.0000 0.0000 0.0000 15.4769 0.0000
# 6 0.0000 0.0000 0.0000 0.0000 0.0000 22.4105
#
#
#
# Elastic Compliance Matrix: (Units=1/GPa)
#
#
# Indices 1 2 3 4 5 6 
#
# 1 0.018600 -0.006880 -0.003569 0.000000 0.000000 0.000000
# 2 -0.006880 0.020164 -0.004722 0.000000 0.000000 0.000000
# 3 -0.003569 -0.004722 0.012748 0.000000 0.000000 0.000000
# 4 0.000000 0.000000 0.000000 0.032672 0.000000 0.000000
# 5 0.000000 0.000000 0.000000 0.000000 0.064613 0.000000
# 6 0.000000 0.000000 0.000000 0.000000 0.000000 0.044622
#
#
# Mechanical properties :
#
#
# Convention : Reuss Voigt Hill
#
# Bulk Modulus (GPa) = 47.23926 48.51680 47.87803
# Shear Modulus (GPa) = 21.66213 23.17569 22.41891
#
# Velocity S-wave (km/s) = 3.44188 3.56009 3.50149
# Velocity P-wave (km/s) = 6.45209 6.59028 6.52155
#
# Compressibility (1/GPa) = 0.02116883
#
# Stress axis : x y z
#
# Youngs Moduli (GPa) = 53.76455 49.59411 78.44153
#
# Poissons Ratio (x) = 0.34121 0.27999
# Poissons Ratio (y) = 0.36990 0.37040
# Poissons Ratio (z) = 0.19191 0.23418
#
# Static dielectric constant tensor:
#      x y z
#    x 3.137790 0.000000 0.000000 
#    y 0.000000 3.253370 0.000000 
#    z 0.000000 0.000000 3.520680 
# 
# 
# High freq. dielectric constant tensor:
#      x y z
#    x 1.666890 0.000000 0.000000 
#    y 0.000000 1.715880 0.000000 
#    z 0.000000 0.000000 1.718100 
# 
# From -- ./inp_files/19308.got.cif
#   From: 2010.03.12/outbox.cif.g09.slc.cpg/sg59_10_cif.got.tgz:19308.got - 2010.04.16 16:29:54.
