data_PCOD8240701
_publ_section_title
;
Structure prediction by ZEFSAII (Michael W. Deem and Ramdas Pophale) SiO2 
 PCOD8240701
Probable space group: P M M N
;
_chemical_formula_sum "Si O2"
_cell_formula_units_Z 64
_cell_length_a 24.967357
_cell_length_b 9.144167
_cell_length_c 17.776831
_cell_angle_alpha 90.000000
_cell_angle_beta 90.000000
_cell_angle_gamma 90.000000
_cell_volume 4058.551524
_symmetry_space_group_name_H-M "P M M N"
_symmetry_group_IT_number 59
_space_group.IT_coordinate_system_code '2'
_symmetry_cell_setting 'orthorhombic'
loop_
_space_group_symop_operation_xyz
x,y,z
1/2-x,1/2-y,z
1/2+x,-y,-z
-x,1/2+y,-z
-x,-y,-z
1/2+x,1/2+y,-z
1/2-x,y,z
x,1/2-y,z
loop_
_atom_site_type_symbol
_atom_site_label
_atom_site_fract_x
_atom_site_fract_y
_atom_site_fract_z
Si Si1 0.002586 0.416337 0.923903
Si Si2 0.313548 0.411986 0.369249
Si Si3 0.886549 0.421430 0.915097
Si Si4 0.686067 0.086016 0.488966
Si Si5 0.686248 0.914948 0.343939
Si Si6 0.813505 0.417426 0.196524
Si Si7 0.381354 0.077632 0.924675
Si Si8 0.312514 0.080241 0.200971
O O1 0.004002 0.250000 0.948741
O O2 0.060001 0.452969 0.885083
O O3 0.946799 0.448507 0.879837
O O4 0.000000 0.500000 0.000000
O O5 0.250000 0.404812 0.374628
O O6 0.336820 0.250000 0.384477
O O7 0.336541 0.520348 0.432811
O O8 0.329642 0.465048 0.285755
O O9 0.876547 0.250000 0.930566
O O10 0.844446 0.477291 0.854902
O O11 0.878884 0.509842 0.992185
O O12 0.750000 0.085395 0.488943
O O13 0.663932 0.250000 0.480771
O O14 0.663984 0.991022 0.419391
O O15 0.750000 0.914011 0.345372
O O16 0.663767 0.750000 0.339698
O O17 0.665315 0.004967 0.272180
O O18 0.750000 0.427463 0.190868
O O19 0.833000 0.250000 0.197571
O O20 0.836653 0.500285 0.124828
O O21 0.368723 0.250000 0.929659
O O22 0.250000 0.051196 0.187792
O O23 0.326147 0.250000 0.186502
#
# Coordination Sequence:
#
# PCOD8240701 Si02
#       8
#     8   8   8   8   8   8   8   8
#     4   8  16  30  47  66  84 103 132 175 221 259
#     4   8  14  25  39  54  76 108 143 176 208 244
#     4  10  19  31  47  66  87 110 140 179 221 259
#     4   9  15  22  35  56  80 106 138 175 212 248
#     4   9  16  26  40  57  79 110 145 175 206 248
#     4  10  20  32  44  61  88 117 144 177 215 252
#     4  10  19  32  49  65  83 110 144 178 214 258
#     4   9  18  31  44  60  86 119 151 180 211 251
#
# _framework density 15.769171999999999
#
# number of rings (size 3 to 8) (size 9 to 14) (size 15 to 20)
#    0.000    2.875    0.000    2.625    0.000    6.000 
#    0.000    1.250    0.000    0.000    0.000    0.000 
#    0.000    1.000    0.000    3.000    0.000    4.625 
#
# Total GULP energy -792984.473775 kJ/mol
# GULP energy per Si atom -12390.382403 kJ/mol
# Density = 1.573328 g / cm^3
# Si number density = 15.769172 Si / 1000 Ang^3
#
#
#
# Elastic Constant Matrix: (Units=GPa)
#
#
# Indices 1 2 3 4 5 6 
#
# 1 30.6936 29.5789 27.8974 0.0000 0.0000 0.0000
# 2 29.5789 115.6525 60.3323 0.0000 0.0000 0.0000
# 3 27.8974 60.3323 102.7094 0.0000 0.0000 0.0000
# 4 0.0000 0.0000 0.0000 30.8043 0.0000 0.0000
# 5 0.0000 0.0000 0.0000 0.0000 -0.0942 0.0000
# 6 0.0000 0.0000 0.0000 0.0000 0.0000 13.9989
#
#
#
# Elastic Compliance Matrix: (Units=1/GPa)
#
#
# Indices 1 2 3 4 5 6 
#
# 1 0.047740 -0.007851 -0.008355 0.000000 0.000000 0.000000
# 2 -0.007851 0.013758 -0.005949 0.000000 0.000000 0.000000
# 3 -0.008355 -0.005949 0.015500 0.000000 0.000000 0.000000
# 4 0.000000 0.000000 0.000000 0.032463 0.000000 0.000000
# 5 0.000000 0.000000 0.000000 0.000000-10.614750 0.000000
# 6 0.000000 0.000000 0.000000 0.000000 0.000000 0.071434
#
#
# Mechanical properties :
#
#
# Convention : Reuss Voigt Hill
#
# Bulk Modulus (GPa) = 30.59271 53.85251 42.22261
# Shear Modulus (GPa) = -0.48176 17.69160 8.60492
#
# Velocity S-wave (km/s) = -0.55333 3.35313 2.33851
# Velocity P-wave (km/s) = 4.36282 7.01541 5.84167
#
# Compressibility (1/GPa) = 0.03268752
#
# Stress axis : x y z
#
# Youngs Moduli (GPa) = 20.94671 72.68461 64.51580
#
# Poissons Ratio (x) = 0.57067 0.53903
# Poissons Ratio (y) = 0.16446 0.38381
# Poissons Ratio (z) = 0.17501 0.43240
#
# Static dielectric constant tensor:
#      x y z
#    x 2.956780 0.000000 0.000000 
#    y 0.000000 3.230710 0.000000 
#    z 0.000000 0.000000 2.985730 
# 
# 
# High freq. dielectric constant tensor:
#      x y z
#    x 1.556890 0.000000 0.000000 
#    y 0.000000 1.622850 0.000000 
#    z 0.000000 0.000000 1.596610 
# 
# From -- ./inp_files/28442.got.cif
#   From: 2010.03.12/outbox.cif.g09.slc.cpg/sg59_15_cif.got.tgz:28442.got - 2010.04.16 16:29:54.
