data_PCOD8240841
_publ_section_title
;
Structure prediction by ZEFSAII (Michael W. Deem and Ramdas Pophale) SiO2 
 PCOD8240841
Probable space group: P M M N
;
_chemical_formula_sum "Si O2"
_cell_formula_units_Z 48
_cell_length_a 13.685707
_cell_length_b 9.132628
_cell_length_c 23.543248
_cell_angle_alpha 90.000000
_cell_angle_beta 90.000000
_cell_angle_gamma 90.000000
_cell_volume 2942.587482
_symmetry_space_group_name_H-M "P M M N"
_symmetry_group_IT_number 59
_space_group.IT_coordinate_system_code '2'
_symmetry_cell_setting 'orthorhombic'
loop_
_space_group_symop_operation_xyz
x,y,z
1/2-x,1/2-y,z
1/2+x,-y,-z
-x,1/2+y,-z
-x,-y,-z
1/2+x,1/2+y,-z
1/2-x,y,z
x,1/2-y,z
loop_
_atom_site_type_symbol
_atom_site_label
_atom_site_fract_x
_atom_site_fract_y
_atom_site_fract_z
Si Si1 0.031311 0.079090 0.586914
Si Si2 0.362774 0.922013 0.688319
Si Si3 0.362579 0.419673 0.471195
Si Si4 0.639475 0.922315 0.972119
Si Si5 0.137160 0.080767 0.802630
Si Si6 0.472120 0.078074 0.915395
O O1 0.022826 0.250000 0.600155
O O2 0.105353 0.046304 0.535504
O O3 0.070459 0.997597 0.641784
O O4 0.924086 0.017731 0.572349
O O5 0.250000 0.961610 0.676187
O O6 0.381312 0.750000 0.686993
O O7 0.394811 0.983069 0.749390
O O8 0.250000 0.463786 0.464455
O O9 0.380813 0.250000 0.456767
O O10 0.750000 0.978322 0.966136
O O11 0.632197 0.750000 0.963486
O O12 0.575828 0.998684 0.923133
O O13 0.601097 0.968891 0.034236
O O14 0.250000 0.056167 0.818346
O O15 0.117026 0.250000 0.787915
O O16 0.074120 0.027054 0.856096
O O17 0.490351 0.250000 0.916086
#
# Coordination Sequence:
#
# PCOD8240841 Si02
#       6
#     8   8   8   8   8   8
#     4  10  19  31  49  72  97 125 157 191 228 273
#     4  10  20  32  47  69  96 124 154 190 232 277
#     4   9  18  32  49  70  97 127 157 190 229 272
#     4   9  17  29  45  66  93 123 152 183 223 271
#     4   9  17  30  48  68  91 120 152 187 229 275
#     4   9  17  29  46  68  92 119 152 188 225 267
#
# _framework density 16.312175
#
# number of rings (size 3 to 8) (size 9 to 14) (size 15 to 20)
#    0.000    2.667    0.000    2.000    0.000    5.667 
#    0.000    0.000    0.000    4.000    0.000    4.667 
#    0.000    0.000    0.000    0.000    0.000    0.000 
#
# Total GULP energy -595310.335874 kJ/mol
# GULP energy per Si atom -12402.298664 kJ/mol
# Density = 1.627505 g / cm^3
# Si number density = 16.312175 Si / 1000 Ang^3
#
#
#
# Elastic Constant Matrix: (Units=GPa)
#
#
# Indices 1 2 3 4 5 6 
#
# 1 125.7906 53.2601 73.7177 0.0000 0.0000 0.0000
# 2 53.2601 65.1188 57.7272 0.0000 0.0000 0.0000
# 3 73.7177 57.7272 121.1401 0.0000 0.0000 0.0000
# 4 0.0000 0.0000 0.0000 29.1472 0.0000 0.0000
# 5 0.0000 0.0000 0.0000 0.0000 27.7202 0.0000
# 6 0.0000 0.0000 0.0000 0.0000 0.0000 28.9068
#
#
#
# Elastic Compliance Matrix: (Units=1/GPa)
#
#
# Indices 1 2 3 4 5 6 
#
# 1 0.013852 -0.006678 -0.005247 0.000000 0.000000 0.000000
# 2 -0.006678 0.029808 -0.010141 0.000000 0.000000 0.000000
# 3 -0.005247 -0.010141 0.016280 0.000000 0.000000 0.000000
# 4 0.000000 0.000000 0.000000 0.034309 0.000000 0.000000
# 5 0.000000 0.000000 0.000000 0.000000 0.036075 0.000000
# 6 0.000000 0.000000 0.000000 0.000000 0.000000 0.034594
#
#
# Mechanical properties :
#
#
# Convention : Reuss Voigt Hill
#
# Bulk Modulus (GPa) = 63.25603 75.71771 69.48687
# Shear Modulus (GPa) = 23.32961 25.64447 24.48704
#
# Velocity S-wave (km/s) = 3.78590 3.96928 3.87867
# Velocity P-wave (km/s) = 7.61402 8.21740 7.92145
#
# Compressibility (1/GPa) = 0.01580877
#
# Stress axis : x y z
#
# Youngs Moduli (GPa) = 72.19022 33.54791 61.42331
#
# Poissons Ratio (x) = 0.22403 0.32231
# Poissons Ratio (y) = 0.48209 0.62288
# Poissons Ratio (z) = 0.37880 0.34020
#
# Static dielectric constant tensor:
#      x y z
#    x 3.080220 0.000000 0.000000 
#    y 0.000000 3.072790 0.000000 
#    z 0.000000 0.000000 3.014180 
# 
# 
# High freq. dielectric constant tensor:
#      x y z
#    x 1.619230 0.000000 0.000000 
#    y 0.000000 1.630730 0.000000 
#    z 0.000000 0.000000 1.618070 
# 
# From -- ./inp_files/28826.got.cif
#   From: 2010.03.12/outbox.cif.g09.slc.cpg/sg59_15_cif.got.tgz:28826.got - 2010.04.16 16:29:54.
