data_PCOD8240115
_publ_section_title
;
Structure prediction by ZEFSAII (Michael W. Deem and Ramdas Pophale) SiO2 
 PCOD8240115
Probable space group: P M M N
;
_chemical_formula_sum "Si O2"
_cell_formula_units_Z 64
_cell_length_a 9.231332
_cell_length_b 24.979841
_cell_length_c 14.838442
_cell_angle_alpha 90.000000
_cell_angle_beta 90.000000
_cell_angle_gamma 90.000000
_cell_volume 3421.703260
_symmetry_space_group_name_H-M "P M M N"
_symmetry_group_IT_number 59
_space_group.IT_coordinate_system_code '2'
_symmetry_cell_setting 'orthorhombic'
loop_
_space_group_symop_operation_xyz
x,y,z
1/2-x,1/2-y,z
1/2+x,-y,-z
-x,1/2+y,-z
-x,-y,-z
1/2+x,1/2+y,-z
1/2-x,y,z
x,1/2-y,z
loop_
_atom_site_type_symbol
_atom_site_label
_atom_site_fract_x
_atom_site_fract_y
_atom_site_fract_z
Si Si1 0.414605 0.337606 0.516445
Si Si2 0.417535 0.810854 0.303097
Si Si3 0.925279 0.056924 0.020053
Si Si4 0.579563 0.690449 0.679131
Si Si5 0.911439 0.957901 0.444859
Si Si6 0.091328 0.516211 0.284130
Si Si7 0.589101 0.109396 0.844431
Si Si8 0.079680 0.406200 0.198228
O O1 0.250000 0.317192 0.530042
O O2 0.505034 0.317220 0.601223
O O3 0.483021 0.316132 0.422564
O O4 0.419016 0.401256 0.506787
O O5 0.250000 0.827006 0.318380
O O6 0.433914 0.750000 0.269679
O O7 0.489312 0.849095 0.225037
O O8 0.750000 0.049871 0.021508
O O9 0.981533 0.083442 0.111517
O O10 0.976243 0.100808 0.944233
O O11 0.000000 0.000000 0.000000
O O12 0.750000 0.681179 0.670980
O O13 0.540379 0.750000 0.714387
O O14 0.521140 0.647252 0.751411
O O15 0.750000 0.979487 0.436832
O O16 0.000000 0.000000 0.500000
O O17 0.975766 0.953633 0.345359
O O18 0.250000 0.519233 0.330413
O O19 0.091354 0.548503 0.191305
O O20 0.051890 0.454683 0.267293
O O21 0.750000 0.132892 0.854690
O O22 0.250000 0.402612 0.171725
#
# Coordination Sequence:
#
# PCOD8240115 Si02
#       8
#     8   8   8   8   8   8   8   8
#     4  10  20  35  55  79 107 142 186 227 267 317
#     4  10  20  35  56  80 106 141 183 222 265 323
#     4  11  21  36  58  84 111 142 180 222 273 329
#     4   9  18  34  56  78 104 142 184 222 264 319
#     4  11  22  33  48  76 110 147 185 226 275 327
#     4  10  18  33  54  74 106 145 175 216 272 329
#     4   9  18  34  54  76 107 142 172 210 267 323
#     4  10  20  36  57  82 109 141 180 224 275 328
#
# _framework density 18.704134
#
# number of rings (size 3 to 8) (size 9 to 14) (size 15 to 20)
#    0.000    2.000    2.500    1.875    0.000    3.750 
#    0.000    2.500    0.000    1.875    0.000    0.000 
#    0.000    0.000    0.000    0.000    0.000    0.000 
#
# Total GULP energy -793165.250129 kJ/mol
# GULP energy per Si atom -12393.207033 kJ/mol
# Density = 1.866156 g / cm^3
# Si number density = 18.704134 Si / 1000 Ang^3
#
#
#
# Elastic Constant Matrix: (Units=GPa)
#
#
# Indices 1 2 3 4 5 6 
#
# 1 64.5731 28.4863 40.0063 0.0000 0.0000 0.0000
# 2 28.4863 116.9122 55.7950 0.0000 0.0000 0.0000
# 3 40.0063 55.7950 119.8812 0.0000 0.0000 0.0000
# 4 0.0000 0.0000 0.0000 23.3552 0.0000 0.0000
# 5 0.0000 0.0000 0.0000 0.0000 31.7645 0.0000
# 6 0.0000 0.0000 0.0000 0.0000 0.0000 18.7859
#
#
#
# Elastic Compliance Matrix: (Units=1/GPa)
#
#
# Indices 1 2 3 4 5 6 
#
# 1 0.019939 -0.002163 -0.005647 0.000000 0.000000 0.000000
# 2 -0.002163 0.011230 -0.004505 0.000000 0.000000 0.000000
# 3 -0.005647 -0.004505 0.012323 0.000000 0.000000 0.000000
# 4 0.000000 0.000000 0.000000 0.042817 0.000000 0.000000
# 5 0.000000 0.000000 0.000000 0.000000 0.031482 0.000000
# 6 0.000000 0.000000 0.000000 0.000000 0.000000 0.053231
#
#
# Mechanical properties :
#
#
# Convention : Reuss Voigt Hill
#
# Bulk Modulus (GPa) = 53.01732 61.10463 57.06098
# Shear Modulus (GPa) = 24.75972 26.58640 25.67306
#
# Velocity S-wave (km/s) = 3.64229 3.77426 3.70886
# Velocity P-wave (km/s) = 6.78934 7.19259 6.99387
#
# Compressibility (1/GPa) = 0.01886176
#
# Stress axis : x y z
#
# Youngs Moduli (GPa) = 50.15197 89.04360 81.14991
#
# Poissons Ratio (x) = 0.19262 0.45828
# Poissons Ratio (y) = 0.10849 0.36558
# Poissons Ratio (z) = 0.28322 0.40114
#
# Static dielectric constant tensor:
#      x y z
#    x 3.127860 0.000000 0.000000 
#    y 0.000000 3.739700 0.000000 
#    z 0.000000 0.000000 3.937550 
# 
# 
# High freq. dielectric constant tensor:
#      x y z
#    x 1.695860 0.000000 0.000000 
#    y 0.000000 1.729930 0.000000 
#    z 0.000000 0.000000 1.727510 
# 
# From -- ./inp_files/21585.got.cif
#   From: 2010.03.12/outbox.cif.g09.slc.cpg/sg59_11_cif.got.tgz:21585.got - 2010.04.16 16:29:54.
