data_PCOD8240921
_publ_section_title
;
Structure prediction by ZEFSAII (Michael W. Deem and Ramdas Pophale) SiO2 
 PCOD8240921
Probable space group: P M M N
;
_chemical_formula_sum "Si O2"
_cell_formula_units_Z 64
_cell_length_a 29.982945
_cell_length_b 8.727328
_cell_length_c 14.385320
_cell_angle_alpha 90.000000
_cell_angle_beta 90.000000
_cell_angle_gamma 90.000000
_cell_volume 3764.221004
_symmetry_space_group_name_H-M "P M M N"
_symmetry_group_IT_number 59
_space_group.IT_coordinate_system_code '2'
_symmetry_cell_setting 'orthorhombic'
loop_
_space_group_symop_operation_xyz
x,y,z
1/2-x,1/2-y,z
1/2+x,-y,-z
-x,1/2+y,-z
-x,-y,-z
1/2+x,1/2+y,-z
1/2-x,y,z
x,1/2-y,z
loop_
_atom_site_type_symbol
_atom_site_label
_atom_site_fract_x
_atom_site_fract_y
_atom_site_fract_z
Si Si1 0.699797 0.072056 0.843049
Si Si2 0.959492 0.570261 0.059263
Si Si3 0.064891 0.920528 0.251782
Si Si4 0.118396 0.923821 0.434311
Si Si5 0.699299 0.572152 0.644993
Si Si6 0.112919 0.925347 0.058800
Si Si7 0.525177 0.428415 0.257072
Si Si8 0.042852 0.069590 0.551701
O O1 0.750000 0.041002 0.880203
O O2 0.692622 0.250000 0.817263
O O3 0.664570 0.025304 0.924014
O O4 0.689984 0.977247 0.750621
O O5 0.967206 0.750000 0.060098
O O6 0.958553 0.508598 0.163479
O O7 0.910939 0.531217 0.017234
O O8 0.000000 0.500000 0.000000
O O9 0.043197 0.750000 0.255375
O O10 0.102475 0.936229 0.328629
O O11 0.086840 0.950992 0.153718
O O12 0.027585 0.047523 0.269936
O O13 0.116684 0.750000 0.471818
O O14 0.169083 0.983995 0.430783
O O15 0.088181 0.030554 0.498439
O O16 0.750000 0.534436 0.617537
O O17 0.688224 0.750000 0.637795
O O18 0.110050 0.750000 0.024919
O O19 0.536371 0.250000 0.252515
O O20 0.549508 0.502633 0.345342
O O21 0.035521 0.250000 0.556407
O O22 0.000000 0.000000 0.500000
#
# Coordination Sequence:
#
# PCOD8240921 Si02
#       8
#     8   8   8   8   8   8   8   8
#     4   9  17  31  51  74 103 139 176 215 261 312
#     4  12  24  37  53  75 103 138 178 220 264 314
#     4  10  19  31  50  74 106 141 176 218 259 303
#     4  11  21  35  54  77 105 142 183 220 261 314
#     4  10  20  32  48  74 108 142 177 219 266 316
#     4  10  19  33  51  75 105 139 178 216 258 312
#     4  12  24  38  55  75 102 140 180 222 265 309
#     4  12  24  38  55  78 108 141 178 219 261 313
#
# _framework density 17.002189999999999
#
# number of rings (size 3 to 8) (size 9 to 14) (size 15 to 20)
#    0.000    1.250    3.750    4.125    0.000    1.750 
#    0.000    0.000    0.000    0.000    0.000    0.875 
#    0.000    5.000    0.000    0.000    0.000    0.000 
#
# Total GULP energy -793655.286251 kJ/mol
# GULP energy per Si atom -12400.863848 kJ/mol
# Density = 1.696349 g / cm^3
# Si number density = 17.002190 Si / 1000 Ang^3
#
#
#
# Elastic Constant Matrix: (Units=GPa)
#
#
# Indices 1 2 3 4 5 6 
#
# 1 107.0298 39.7951 38.1818 0.0000 0.0000 0.0000
# 2 39.7951 112.5548 42.7994 0.0000 0.0000 0.0000
# 3 38.1818 42.7994 88.6226 0.0000 0.0000 0.0000
# 4 0.0000 0.0000 0.0000 27.0793 0.0000 0.0000
# 5 0.0000 0.0000 0.0000 0.0000 22.4944 0.0000
# 6 0.0000 0.0000 0.0000 0.0000 0.0000 22.3263
#
#
#
# Elastic Compliance Matrix: (Units=1/GPa)
#
#
# Indices 1 2 3 4 5 6 
#
# 1 0.011680 -0.002715 -0.003721 0.000000 0.000000 0.000000
# 2 -0.002715 0.011514 -0.004391 0.000000 0.000000 0.000000
# 3 -0.003721 -0.004391 0.015008 0.000000 0.000000 0.000000
# 4 0.000000 0.000000 0.000000 0.036929 0.000000 0.000000
# 5 0.000000 0.000000 0.000000 0.000000 0.044456 0.000000
# 6 0.000000 0.000000 0.000000 0.000000 0.000000 0.044790
#
#
# Mechanical properties :
#
#
# Convention : Reuss Voigt Hill
#
# Bulk Modulus (GPa) = 60.43014 61.08441 60.75727
# Shear Modulus (GPa) = 26.10343 26.87539 26.48941
#
# Velocity S-wave (km/s) = 3.92254 3.98012 3.95143
# Velocity P-wave (km/s) = 7.49232 7.55825 7.52536
#
# Compressibility (1/GPa) = 0.01654803
#
# Stress axis : x y z
#
# Youngs Moduli (GPa) = 85.61626 86.85041 66.63276
#
# Poissons Ratio (x) = 0.23577 0.24795
# Poissons Ratio (y) = 0.23242 0.29259
# Poissons Ratio (z) = 0.31859 0.38136
#
# Static dielectric constant tensor:
#      x y z
#    x 3.413430 0.000000 0.000000 
#    y 0.000000 3.310050 0.000000 
#    z 0.000000 0.000000 3.098730 
# 
# 
# High freq. dielectric constant tensor:
#      x y z
#    x 1.649340 0.000000 0.000000 
#    y 0.000000 1.666110 0.000000 
#    z 0.000000 0.000000 1.631120 
# 
# From -- ./inp_files/25083.got.cif
#   From: 2010.03.12/outbox.cif.g09.slc.cpg/sg59_13_cif.got.tgz:25083.got - 2010.04.16 16:29:54.
