data_PCOD8240776
_publ_section_title
;
Structure prediction by ZEFSAII (Michael W. Deem and Ramdas Pophale) SiO2 
 PCOD8240776
Probable space group: P M M N
;
_chemical_formula_sum "Si O2"
_cell_formula_units_Z 48
_cell_length_a 30.426667
_cell_length_b 9.418751
_cell_length_c 9.525274
_cell_angle_alpha 90.000000
_cell_angle_beta 90.000000
_cell_angle_gamma 90.000000
_cell_volume 2729.764455
_symmetry_space_group_name_H-M "P M M N"
_symmetry_group_IT_number 59
_space_group.IT_coordinate_system_code '2'
_symmetry_cell_setting 'orthorhombic'
loop_
_space_group_symop_operation_xyz
x,y,z
1/2-x,1/2-y,z
1/2+x,-y,-z
-x,1/2+y,-z
-x,-y,-z
1/2+x,1/2+y,-z
1/2-x,y,z
x,1/2-y,z
loop_
_atom_site_type_symbol
_atom_site_label
_atom_site_fract_x
_atom_site_fract_y
_atom_site_fract_z
Si Si1 0.626303 0.086161 0.500642
Si Si2 0.355971 0.416539 0.924077
Si Si3 0.570571 0.587147 0.300410
Si Si4 0.300323 0.586181 0.717317
Si Si5 0.486924 0.914231 0.135805
Si Si6 0.886972 0.415254 0.815268
O O1 0.613951 0.250000 0.485765
O O2 0.671410 0.047687 0.420758
O O3 0.632454 0.045623 0.663025
O O4 0.585220 0.003558 0.434000
O O5 0.347140 0.250000 0.942886
O O6 0.399817 0.448911 0.835527
O O7 0.314444 0.487247 0.846701
O O8 0.360854 0.488222 0.075420
O O9 0.576390 0.750000 0.343143
O O10 0.520388 0.548917 0.262382
O O11 0.250000 0.554487 0.679513
O O12 0.307567 0.750000 0.760735
O O13 0.491218 0.750000 0.095097
O O14 0.438414 0.954277 0.186300
O O15 0.500000 0.000000 0.000000
O O16 0.879753 0.250000 0.852867
#
# Coordination Sequence:
#
# PCOD8240776 Si02
#       6
#     8   8   8   8   8   8
#     4   9  19  34  51  74 102 133 170 210 257 307
#     4  10  19  32  52  76 103 132 166 209 253 299
#     4   9  18  32  48  70  99 134 175 214 253 297
#     4   9  18  35  58  78  97 127 166 205 249 307
#     4  10  19  31  48  71 101 137 179 220 254 293
#     4  10  20  33  50  74 106 139 172 214 257 300
#
# _framework density 17.583936000000001
#
# number of rings (size 3 to 8) (size 9 to 14) (size 15 to 20)
#    0.000    2.500    1.667    0.500    0.000    3.000 
#    0.000    0.833    0.000    3.000    0.000    0.000 
#    0.000    0.000    0.000    0.000    0.000    0.000 
#
# Total GULP energy -595296.352859 kJ/mol
# GULP energy per Si atom -12402.007351 kJ/mol
# Density = 1.754391 g / cm^3
# Si number density = 17.583936 Si / 1000 Ang^3
#
#
#
# Elastic Constant Matrix: (Units=GPa)
#
#
# Indices 1 2 3 4 5 6 
#
# 1 94.8162 40.2632 49.7736 0.0000 0.0000 0.0000
# 2 40.2632 70.9776 61.1879 0.0000 0.0000 0.0000
# 3 49.7736 61.1879 122.7368 0.0000 0.0000 0.0000
# 4 0.0000 0.0000 0.0000 28.7792 0.0000 0.0000
# 5 0.0000 0.0000 0.0000 0.0000 19.7938 0.0000
# 6 0.0000 0.0000 0.0000 0.0000 0.0000 23.8483
#
#
#
# Elastic Compliance Matrix: (Units=1/GPa)
#
#
# Indices 1 2 3 4 5 6 
#
# 1 0.014549 -0.005554 -0.003131 0.000000 0.000000 0.000000
# 2 -0.005554 0.026827 -0.011122 0.000000 0.000000 0.000000
# 3 -0.003131 -0.011122 0.014962 0.000000 0.000000 0.000000
# 4 0.000000 0.000000 0.000000 0.034747 0.000000 0.000000
# 5 0.000000 0.000000 0.000000 0.000000 0.050521 0.000000
# 6 0.000000 0.000000 0.000000 0.000000 0.000000 0.041932
#
#
# Mechanical properties :
#
#
# Convention : Reuss Voigt Hill
#
# Bulk Modulus (GPa) = 59.79367 65.66445 62.72906
# Shear Modulus (GPa) = 21.86011 23.63798 22.74905
#
# Velocity S-wave (km/s) = 3.52971 3.67044 3.60076
# Velocity P-wave (km/s) = 7.11971 7.44227 7.28278
#
# Compressibility (1/GPa) = 0.01672418
#
# Stress axis : x y z
#
# Youngs Moduli (GPa) = 68.73405 37.27540 66.83565
#
# Poissons Ratio (x) = 0.20701 0.20929
# Poissons Ratio (y) = 0.38172 0.74335
# Poissons Ratio (z) = 0.21523 0.41458
#
# Static dielectric constant tensor:
#      x y z
#    x 3.275510 0.000000 0.000000 
#    y 0.000000 3.270490 0.000000 
#    z 0.000000 0.000000 3.245350 
# 
# 
# High freq. dielectric constant tensor:
#      x y z
#    x 1.669310 0.000000 0.000000 
#    y 0.000000 1.679740 0.000000 
#    z 0.000000 0.000000 1.672620 
# 
# From -- ./inp_files/6178.got.cif
#   From: 2010.03.12/outbox.cif.g09.slc.cpg/sg59_4_cif.got.tgz:6178.got - 2010.04.16 16:29:54.
