data_PCOD8240933
_publ_section_title
;
Structure prediction by ZEFSAII (Michael W. Deem and Ramdas Pophale) SiO2 
 PCOD8240933
Probable space group: P M M N
;
_chemical_formula_sum "Si O2"
_cell_formula_units_Z 64
_cell_length_a 9.030779
_cell_length_b 22.422835
_cell_length_c 17.620569
_cell_angle_alpha 90.000000
_cell_angle_beta 90.000000
_cell_angle_gamma 90.000000
_cell_volume 3568.088880
_symmetry_space_group_name_H-M "P M M N"
_symmetry_group_IT_number 59
_space_group.IT_coordinate_system_code '2'
_symmetry_cell_setting 'orthorhombic'
loop_
_space_group_symop_operation_xyz
x,y,z
1/2-x,1/2-y,z
1/2+x,-y,-z
-x,1/2+y,-z
-x,-y,-z
1/2+x,1/2+y,-z
1/2-x,y,z
x,1/2-y,z
loop_
_atom_site_type_symbol
_atom_site_label
_atom_site_fract_x
_atom_site_fract_y
_atom_site_fract_z
Si Si1 0.078304 0.817631 0.244595
Si Si2 0.424536 0.594883 0.819549
Si Si3 0.419629 0.012014 0.922797
Si Si4 0.578280 0.046016 0.334290
Si Si5 0.922669 0.646730 0.096522
Si Si6 0.423166 0.936662 0.500706
Si Si7 0.573235 0.589225 0.356058
Si Si8 0.082191 0.180385 0.069956
O O1 0.250000 0.836536 0.245179
O O2 0.059357 0.750000 0.275415
O O3 0.017207 0.818321 0.158774
O O4 0.985302 0.863152 0.295804
O O5 0.250000 0.605021 0.820557
O O6 0.475095 0.534657 0.861030
O O7 0.488055 0.586085 0.733999
O O8 0.494809 0.651268 0.860782
O O9 0.250000 0.002600 0.942048
O O10 0.449506 0.077022 0.888872
O O11 0.500000 0.000000 0.000000
O O12 0.750000 0.036546 0.317126
O O13 0.554012 0.084107 0.411773
O O14 0.515149 0.977891 0.336443
O O15 0.750000 0.664734 0.104163
O O16 0.983337 0.663446 0.012702
O O17 0.250000 0.941575 0.480469
O O18 0.504893 0.894307 0.439330
O O19 0.500000 0.000000 0.500000
O O20 0.750000 0.593367 0.359654
O O21 0.250000 0.157031 0.072949
O O22 0.070614 0.250000 0.083037
#
# Coordination Sequence:
#
# PCOD8240933 Si02
#       8
#     8   8   8   8   8   8   8   8
#     4  11  24  38  52  75 106 138 177 224 266 309
#     4  10  19  32  51  75 102 133 168 209 254 300
#     4  10  19  31  50  75 103 132 167 210 257 309
#     4   8  16  31  52  79 108 136 167 207 257 311
#     4  10  20  36  56  74  98 135 175 212 258 315
#     4   9  16  29  51  79 110 139 169 206 251 307
#     4  10  19  34  56  79 107 140 172 209 259 320
#     4  10  21  36  52  70  95 131 174 216 256 299
#
# _framework density 17.936772999999999
#
# number of rings (size 3 to 8) (size 9 to 14) (size 15 to 20)
#    0.000    2.250    1.250    3.000    0.000    4.750 
#    0.000    5.000    0.000    0.750    0.000    1.750 
#    0.000    0.000    0.000    0.000    0.000    0.000 
#
# Total GULP energy -793273.089451 kJ/mol
# GULP energy per Si atom -12394.892023 kJ/mol
# Density = 1.789595 g / cm^3
# Si number density = 17.936773 Si / 1000 Ang^3
#
#
#
# Elastic Constant Matrix: (Units=GPa)
#
#
# Indices 1 2 3 4 5 6 
#
# 1 67.6400 25.1140 50.7908 0.0000 0.0000 0.0000
# 2 25.1140 56.9364 41.0084 0.0000 0.0000 0.0000
# 3 50.7908 41.0084 149.1171 0.0000 0.0000 0.0000
# 4 0.0000 0.0000 0.0000 20.0018 0.0000 0.0000
# 5 0.0000 0.0000 0.0000 0.0000 29.7411 0.0000
# 6 0.0000 0.0000 0.0000 0.0000 0.0000 24.5636
#
#
#
# Elastic Compliance Matrix: (Units=1/GPa)
#
#
# Indices 1 2 3 4 5 6 
#
# 1 0.021000 -0.005126 -0.005743 0.000000 0.000000 0.000000
# 2 -0.005126 0.023153 -0.004621 0.000000 0.000000 0.000000
# 3 -0.005743 -0.004621 0.009933 0.000000 0.000000 0.000000
# 4 0.000000 0.000000 0.000000 0.049995 0.000000 0.000000
# 5 0.000000 0.000000 0.000000 0.000000 0.033624 0.000000
# 6 0.000000 0.000000 0.000000 0.000000 0.000000 0.040711
#
#
# Mechanical properties :
#
#
# Convention : Reuss Voigt Hill
#
# Bulk Modulus (GPa) = 43.28082 56.39111 49.83597
# Shear Modulus (GPa) = 23.03101 25.31332 24.17216
#
# Velocity S-wave (km/s) = 3.58720 3.76074 3.67499
# Velocity P-wave (km/s) = 6.42957 7.09680 6.77141
#
# Compressibility (1/GPa) = 0.02310492
#
# Stress axis : x y z
#
# Youngs Moduli (GPa) = 47.61913 43.19084 100.67340
#
# Poissons Ratio (x) = 0.22142 0.57816
# Poissons Ratio (y) = 0.24412 0.46523
# Poissons Ratio (z) = 0.27348 0.19959
#
# Static dielectric constant tensor:
#      x y z
#    x 3.266440 0.000000 0.000000 
#    y 0.000000 3.155260 0.000000 
#    z 0.000000 0.000000 3.722990 
# 
# 
# High freq. dielectric constant tensor:
#      x y z
#    x 1.684510 0.000000 0.000000 
#    y 0.000000 1.669990 0.000000 
#    z 0.000000 0.000000 1.704830 
# 
# From -- ./inp_files/26303.got.cif
#   From: 2010.03.12/outbox.cif.g09.slc.cpg/sg59_14_cif.got.tgz:26303.got - 2010.04.16 16:29:54.
