data_PCOD8240750
_publ_section_title
;
Structure prediction by ZEFSAII (Michael W. Deem and Ramdas Pophale) SiO2 
 PCOD8240750
Probable space group: P M M N
;
_chemical_formula_sum "Si O2"
_cell_formula_units_Z 64
_cell_length_a 9.072953
_cell_length_b 28.096453
_cell_length_c 15.505573
_cell_angle_alpha 90.000000
_cell_angle_beta 90.000000
_cell_angle_gamma 90.000000
_cell_volume 3952.646519
_symmetry_space_group_name_H-M "P M M N"
_symmetry_group_IT_number 59
_space_group.IT_coordinate_system_code '2'
_symmetry_cell_setting 'orthorhombic'
loop_
_space_group_symop_operation_xyz
x,y,z
1/2-x,1/2-y,z
1/2+x,-y,-z
-x,1/2+y,-z
-x,-y,-z
1/2+x,1/2+y,-z
1/2-x,y,z
x,1/2-y,z
loop_
_atom_site_type_symbol
_atom_site_label
_atom_site_fract_x
_atom_site_fract_y
_atom_site_fract_z
Si Si1 0.578435 0.304905 0.334523
Si Si2 0.924568 0.360987 0.841149
Si Si3 0.420218 0.847345 0.845109
Si Si4 0.577430 0.195316 0.672555
Si Si5 0.921329 0.694681 0.005715
Si Si6 0.583558 0.806613 0.496813
Si Si7 0.082038 0.553840 0.923227
Si Si8 0.920560 0.948218 0.099337
O O1 0.750000 0.311085 0.353711
O O2 0.537163 0.250000 0.318453
O O3 0.527767 0.334293 0.250902
O O4 0.493433 0.326348 0.416937
O O5 0.750000 0.361366 0.850579
O O6 0.976169 0.334226 0.755098
O O7 0.986002 0.414864 0.836378
O O8 0.990362 0.335173 0.924125
O O9 0.250000 0.832616 0.859399
O O10 0.518642 0.817820 0.911419
O O11 0.442777 0.904009 0.855123
O O12 0.750000 0.190035 0.656745
O O13 0.532988 0.250000 0.689152
O O14 0.497300 0.173983 0.588529
O O15 0.750000 0.681205 0.010780
O O16 0.947777 0.750000 0.024306
O O17 0.750000 0.825154 0.495205
O O18 0.572817 0.750000 0.497109
O O19 0.250000 0.554198 0.959185
O O20 0.050113 0.503429 0.876383
O O21 0.970828 0.561738 0.001624
O O22 0.750000 0.934567 0.107383
#
# Coordination Sequence:
#
# PCOD8240750 Si02
#       8
#     8   8   8   8   8   8   8   8
#     4   9  17  29  46  68  94 124 157 191 227 272
#     4  11  21  33  49  69  93 125 163 196 233 282
#     4  10  19  32  50  70  92 124 164 198 231 276
#     4   9  18  32  49  68  91 121 157 195 232 275
#     4  11  23  34  44  64  96 130 161 194 233 276
#     4   9  17  29  46  68  93 121 152 189 233 277
#     4   9  18  32  49  69  92 122 159 200 241 283
#     4  10  19  31  48  69  94 122 156 199 246 284
#
# _framework density 16.191683999999999
#
# number of rings (size 3 to 8) (size 9 to 14) (size 15 to 20)
#    0.000    2.250    1.250    2.250    0.000    5.500 
#    0.000    2.500    0.000    0.000    0.000    0.875 
#    0.000    0.000    0.000    0.000    0.000    0.000 
#
# Total GULP energy -793676.221488 kJ/mol
# GULP energy per Si atom -12401.190961 kJ/mol
# Density = 1.615483 g / cm^3
# Si number density = 16.191684 Si / 1000 Ang^3
#
#
#
# Elastic Constant Matrix: (Units=GPa)
#
#
# Indices 1 2 3 4 5 6 
#
# 1 69.8702 32.1690 45.6529 0.0000 0.0000 0.0000
# 2 32.1690 72.5575 41.0011 0.0000 0.0000 0.0000
# 3 45.6529 41.0011 113.2024 0.0000 0.0000 0.0000
# 4 0.0000 0.0000 0.0000 11.8318 0.0000 0.0000
# 5 0.0000 0.0000 0.0000 0.0000 15.6873 0.0000
# 6 0.0000 0.0000 0.0000 0.0000 0.0000 22.1233
#
#
#
# Elastic Compliance Matrix: (Units=1/GPa)
#
#
# Indices 1 2 3 4 5 6 
#
# 1 0.021176 -0.005737 -0.006462 0.000000 0.000000 0.000000
# 2 -0.005737 0.018883 -0.004526 0.000000 0.000000 0.000000
# 3 -0.006462 -0.004526 0.013079 0.000000 0.000000 0.000000
# 4 0.000000 0.000000 0.000000 0.084518 0.000000 0.000000
# 5 0.000000 0.000000 0.000000 0.000000 0.063746 0.000000
# 6 0.000000 0.000000 0.000000 0.000000 0.000000 0.045201
#
#
# Mechanical properties :
#
#
# Convention : Reuss Voigt Hill
#
# Bulk Modulus (GPa) = 50.79086 54.80847 52.79966
# Shear Modulus (GPa) = 17.44502 19.04898 18.24700
#
# Velocity S-wave (km/s) = 3.28595 3.43369 3.36063
# Velocity P-wave (km/s) = 6.77002 7.04582 6.90929
#
# Compressibility (1/GPa) = 0.01968858
#
# Stress axis : x y z
#
# Youngs Moduli (GPa) = 47.22362 52.95746 76.45861
#
# Poissons Ratio (x) = 0.30381 0.49408
# Poissons Ratio (y) = 0.27092 0.34603
# Poissons Ratio (z) = 0.30516 0.23967
#
# Static dielectric constant tensor:
#      x y z
#    x 3.142580 0.000000 0.000000 
#    y 0.000000 3.114620 0.000000 
#    z 0.000000 0.000000 3.032680 
# 
# 
# High freq. dielectric constant tensor:
#      x y z
#    x 1.631310 0.000000 0.000000 
#    y 0.000000 1.604870 0.000000 
#    z 0.000000 0.000000 1.607650 
# 
# From -- ./inp_files/21961.got.cif
#   From: 2010.03.12/outbox.cif.g09.slc.cpg/sg59_11_cif.got.tgz:21961.got - 2010.04.16 16:29:54.
