data_PCOD8240089
_publ_section_title
;
Structure prediction by ZEFSAII (Michael W. Deem and Ramdas Pophale) SiO2 
 PCOD8240089
Probable space group: P M M N
;
_chemical_formula_sum "Si O2"
_cell_formula_units_Z 64
_cell_length_a 9.321398
_cell_length_b 15.237130
_cell_length_c 23.893318
_cell_angle_alpha 90.000000
_cell_angle_beta 90.000000
_cell_angle_gamma 90.000000
_cell_volume 3393.600286
_symmetry_space_group_name_H-M "P M M N"
_symmetry_group_IT_number 59
_space_group.IT_coordinate_system_code '2'
_symmetry_cell_setting 'orthorhombic'
loop_
_space_group_symop_operation_xyz
x,y,z
1/2-x,1/2-y,z
1/2+x,-y,-z
-x,1/2+y,-z
-x,-y,-z
1/2+x,1/2+y,-z
1/2-x,y,z
x,1/2-y,z
loop_
_atom_site_type_symbol
_atom_site_label
_atom_site_fract_x
_atom_site_fract_y
_atom_site_fract_z
Si Si1 0.419169 0.487715 0.196548
Si Si2 0.079904 0.154562 0.623821
Si Si3 0.579286 0.347592 0.873910
Si Si4 0.078983 0.984883 0.688627
Si Si5 0.591448 0.353935 0.996682
Si Si6 0.083169 0.350501 0.101897
Si Si7 0.915469 0.911332 0.494289
Si Si8 0.913003 0.650725 0.615407
O O1 0.250000 0.488486 0.209699
O O2 0.471352 0.581161 0.171453
O O3 0.507915 0.468620 0.251842
O O4 0.460161 0.409478 0.154583
O O5 0.250000 0.154698 0.624579
O O6 0.021218 0.250000 0.643712
O O7 0.025974 0.139081 0.560393
O O8 0.024096 0.078859 0.665341
O O9 0.750000 0.344616 0.877308
O O10 0.520818 0.250000 0.857732
O O11 0.524682 0.377344 0.935672
O O12 0.250000 0.979967 0.693603
O O13 0.026846 0.910183 0.646361
O O14 0.750000 0.395277 0.003647
O O15 0.601156 0.250000 0.000927
O O16 0.492641 0.389877 0.046661
O O17 0.250000 0.357576 0.089339
O O18 0.037538 0.250000 0.114751
O O19 0.750000 0.935946 0.485883
O O20 0.939598 0.851815 0.548828
O O21 0.000000 0.000000 0.500000
O O22 0.750000 0.620308 0.629272
O O23 0.937325 0.750000 0.635918
#
# Coordination Sequence:
#
# PCOD8240089 Si02
#       8
#     8   8   8   8   8   8   8   8
#     4  10  21  36  53  72  98 137 180 218 257 310
#     4   9  18  34  56  80 108 143 177 210 259 321
#     4   8  15  30  52  76 101 131 168 211 261 314
#     4  11  23  38  55  78 107 140 180 229 275 312
#     4   8  14  27  49  75 101 129 163 205 255 311
#     4   9  18  32  49  71 100 132 165 204 253 308
#     4  10  18  32  57  85 113 143 174 212 261 316
#     4  10  21  37  59  84 109 142 182 219 261 320
#
# _framework density 18.859026
#
# number of rings (size 3 to 8) (size 9 to 14) (size 15 to 20)
#    0.000    2.625    1.250    1.500    0.000    3.750 
#    0.000    1.875    0.000    4.500    0.000    0.000 
#    0.000    0.000    0.000    0.000    0.000    0.000 
#
# Total GULP energy -793371.431179 kJ/mol
# GULP energy per Si atom -12396.428612 kJ/mol
# Density = 1.881610 g / cm^3
# Si number density = 18.859026 Si / 1000 Ang^3
#
#
#
# Elastic Constant Matrix: (Units=GPa)
#
#
# Indices 1 2 3 4 5 6 
#
# 1 38.8833 16.4718 23.0483 0.0000 0.0000 0.0000
# 2 16.4718 78.0510 9.4900 0.0000 0.0000 0.0000
# 3 23.0483 9.4900 72.4615 0.0000 0.0000 0.0000
# 4 0.0000 0.0000 0.0000 18.0834 0.0000 0.0000
# 5 0.0000 0.0000 0.0000 0.0000 18.3299 0.0000
# 6 0.0000 0.0000 0.0000 0.0000 0.0000 20.4160
#
#
#
# Elastic Compliance Matrix: (Units=1/GPa)
#
#
# Indices 1 2 3 4 5 6 
#
# 1 0.034252 -0.005999 -0.010109 0.000000 0.000000 0.000000
# 2 -0.005999 0.014070 0.000065 0.000000 0.000000 0.000000
# 3 -0.010109 0.000065 0.017007 0.000000 0.000000 0.000000
# 4 0.000000 0.000000 0.000000 0.055299 0.000000 0.000000
# 5 0.000000 0.000000 0.000000 0.000000 0.054556 0.000000
# 6 0.000000 0.000000 0.000000 0.000000 0.000000 0.048981
#
#
# Mechanical properties :
#
#
# Convention : Reuss Voigt Hill
#
# Bulk Modulus (GPa) = 30.08090 31.93510 31.00800
# Shear Modulus (GPa) = 18.70335 20.72491 19.71413
#
# Velocity S-wave (km/s) = 3.15262 3.31862 3.23668
# Velocity P-wave (km/s) = 5.40713 5.62625 5.51777
#
# Compressibility (1/GPa) = 0.03324368
#
# Stress axis : x y z
#
# Youngs Moduli (GPa) = 29.19580 71.07190 58.79847
#
# Poissons Ratio (x) = 0.42638 0.59439
# Poissons Ratio (y) = 0.17515 -0.00385
# Poissons Ratio (z) = 0.29514 -0.00465
#
# Static dielectric constant tensor:
#      x y z
#    x 3.261460 0.000000 0.000000 
#    y 0.000000 3.760880 0.000000 
#    z 0.000000 0.000000 3.605740 
# 
# 
# High freq. dielectric constant tensor:
#      x y z
#    x 1.699390 0.000000 0.000000 
#    y 0.000000 1.736070 0.000000 
#    z 0.000000 0.000000 1.734430 
# 
# From -- ./inp_files/31529.got.cif
#   From: 2010.03.12/outbox.cif.g09.slc.cpg/sg59_16_cif.got.tgz:31529.got - 2010.04.16 16:29:54.
