data_PCOD8240895
_publ_section_title
;
Structure prediction by ZEFSAII (Michael W. Deem and Ramdas Pophale) SiO2 
 PCOD8240895
Probable space group: P M M N
;
_chemical_formula_sum "Si O2"
_cell_formula_units_Z 64
_cell_length_a 20.311957
_cell_length_b 8.670111
_cell_length_c 20.137867
_cell_angle_alpha 90.000000
_cell_angle_beta 90.000000
_cell_angle_gamma 90.000000
_cell_volume 3546.417769
_symmetry_space_group_name_H-M "P M M N"
_symmetry_group_IT_number 59
_space_group.IT_coordinate_system_code '2'
_symmetry_cell_setting 'orthorhombic'
loop_
_space_group_symop_operation_xyz
x,y,z
1/2-x,1/2-y,z
1/2+x,-y,-z
-x,1/2+y,-z
-x,-y,-z
1/2+x,1/2+y,-z
1/2-x,y,z
x,1/2-y,z
loop_
_atom_site_type_symbol
_atom_site_label
_atom_site_fract_x
_atom_site_fract_y
_atom_site_fract_z
Si Si1 0.547322 0.573261 0.330189
Si Si2 0.676797 0.066711 0.094786
Si Si3 0.323360 0.934135 0.432127
Si Si4 0.396377 0.574367 0.307311
Si Si5 0.823492 0.066797 0.946396
Si Si6 0.576852 0.434796 0.836045
Si Si7 0.565589 0.067357 0.468112
Si Si8 0.938405 0.066929 0.189078
O O1 0.570289 0.750000 0.327486
O O2 0.469088 0.560587 0.337434
O O3 0.578773 0.490883 0.393711
O O4 0.572219 0.489772 0.263925
O O5 0.750000 0.007477 0.114617
O O6 0.676450 0.250000 0.094816
O O7 0.623328 0.003230 0.146571
O O8 0.658970 0.008158 0.020437
O O9 0.250000 0.995407 0.446862
O O10 0.325438 0.750000 0.428773
O O11 0.347237 0.003397 0.360742
O O12 0.371775 0.991874 0.489845
O O13 0.374973 0.750000 0.298562
O O14 0.393768 0.499459 0.233802
O O15 0.750000 0.010351 0.926622
O O16 0.825795 0.250000 0.943648
O O17 0.876913 0.000256 0.894656
O O18 0.572378 0.250000 0.834408
O O19 0.503555 0.499050 0.845362
O O20 0.559496 0.250000 0.468655
O O21 0.500000 0.000000 0.500000
O O22 0.942621 0.250000 0.188171
#
# Coordination Sequence:
#
# PCOD8240895 Si02
#       8
#     8   8   8   8   8   8   8   8
#     4  10  19  34  53  74  98 126 163 209 252 296
#     4   8  15  29  48  69  96 130 171 217 256 294
#     4   9  17  29  46  71 101 129 164 207 241 276
#     4   8  14  26  43  66  94 124 157 194 239 282
#     4   8  14  26  45  70  98 131 173 214 248 289
#     4   9  17  28  46  73 104 132 161 203 249 293
#     4  11  20  32  53  78 100 132 171 205 246 293
#     4  10  19  31  49  74  99 128 165 207 256 307
#
# _framework density 18.046378000000001
#
# number of rings (size 3 to 8) (size 9 to 14) (size 15 to 20)
#    0.000    2.875    1.250    2.625    0.000    1.000 
#    0.000    3.125    0.000    7.875    0.000    3.500 
#    0.000    0.000    0.000    0.000    0.000    0.000 
#
# Total GULP energy -793227.304257 kJ/mol
# GULP energy per Si atom -12394.176629 kJ/mol
# Density = 1.800530 g / cm^3
# Si number density = 18.046378 Si / 1000 Ang^3
#
#
#
# Elastic Constant Matrix: (Units=GPa)
#
#
# Indices 1 2 3 4 5 6 
#
# 1 144.0892 24.4663 103.6596 0.0000 0.0000 0.0000
# 2 24.4663 36.2005 24.8021 0.0000 0.0000 0.0000
# 3 103.6596 24.8021 151.6288 0.0000 0.0000 0.0000
# 4 0.0000 0.0000 0.0000 18.6426 0.0000 0.0000
# 5 0.0000 0.0000 0.0000 0.0000 35.5675 0.0000
# 6 0.0000 0.0000 0.0000 0.0000 0.0000 19.0596
#
#
#
# Elastic Compliance Matrix: (Units=1/GPa)
#
#
# Indices 1 2 3 4 5 6 
#
# 1 0.013992 -0.003269 -0.009031 0.000000 0.000000 0.000000
# 2 -0.003269 0.031874 -0.002979 0.000000 0.000000 0.000000
# 3 -0.009031 -0.002979 0.013256 0.000000 0.000000 0.000000
# 4 0.000000 0.000000 0.000000 0.053640 0.000000 0.000000
# 5 0.000000 0.000000 0.000000 0.000000 0.028116 0.000000
# 6 0.000000 0.000000 0.000000 0.000000 0.000000 0.052467
#
#
# Mechanical properties :
#
#
# Convention : Reuss Voigt Hill
#
# Bulk Modulus (GPa) = 35.00805 70.86385 52.93595
# Shear Modulus (GPa) = 21.42015 26.58665 24.00340
#
# Velocity S-wave (km/s) = 3.44895 3.84244 3.65100
# Velocity P-wave (km/s) = 5.94150 7.68367 6.86805
#
# Compressibility (1/GPa) = 0.02856486
#
# Stress axis : x y z
#
# Youngs Moduli (GPa) = 71.46837 31.37327 75.43674
#
# Poissons Ratio (x) = 0.10257 0.68126
# Poissons Ratio (y) = 0.23366 0.22470
# Poissons Ratio (z) = 0.64542 0.09345
#
# Static dielectric constant tensor:
#      x y z
#    x 3.445800 0.000000 0.000000 
#    y 0.000000 2.919370 0.000000 
#    z 0.000000 0.000000 3.620730 
# 
# 
# High freq. dielectric constant tensor:
#      x y z
#    x 1.689140 0.000000 0.000000 
#    y 0.000000 1.654900 0.000000 
#    z 0.000000 0.000000 1.711630 
# 
# From -- ./inp_files/31005.got.cif
#   From: 2010.03.12/outbox.cif.g09.slc.cpg/sg59_16_cif.got.tgz:31005.got - 2010.04.16 16:29:54.
