data_PCOD8240488
_publ_section_title
;
Structure prediction by ZEFSAII (Michael W. Deem and Ramdas Pophale) SiO2 
 PCOD8240488
Probable space group: P M M N
;
_chemical_formula_sum "Si O2"
_cell_formula_units_Z 64
_cell_length_a 9.286516
_cell_length_b 17.483630
_cell_length_c 23.057776
_cell_angle_alpha 90.000000
_cell_angle_beta 90.000000
_cell_angle_gamma 90.000000
_cell_volume 3743.706851
_symmetry_space_group_name_H-M "P M M N"
_symmetry_group_IT_number 59
_space_group.IT_coordinate_system_code '2'
_symmetry_cell_setting 'orthorhombic'
loop_
_space_group_symop_operation_xyz
x,y,z
1/2-x,1/2-y,z
1/2+x,-y,-z
-x,1/2+y,-z
-x,-y,-z
1/2+x,1/2+y,-z
1/2-x,y,z
x,1/2-y,z
loop_
_atom_site_type_symbol
_atom_site_label
_atom_site_fract_x
_atom_site_fract_y
_atom_site_fract_z
Si Si1 0.581572 0.602000 0.433525
Si Si2 0.917254 0.162338 0.459510
Si Si3 0.913106 0.334064 0.666832
Si Si4 0.585438 0.047915 0.363400
Si Si5 0.581195 0.019460 0.737142
Si Si6 0.917668 0.931342 0.970070
Si Si7 0.081431 0.837254 0.052428
Si Si8 0.416016 0.528013 0.134950
O O1 0.750000 0.616749 0.440021
O O2 0.509083 0.612720 0.495716
O O3 0.516063 0.663141 0.388826
O O4 0.544700 0.517877 0.409611
O O5 0.750000 0.154805 0.476577
O O6 0.968573 0.250000 0.459352
O O7 0.943553 0.128524 0.395089
O O8 0.750000 0.349332 0.645510
O O9 0.927881 0.250000 0.695127
O O10 0.957191 0.395510 0.715130
O O11 0.750000 0.038982 0.343887
O O12 0.491111 0.042901 0.305078
O O13 0.750000 0.001914 0.736997
O O14 0.513113 0.014812 0.801891
O O15 0.750000 0.930027 0.987556
O O16 0.935462 0.948936 0.901362
O O17 0.994807 0.853604 0.992104
O O18 0.000000 0.000000 0.000000
O O19 0.250000 0.851278 0.040258
O O20 0.051737 0.750000 0.071996
O O21 0.022409 0.896540 0.101460
O O22 0.250000 0.546832 0.145687
#
# Coordination Sequence:
#
# PCOD8240488 Si02
#       8
#     8   8   8   8   8   8   8   8
#     4  10  19  30  46  67  90 115 143 177 219 269
#     4  10  20  33  49  67  87 112 143 182 227 273
#     4   9  17  28  42  62  89 119 148 178 214 260
#     4   9  19  34  48  65  90 118 147 181 225 270
#     4   9  17  30  48  67  87 116 155 190 219 258
#     4   9  16  28  46  67  93 124 157 190 226 268
#     4   9  17  29  46  70 100 128 152 185 231 277
#     4   8  15  28  46  68  91 118 153 190 225 262
#
# _framework density 17.095355000000001
#
# number of rings (size 3 to 8) (size 9 to 14) (size 15 to 20)
#    0.000    2.875    0.000    2.250    0.000    3.750 
#    0.000    5.625    0.000    0.750    0.000    8.750 
#    0.000    0.000    0.000    0.000    0.000    0.000 
#
# Total GULP energy -793220.193221 kJ/mol
# GULP energy per Si atom -12394.065519 kJ/mol
# Density = 1.705645 g / cm^3
# Si number density = 17.095355 Si / 1000 Ang^3
#
#
#
# Elastic Constant Matrix: (Units=GPa)
#
#
# Indices 1 2 3 4 5 6 
#
# 1 57.7324 24.6506 44.2711 0.0000 0.0000 0.0000
# 2 24.6506 52.0507 41.6277 0.0000 0.0000 0.0000
# 3 44.2711 41.6277 122.7981 0.0000 0.0000 0.0000
# 4 0.0000 0.0000 0.0000 16.7541 0.0000 0.0000
# 5 0.0000 0.0000 0.0000 0.0000 22.7490 0.0000
# 6 0.0000 0.0000 0.0000 0.0000 0.0000 21.5544
#
#
#
# Elastic Compliance Matrix: (Units=1/GPa)
#
#
# Indices 1 2 3 4 5 6 
#
# 1 0.025432 -0.006464 -0.006977 0.000000 0.000000 0.000000
# 2 -0.006464 0.028001 -0.007162 0.000000 0.000000 0.000000
# 3 -0.006977 -0.007162 0.013087 0.000000 0.000000 0.000000
# 4 0.000000 0.000000 0.000000 0.059687 0.000000 0.000000
# 5 0.000000 0.000000 0.000000 0.000000 0.043958 0.000000
# 6 0.000000 0.000000 0.000000 0.000000 0.000000 0.046394
#
#
# Mechanical properties :
#
#
# Convention : Reuss Voigt Hill
#
# Bulk Modulus (GPa) = 39.50509 50.40886 44.95698
# Shear Modulus (GPa) = 18.78271 20.34696 19.56483
#
# Velocity S-wave (km/s) = 3.31826 3.45368 3.38665
# Velocity P-wave (km/s) = 6.15142 6.74201 6.45348
#
# Compressibility (1/GPa) = 0.02531319
#
# Stress axis : x y z
#
# Youngs Moduli (GPa) = 39.32091 35.71312 76.41340
#
# Poissons Ratio (x) = 0.23085 0.53317
# Poissons Ratio (y) = 0.25417 0.54725
# Poissons Ratio (z) = 0.27436 0.25577
#
# Static dielectric constant tensor:
#      x y z
#    x 3.185750 0.000000 0.000000 
#    y 0.000000 3.256950 0.000000 
#    z 0.000000 0.000000 3.331620 
# 
# 
# High freq. dielectric constant tensor:
#      x y z
#    x 1.649220 0.000000 0.000000 
#    y 0.000000 1.643240 0.000000 
#    z 0.000000 0.000000 1.646940 
# 
# From -- ./inp_files/31774.got.cif
#   From: 2010.03.12/outbox.cif.g09.slc.cpg/sg59_16_cif.got.tgz:31774.got - 2010.04.16 16:29:54.
