data_PCOD8240496
_publ_section_title
;
Structure prediction by ZEFSAII (Michael W. Deem and Ramdas Pophale) SiO2 
 PCOD8240496
Probable space group: P M M N
;
_chemical_formula_sum "Si O2"
_cell_formula_units_Z 64
_cell_length_a 9.216084
_cell_length_b 18.652710
_cell_length_c 19.681857
_cell_angle_alpha 90.000000
_cell_angle_beta 90.000000
_cell_angle_gamma 90.000000
_cell_volume 3383.408490
_symmetry_space_group_name_H-M "P M M N"
_symmetry_group_IT_number 59
_space_group.IT_coordinate_system_code '2'
_symmetry_cell_setting 'orthorhombic'
loop_
_space_group_symop_operation_xyz
x,y,z
1/2-x,1/2-y,z
1/2+x,-y,-z
-x,1/2+y,-z
-x,-y,-z
1/2+x,1/2+y,-z
1/2-x,y,z
x,1/2-y,z
loop_
_atom_site_type_symbol
_atom_site_label
_atom_site_fract_x
_atom_site_fract_y
_atom_site_fract_z
Si Si1 0.414616 0.561552 0.412224
Si Si2 0.079957 0.332004 0.217514
Si Si3 0.584357 0.598165 0.540320
Si Si4 0.920138 0.333239 0.868679
Si Si5 0.582331 0.069674 0.742127
Si Si6 0.912817 0.950104 0.051677
Si Si7 0.089771 0.955356 0.816898
Si Si8 0.590883 0.167049 0.348841
O O1 0.250000 0.582603 0.431974
O O2 0.526405 0.598410 0.463400
O O3 0.434521 0.476355 0.419634
O O4 0.450641 0.589711 0.336280
O O5 0.250000 0.344532 0.220884
O O6 0.042660 0.250000 0.199621
O O7 0.004707 0.384554 0.162722
O O8 0.010192 0.360486 0.287731
O O9 0.750000 0.623316 0.538157
O O10 0.489712 0.655682 0.580308
O O11 0.750000 0.340674 0.884222
O O12 0.969149 0.250000 0.869913
O O13 0.956249 0.364910 0.793484
O O14 0.003943 0.376324 0.928603
O O15 0.750000 0.048013 0.750735
O O16 0.488113 0.999795 0.757622
O O17 0.750000 0.932229 0.023852
O O18 0.897690 0.995741 0.118532
O O19 0.000000 0.000000 0.000000
O O20 0.250000 0.931772 0.792315
O O21 0.750000 0.129370 0.348509
O O22 0.613853 0.250000 0.337881
#
# Coordination Sequence:
#
# PCOD8240496 Si02
#       8
#     8   8   8   8   8   8   8   8
#     4   9  18  31  46  67  95 127 165 209 258 309
#     4  10  20  33  50  73 101 133 169 208 252 305
#     4  10  19  30  46  67  93 127 167 212 260 310
#     4   9  18  34  57  84 112 142 177 219 267 317
#     4   9  17  31  52  75 101 135 175 217 261 312
#     4  10  21  37  58  84 112 144 180 216 256 303
#     4  10  20  33  52  78 105 133 168 210 254 300
#     4  10  20  33  49  68  92 125 163 203 249 301
#
# _framework density 18.915835000000001
#
# number of rings (size 3 to 8) (size 9 to 14) (size 15 to 20)
#    0.000    2.375    0.000    2.625    0.000    5.250 
#    0.000    1.250    0.000    3.000    0.000    0.000 
#    0.000    0.000    0.000    0.000    0.000    0.000 
#
# Total GULP energy -793301.923196 kJ/mol
# GULP energy per Si atom -12395.342550 kJ/mol
# Density = 1.887278 g / cm^3
# Si number density = 18.915835 Si / 1000 Ang^3
#
#
#
# Elastic Constant Matrix: (Units=GPa)
#
#
# Indices 1 2 3 4 5 6 
#
# 1 113.9959 51.6951 18.0540 0.0000 0.0000 0.0000
# 2 51.6951 94.7329 23.9233 0.0000 0.0000 0.0000
# 3 18.0540 23.9233 44.9957 0.0000 0.0000 0.0000
# 4 0.0000 0.0000 0.0000 25.1375 0.0000 0.0000
# 5 0.0000 0.0000 0.0000 0.0000 29.6365 0.0000
# 6 0.0000 0.0000 0.0000 0.0000 0.0000 28.4777
#
#
#
# Elastic Compliance Matrix: (Units=1/GPa)
#
#
# Indices 1 2 3 4 5 6 
#
# 1 0.011745 -0.006028 -0.001507 0.000000 0.000000 0.000000
# 2 -0.006028 0.015287 -0.005709 0.000000 0.000000 0.000000
# 3 -0.001507 -0.005709 0.025865 0.000000 0.000000 0.000000
# 4 0.000000 0.000000 0.000000 0.039781 0.000000 0.000000
# 5 0.000000 0.000000 0.000000 0.000000 0.033742 0.000000
# 6 0.000000 0.000000 0.000000 0.000000 0.000000 0.035115
#
#
# Mechanical properties :
#
#
# Convention : Reuss Voigt Hill
#
# Bulk Modulus (GPa) = 37.86869 49.00770 43.43819
# Shear Modulus (GPa) = 25.40299 27.32048 26.36174
#
# Velocity S-wave (km/s) = 3.66860 3.80454 3.73719
# Velocity P-wave (km/s) = 6.16505 6.72785 6.45259
#
# Compressibility (1/GPa) = 0.02640704
#
# Stress axis : x y z
#
# Youngs Moduli (GPa) = 85.14463 65.41340 38.66293
#
# Poissons Ratio (x) = 0.39434 0.05828
# Poissons Ratio (y) = 0.51328 0.22073
# Poissons Ratio (z) = 0.12834 0.37346
#
# Static dielectric constant tensor:
#      x y z
#    x 3.837620 0.000000 0.000000 
#    y 0.000000 3.434530 0.000000 
#    z 0.000000 0.000000 3.488410 
# 
# 
# High freq. dielectric constant tensor:
#      x y z
#    x 1.748620 0.000000 0.000000 
#    y 0.000000 1.718540 0.000000 
#    z 0.000000 0.000000 1.720050 
# 
# From -- ./inp_files/29592.got.cif
#   From: 2010.03.12/outbox.cif.g09.slc.cpg/sg59_15_cif.got.tgz:29592.got - 2010.04.16 16:29:54.
