data_PCOD8240086
_publ_section_title
;
Structure prediction by ZEFSAII (Michael W. Deem and Ramdas Pophale) SiO2 
 PCOD8240086
Probable space group: P M M N
;
_chemical_formula_sum "Si O2"
_cell_formula_units_Z 56
_cell_length_a 8.928814
_cell_length_b 15.314729
_cell_length_c 21.208065
_cell_angle_alpha 90.000000
_cell_angle_beta 90.000000
_cell_angle_gamma 90.000000
_cell_volume 2900.041001
_symmetry_space_group_name_H-M "P M M N"
_symmetry_group_IT_number 59
_space_group.IT_coordinate_system_code '2'
_symmetry_cell_setting 'orthorhombic'
loop_
_space_group_symop_operation_xyz
x,y,z
1/2-x,1/2-y,z
1/2+x,-y,-z
-x,1/2+y,-z
-x,-y,-z
1/2+x,1/2+y,-z
1/2-x,y,z
x,1/2-y,z
loop_
_atom_site_type_symbol
_atom_site_label
_atom_site_fract_x
_atom_site_fract_y
_atom_site_fract_z
Si Si1 0.426806 0.987882 0.785226
Si Si2 0.078648 0.348460 0.129921
Si Si3 0.424165 0.407980 0.993687
Si Si4 0.572077 0.845341 0.139525
Si Si5 0.575808 0.649528 0.415272
Si Si6 0.427687 0.493857 0.347622
Si Si7 0.572080 0.846623 0.557538
O O1 0.250000 0.989790 0.773828
O O2 0.465590 0.910910 0.833455
O O3 0.487043 0.079636 0.813553
O O4 0.510104 0.969350 0.720345
O O5 0.250000 0.378154 0.142447
O O6 0.053249 0.250000 0.153936
O O7 0.042683 0.350504 0.055430
O O8 0.250000 0.425059 0.984515
O O9 0.500000 0.500000 0.000000
O O10 0.488461 0.360143 0.931557
O O11 0.750000 0.847680 0.139024
O O12 0.514937 0.750000 0.162680
O O13 0.750000 0.626066 0.408299
O O14 0.547411 0.750000 0.396302
O O15 0.482610 0.589228 0.368141
O O16 0.518694 0.632188 0.486482
O O17 0.250000 0.492671 0.345803
O O18 0.491291 0.420270 0.395628
O O19 0.750000 0.845532 0.558450
O O20 0.513234 0.750000 0.577640
#
# Coordination Sequence:
#
# PCOD8240086 Si02
#       7
#     8   8   8   8   8   8   8
#     4  11  23  38  55  78 109 148 190 232 273 322
#     4  10  21  37  58  82 109 143 182 227 281 336
#     4  10  18  32  57  84 109 136 173 223 279 333
#     4   9  18  34  56  79 103 137 181 224 269 324
#     4   9  18  35  59  84 110 142 181 224 272 329
#     4  11  22  35  55  82 113 148 185 227 276 327
#     4   8  16  33  57  83 109 140 180 225 274 329
#
# _framework density 19.310072000000002
#
# number of rings (size 3 to 8) (size 9 to 14) (size 15 to 20)
#    0.000    2.286    1.429    2.571    0.000    3.429 
#    0.000    3.571    0.000    7.286    0.000    0.000 
#    0.000    0.000    0.000    0.000    0.000    0.000 
#
# Total GULP energy -694345.527135 kJ/mol
# GULP energy per Si atom -12399.027270 kJ/mol
# Density = 1.926612 g / cm^3
# Si number density = 19.310072 Si / 1000 Ang^3
#
#
#
# Elastic Constant Matrix: (Units=GPa)
#
#
# Indices 1 2 3 4 5 6 
#
# 1 42.2085 23.6928 21.9712 0.0000 0.0000 0.0000
# 2 23.6928 102.8820 21.8661 0.0000 0.0000 0.0000
# 3 21.9712 21.8661 69.5931 0.0000 0.0000 0.0000
# 4 0.0000 0.0000 0.0000 16.2194 0.0000 0.0000
# 5 0.0000 0.0000 0.0000 0.0000 28.1184 0.0000
# 6 0.0000 0.0000 0.0000 0.0000 0.0000 27.1675
#
#
#
# Elastic Compliance Matrix: (Units=1/GPa)
#
#
# Indices 1 2 3 4 5 6 
#
# 1 0.030925 -0.005408 -0.008064 0.000000 0.000000 0.000000
# 2 -0.005408 0.011361 -0.001862 0.000000 0.000000 0.000000
# 3 -0.008064 -0.001862 0.017500 0.000000 0.000000 0.000000
# 4 0.000000 0.000000 0.000000 0.061655 0.000000 0.000000
# 5 0.000000 0.000000 0.000000 0.000000 0.035564 0.000000
# 6 0.000000 0.000000 0.000000 0.000000 0.000000 0.036809
#
#
# Mechanical properties :
#
#
# Convention : Reuss Voigt Hill
#
# Bulk Modulus (GPa) = 34.34329 38.86044 36.60187
# Shear Modulus (GPa) = 21.35031 24.11129 22.73080
#
# Velocity S-wave (km/s) = 3.32875 3.53744 3.43468
# Velocity P-wave (km/s) = 5.70945 6.07065 5.89282
#
# Compressibility (1/GPa) = 0.02911777
#
# Stress axis : x y z
#
# Youngs Moduli (GPa) = 32.33607 88.01995 57.14174
#
# Poissons Ratio (x) = 0.47600 0.46081
# Poissons Ratio (y) = 0.17487 0.10642
# Poissons Ratio (z) = 0.26077 0.16392
#
# Static dielectric constant tensor:
#      x y z
#    x 3.185760 0.000000 0.000000 
#    y 0.000000 3.765640 0.000000 
#    z 0.000000 0.000000 3.598710 
# 
# 
# High freq. dielectric constant tensor:
#      x y z
#    x 1.717410 0.000000 0.000000 
#    y 0.000000 1.763440 0.000000 
#    z 0.000000 0.000000 1.752590 
# 
# From -- ./inp_files/29009.got.cif
#   From: 2010.03.12/outbox.cif.g09.slc.cpg/sg59_15_cif.got.tgz:29009.got - 2010.04.16 16:29:54.
