data_PCOD8240166
_publ_section_title
;
Structure prediction by ZEFSAII (Michael W. Deem and Ramdas Pophale) SiO2 
 PCOD8240166
Probable space group: P M M N
;
_chemical_formula_sum "Si O2"
_cell_formula_units_Z 48
_cell_length_a 9.229942
_cell_length_b 9.940347
_cell_length_c 29.133354
_cell_angle_alpha 90.000000
_cell_angle_beta 90.000000
_cell_angle_gamma 90.000000
_cell_volume 2672.951035
_symmetry_space_group_name_H-M "P M M N"
_symmetry_group_IT_number 59
_space_group.IT_coordinate_system_code '2'
_symmetry_cell_setting 'orthorhombic'
loop_
_space_group_symop_operation_xyz
x,y,z
1/2-x,1/2-y,z
1/2+x,-y,-z
-x,1/2+y,-z
-x,-y,-z
1/2+x,1/2+y,-z
1/2-x,y,z
x,1/2-y,z
loop_
_atom_site_type_symbol
_atom_site_label
_atom_site_fract_x
_atom_site_fract_y
_atom_site_fract_z
Si Si1 0.419972 0.903915 0.795958
Si Si2 0.920961 0.596485 0.464947
Si Si3 0.922089 0.250000 0.034009
Si Si4 0.579373 0.472026 0.103454
Si Si5 0.920423 0.750000 0.062227
Si Si6 0.580594 0.092783 0.725030
Si Si7 0.590216 0.909192 0.363050
O O1 0.250000 0.937663 0.793198
O O2 0.450099 0.750000 0.781276
O O3 0.482201 0.926895 0.847296
O O4 0.503843 0.006094 0.763708
O O5 0.750000 0.586523 0.472387
O O6 0.973482 0.750000 0.472641
O O7 0.961968 0.545169 0.413612
O O8 0.000000 0.500000 0.500000
O O9 0.750000 0.250000 0.026736
O O10 0.978611 0.121051 0.062331
O O11 0.996698 0.250000 0.985241
O O12 0.750000 0.453816 0.105598
O O13 0.531840 0.623478 0.092707
O O14 0.750000 0.750000 0.051566
O O15 0.750000 0.064340 0.726491
O O16 0.544986 0.250000 0.733283
O O17 0.522441 0.042911 0.675567
O O18 0.750000 0.969237 0.351868
O O19 0.602244 0.750000 0.363858
#
# Coordination Sequence:
#
# PCOD8240166 Si02
#       7
#     8   8   4   8   4   8   8
#     4  10  20  36  57  78 100 134 178 216 255 308
#     4   9  18  32  51  77 108 140 178 221 262 308
#     4  10  18  34  54  72 100 134 164 200 247 298
#     4   9  18  33  53  75  99 129 167 208 247 295
#     4  10  20  32  50  78 104 126 164 208 245 294
#     4  10  21  35  53  80 109 134 166 214 268 319
#     4   8  15  31  53  75 101 137 180 221 258 303
#
# _framework density 17.957678999999999
#
# number of rings (size 3 to 8) (size 9 to 14) (size 15 to 20)
#    0.000    2.667    0.833    2.000    1.167    2.333 
#    0.000    4.167    0.000    1.000    0.000    0.000 
#    0.000    0.000    0.000    0.000    0.000    0.000 
#
# Total GULP energy -595063.319969 kJ/mol
# GULP energy per Si atom -12397.152499 kJ/mol
# Density = 1.791681 g / cm^3
# Si number density = 17.957679 Si / 1000 Ang^3
#
#
#
# Elastic Constant Matrix: (Units=GPa)
#
#
# Indices 1 2 3 4 5 6 
#
# 1 64.3227 43.9748 58.5410 0.0000 0.0000 0.0000
# 2 43.9748 97.5654 55.2089 0.0000 0.0000 0.0000
# 3 58.5410 55.2089 137.3310 0.0000 0.0000 0.0000
# 4 0.0000 0.0000 0.0000 67.6470 0.0000 0.0000
# 5 0.0000 0.0000 0.0000 0.0000 32.2569 0.0000
# 6 0.0000 0.0000 0.0000 0.0000 0.0000 21.9030
#
#
#
# Elastic Compliance Matrix: (Units=1/GPa)
#
#
# Indices 1 2 3 4 5 6 
#
# 1 0.029564 -0.008018 -0.009379 0.000000 0.000000 0.000000
# 2 -0.008018 0.015442 -0.002790 0.000000 0.000000 0.000000
# 3 -0.009379 -0.002790 0.012402 0.000000 0.000000 0.000000
# 4 0.000000 0.000000 0.000000 0.014783 0.000000 0.000000
# 5 0.000000 0.000000 0.000000 0.000000 0.031001 0.000000
# 6 0.000000 0.000000 0.000000 0.000000 0.000000 0.045656
#
#
# Mechanical properties :
#
#
# Convention : Reuss Voigt Hill
#
# Bulk Modulus (GPa) = 58.70799 68.29651 63.50225
# Shear Modulus (GPa) = 25.65418 33.79433 29.72426
#
# Velocity S-wave (km/s) = 3.78377 4.34278 4.07288
# Velocity P-wave (km/s) = 7.20088 7.95367 7.58661
#
# Compressibility (1/GPa) = 0.01703346
#
# Stress axis : x y z
#
# Youngs Moduli (GPa) = 33.82455 64.75756 80.63523
#
# Poissons Ratio (x) = 0.51922 0.75630
# Poissons Ratio (y) = 0.27120 0.22498
# Poissons Ratio (z) = 0.31725 0.18068
#
# Static dielectric constant tensor:
#      x y z
#    x 3.017650 0.000000 0.000000 
#    y 0.000000 3.385300 0.000000 
#    z 0.000000 0.000000 3.597110 
# 
# 
# High freq. dielectric constant tensor:
#      x y z
#    x 1.671600 0.000000 0.000000 
#    y 0.000000 1.685550 0.000000 
#    z 0.000000 0.000000 1.707200 
# 
# From -- ./inp_files/33026.got.cif
#   From: 2010.03.12/outbox.cif.g09.slc.cpg/sg59_17_cif.got.tgz:33026.got - 2010.04.16 16:29:54.
