data_PCOD8240825
_publ_section_title
;
Structure prediction by ZEFSAII (Michael W. Deem and Ramdas Pophale) SiO2 
 PCOD8240825
Probable space group: P M M N
;
_chemical_formula_sum "Si O2"
_cell_formula_units_Z 64
_cell_length_a 9.038408
_cell_length_b 24.541410
_cell_length_c 15.067834
_cell_angle_alpha 90.000000
_cell_angle_beta 90.000000
_cell_angle_gamma 90.000000
_cell_volume 3342.275765
_symmetry_space_group_name_H-M "P M M N"
_symmetry_group_IT_number 59
_space_group.IT_coordinate_system_code '2'
_symmetry_cell_setting 'orthorhombic'
loop_
_space_group_symop_operation_xyz
x,y,z
1/2-x,1/2-y,z
1/2+x,-y,-z
-x,1/2+y,-z
-x,-y,-z
1/2+x,1/2+y,-z
1/2-x,y,z
x,1/2-y,z
loop_
_atom_site_type_symbol
_atom_site_label
_atom_site_fract_x
_atom_site_fract_y
_atom_site_fract_z
Si Si1 0.419139 0.810135 0.439461
Si Si2 0.573993 0.607324 0.786412
Si Si3 0.411958 0.544271 0.550256
Si Si4 0.075240 0.189770 0.065873
Si Si5 0.579796 0.686406 0.135364
Si Si6 0.413956 0.500833 0.744354
Si Si7 0.074571 0.885443 0.278047
Si Si8 0.423723 0.146354 0.406085
O O1 0.250000 0.823360 0.461858
O O2 0.435665 0.750000 0.395752
O O3 0.479089 0.855151 0.368558
O O4 0.504705 0.805908 0.534743
O O5 0.750000 0.599433 0.787425
O O6 0.512589 0.644615 0.866444
O O7 0.503735 0.547074 0.799127
O O8 0.525823 0.639745 0.696413
O O9 0.500000 0.500000 0.500000
O O10 0.250000 0.554714 0.506904
O O11 0.390603 0.527423 0.650149
O O12 0.516084 0.595680 0.538075
O O13 0.250000 0.193037 0.077039
O O14 0.009543 0.250000 0.087812
O O15 0.034872 0.172755 0.965913
O O16 0.750000 0.669954 0.153509
O O17 0.556465 0.750000 0.154699
O O18 0.471198 0.651736 0.195700
O O19 0.250000 0.490526 0.786545
O O20 0.501586 0.444532 0.734571
O O21 0.250000 0.892784 0.277591
O O22 0.250000 0.151619 0.411634
#
# Coordination Sequence:
#
# PCOD8240825 Si02
#       8
#     8   8   8   8   8   8   8   8
#     4  10  22  38  53  72 103 142 179 218 267 319
#     4   9  18  34  56  81 110 142 176 215 258 307
#     4  10  19  31  49  71  96 129 169 214 258 301
#     4   8  15  31  57  85 109 135 169 210 259 315
#     4   9  18  34  57  83 108 135 170 214 265 319
#     4  10  21  35  51  74 105 139 177 219 263 313
#     4  11  22  36  55  77 103 138 180 223 268 316
#     4  10  20  32  49  75 104 135 171 210 252 300
#
# _framework density 19.148630000000001
#
# number of rings (size 3 to 8) (size 9 to 14) (size 15 to 20)
#    0.000    2.375    0.000    3.375    0.000    6.500 
#    0.000    2.500    0.000    1.125    0.000    0.000 
#    0.000    0.000    0.000    0.000    0.000    0.000 
#
# Total GULP energy -792970.536500 kJ/mol
# GULP energy per Si atom -12390.164633 kJ/mol
# Density = 1.910505 g / cm^3
# Si number density = 19.148630 Si / 1000 Ang^3
#
#
#
# Elastic Constant Matrix: (Units=GPa)
#
#
# Indices 1 2 3 4 5 6 
#
# 1 58.6331 40.0947 40.6756 0.0000 0.0000 0.0000
# 2 40.0947 107.6343 48.4204 0.0000 0.0000 0.0000
# 3 40.6756 48.4204 84.0913 0.0000 0.0000 0.0000
# 4 0.0000 0.0000 0.0000 32.6731 0.0000 0.0000
# 5 0.0000 0.0000 0.0000 0.0000 22.3697 0.0000
# 6 0.0000 0.0000 0.0000 0.0000 0.0000 27.9193
#
#
#
# Elastic Compliance Matrix: (Units=1/GPa)
#
#
# Indices 1 2 3 4 5 6 
#
# 1 0.028191 -0.005894 -0.010243 0.000000 0.000000 0.000000
# 2 -0.005894 0.013771 -0.005079 0.000000 0.000000 0.000000
# 3 -0.010243 -0.005079 0.019771 0.000000 0.000000 0.000000
# 4 0.000000 0.000000 0.000000 0.030606 0.000000 0.000000
# 5 0.000000 0.000000 0.000000 0.000000 0.044703 0.000000
# 6 0.000000 0.000000 0.000000 0.000000 0.000000 0.035818
#
#
# Mechanical properties :
#
#
# Convention : Reuss Voigt Hill
#
# Bulk Modulus (GPa) = 51.80603 56.52669 54.16636
# Shear Modulus (GPa) = 22.55064 24.67029 23.61046
#
# Velocity S-wave (km/s) = 3.43543 3.59326 3.51523
# Velocity P-wave (km/s) = 6.54597 6.84101 6.69512
#
# Compressibility (1/GPa) = 0.01930277
#
# Stress axis : x y z
#
# Youngs Moduli (GPa) = 35.47223 72.61754 50.58037
#
# Poissons Ratio (x) = 0.42798 0.51808
# Poissons Ratio (y) = 0.20906 0.25687
# Poissons Ratio (z) = 0.36333 0.36879
#
# Static dielectric constant tensor:
#      x y z
#    x 3.486520 0.000000 0.000000 
#    y 0.000000 3.691070 0.000000 
#    z 0.000000 0.000000 3.460650 
# 
# 
# High freq. dielectric constant tensor:
#      x y z
#    x 1.733400 0.000000 0.000000 
#    y 0.000000 1.751830 0.000000 
#    z 0.000000 0.000000 1.732540 
# 
# From -- ./inp_files/21442.got.cif
#   From: 2010.03.12/outbox.cif.g09.slc.cpg/sg59_11_cif.got.tgz:21442.got - 2010.04.16 16:29:54.
