data_PCOD8240219
_publ_section_title
;
Structure prediction by ZEFSAII (Michael W. Deem and Ramdas Pophale) SiO2 
 PCOD8240219
Probable space group: P M M N
;
_chemical_formula_sum "Si O2"
_cell_formula_units_Z 48
_cell_length_a 16.264745
_cell_length_b 17.114103
_cell_length_c 9.588817
_cell_angle_alpha 90.000000
_cell_angle_beta 90.000000
_cell_angle_gamma 90.000000
_cell_volume 2669.109743
_symmetry_space_group_name_H-M "P M M N"
_symmetry_group_IT_number 59
_space_group.IT_coordinate_system_code '2'
_symmetry_cell_setting 'orthorhombic'
loop_
_space_group_symop_operation_xyz
x,y,z
1/2-x,1/2-y,z
1/2+x,-y,-z
-x,1/2+y,-z
-x,-y,-z
1/2+x,1/2+y,-z
1/2-x,y,z
x,1/2-y,z
loop_
_atom_site_type_symbol
_atom_site_label
_atom_site_fract_x
_atom_site_fract_y
_atom_site_fract_z
Si Si1 0.043357 0.339618 0.781889
Si Si2 0.654672 0.525800 0.103490
Si Si3 0.568494 0.449064 0.326733
Si Si4 0.578715 0.461838 0.824403
Si Si5 0.549331 0.837435 0.550501
Si Si6 0.657611 0.524580 0.577426
O O1 0.053653 0.250000 0.832678
O O2 0.119562 0.391433 0.839649
O O3 0.041456 0.344159 0.615254
O O4 0.955489 0.372975 0.840538
O O5 0.750000 0.536456 0.066374
O O6 0.645071 0.455645 0.218851
O O7 0.602941 0.499852 0.969749
O O8 0.496456 0.493055 0.246157
O O9 0.536033 0.364006 0.373061
O O10 0.592370 0.493060 0.467357
O O11 0.654898 0.470960 0.717010
O O12 0.566419 0.750000 0.599000
O O13 0.626891 0.887218 0.607688
O O14 0.750000 0.525016 0.518853
#
# Coordination Sequence:
#
# PCOD8240219 Si02
#       6
#     8   8   8   8   8   8
#     4  10  19  34  57  82 107 139 178 223 270 324
#     4  11  22  35  55  84 112 143 182 225 273 323
#     4  10  18  35  55  78 105 143 188 221 254 324
#     4  10  19  37  54  77 109 149 189 218 256 327
#     4  10  19  33  55  82 110 138 177 226 274 323
#     4  11  19  32  55  81 110 141 177 227 276 318
#
# _framework density 17.983523999999999
#
# number of rings (size 3 to 8) (size 9 to 14) (size 15 to 20)
#    0.000    1.667    5.000    4.000    0.000    0.667 
#    0.000    9.167    0.000   10.000    0.000    0.000 
#    0.000    0.000    0.000    0.000    0.000    0.000 
#
# Total GULP energy -594654.782560 kJ/mol
# GULP energy per Si atom -12388.641303 kJ/mol
# Density = 1.794259 g / cm^3
# Si number density = 17.983524 Si / 1000 Ang^3
#
#
#
# Elastic Constant Matrix: (Units=GPa)
#
#
# Indices 1 2 3 4 5 6 
#
# 1 95.4050 54.1466 22.5384 0.0000 0.0000 0.0000
# 2 54.1466 56.2373 26.6130 0.0000 0.0000 0.0000
# 3 22.5384 26.6130 83.6638 0.0000 0.0000 0.0000
# 4 0.0000 0.0000 0.0000 21.8413 0.0000 0.0000
# 5 0.0000 0.0000 0.0000 0.0000 26.5001 0.0000
# 6 0.0000 0.0000 0.0000 0.0000 0.0000 14.5985
#
#
#
# Elastic Compliance Matrix: (Units=1/GPa)
#
#
# Indices 1 2 3 4 5 6 
#
# 1 0.023182 -0.022796 0.001006 0.000000 0.000000 0.000000
# 2 -0.022796 0.043350 -0.007648 0.000000 0.000000 0.000000
# 3 0.001006 -0.007648 0.014114 0.000000 0.000000 0.000000
# 4 0.000000 0.000000 0.000000 0.045785 0.000000 0.000000
# 5 0.000000 0.000000 0.000000 0.000000 0.037736 0.000000
# 6 0.000000 0.000000 0.000000 0.000000 0.000000 0.068500
#
#
# Mechanical properties :
#
#
# Convention : Reuss Voigt Hill
#
# Bulk Modulus (GPa) = 45.93513 49.10025 47.51769
# Shear Modulus (GPa) = 16.73365 21.38852 19.06108
#
# Velocity S-wave (km/s) = 3.05372 3.45242 3.25917
# Velocity P-wave (km/s) = 6.16700 6.57681 6.37520
#
# Compressibility (1/GPa) = 0.02176983
#
# Stress axis : x y z
#
# Youngs Moduli (GPa) = 43.13745 23.06817 70.84984
#
# Poissons Ratio (x) = 0.52586 -0.07130
# Poissons Ratio (y) = 0.98337 0.54188
# Poissons Ratio (z) = -0.04341 0.17643
#
# Static dielectric constant tensor:
#      x y z
#    x 3.449710 0.000000 0.000000 
#    y 0.000000 3.508370 0.000000 
#    z 0.000000 0.000000 3.529000 
# 
# 
# High freq. dielectric constant tensor:
#      x y z
#    x 1.686340 0.000000 0.000000 
#    y 0.000000 1.670720 0.000000 
#    z 0.000000 0.000000 1.705100 
# 
# From -- ./inp_files/10397.got.cif
#   From: 2010.03.12/outbox.cif.g09.slc.cpg/sg59_6_cif.got.tgz:10397.got - 2010.04.16 16:29:54.
