data_PCOD8240636
_publ_section_title
;
Structure prediction by ZEFSAII (Michael W. Deem and Ramdas Pophale) SiO2 
 PCOD8240636
Probable space group: P M M N
;
_chemical_formula_sum "Si O2"
_cell_formula_units_Z 48
_cell_length_a 20.303747
_cell_length_b 8.791075
_cell_length_c 15.078090
_cell_angle_alpha 90.000000
_cell_angle_beta 90.000000
_cell_angle_gamma 90.000000
_cell_volume 2691.314862
_symmetry_space_group_name_H-M "P M M N"
_symmetry_group_IT_number 59
_space_group.IT_coordinate_system_code '2'
_symmetry_cell_setting 'orthorhombic'
loop_
_space_group_symop_operation_xyz
x,y,z
1/2-x,1/2-y,z
1/2+x,-y,-z
-x,1/2+y,-z
-x,-y,-z
1/2+x,1/2+y,-z
1/2-x,y,z
x,1/2-y,z
loop_
_atom_site_type_symbol
_atom_site_label
_atom_site_fract_x
_atom_site_fract_y
_atom_site_fract_z
Si Si1 0.948097 0.571235 0.431821
Si Si2 0.676589 0.423734 0.509301
Si Si3 0.347473 0.421146 0.313897
Si Si4 0.963127 0.071944 0.917915
Si Si5 0.504271 0.923072 0.733976
Si Si6 0.821457 0.423850 0.865373
O O1 0.959857 0.750000 0.431485
O O2 0.873573 0.535246 0.460112
O O3 0.954564 0.507053 0.332282
O O4 0.000000 0.500000 0.500000
O O5 0.750000 0.443424 0.468884
O O6 0.652403 0.250000 0.499467
O O7 0.680150 0.465225 0.612849
O O8 0.323673 0.250000 0.334241
O O9 0.425957 0.429513 0.314503
O O10 0.318884 0.469298 0.219671
O O11 0.975741 0.250000 0.919257
O O12 0.884640 0.032039 0.925799
O O13 0.994056 0.006712 0.828049
O O14 0.000000 0.000000 0.000000
O O15 0.481132 0.750000 0.749655
O O16 0.750000 0.443424 0.914901
O O17 0.830918 0.250000 0.833800
#
# Coordination Sequence:
#
# PCOD8240636 Si02
#       6
#     8   8   8   8   8   8
#     4  12  23  36  56  80 108 144 186 229 270 321
#     4  11  23  36  51  73 106 147 187 228 274 324
#     4  10  19  30  48  75 107 141 175 215 264 320
#     4  10  20  35  56  81 109 140 177 223 273 327
#     4  10  20  35  55  80 108 141 180 224 270 323
#     4   9  18  32  50  73 104 140 174 211 261 323
#
# _framework density 17.835149000000001
#
# number of rings (size 3 to 8) (size 9 to 14) (size 15 to 20)
#    0.000    1.667    1.667    4.000    0.000    5.667 
#    0.000    0.000    0.000    1.000    0.000    2.333 
#    0.000    0.000    0.000    0.000    0.000    0.000 
#
# Total GULP energy -595125.948557 kJ/mol
# GULP energy per Si atom -12398.457262 kJ/mol
# Density = 1.779456 g / cm^3
# Si number density = 17.835149 Si / 1000 Ang^3
#
#
#
# Elastic Constant Matrix: (Units=GPa)
#
#
# Indices 1 2 3 4 5 6 
#
# 1 109.4046 44.1498 57.4218 0.0000 0.0000 0.0000
# 2 44.1498 112.9890 47.7897 0.0000 0.0000 0.0000
# 3 57.4218 47.7897 95.6108 0.0000 0.0000 0.0000
# 4 0.0000 0.0000 0.0000 32.7163 0.0000 0.0000
# 5 0.0000 0.0000 0.0000 0.0000 18.3486 0.0000
# 6 0.0000 0.0000 0.0000 0.0000 0.0000 24.3181
#
#
#
# Elastic Compliance Matrix: (Units=1/GPa)
#
#
# Indices 1 2 3 4 5 6 
#
# 1 0.013843 -0.002400 -0.007114 0.000000 0.000000 0.000000
# 2 -0.002400 0.011639 -0.004376 0.000000 0.000000 0.000000
# 3 -0.007114 -0.004376 0.016919 0.000000 0.000000 0.000000
# 4 0.000000 0.000000 0.000000 0.030566 0.000000 0.000000
# 5 0.000000 0.000000 0.000000 0.000000 0.054500 0.000000
# 6 0.000000 0.000000 0.000000 0.000000 0.000000 0.041122
#
#
# Mechanical properties :
#
#
# Convention : Reuss Voigt Hill
#
# Bulk Modulus (GPa) = 68.39811 68.52521 68.46166
# Shear Modulus (GPa) = 24.84560 26.31946 25.58253
#
# Velocity S-wave (km/s) = 3.73643 3.84566 3.79144
# Velocity P-wave (km/s) = 7.55301 7.63044 7.59183
#
# Compressibility (1/GPa) = 0.01462029
#
# Stress axis : x y z
#
# Youngs Moduli (GPa) = 72.23986 85.91647 59.10498
#
# Poissons Ratio (x) = 0.20620 0.42048
# Poissons Ratio (y) = 0.17338 0.25866
# Poissons Ratio (z) = 0.51392 0.37600
#
# Static dielectric constant tensor:
#      x y z
#    x 3.484830 0.000000 0.000000 
#    y 0.000000 3.462470 0.000000 
#    z 0.000000 0.000000 3.041520 
# 
# 
# High freq. dielectric constant tensor:
#      x y z
#    x 1.691440 0.000000 0.000000 
#    y 0.000000 1.707390 0.000000 
#    z 0.000000 0.000000 1.654450 
# 
# From -- ./inp_files/20437.got.cif
#   From: 2010.03.12/outbox.cif.g09.slc.cpg/sg59_11_cif.got.tgz:20437.got - 2010.04.16 16:29:54.
