data_PCOD8240476
_publ_section_title
;
Structure prediction by ZEFSAII (Michael W. Deem and Ramdas Pophale) SiO2 
 PCOD8240476
Probable space group: P M M N
;
_chemical_formula_sum "Si O2"
_cell_formula_units_Z 64
_cell_length_a 8.699473
_cell_length_b 29.834950
_cell_length_c 14.978243
_cell_angle_alpha 90.000000
_cell_angle_beta 90.000000
_cell_angle_gamma 90.000000
_cell_volume 3887.578136
_symmetry_space_group_name_H-M "P M M N"
_symmetry_group_IT_number 59
_space_group.IT_coordinate_system_code '2'
_symmetry_cell_setting 'orthorhombic'
loop_
_space_group_symop_operation_xyz
x,y,z
1/2-x,1/2-y,z
1/2+x,-y,-z
-x,1/2+y,-z
-x,-y,-z
1/2+x,1/2+y,-z
1/2-x,y,z
x,1/2-y,z
loop_
_atom_site_type_symbol
_atom_site_label
_atom_site_fract_x
_atom_site_fract_y
_atom_site_fract_z
Si Si1 0.569671 0.300248 0.005302
Si Si2 0.568678 0.891074 0.045024
Si Si3 0.926469 0.530297 0.365803
Si Si4 0.572017 0.700534 0.804776
Si Si5 0.428286 0.443561 0.445269
Si Si6 0.432905 0.443678 0.128898
Si Si7 0.930376 0.884710 0.709986
Si Si8 0.430302 0.541790 0.178468
O O1 0.750000 0.304426 0.992235
O O2 0.514191 0.250000 0.975252
O O3 0.491148 0.339897 0.948887
O O4 0.528869 0.307676 0.108265
O O5 0.750000 0.889151 0.041069
O O6 0.516047 0.916685 0.133505
O O7 0.503049 0.918315 0.959022
O O8 0.750000 0.531766 0.334147
O O9 0.956360 0.564435 0.449125
O O10 0.963890 0.481679 0.404838
O O11 0.034520 0.543181 0.283791
O O12 0.750000 0.692544 0.831641
O O13 0.546754 0.750000 0.765105
O O14 0.514388 0.665971 0.729041
O O15 0.250000 0.456785 0.428085
O O16 0.474963 0.398640 0.390813
O O17 0.250000 0.443042 0.128385
O O18 0.500807 0.418529 0.216054
O O19 0.490088 0.495241 0.134062
O O20 0.750000 0.887217 0.722590
O O21 0.250000 0.547507 0.164458
#
# Coordination Sequence:
#
# PCOD8240476 Si02
#       8
#     8   8   8   8   8   8   8   8
#     4  10  20  33  48  68  95 125 157 192 233 281
#     4  11  21  34  50  70  94 123 161 201 235 275
#     4  10  19  30  45  68  91 117 157 200 237 276
#     4   9  16  27  46  69  92 120 154 192 230 271
#     4   9  17  30  48  65  89 123 154 190 238 283
#     4   9  17  29  46  67  94 128 161 190 226 277
#     4   9  14  26  46  68  92 122 157 187 228 283
#     4  11  21  34  49  65  93 131 163 195 238 283
#
# _framework density 16.462693000000002
#
# number of rings (size 3 to 8) (size 9 to 14) (size 15 to 20)
#    0.000    2.250    2.500    1.875    0.000    1.250 
#    0.000    3.750    0.000    0.000    0.000    0.875 
#    0.000    3.000    0.000    0.000    0.000    0.000 
#
# Total GULP energy -793242.921700 kJ/mol
# GULP energy per Si atom -12394.420652 kJ/mol
# Density = 1.642522 g / cm^3
# Si number density = 16.462693 Si / 1000 Ang^3
#
#
#
# Elastic Constant Matrix: (Units=GPa)
#
#
# Indices 1 2 3 4 5 6 
#
# 1 35.0207 24.9267 13.7085 0.0000 0.0000 0.0000
# 2 24.9267 126.6139 49.8087 0.0000 0.0000 0.0000
# 3 13.7085 49.8087 75.0597 0.0000 0.0000 0.0000
# 4 0.0000 0.0000 0.0000 25.1086 0.0000 0.0000
# 5 0.0000 0.0000 0.0000 0.0000 19.3402 0.0000
# 6 0.0000 0.0000 0.0000 0.0000 0.0000 19.1750
#
#
#
# Elastic Compliance Matrix: (Units=1/GPa)
#
#
# Indices 1 2 3 4 5 6 
#
# 1 0.033513 -0.005670 -0.002358 0.000000 0.000000 0.000000
# 2 -0.005670 0.011648 -0.006694 0.000000 0.000000 0.000000
# 3 -0.002358 -0.006694 0.018195 0.000000 0.000000 0.000000
# 4 0.000000 0.000000 0.000000 0.039827 0.000000 0.000000
# 5 0.000000 0.000000 0.000000 0.000000 0.051706 0.000000
# 6 0.000000 0.000000 0.000000 0.000000 0.000000 0.052151
#
#
# Mechanical properties :
#
#
# Convention : Reuss Voigt Hill
#
# Bulk Modulus (GPa) = 29.48764 45.95355 37.72060
# Shear Modulus (GPa) = 20.17857 22.60815 21.39336
#
# Velocity S-wave (km/s) = 3.50482 3.70982 3.60878
# Velocity P-wave (km/s) = 5.85910 6.80623 6.35034
#
# Compressibility (1/GPa) = 0.03391251
#
# Stress axis : x y z
#
# Youngs Moduli (GPa) = 29.83875 85.85514 54.95975
#
# Poissons Ratio (x) = 0.48682 0.12959
# Poissons Ratio (y) = 0.16919 0.36788
# Poissons Ratio (z) = 0.07036 0.57468
#
# Static dielectric constant tensor:
#      x y z
#    x 2.949310 0.000000 0.000000 
#    y 0.000000 3.320300 0.000000 
#    z 0.000000 0.000000 3.120600 
# 
# 
# High freq. dielectric constant tensor:
#      x y z
#    x 1.620570 0.000000 0.000000 
#    y 0.000000 1.623660 0.000000 
#    z 0.000000 0.000000 1.613780 
# 
# From -- ./inp_files/21912.got.cif
#   From: 2010.03.12/outbox.cif.g09.slc.cpg/sg59_11_cif.got.tgz:21912.got - 2010.04.16 16:29:54.
