data_PCOD8240286
_publ_section_title
;
Structure prediction by ZEFSAII (Michael W. Deem and Ramdas Pophale) SiO2 
 PCOD8240286
Probable space group: P M M N
;
_chemical_formula_sum "Si O2"
_cell_formula_units_Z 64
_cell_length_a 22.404019
_cell_length_b 8.988422
_cell_length_c 20.743309
_cell_angle_alpha 90.000000
_cell_angle_beta 90.000000
_cell_angle_gamma 90.000000
_cell_volume 4177.220716
_symmetry_space_group_name_H-M "P M M N"
_symmetry_group_IT_number 59
_space_group.IT_coordinate_system_code '2'
_symmetry_cell_setting 'orthorhombic'
loop_
_space_group_symop_operation_xyz
x,y,z
1/2-x,1/2-y,z
1/2+x,-y,-z
-x,1/2+y,-z
-x,-y,-z
1/2+x,1/2+y,-z
1/2-x,y,z
x,1/2-y,z
loop_
_atom_site_type_symbol
_atom_site_label
_atom_site_fract_x
_atom_site_fract_y
_atom_site_fract_z
Si Si1 0.681596 0.423988 0.437625
Si Si2 0.580045 0.578577 0.994510
Si Si3 0.490179 0.920200 0.896568
Si Si4 0.501225 0.917687 0.401370
Si Si5 0.595861 0.075021 0.321436
Si Si6 0.409640 0.417311 0.479171
Si Si7 0.403533 0.074434 0.812117
Si Si8 0.315165 0.077201 0.924011
O O1 0.750000 0.475247 0.431237
O O2 0.675815 0.250000 0.451378
O O3 0.648151 0.466595 0.371539
O O4 0.651916 0.507199 0.498226
O O5 0.564969 0.750000 0.015646
O O6 0.546338 0.461042 0.039408
O O7 0.650647 0.549911 0.007560
O O8 0.559790 0.555518 0.919452
O O9 0.478474 0.750000 0.876900
O O10 0.469438 0.021679 0.836431
O O11 0.489219 0.750000 0.377602
O O12 0.543755 0.918710 0.462857
O O13 0.532410 0.009539 0.344263
O O14 0.438010 0.993064 0.419222
O O15 0.588551 0.250000 0.313273
O O16 0.614475 0.001920 0.254388
O O17 0.395941 0.250000 0.456481
O O18 0.404334 0.250000 0.802750
O O19 0.355147 0.017647 0.864516
O O20 0.250000 0.998083 0.925720
O O21 0.305483 0.250000 0.912105
#
# Coordination Sequence:
#
# PCOD8240286 Si02
#       8
#     8   8   8   8   8   8   8   8
#     4   9  18  31  44  59  83 115 146 174 206 244
#     4   8  14  24  39  58  77  98 127 163 203 244
#     4   9  15  24  39  57  76  99 128 164 205 244
#     4   9  16  27  43  61  81 105 133 168 211 255
#     4  10  19  30  43  59  81 110 143 177 209 242
#     4   9  16  26  42  63  83 104 134 172 211 248
#     4  10  19  29  40  56  79 108 141 172 202 240
#     4   8  14  25  40  57  78 105 136 168 199 233
#
# _framework density 15.321192
#
# number of rings (size 3 to 8) (size 9 to 14) (size 15 to 20)
#    0.000    3.000    0.000    2.625    0.000    4.750 
#    0.000    0.000    0.000    9.000    0.000    0.000 
#    0.000    1.000    0.000    5.000    0.000    3.625 
#
# Total GULP energy -792997.286484 kJ/mol
# GULP energy per Si atom -12390.582601 kJ/mol
# Density = 1.528632 g / cm^3
# Si number density = 15.321192 Si / 1000 Ang^3
#
#
#
# Elastic Constant Matrix: (Units=GPa)
#
#
# Indices 1 2 3 4 5 6 
#
# 1 103.8683 42.1498 57.7627 0.0000 0.0000 0.0000
# 2 42.1498 71.1037 24.5149 0.0000 0.0000 0.0000
# 3 57.7627 24.5149 37.2799 0.0000 0.0000 0.0000
# 4 0.0000 0.0000 0.0000 23.8196 0.0000 0.0000
# 5 0.0000 0.0000 0.0000 0.0000 16.0227 0.0000
# 6 0.0000 0.0000 0.0000 0.0000 0.0000 17.1234
#
#
#
# Elastic Compliance Matrix: (Units=1/GPa)
#
#
# Indices 1 2 3 4 5 6 
#
# 1 0.071158 -0.005391 -0.106709 0.000000 0.000000 0.000000
# 2 -0.005391 0.018596 -0.003876 0.000000 0.000000 0.000000
# 3 -0.106709 -0.003876 0.194712 0.000000 0.000000 0.000000
# 4 0.000000 0.000000 0.000000 0.041982 0.000000 0.000000
# 5 0.000000 0.000000 0.000000 0.000000 0.062411 0.000000
# 6 0.000000 0.000000 0.000000 0.000000 0.000000 0.058400
#
#
# Mechanical properties :
#
#
# Convention : Reuss Voigt Hill
#
# Bulk Modulus (GPa) = 19.04266 51.23410 35.13838
# Shear Modulus (GPa) = 7.17653 17.24810 12.21232
#
# Velocity S-wave (km/s) = 2.16662 3.35889 2.82634
# Velocity P-wave (km/s) = 4.32607 6.96817 5.79958
#
# Compressibility (1/GPa) = 0.05251367
#
# Stress axis : x y z
#
# Youngs Moduli (GPa) = 14.05323 53.77530 5.13580
#
# Poissons Ratio (x) = 0.28990 0.54804
# Poissons Ratio (y) = 0.07576 0.01990
# Poissons Ratio (z) = 1.49961 0.20841
#
# Static dielectric constant tensor:
#      x y z
#    x 3.131410 0.000000 0.000000 
#    y 0.000000 2.977210 0.000000 
#    z 0.000000 0.000000 2.785590 
# 
# 
# High freq. dielectric constant tensor:
#      x y z
#    x 1.567030 0.000000 0.000000 
#    y 0.000000 1.592570 0.000000 
#    z 0.000000 0.000000 1.551600 
# 
# From -- ./inp_files/29833.got.cif
#   From: 2010.03.12/outbox.cif.g09.slc.cpg/sg59_15_cif.got.tgz:29833.got - 2010.04.16 16:29:54.
