data_PCOD8240405
_publ_section_title
;
Structure prediction by ZEFSAII (Michael W. Deem and Ramdas Pophale) SiO2 
 PCOD8240405
Probable space group: P M M N
;
_chemical_formula_sum "Si O2"
_cell_formula_units_Z 64
_cell_length_a 9.156872
_cell_length_b 26.954910
_cell_length_c 14.553759
_cell_angle_alpha 90.000000
_cell_angle_beta 90.000000
_cell_angle_gamma 90.000000
_cell_volume 3592.197519
_symmetry_space_group_name_H-M "P M M N"
_symmetry_group_IT_number 59
_space_group.IT_coordinate_system_code '2'
_symmetry_cell_setting 'orthorhombic'
loop_
_space_group_symop_operation_xyz
x,y,z
1/2-x,1/2-y,z
1/2+x,-y,-z
-x,1/2+y,-z
-x,-y,-z
1/2+x,1/2+y,-z
1/2-x,y,z
x,1/2-y,z
loop_
_atom_site_type_symbol
_atom_site_label
_atom_site_fract_x
_atom_site_fract_y
_atom_site_fract_z
Si Si1 0.578988 0.620501 0.979202
Si Si2 0.416956 0.621035 0.534950
Si Si3 0.081372 0.467003 0.156070
Si Si4 0.418594 0.808334 0.846317
Si Si5 0.081507 0.928588 0.351577
Si Si6 0.080924 0.192255 0.337952
Si Si7 0.418133 0.580237 0.144818
Si Si8 0.081248 0.528609 0.661984
O O1 0.750000 0.632135 0.981446
O O2 0.541810 0.569638 0.926466
O O3 0.497384 0.666137 0.931816
O O4 0.519748 0.614972 0.082549
O O5 0.250000 0.638263 0.549512
O O6 0.453334 0.613485 0.427121
O O7 0.522732 0.663360 0.573259
O O8 0.446430 0.568796 0.583607
O O9 0.250000 0.463406 0.184370
O O10 0.041915 0.522793 0.126003
O O11 0.989405 0.450859 0.244516
O O12 0.250000 0.824351 0.842308
O O13 0.437326 0.750000 0.860309
O O14 0.493846 0.825891 0.751878
O O15 0.250000 0.945215 0.357334
O O16 0.047430 0.906421 0.250862
O O17 0.988242 0.977387 0.371760
O O18 0.250000 0.179960 0.321705
O O19 0.054587 0.250000 0.356765
O O20 0.250000 0.590864 0.120075
O O21 0.250000 0.519106 0.681104
#
# Coordination Sequence:
#
# PCOD8240405 Si02
#       8
#     8   8   8   8   8   8   8   8
#     4  11  21  32  51  77 102 130 166 208 253 298
#     4  10  20  33  51  75 101 133 172 208 246 297
#     4   9  19  33  47  68 101 138 169 200 244 296
#     4  10  21  37  56  77 102 132 164 199 243 298
#     4   9  19  35  51  69  99 137 174 210 247 290
#     4  10  21  36  54  78 106 132 160 200 250 299
#     4   9  18  33  50  68  97 136 173 209 246 288
#     4  10  19  29  46  74 103 131 166 207 249 294
#
# _framework density 17.816390999999999
#
# number of rings (size 3 to 8) (size 9 to 14) (size 15 to 20)
#    0.000    2.250    0.000    3.750    0.000    8.000 
#    0.000    0.000    0.000    0.750    0.000    1.750 
#    0.000    0.000    0.000    0.000    0.000    0.000 
#
# Total GULP energy -793828.575670 kJ/mol
# GULP energy per Si atom -12403.571495 kJ/mol
# Density = 1.777584 g / cm^3
# Si number density = 17.816391 Si / 1000 Ang^3
#
#
#
# Elastic Constant Matrix: (Units=GPa)
#
#
# Indices 1 2 3 4 5 6 
#
# 1 103.7196 46.6315 61.9153 0.0000 0.0000 0.0000
# 2 46.6315 54.7885 48.6866 0.0000 0.0000 0.0000
# 3 61.9153 48.6866 120.2632 0.0000 0.0000 0.0000
# 4 0.0000 0.0000 0.0000 27.7045 0.0000 0.0000
# 5 0.0000 0.0000 0.0000 0.0000 27.2498 0.0000
# 6 0.0000 0.0000 0.0000 0.0000 0.0000 29.8621
#
#
#
# Elastic Compliance Matrix: (Units=1/GPa)
#
#
# Indices 1 2 3 4 5 6 
#
# 1 0.017069 -0.010494 -0.004539 0.000000 0.000000 0.000000
# 2 -0.010494 0.034959 -0.008750 0.000000 0.000000 0.000000
# 3 -0.004539 -0.008750 0.014194 0.000000 0.000000 0.000000
# 4 0.000000 0.000000 0.000000 0.036095 0.000000 0.000000
# 5 0.000000 0.000000 0.000000 0.000000 0.036698 0.000000
# 6 0.000000 0.000000 0.000000 0.000000 0.000000 0.033487
#
#
# Mechanical properties :
#
#
# Convention : Reuss Voigt Hill
#
# Bulk Modulus (GPa) = 53.60242 65.91534 59.75888
# Shear Modulus (GPa) = 22.09571 25.06581 23.58076
#
# Velocity S-wave (km/s) = 3.52545 3.75493 3.64200
# Velocity P-wave (km/s) = 6.83543 7.47507 7.16239
#
# Compressibility (1/GPa) = 0.01865587
#
# Stress axis : x y z
#
# Youngs Moduli (GPa) = 58.58493 28.60485 70.45028
#
# Poissons Ratio (x) = 0.30018 0.31980
# Poissons Ratio (y) = 0.61479 0.61644
# Poissons Ratio (z) = 0.26594 0.25029
#
# Static dielectric constant tensor:
#      x y z
#    x 3.355420 0.000000 0.000000 
#    y 0.000000 3.094150 0.000000 
#    z 0.000000 0.000000 3.382120 
# 
# 
# High freq. dielectric constant tensor:
#      x y z
#    x 1.697480 0.000000 0.000000 
#    y 0.000000 1.665310 0.000000 
#    z 0.000000 0.000000 1.689160 
# 
# From -- ./inp_files/21598.got.cif
#   From: 2010.03.12/outbox.cif.g09.slc.cpg/sg59_11_cif.got.tgz:21598.got - 2010.04.16 16:29:54.
