data_PCOD8240647
_publ_section_title
;
Structure prediction by ZEFSAII (Michael W. Deem and Ramdas Pophale) SiO2 
 PCOD8240647
Probable space group: P M M N
;
_chemical_formula_sum "Si O2"
_cell_formula_units_Z 48
_cell_length_a 22.493068
_cell_length_b 12.377644
_cell_length_c 10.313699
_cell_angle_alpha 90.000000
_cell_angle_beta 90.000000
_cell_angle_gamma 90.000000
_cell_volume 2871.449193
_symmetry_space_group_name_H-M "P M M N"
_symmetry_group_IT_number 59
_space_group.IT_coordinate_system_code '2'
_symmetry_cell_setting 'orthorhombic'
loop_
_space_group_symop_operation_xyz
x,y,z
1/2-x,1/2-y,z
1/2+x,-y,-z
-x,1/2+y,-z
-x,-y,-z
1/2+x,1/2+y,-z
1/2-x,y,z
x,1/2-y,z
loop_
_atom_site_type_symbol
_atom_site_label
_atom_site_fract_x
_atom_site_fract_y
_atom_site_fract_z
Si Si1 0.682539 0.625839 0.270321
Si Si2 0.464619 0.876130 0.870373
Si Si3 0.080692 0.982517 0.117858
Si Si4 0.423861 0.501011 0.627298
Si Si5 0.181641 0.126541 0.028815
Si Si6 0.543392 0.123326 0.626173
O O1 0.750000 0.584870 0.289362
O O2 0.677439 0.750000 0.312958
O O3 0.639980 0.555411 0.360973
O O4 0.662763 0.613292 0.121054
O O5 0.475660 0.750000 0.867069
O O6 0.528685 0.929999 0.882221
O O7 0.431697 0.910927 0.739523
O O8 0.423687 0.906507 0.992293
O O9 0.142643 0.047092 0.116850
O O10 0.078703 0.907042 0.243790
O O11 0.425240 0.560274 0.490230
O O12 0.474433 0.409455 0.638204
O O13 0.250000 0.094041 0.048358
O O14 0.171122 0.250000 0.072582
O O15 0.547390 0.250000 0.600928
#
# Coordination Sequence:
#
# PCOD8240647 Si02
#       6
#     8   8   8   8   8   8
#     4   9  17  31  54  80 102 127 163 209 256 298
#     4  10  19  30  49  74 100 130 166 208 246 289
#     4  10  19  32  49  75 102 130 165 204 250 299
#     4  10  19  34  53  75 102 133 169 208 249 297
#     4   9  17  31  53  78 103 130 162 207 258 302
#     4  10  21  34  51  74 104 139 167 201 254 303
#
# _framework density 16.716297999999998
#
# number of rings (size 3 to 8) (size 9 to 14) (size 15 to 20)
#    0.000    2.333    1.667    3.000    0.000    0.000 
#    0.000    3.333    0.000    8.000    0.000    0.000 
#    0.000    0.000    0.000    0.000    0.000    0.000 
#
# Total GULP energy -595321.255303 kJ/mol
# GULP energy per Si atom -12402.526152 kJ/mol
# Density = 1.667825 g / cm^3
# Si number density = 16.716298 Si / 1000 Ang^3
#
#
#
# Elastic Constant Matrix: (Units=GPa)
#
#
# Indices 1 2 3 4 5 6 
#
# 1 75.2917 29.7497 24.1995 0.0000 0.0000 0.0000
# 2 29.7497 75.1686 12.8238 0.0000 0.0000 0.0000
# 3 24.1995 12.8238 71.7605 0.0000 0.0000 0.0000
# 4 0.0000 0.0000 0.0000 16.7340 0.0000 0.0000
# 5 0.0000 0.0000 0.0000 0.0000 20.0549 0.0000
# 6 0.0000 0.0000 0.0000 0.0000 0.0000 25.6088
#
#
#
# Elastic Compliance Matrix: (Units=1/GPa)
#
#
# Indices 1 2 3 4 5 6 
#
# 1 0.017164 -0.005988 -0.004718 0.000000 0.000000 0.000000
# 2 -0.005988 0.015811 -0.000806 0.000000 0.000000 0.000000
# 3 -0.004718 -0.000806 0.015670 0.000000 0.000000 0.000000
# 4 0.000000 0.000000 0.000000 0.059759 0.000000 0.000000
# 5 0.000000 0.000000 0.000000 0.000000 0.049863 0.000000
# 6 0.000000 0.000000 0.000000 0.000000 0.000000 0.039049
#
#
# Mechanical properties :
#
#
# Convention : Reuss Voigt Hill
#
# Bulk Modulus (GPa) = 39.03093 39.52962 39.28028
# Shear Modulus (GPa) = 21.84537 22.84272 22.34405
#
# Velocity S-wave (km/s) = 3.61893 3.70062 3.66001
# Velocity P-wave (km/s) = 6.39234 6.47751 6.43506
#
# Compressibility (1/GPa) = 0.02562071
#
# Stress axis : x y z
#
# Youngs Moduli (GPa) = 58.26071 63.24742 63.81473
#
# Poissons Ratio (x) = 0.37874 0.30109
# Poissons Ratio (y) = 0.34888 0.05144
# Poissons Ratio (z) = 0.27488 0.05098
#
# Static dielectric constant tensor:
#      x y z
#    x 2.990920 0.000000 0.000000 
#    y 0.000000 3.009680 0.000000 
#    z 0.000000 0.000000 3.140950 
# 
# 
# High freq. dielectric constant tensor:
#      x y z
#    x 1.631030 0.000000 0.000000 
#    y 0.000000 1.642210 0.000000 
#    z 0.000000 0.000000 1.640230 
# 
# From -- ./inp_files/7567.got.cif
#   From: 2010.03.12/outbox.cif.g09.slc.cpg/sg59_4_cif.got.tgz:7567.got - 2010.04.16 16:29:54.
