data_PCOD8240360
_publ_section_title
;
Structure prediction by ZEFSAII (Michael W. Deem and Ramdas Pophale) SiO2 
 PCOD8240360
Probable space group: P M M N
;
_chemical_formula_sum "Si O2"
_cell_formula_units_Z 64
_cell_length_a 9.150957
_cell_length_b 13.892924
_cell_length_c 31.250733
_cell_angle_alpha 90.000000
_cell_angle_beta 90.000000
_cell_angle_gamma 90.000000
_cell_volume 3973.016630
_symmetry_space_group_name_H-M "P M M N"
_symmetry_group_IT_number 59
_space_group.IT_coordinate_system_code '2'
_symmetry_cell_setting 'orthorhombic'
loop_
_space_group_symop_operation_xyz
x,y,z
1/2-x,1/2-y,z
1/2+x,-y,-z
-x,1/2+y,-z
-x,-y,-z
1/2+x,1/2+y,-z
1/2-x,y,z
x,1/2-y,z
loop_
_atom_site_type_symbol
_atom_site_label
_atom_site_fract_x
_atom_site_fract_y
_atom_site_fract_z
Si Si1 0.080186 0.047676 0.063237
Si Si2 0.077741 0.957390 0.603824
Si Si3 0.419681 0.637089 0.689904
Si Si4 0.922130 0.361886 0.141810
Si Si5 0.417869 0.646159 0.424600
Si Si6 0.583082 0.408390 0.485546
Si Si7 0.914533 0.864225 0.773073
Si Si8 0.417320 0.859383 0.013658
O O1 0.250000 0.070543 0.071119
O O2 0.989013 0.071285 0.105278
O O3 0.055019 0.934728 0.052214
O O4 0.024496 0.115756 0.025132
O O5 0.250000 0.965425 0.609036
O O6 0.014348 0.913394 0.647519
O O7 0.034499 0.885427 0.563749
O O8 0.017754 0.064831 0.596253
O O9 0.250000 0.613188 0.697296
O O10 0.443881 0.750000 0.684160
O O11 0.508551 0.595544 0.730338
O O12 0.750000 0.378612 0.144485
O O13 0.958973 0.250000 0.132514
O O14 0.993058 0.397804 0.186000
O O15 0.250000 0.615643 0.417110
O O16 0.451941 0.750000 0.402984
O O17 0.444367 0.666327 0.475996
O O18 0.500000 0.500000 0.500000
O O19 0.750000 0.437789 0.482224
O O20 0.750000 0.905326 0.776195
O O21 0.913080 0.750000 0.771109
O O22 0.250000 0.869182 0.997392
O O23 0.448620 0.750000 0.029444
#
# Coordination Sequence:
#
# PCOD8240360 Si02
#       8
#     8   8   8   8   8   8   8   8
#     4  10  19  29  44  67  91 117 154 194 226 260
#     4   9  17  28  43  63  85 111 143 176 210 251
#     4   9  17  29  44  63  88 115 141 170 209 259
#     4  10  19  30  45  65  91 121 148 177 217 263
#     4   9  17  28  42  60  83 112 144 178 215 251
#     4   8  14  25  39  55  77 104 135 170 205 242
#     4   9  17  29  45  65  88 113 142 176 213 255
#     4   9  18  32  46  61  88 125 158 188 225 265
#
# _framework density 16.108665999999999
#
# number of rings (size 3 to 8) (size 9 to 14) (size 15 to 20)
#    0.000    2.875    0.000    1.500    0.000    5.750 
#    0.000    2.500    0.000    0.000    0.000    6.125 
#    0.000    5.000    0.000    0.000    0.000    0.000 
#
# Total GULP energy -792846.844332 kJ/mol
# GULP energy per Si atom -12388.231943 kJ/mol
# Density = 1.607200 g / cm^3
# Si number density = 16.108666 Si / 1000 Ang^3
#
#
#
# Elastic Constant Matrix: (Units=GPa)
#
#
# Indices 1 2 3 4 5 6 
#
# 1 66.0239 27.2904 54.4322 0.0000 0.0000 0.0000
# 2 27.2904 64.9114 39.9609 0.0000 0.0000 0.0000
# 3 54.4322 39.9609 131.8371 0.0000 0.0000 0.0000
# 4 0.0000 0.0000 0.0000 19.8305 0.0000 0.0000
# 5 0.0000 0.0000 0.0000 0.0000 27.2625 0.0000
# 6 0.0000 0.0000 0.0000 0.0000 0.0000 18.0931
#
#
#
# Elastic Compliance Matrix: (Units=1/GPa)
#
#
# Indices 1 2 3 4 5 6 
#
# 1 0.024187 -0.004944 -0.008488 0.000000 0.000000 0.000000
# 2 -0.004944 0.019950 -0.004006 0.000000 0.000000 0.000000
# 3 -0.008488 -0.004006 0.012304 0.000000 0.000000 0.000000
# 4 0.000000 0.000000 0.000000 0.050427 0.000000 0.000000
# 5 0.000000 0.000000 0.000000 0.000000 0.036680 0.000000
# 6 0.000000 0.000000 0.000000 0.000000 0.000000 0.055270
#
#
# Mechanical properties :
#
#
# Convention : Reuss Voigt Hill
#
# Bulk Modulus (GPa) = 46.36868 56.23773 51.30320
# Shear Modulus (GPa) = 20.75706 22.44313 21.60010
#
# Velocity S-wave (km/s) = 3.59355 3.73665 3.66580
# Velocity P-wave (km/s) = 6.78716 7.32148 7.05938
#
# Compressibility (1/GPa) = 0.02156628
#
# Stress axis : x y z
#
# Youngs Moduli (GPa) = 41.34456 50.12481 81.27602
#
# Poissons Ratio (x) = 0.24780 0.68985
# Poissons Ratio (y) = 0.20439 0.32559
# Poissons Ratio (z) = 0.35092 0.20080
#
# Static dielectric constant tensor:
#      x y z
#    x 3.117290 0.000000 0.000000 
#    y 0.000000 2.758690 0.000000 
#    z 0.000000 0.000000 3.579740 
# 
# 
# High freq. dielectric constant tensor:
#      x y z
#    x 1.624860 0.000000 0.000000 
#    y 0.000000 1.586180 0.000000 
#    z 0.000000 0.000000 1.614110 
# 
# From -- ./inp_files/33233.got.cif
#   From: 2010.03.12/outbox.cif.g09.slc.cpg/sg59_17_cif.got.tgz:33233.got - 2010.04.16 16:29:54.
