data_PCOD8240620
_publ_section_title
;
Structure prediction by ZEFSAII (Michael W. Deem and Ramdas Pophale) SiO2 
 PCOD8240620
Probable space group: P M M N
;
_chemical_formula_sum "Si O2"
_cell_formula_units_Z 48
_cell_length_a 23.172789
_cell_length_b 9.032435
_cell_length_c 13.692474
_cell_angle_alpha 90.000000
_cell_angle_beta 90.000000
_cell_angle_gamma 90.000000
_cell_volume 2865.926690
_symmetry_space_group_name_H-M "P M M N"
_symmetry_group_IT_number 59
_space_group.IT_coordinate_system_code '2'
_symmetry_cell_setting 'orthorhombic'
loop_
_space_group_symop_operation_xyz
x,y,z
1/2-x,1/2-y,z
1/2+x,-y,-z
-x,1/2+y,-z
-x,-y,-z
1/2+x,1/2+y,-z
1/2-x,y,z
x,1/2-y,z
loop_
_atom_site_type_symbol
_atom_site_label
_atom_site_fract_x
_atom_site_fract_y
_atom_site_fract_z
Si Si1 0.087210 0.578537 0.457905
Si Si2 0.014670 0.579545 0.643112
Si Si3 0.589534 0.922226 0.968555
Si Si4 0.816712 0.077392 0.847339
Si Si5 0.528275 0.420591 0.135727
Si Si6 0.683687 0.577653 0.646280
O O1 0.098737 0.750000 0.438147
O O2 0.066977 0.548263 0.568614
O O3 0.146282 0.489202 0.441895
O O4 0.039230 0.523587 0.381692
O O5 0.994116 0.750000 0.636069
O O6 0.037028 0.541058 0.750831
O O7 0.604553 0.750000 0.973412
O O8 0.537494 0.956481 0.893948
O O9 0.646042 0.009741 0.934727
O O10 0.572567 0.977687 0.076327
O O11 0.750000 0.046527 0.871946
O O12 0.829880 0.250000 0.836878
O O13 0.834781 0.999843 0.746689
O O14 0.542534 0.250000 0.112683
O O15 0.750000 0.545892 0.620543
O O16 0.670716 0.750000 0.658129
#
# Coordination Sequence:
#
# PCOD8240620 Si02
#       6
#     8   8   8   8   8   8
#     4  10  19  30  48  73  98 125 158 197 238 281
#     4   9  18  32  49  70  97 129 162 195 234 280
#     4  10  19  30  48  73  98 125 156 193 237 282
#     4  10  20  33  50  72  97 125 157 194 235 280
#     4   9  18  32  48  67  95 128 160 194 232 277
#     4  10  20  33  49  69  95 127 159 193 236 284
#
# _framework density 16.748508999999999
#
# number of rings (size 3 to 8) (size 9 to 14) (size 15 to 20)
#    0.000    2.333    0.000    3.000    0.000    5.333 
#    0.000    0.000    0.000    1.000    0.000    2.333 
#    0.000    0.000    0.000    0.000    0.000    0.000 
#
# Total GULP energy -595401.158794 kJ/mol
# GULP energy per Si atom -12404.190808 kJ/mol
# Density = 1.671039 g / cm^3
# Si number density = 16.748509 Si / 1000 Ang^3
#
#
#
# Elastic Constant Matrix: (Units=GPa)
#
#
# Indices 1 2 3 4 5 6 
#
# 1 88.0892 56.5083 55.3287 0.0000 0.0000 0.0000
# 2 56.5083 98.0171 52.6522 0.0000 0.0000 0.0000
# 3 55.3287 52.6522 111.1109 0.0000 0.0000 0.0000
# 4 0.0000 0.0000 0.0000 27.2301 0.0000 0.0000
# 5 0.0000 0.0000 0.0000 0.0000 24.4795 0.0000
# 6 0.0000 0.0000 0.0000 0.0000 0.0000 32.0326
#
#
#
# Elastic Compliance Matrix: (Units=1/GPa)
#
#
# Indices 1 2 3 4 5 6 
#
# 1 0.020841 -0.008640 -0.006284 0.000000 0.000000 0.000000
# 2 -0.008640 0.017268 -0.003880 0.000000 0.000000 0.000000
# 3 -0.006284 -0.003880 0.013968 0.000000 0.000000 0.000000
# 4 0.000000 0.000000 0.000000 0.036724 0.000000 0.000000
# 5 0.000000 0.000000 0.000000 0.000000 0.040850 0.000000
# 6 0.000000 0.000000 0.000000 0.000000 0.000000 0.031218
#
#
# Mechanical properties :
#
#
# Convention : Reuss Voigt Hill
#
# Bulk Modulus (GPa) = 69.11461 69.57728 69.34595
# Shear Modulus (GPa) = 24.59403 25.59697 25.09550
#
# Velocity S-wave (km/s) = 3.83617 3.91361 3.87508
# Velocity P-wave (km/s) = 7.80880 7.87746 7.84320
#
# Compressibility (1/GPa) = 0.01446872
#
# Stress axis : x y z
#
# Youngs Moduli (GPa) = 47.98125 57.91153 71.59201
#
# Poissons Ratio (x) = 0.50034 0.44989
# Poissons Ratio (y) = 0.41455 0.27781
# Poissons Ratio (z) = 0.30152 0.22472
#
# Static dielectric constant tensor:
#      x y z
#    x 3.032480 0.000000 0.000000 
#    y 0.000000 3.252790 0.000000 
#    z 0.000000 0.000000 3.078570 
# 
# 
# High freq. dielectric constant tensor:
#      x y z
#    x 1.631980 0.000000 0.000000 
#    y 0.000000 1.659960 0.000000 
#    z 0.000000 0.000000 1.634560 
# 
# From -- ./inp_files/18617.got.cif
#   From: 2010.03.12/outbox.cif.g09.slc.cpg/sg59_10_cif.got.tgz:18617.got - 2010.04.16 16:29:54.
