data_PCOD8240532
_publ_section_title
;
Structure prediction by ZEFSAII (Michael W. Deem and Ramdas Pophale) SiO2 
 PCOD8240532
Probable space group: P M M N
;
_chemical_formula_sum "Si O2"
_cell_formula_units_Z 64
_cell_length_a 19.757796
_cell_length_b 8.931732
_cell_length_c 20.516704
_cell_angle_alpha 90.000000
_cell_angle_beta 90.000000
_cell_angle_gamma 90.000000
_cell_volume 3620.610222
_symmetry_space_group_name_H-M "P M M N"
_symmetry_group_IT_number 59
_space_group.IT_coordinate_system_code '2'
_symmetry_cell_setting 'orthorhombic'
loop_
_space_group_symop_operation_xyz
x,y,z
1/2-x,1/2-y,z
1/2+x,-y,-z
-x,1/2+y,-z
-x,-y,-z
1/2+x,1/2+y,-z
1/2-x,y,z
x,1/2-y,z
loop_
_atom_site_type_symbol
_atom_site_label
_atom_site_fract_x
_atom_site_fract_y
_atom_site_fract_z
Si Si1 0.828129 0.579040 0.942134
Si Si2 0.104441 0.417726 0.310391
Si Si3 0.565551 0.072982 0.031676
Si Si4 0.556191 0.076844 0.427784
Si Si5 0.944743 0.415641 0.288320
Si Si6 0.381774 0.576922 0.181182
Si Si7 0.583896 0.078968 0.565544
Si Si8 0.959613 0.578613 0.162504
O O1 0.750000 0.569482 0.961507
O O2 0.854365 0.750000 0.944608
O O3 0.837744 0.516579 0.869564
O O4 0.868139 0.478705 0.993607
O O5 0.132696 0.250000 0.303663
O O6 0.136534 0.517973 0.253172
O O7 0.125561 0.481113 0.381764
O O8 0.023932 0.423407 0.304817
O O9 0.558722 0.250000 0.026509
O O10 0.572594 0.023334 0.106487
O O11 0.500000 0.000000 0.000000
O O12 0.529382 0.250000 0.428767
O O13 0.592921 0.047860 0.357396
O O14 0.607133 0.052614 0.489694
O O15 0.495308 0.960035 0.433778
O O16 0.925397 0.250000 0.263126
O O17 0.925980 0.532322 0.231567
O O18 0.361798 0.750000 0.176686
O O19 0.460295 0.551353 0.164282
O O20 0.593408 0.250000 0.586867
O O21 0.941515 0.750000 0.148345
#
# Coordination Sequence:
#
# PCOD8240532 Si02
#       8
#     8   8   8   8   8   8   8   8
#     4  11  24  40  57  77 103 133 163 200 250 305
#     4   9  16  25  37  54  80 112 149 193 236 280
#     4  12  23  36  56  78 101 130 165 208 251 299
#     4   8  14  22  31  45  71 107 145 185 231 280
#     4   8  14  24  36  53  79 113 150 189 235 284
#     4  10  19  31  49  70  93 123 159 201 242 287
#     4   9  14  20  31  48  71 103 146 190 229 276
#     4  10  19  30  46  70  95 121 157 202 247 292
#
# _framework density 17.676577999999999
#
# number of rings (size 3 to 8) (size 9 to 14) (size 15 to 20)
#    0.000    2.375    1.250    3.750    0.000    5.500 
#    0.000    0.000    0.000    0.000    0.000    0.000 
#    0.000    0.000    0.000    1.125    0.000   22.250 
#
# Total GULP energy -793206.924616 kJ/mol
# GULP energy per Si atom -12393.858197 kJ/mol
# Density = 1.763635 g / cm^3
# Si number density = 17.676578 Si / 1000 Ang^3
#
#
#
# Elastic Constant Matrix: (Units=GPa)
#
#
# Indices 1 2 3 4 5 6 
#
# 1 26.9246 23.0127 23.9168 0.0000 0.0000 0.0000
# 2 23.0127 123.2598 61.5700 0.0000 0.0000 0.0000
# 3 23.9168 61.5700 150.0882 0.0000 0.0000 0.0000
# 4 0.0000 0.0000 0.0000 35.9311 0.0000 0.0000
# 5 0.0000 0.0000 0.0000 0.0000 9.0630 0.0000
# 6 0.0000 0.0000 0.0000 0.0000 0.0000 12.8977
#
#
#
# Elastic Compliance Matrix: (Units=1/GPa)
#
#
# Indices 1 2 3 4 5 6 
#
# 1 0.046871 -0.006314 -0.004879 0.000000 0.000000 0.000000
# 2 -0.006314 0.011054 -0.003529 0.000000 0.000000 0.000000
# 3 -0.004879 -0.003529 0.008888 0.000000 0.000000 0.000000
# 4 0.000000 0.000000 0.000000 0.027831 0.000000 0.000000
# 5 0.000000 0.000000 0.000000 0.000000 0.110339 0.000000
# 6 0.000000 0.000000 0.000000 0.000000 0.000000 0.077533
#
#
# Mechanical properties :
#
#
# Convention : Reuss Voigt Hill
#
# Bulk Modulus (GPa) = 26.75909 57.47461 42.11685
# Shear Modulus (GPa) = 15.41234 24.36325 19.88780
#
# Velocity S-wave (km/s) = 2.95601 3.71655 3.35788
# Velocity P-wave (km/s) = 5.17897 7.14157 6.23794
#
# Compressibility (1/GPa) = 0.03737047
#
# Stress axis : x y z
#
# Youngs Moduli (GPa) = 21.33513 90.46213 112.51437
#
# Poissons Ratio (x) = 0.57116 0.54895
# Poissons Ratio (y) = 0.13471 0.39703
# Poissons Ratio (z) = 0.10409 0.31921
#
# Static dielectric constant tensor:
#      x y z
#    x 2.593410 0.000000 0.000000 
#    y 0.000000 3.427260 0.000000 
#    z 0.000000 0.000000 3.850090 
# 
# 
# High freq. dielectric constant tensor:
#      x y z
#    x 1.587230 0.000000 0.000000 
#    y 0.000000 1.699040 0.000000 
#    z 0.000000 0.000000 1.711770 
# 
# From -- ./inp_files/30917.got.cif
#   From: 2010.03.12/outbox.cif.g09.slc.cpg/sg59_16_cif.got.tgz:30917.got - 2010.04.16 16:29:54.
