data_PCOD8240702
_publ_section_title
;
Structure prediction by ZEFSAII (Michael W. Deem and Ramdas Pophale) SiO2 
 PCOD8240702
Probable space group: P M M N
;
_chemical_formula_sum "Si O2"
_cell_formula_units_Z 64
_cell_length_a 19.838932
_cell_length_b 9.072508
_cell_length_c 21.338224
_cell_angle_alpha 90.000000
_cell_angle_beta 90.000000
_cell_angle_gamma 90.000000
_cell_volume 3840.642810
_symmetry_space_group_name_H-M "P M M N"
_symmetry_group_IT_number 59
_space_group.IT_coordinate_system_code '2'
_symmetry_cell_setting 'orthorhombic'
loop_
_space_group_symop_operation_xyz
x,y,z
1/2-x,1/2-y,z
1/2+x,-y,-z
-x,1/2+y,-z
-x,-y,-z
1/2+x,1/2+y,-z
1/2-x,y,z
x,1/2-y,z
loop_
_atom_site_type_symbol
_atom_site_label
_atom_site_fract_x
_atom_site_fract_y
_atom_site_fract_z
Si Si1 0.120736 0.915713 0.838591
Si Si2 0.504927 0.084271 0.683960
Si Si3 0.467777 0.575426 0.559689
Si Si4 0.592182 0.583690 0.042170
Si Si5 0.322860 0.918088 0.600975
Si Si6 0.436007 0.583352 0.077408
Si Si7 0.648367 0.586838 0.277960
Si Si8 0.035423 0.083027 0.197684
O O1 0.147303 0.750000 0.846759
O O2 0.042834 0.916069 0.819540
O O3 0.133253 0.001078 0.903443
O O4 0.164175 0.994558 0.784550
O O5 0.533173 0.250000 0.671541
O O6 0.430699 0.095565 0.710978
O O7 0.505342 0.989503 0.620376
O O8 0.549357 0.000891 0.736523
O O9 0.500000 0.500000 0.500000
O O10 0.479494 0.750000 0.557292
O O11 0.387581 0.533937 0.559633
O O12 0.619175 0.750000 0.036038
O O13 0.514004 0.583470 0.059525
O O14 0.605317 0.500462 0.976735
O O15 0.250000 0.935412 0.565169
O O16 0.334825 0.750000 0.621802
O O17 0.315815 0.012465 0.663441
O O18 0.409012 0.750000 0.083380
O O19 0.423620 0.500425 0.143107
O O20 0.678410 0.750000 0.269425
O O21 0.062347 0.250000 0.203683
#
# Coordination Sequence:
#
# PCOD8240702 Si02
#       8
#     8   8   8   8   8   8   8   8
#     4   9  15  22  32  45  63  89 121 157 197 240
#     4   9  16  26  39  55  75  99 129 165 204 246
#     4  10  19  31  47  66  88 113 142 177 216 260
#     4   9  15  21  28  39  57  82 115 156 198 238
#     4   9  18  32  48  65  86 113 144 177 214 257
#     4   9  15  21  28  39  57  83 116 154 196 240
#     4   9  16  25  38  56  76  98 127 165 206 245
#     4   9  15  22  32  46  64  88 120 158 199 240
#
# _framework density 16.663876999999999
#
# number of rings (size 3 to 8) (size 9 to 14) (size 15 to 20)
#    0.000    2.875    0.000    2.625    0.000    9.750 
#    0.000    0.000    0.000    0.000    0.000    0.000 
#    0.000    0.000    0.000    0.000    0.000    1.250 
#
# Total GULP energy -793237.481438 kJ/mol
# GULP energy per Si atom -12394.335647 kJ/mol
# Density = 1.662595 g / cm^3
# Si number density = 16.663877 Si / 1000 Ang^3
#
#
#
# Elastic Constant Matrix: (Units=GPa)
#
#
# Indices 1 2 3 4 5 6 
#
# 1 30.6524 25.0350 33.3018 0.0000 0.0000 0.0000
# 2 25.0350 151.9002 76.3879 0.0000 0.0000 0.0000
# 3 33.3018 76.3879 136.8048 0.0000 0.0000 0.0000
# 4 0.0000 0.0000 0.0000 37.1575 0.0000 0.0000
# 5 0.0000 0.0000 0.0000 0.0000 7.6583 0.0000
# 6 0.0000 0.0000 0.0000 0.0000 0.0000 5.3992
#
#
#
# Elastic Compliance Matrix: (Units=1/GPa)
#
#
# Indices 1 2 3 4 5 6 
#
# 1 0.045114 -0.002659 -0.009497 0.000000 0.000000 0.000000
# 2 -0.002659 0.009310 -0.004551 0.000000 0.000000 0.000000
# 3 -0.009497 -0.004551 0.012163 0.000000 0.000000 0.000000
# 4 0.000000 0.000000 0.000000 0.026912 0.000000 0.000000
# 5 0.000000 0.000000 0.000000 0.000000 0.130577 0.000000
# 6 0.000000 0.000000 0.000000 0.000000 0.000000 0.185212
#
#
# Mechanical properties :
#
#
# Convention : Reuss Voigt Hill
#
# Bulk Modulus (GPa) = 30.14625 65.42299 47.78462
# Shear Modulus (GPa) = 11.01902 22.35185 16.68543
#
# Velocity S-wave (km/s) = 2.57427 3.66640 3.16776
# Velocity P-wave (km/s) = 5.19287 7.56762 6.48979
#
# Compressibility (1/GPa) = 0.03317162
#
# Stress axis : x y z
#
# Youngs Moduli (GPa) = 22.16622 107.40764 82.21832
#
# Poissons Ratio (x) = 0.28565 0.78082
# Poissons Ratio (y) = 0.05895 0.37419
# Poissons Ratio (z) = 0.21051 0.48884
#
# Static dielectric constant tensor:
#      x y z
#    x 2.540330 0.000000 0.000000 
#    y 0.000000 3.436480 0.000000 
#    z 0.000000 0.000000 3.146070 
# 
# 
# High freq. dielectric constant tensor:
#      x y z
#    x 1.560060 0.000000 0.000000 
#    y 0.000000 1.665480 0.000000 
#    z 0.000000 0.000000 1.635830 
# 
# From -- ./inp_files/31065.got.cif
#   From: 2010.03.12/outbox.cif.g09.slc.cpg/sg59_16_cif.got.tgz:31065.got - 2010.04.16 16:29:54.
