data_PCOD8240240
_publ_section_title
;
Structure prediction by ZEFSAII (Michael W. Deem and Ramdas Pophale) SiO2 
 PCOD8240240
Probable space group: P M M N
;
_chemical_formula_sum "Si O2"
_cell_formula_units_Z 32
_cell_length_a 14.257143
_cell_length_b 14.236401
_cell_length_c 8.089194
_cell_angle_alpha 90.000000
_cell_angle_beta 90.000000
_cell_angle_gamma 90.000000
_cell_volume 1641.866981
_symmetry_space_group_name_H-M "P M M N"
_symmetry_group_IT_number 59
_space_group.IT_coordinate_system_code '2'
_symmetry_cell_setting 'orthorhombic'
loop_
_space_group_symop_operation_xyz
x,y,z
1/2-x,1/2-y,z
1/2+x,-y,-z
-x,1/2+y,-z
-x,-y,-z
1/2+x,1/2+y,-z
1/2-x,y,z
x,1/2-y,z
loop_
_atom_site_type_symbol
_atom_site_label
_atom_site_fract_x
_atom_site_fract_y
_atom_site_fract_z
Si Si1 0.250000 0.250000 0.515975
Si Si2 0.750000 0.085631 0.256777
Si Si3 0.250000 0.059529 0.318704
Si Si4 0.580794 0.250000 0.732083
Si Si5 0.621437 0.750000 0.177870
Si Si6 0.094521 0.561613 0.476614
Si Si7 0.750000 0.597872 0.055574
Si Si8 0.250000 0.750000 0.010625
O O1 0.250000 0.162226 0.395326
O O2 0.157867 0.250000 0.631993
O O3 0.847000 0.093853 0.360637
O O4 0.750000 0.159598 0.107551
O O5 0.750000 0.981372 0.191461
O O6 0.342623 0.005840 0.368256
O O7 0.250000 0.056727 0.124067
O O8 0.488531 0.250000 0.841934
O O9 0.576710 0.342043 0.619158
O O10 0.663179 0.250000 0.864725
O O11 0.656962 0.658469 0.082800
O O12 0.000000 0.500000 0.500000
#
# Coordination Sequence:
#
# PCOD8240240 Si02
#       8
#     2   4   4   4   4   8   4   2
#     4  10  18  38  60  86 118 152 200 254 300 350
#     4  11  22  41  59  84 117 155 198 243 296 358
#     4  11  22  37  61  90 119 157 198 245 298 354
#     4  12  23  41  59  87 121 156 200 244 294 362
#     4  10  21  37  61  87 115 152 190 246 304 352
#     4  11  23  40  64  89 117 159 205 248 295 357
#     4  10  20  38  60  88 118 146 190 250 308 352
#     4  12  26  40  60  86 126 170 196 240 300 362
#
# _framework density 19.490009000000001
#
# number of rings (size 3 to 8) (size 9 to 14) (size 15 to 20)
#    0.000    1.250    0.000   10.500    0.000    2.000 
#    0.000    7.500    0.000    0.000    0.000    0.000 
#    0.000    0.000    0.000    0.000    0.000    0.000 
#
# Total GULP energy -396642.739543 kJ/mol
# GULP energy per Si atom -12395.085611 kJ/mol
# Density = 1.944565 g / cm^3
# Si number density = 19.490009 Si / 1000 Ang^3
#
#
#
# Elastic Constant Matrix: (Units=GPa)
#
#
# Indices 1 2 3 4 5 6 
#
# 1 186.0475 65.2798 62.7769 0.0000 0.0000 0.0000
# 2 65.2798 151.7136 45.8647 0.0000 0.0000 0.0000
# 3 62.7769 45.8647 104.4614 0.0000 0.0000 0.0000
# 4 0.0000 0.0000 0.0000 -50.1367 0.0000 0.0000
# 5 0.0000 0.0000 0.0000 0.0000 11.2259 0.0000
# 6 0.0000 0.0000 0.0000 0.0000 0.0000 -9.3069
#
#
#
# Elastic Compliance Matrix: (Units=1/GPa)
#
#
# Indices 1 2 3 4 5 6 
#
# 1 0.007272 -0.002085 -0.003455 0.000000 0.000000 0.000000
# 2 -0.002085 0.008198 -0.002347 0.000000 0.000000 0.000000
# 3 -0.003455 -0.002347 0.012679 0.000000 0.000000 0.000000
# 4 0.000000 0.000000 0.000000 -0.019945 0.000000 0.000000
# 5 0.000000 0.000000 0.000000 0.000000 0.089079 0.000000
# 6 0.000000 0.000000 0.000000 0.000000 0.000000 -0.107448
#
#
# Mechanical properties :
#
#
# Convention : Reuss Voigt Hill
#
# Bulk Modulus (GPa) = 80.79424 87.78501 84.28962
# Shear Modulus (GPa) = 513.67138 8.24322 260.95730
#
# Velocity S-wave (km/s) = 16.25203 2.05880 11.58376
# Velocity P-wave (km/s) = 19.84226 7.12673 14.90815
#
# Compressibility (1/GPa) = 0.01237712
#
# Stress axis : x y z
#
# Youngs Moduli (GPa) = 137.50946 121.98514 78.86749
#
# Poissons Ratio (x) = 0.25429 0.27249
# Poissons Ratio (y) = 0.28666 0.18506
# Poissons Ratio (z) = 0.47510 0.28624
#
# Static dielectric constant tensor:
#      x y z
#    x 3.868280 0.000000 0.000000 
#    y 0.000000 3.761410 0.000000 
#    z 0.000000 0.000000 3.613240 
# 
# 
# High freq. dielectric constant tensor:
#      x y z
#    x 1.764400 0.000000 0.000000 
#    y 0.000000 1.785460 0.000000 
#    z 0.000000 0.000000 1.763760 
# 
# From -- ./inp_files/8341.got.cif
#   From: 2010.03.12/outbox.cif.g09.slc.cpg/sg59_5_cif.got.tgz:8341.got - 2010.04.16 16:29:54.
