data_PCOD8240908
_publ_section_title
;
Structure prediction by ZEFSAII (Michael W. Deem and Ramdas Pophale) SiO2 
 PCOD8240908
Probable space group: P M M N
;
_chemical_formula_sum "Si O2"
_cell_formula_units_Z 56
_cell_length_a 8.966468
_cell_length_b 22.120171
_cell_length_c 14.466157
_cell_angle_alpha 90.000000
_cell_angle_beta 90.000000
_cell_angle_gamma 90.000000
_cell_volume 2869.214765
_symmetry_space_group_name_H-M "P M M N"
_symmetry_group_IT_number 59
_space_group.IT_coordinate_system_code '2'
_symmetry_cell_setting 'orthorhombic'
loop_
_space_group_symop_operation_xyz
x,y,z
1/2-x,1/2-y,z
1/2+x,-y,-z
-x,1/2+y,-z
-x,-y,-z
1/2+x,1/2+y,-z
1/2-x,y,z
x,1/2-y,z
loop_
_atom_site_type_symbol
_atom_site_label
_atom_site_fract_x
_atom_site_fract_y
_atom_site_fract_z
Si Si1 0.073408 0.250000 0.852469
Si Si2 0.424893 0.638051 0.459013
Si Si3 0.078083 0.899137 0.658348
Si Si4 0.426954 0.036433 0.651489
Si Si5 0.921228 0.897744 0.839184
Si Si6 0.574619 0.463191 0.838916
Si Si7 0.574281 0.867721 0.040195
Si Si8 0.427503 0.250000 0.641407
O O1 0.250000 0.250000 0.855128
O O2 0.014019 0.190977 0.905811
O O3 0.015217 0.250000 0.747214
O O4 0.250000 0.642026 0.436118
O O5 0.453239 0.642685 0.569312
O O6 0.489825 0.573915 0.427554
O O7 0.511594 0.691238 0.408993
O O8 0.250000 0.903373 0.681492
O O9 0.003533 0.870474 0.749489
O O10 0.020242 0.967232 0.639258
O O11 0.250000 0.045698 0.643414
O O12 0.484343 0.061203 0.750008
O O13 0.750000 0.892732 0.814030
O O14 0.966390 0.967201 0.857374
O O15 0.959929 0.859476 0.931010
O O16 0.750000 0.453301 0.823724
O O17 0.517351 0.425648 0.926211
O O18 0.750000 0.878977 0.056189
O O19 0.250000 0.250000 0.636759
#
# Coordination Sequence:
#
# PCOD8240908 Si02
#       8
#     4   8   8   8   8   8   8   4
#     4   9  20  37  56  75 100 132 171 213 256 309
#     4  11  22  37  56  80 109 143 180 225 275 320
#     4   9  20  36  55  79 110 144 177 216 270 326
#     4  10  19  33  54  81 110 143 179 218 266 327
#     4   9  19  33  52  78 108 139 175 218 266 317
#     4  10  19  31  49  78 110 140 174 217 266 320
#     4  10  19  34  54  76 103 139 177 219 268 317
#     4  11  23  39  58  81 106 142 185 221 264 325
#
# _framework density 19.517534000000001
#
# number of rings (size 3 to 8) (size 9 to 14) (size 15 to 20)
#    0.000    2.143    0.000    3.214    0.000    4.000 
#    0.000    1.786    0.000    0.857    0.000    0.000 
#    0.000    0.000    0.000    0.000    0.000    0.000 
#
# Total GULP energy -694465.178111 kJ/mol
# GULP energy per Si atom -12401.163895 kJ/mol
# Density = 1.947311 g / cm^3
# Si number density = 19.517534 Si / 1000 Ang^3
#
#
#
# Elastic Constant Matrix: (Units=GPa)
#
#
# Indices 1 2 3 4 5 6 
#
# 1 65.1016 28.8741 51.5226 0.0000 0.0000 0.0000
# 2 28.8741 65.9512 55.1749 0.0000 0.0000 0.0000
# 3 51.5226 55.1749 149.2369 0.0000 0.0000 0.0000
# 4 0.0000 0.0000 0.0000 32.7292 0.0000 0.0000
# 5 0.0000 0.0000 0.0000 0.0000 35.0864 0.0000
# 6 0.0000 0.0000 0.0000 0.0000 0.0000 24.3228
#
#
#
# Elastic Compliance Matrix: (Units=1/GPa)
#
#
# Indices 1 2 3 4 5 6 
#
# 1 0.022127 -0.004773 -0.005874 0.000000 0.000000 0.000000
# 2 -0.004773 0.022982 -0.006849 0.000000 0.000000 0.000000
# 3 -0.005874 -0.006849 0.011261 0.000000 0.000000 0.000000
# 4 0.000000 0.000000 0.000000 0.030554 0.000000 0.000000
# 5 0.000000 0.000000 0.000000 0.000000 0.028501 0.000000
# 6 0.000000 0.000000 0.000000 0.000000 0.000000 0.041114
#
#
# Mechanical properties :
#
#
# Convention : Reuss Voigt Hill
#
# Bulk Modulus (GPa) = 46.77841 61.27033 54.02437
# Shear Modulus (GPa) = 25.16904 28.07554 26.62229
#
# Velocity S-wave (km/s) = 3.59494 3.79684 3.69727
# Velocity P-wave (km/s) = 6.42268 7.11913 6.77985
#
# Compressibility (1/GPa) = 0.02137738
#
# Stress axis : x y z
#
# Youngs Moduli (GPa) = 45.19456 43.51180 88.80134
#
# Poissons Ratio (x) = 0.20767 0.52166
# Poissons Ratio (y) = 0.21570 0.60821
# Poissons Ratio (z) = 0.26549 0.29802
#
# Static dielectric constant tensor:
#      x y z
#    x 3.456520 0.000000 0.000000 
#    y 0.000000 3.424370 0.000000 
#    z 0.000000 0.000000 3.752130 
# 
# 
# High freq. dielectric constant tensor:
#      x y z
#    x 1.754150 0.000000 0.000000 
#    y 0.000000 1.736280 0.000000 
#    z 0.000000 0.000000 1.773810 
# 
# From -- ./inp_files/21228.got.cif
#   From: 2010.03.12/outbox.cif.g09.slc.cpg/sg59_11_cif.got.tgz:21228.got - 2010.04.16 16:29:54.
