data_PCOD8240882
_publ_section_title
;
Structure prediction by ZEFSAII (Michael W. Deem and Ramdas Pophale) SiO2 
 PCOD8240882
Probable space group: P M M N
;
_chemical_formula_sum "Si O2"
_cell_formula_units_Z 48
_cell_length_a 8.952380
_cell_length_b 31.290132
_cell_length_c 9.676465
_cell_angle_alpha 90.000000
_cell_angle_beta 90.000000
_cell_angle_gamma 90.000000
_cell_volume 2710.582522
_symmetry_space_group_name_H-M "P M M N"
_symmetry_group_IT_number 59
_space_group.IT_coordinate_system_code '2'
_symmetry_cell_setting 'orthorhombic'
loop_
_space_group_symop_operation_xyz
x,y,z
1/2-x,1/2-y,z
1/2+x,-y,-z
-x,1/2+y,-z
-x,-y,-z
1/2+x,1/2+y,-z
1/2-x,y,z
x,1/2-y,z
loop_
_atom_site_type_symbol
_atom_site_label
_atom_site_fract_x
_atom_site_fract_y
_atom_site_fract_z
Si Si1 0.921810 0.042910 0.848183
Si Si2 0.917051 0.703299 0.337836
Si Si3 0.922877 0.043640 0.166823
Si Si4 0.571422 0.886410 0.646045
Si Si5 0.417044 0.204937 0.333932
Si Si6 0.424153 0.880598 0.353849
O O1 0.750000 0.029194 0.828347
O O2 0.963433 0.084252 0.760228
O O3 0.954696 0.053995 0.007226
O O4 0.024883 0.004158 0.796742
O O5 0.750000 0.694961 0.280490
O O6 0.974449 0.750000 0.284557
O O7 0.912454 0.703734 0.501857
O O8 0.024761 0.664971 0.289643
O O9 0.750000 0.048399 0.206040
O O10 0.018738 0.076211 0.255732
O O11 0.750000 0.885448 0.637224
O O12 0.510218 0.840649 0.709680
O O13 0.509696 0.893721 0.492633
O O14 0.250000 0.206934 0.274091
O O15 0.498681 0.250000 0.286963
O O16 0.250000 0.878445 0.387507
#
# Coordination Sequence:
#
# PCOD8240882 Si02
#       6
#     8   8   8   8   8   8
#     4   9  20  37  53  70  94 125 161 200 244 293
#     4   8  14  26  44  67  97 130 161 194 233 279
#     4  10  20  35  54  72  92 123 163 203 242 290
#     4  10  19  31  49  74 102 129 158 197 244 288
#     4   7  11  22  41  64  90 121 154 186 223 268
#     4  10  19  31  49  74 101 127 159 200 242 284
#
# _framework density 17.708371
#
# number of rings (size 3 to 8) (size 9 to 14) (size 15 to 20)
#    0.000    3.000    0.000    3.500    0.000    3.000 
#    0.000    0.000    0.000    2.500    0.000    4.667 
#    0.000    0.000    0.000    0.000    0.000    0.000 
#
# Total GULP energy -594655.727498 kJ/mol
# GULP energy per Si atom -12388.660990 kJ/mol
# Density = 1.766807 g / cm^3
# Si number density = 17.708371 Si / 1000 Ang^3
#
#
#
# Elastic Constant Matrix: (Units=GPa)
#
#
# Indices 1 2 3 4 5 6 
#
# 1 73.6490 61.6219 32.6352 0.0000 0.0000 0.0000
# 2 61.6219 165.2443 61.8902 0.0000 0.0000 0.0000
# 3 32.6352 61.8902 50.2209 0.0000 0.0000 0.0000
# 4 0.0000 0.0000 0.0000 -9.1640 0.0000 0.0000
# 5 0.0000 0.0000 0.0000 0.0000 16.7583 0.0000
# 6 0.0000 0.0000 0.0000 0.0000 0.0000 30.9853
#
#
#
# Elastic Compliance Matrix: (Units=1/GPa)
#
#
# Indices 1 2 3 4 5 6 
#
# 1 0.021145 -0.005087 -0.007472 0.000000 0.000000 0.000000
# 2 -0.005087 0.012463 -0.012053 0.000000 0.000000 0.000000
# 3 -0.007472 -0.012053 0.039622 0.000000 0.000000 0.000000
# 4 0.000000 0.000000 0.000000 -0.109123 0.000000 0.000000
# 5 0.000000 0.000000 0.000000 0.000000 0.059672 0.000000
# 6 0.000000 0.000000 0.000000 0.000000 0.000000 0.032273
#
#
# Mechanical properties :
#
#
# Convention : Reuss Voigt Hill
#
# Bulk Modulus (GPa) = 41.65728 66.82320 54.24024
# Shear Modulus (GPa) = 44.13918 16.58039 30.35978
#
# Velocity S-wave (km/s) = 4.99797 3.06323 4.14506
# Velocity P-wave (km/s) = 7.54198 7.09425 7.32154
#
# Compressibility (1/GPa) = 0.02400541
#
# Stress axis : x y z
#
# Youngs Moduli (GPa) = 47.29271 80.23755 25.23863
#
# Poissons Ratio (x) = 0.40814 0.18858
# Poissons Ratio (y) = 0.24056 0.30421
# Poissons Ratio (z) = 0.35337 0.96714
#
# Static dielectric constant tensor:
#      x y z
#    x 3.211990 0.000000 0.000000 
#    y 0.000000 4.020200 0.000000 
#    z 0.000000 0.000000 2.884550 
# 
# 
# High freq. dielectric constant tensor:
#      x y z
#    x 1.671660 0.000000 0.000000 
#    y 0.000000 1.710740 0.000000 
#    z 0.000000 0.000000 1.637610 
# 
# From -- ./inp_files/6305.got.cif
#   From: 2010.03.12/outbox.cif.g09.slc.cpg/sg59_4_cif.got.tgz:6305.got - 2010.04.16 16:29:54.
