data_PCOD8240694
_publ_section_title
;
Structure prediction by ZEFSAII (Michael W. Deem and Ramdas Pophale) SiO2 
 PCOD8240694
Probable space group: P M M N
;
_chemical_formula_sum "Si O2"
_cell_formula_units_Z 64
_cell_length_a 8.965491
_cell_length_b 28.304847
_cell_length_c 14.420116
_cell_angle_alpha 90.000000
_cell_angle_beta 90.000000
_cell_angle_gamma 90.000000
_cell_volume 3659.347429
_symmetry_space_group_name_H-M "P M M N"
_symmetry_group_IT_number 59
_space_group.IT_coordinate_system_code '2'
_symmetry_cell_setting 'orthorhombic'
loop_
_space_group_symop_operation_xyz
x,y,z
1/2-x,1/2-y,z
1/2+x,-y,-z
-x,1/2+y,-z
-x,-y,-z
1/2+x,1/2+y,-z
1/2-x,y,z
x,1/2-y,z
loop_
_atom_site_type_symbol
_atom_site_label
_atom_site_fract_x
_atom_site_fract_y
_atom_site_fract_z
Si Si1 0.576464 0.567129 0.850324
Si Si2 0.075496 0.473851 0.635270
Si Si3 0.927192 0.302287 0.650864
Si Si4 0.924674 0.883551 0.032942
Si Si5 0.922064 0.529035 0.150022
Si Si6 0.072876 0.427335 0.358351
Si Si7 0.427996 0.888623 0.473538
Si Si8 0.577757 0.304419 0.857821
O O1 0.750000 0.555870 0.849405
O O2 0.500434 0.518796 0.882361
O O3 0.525128 0.583469 0.747845
O O4 0.536596 0.607834 0.924506
O O5 0.250000 0.479266 0.610464
O O6 0.050802 0.460943 0.742138
O O7 0.989926 0.521923 0.610096
O O8 0.001610 0.432678 0.577027
O O9 0.750000 0.301149 0.654894
O O10 0.986016 0.250000 0.621965
O O11 0.983187 0.340741 0.576858
O O12 0.985582 0.315164 0.754301
O O13 0.750000 0.879645 0.049566
O O14 0.989998 0.926876 0.093634
O O15 0.995238 0.834630 0.064487
O O16 0.750000 0.522525 0.125752
O O17 0.250000 0.425988 0.372563
O O18 0.992679 0.387705 0.421779
O O19 0.250000 0.893037 0.473381
O O20 0.750000 0.317911 0.861969
O O21 0.550969 0.250000 0.883070
#
# Coordination Sequence:
#
# PCOD8240694 Si02
#       8
#     8   8   8   8   8   8   8   8
#     4   9  19  33  48  66  92 128 164 194 227 273
#     4  10  19  31  46  68  99 129 156 189 232 279
#     4   8  16  32  52  73  97 122 149 185 230 282
#     4  10  19  31  48  72  98 124 157 193 233 279
#     4   9  18  30  46  70  99 126 154 193 234 274
#     4  10  20  34  48  64  92 128 163 198 233 269
#     4  11  20  30  49  73  93 120 159 196 234 280
#     4   9  18  33  52  74  98 123 152 186 227 278
#
# _framework density 17.489457999999999
#
# number of rings (size 3 to 8) (size 9 to 14) (size 15 to 20)
#    0.000    2.500    0.000    3.375    0.000    2.250 
#    0.000    0.625    0.000    3.750    0.000    3.500 
#    0.000    0.000    0.000    0.000    0.000    0.000 
#
# Total GULP energy -793521.906273 kJ/mol
# GULP energy per Si atom -12398.779786 kJ/mol
# Density = 1.744965 g / cm^3
# Si number density = 17.489458 Si / 1000 Ang^3
#
#
#
# Elastic Constant Matrix: (Units=GPa)
#
#
# Indices 1 2 3 4 5 6 
#
# 1 47.9008 32.8469 34.5221 0.0000 0.0000 0.0000
# 2 32.8469 95.6562 73.3596 0.0000 0.0000 0.0000
# 3 34.5221 73.3596 103.0851 0.0000 0.0000 0.0000
# 4 0.0000 0.0000 0.0000 32.4781 0.0000 0.0000
# 5 0.0000 0.0000 0.0000 0.0000 25.1957 0.0000
# 6 0.0000 0.0000 0.0000 0.0000 0.0000 24.4883
#
#
#
# Elastic Compliance Matrix: (Units=1/GPa)
#
#
# Indices 1 2 3 4 5 6 
#
# 1 0.028767 -0.005482 -0.005733 0.000000 0.000000 0.000000
# 2 -0.005482 0.024059 -0.015286 0.000000 0.000000 0.000000
# 3 -0.005733 -0.015286 0.022499 0.000000 0.000000 0.000000
# 4 0.000000 0.000000 0.000000 0.030790 0.000000 0.000000
# 5 0.000000 0.000000 0.000000 0.000000 0.039689 0.000000
# 6 0.000000 0.000000 0.000000 0.000000 0.000000 0.040836
#
#
# Mechanical properties :
#
#
# Convention : Reuss Voigt Hill
#
# Bulk Modulus (GPa) = 44.79412 58.67769 51.73590
# Shear Modulus (GPa) = 20.23622 23.49334 21.86478
#
# Velocity S-wave (km/s) = 3.40524 3.66906 3.53961
# Velocity P-wave (km/s) = 6.41315 7.18140 6.80812
#
# Compressibility (1/GPa) = 0.02232436
#
# Stress axis : x y z
#
# Youngs Moduli (GPa) = 34.76204 41.56415 44.44726
#
# Poissons Ratio (x) = 0.22784 0.25481
# Poissons Ratio (y) = 0.19055 0.67941
# Poissons Ratio (z) = 0.19929 0.63534
#
# Static dielectric constant tensor:
#      x y z
#    x 3.144260 0.000000 0.000000 
#    y 0.000000 3.250460 0.000000 
#    z 0.000000 0.000000 3.550120 
# 
# 
# High freq. dielectric constant tensor:
#      x y z
#    x 1.666940 0.000000 0.000000 
#    y 0.000000 1.655420 0.000000 
#    z 0.000000 0.000000 1.682480 
# 
# From -- ./inp_files/21814.got.cif
#   From: 2010.03.12/outbox.cif.g09.slc.cpg/sg59_11_cif.got.tgz:21814.got - 2010.04.16 16:29:54.
