data_PCOD8240332
_publ_section_title
;
Structure prediction by ZEFSAII (Michael W. Deem and Ramdas Pophale) SiO2 
 PCOD8240332
Probable space group: P M M N
;
_chemical_formula_sum "Si O2"
_cell_formula_units_Z 48
_cell_length_a 9.020899
_cell_length_b 27.104388
_cell_length_c 12.930322
_cell_angle_alpha 90.000000
_cell_angle_beta 90.000000
_cell_angle_gamma 90.000000
_cell_volume 3161.540621
_symmetry_space_group_name_H-M "P M M N"
_symmetry_group_IT_number 59
_space_group.IT_coordinate_system_code '2'
_symmetry_cell_setting 'orthorhombic'
loop_
_space_group_symop_operation_xyz
x,y,z
1/2-x,1/2-y,z
1/2+x,-y,-z
-x,1/2+y,-z
-x,-y,-z
1/2+x,1/2+y,-z
1/2-x,y,z
x,1/2-y,z
loop_
_atom_site_type_symbol
_atom_site_label
_atom_site_fract_x
_atom_site_fract_y
_atom_site_fract_z
Si Si1 0.925629 0.864849 0.618532
Si Si2 0.917621 0.049877 0.473719
Si Si3 0.078953 0.307795 0.771245
Si Si4 0.582878 0.145728 0.580641
Si Si5 0.413449 0.808471 0.028050
Si Si6 0.422682 0.692626 0.797746
O O1 0.750000 0.867667 0.611096
O O2 0.994793 0.920423 0.617019
O O3 0.989834 0.834401 0.519006
O O4 0.973059 0.838240 0.722871
O O5 0.750000 0.038382 0.436991
O O6 0.916120 0.085679 0.574998
O O7 0.000000 0.000000 0.500000
O O8 0.250000 0.320427 0.758548
O O9 0.046301 0.250000 0.756675
O O10 0.989355 0.337836 0.686717
O O11 0.028105 0.326358 0.884574
O O12 0.750000 0.166788 0.574044
O O13 0.250000 0.829362 0.055183
O O14 0.405595 0.750000 0.024975
O O15 0.461976 0.826092 0.913754
O O16 0.250000 0.683025 0.773057
O O17 0.461241 0.750000 0.784238
#
# Coordination Sequence:
#
# PCOD8240332 Si02
#       6
#     8   8   8   8   8   8
#     4  10  19  30  45  67  94 119 149 186 226 271
#     4   9  18  32  50  69  89 115 146 183 225 271
#     4  10  19  29  43  65  93 122 153 190 226 261
#     4   9  19  32  46  65  89 118 153 184 220 272
#     4   8  15  28  45  62  83 118 159 191 221 259
#     4   9  17  30  46  64  90 124 159 191 222 262
#
# _framework density 15.182472000000001
#
# number of rings (size 3 to 8) (size 9 to 14) (size 15 to 20)
#    1.000    1.833    0.000    3.500    0.000    2.667 
#    0.000    1.667    0.000    0.000    0.000    1.167 
#    0.000    0.000    0.000    0.000    0.000    0.000 
#
# Total GULP energy -594739.978122 kJ/mol
# GULP energy per Si atom -12390.416211 kJ/mol
# Density = 1.514792 g / cm^3
# Si number density = 15.182472 Si / 1000 Ang^3
#
#
#
# Elastic Constant Matrix: (Units=GPa)
#
#
# Indices 1 2 3 4 5 6 
#
# 1 132.0203 40.2126 61.4013 0.0000 0.0000 0.0000
# 2 40.2126 43.7764 31.7703 0.0000 0.0000 0.0000
# 3 61.4013 31.7703 103.0894 0.0000 0.0000 0.0000
# 4 0.0000 0.0000 0.0000 -1.9547 0.0000 0.0000
# 5 0.0000 0.0000 0.0000 0.0000 26.0028 0.0000
# 6 0.0000 0.0000 0.0000 0.0000 0.0000 23.7570
#
#
#
# Elastic Compliance Matrix: (Units=1/GPa)
#
#
# Indices 1 2 3 4 5 6 
#
# 1 0.012178 -0.007629 -0.004903 0.000000 0.000000 0.000000
# 2 -0.007629 0.034204 -0.005997 0.000000 0.000000 0.000000
# 3 -0.004903 -0.005997 0.014468 0.000000 0.000000 0.000000
# 4 0.000000 0.000000 0.000000 -0.511587 0.000000 0.000000
# 5 0.000000 0.000000 0.000000 0.000000 0.038457 0.000000
# 6 0.000000 0.000000 0.000000 0.000000 0.000000 0.042093
#
#
# Mechanical properties :
#
#
# Convention : Reuss Voigt Hill
#
# Bulk Modulus (GPa) = 42.02839 60.62828 51.32833
# Shear Modulus (GPa) = -15.37527 19.26114 1.94294
#
# Velocity S-wave (km/s) = -3.18574 3.56567 1.13248
# Velocity P-wave (km/s) = 3.76966 7.54796 5.96582
#
# Compressibility (1/GPa) = 0.02379344
#
# Stress axis : x y z
#
# Youngs Moduli (GPa) = 82.11204 29.23671 69.11588
#
# Poissons Ratio (x) = 0.22305 0.33884
# Poissons Ratio (y) = 0.62644 0.41448
# Poissons Ratio (z) = 0.40255 0.17533
#
# Static dielectric constant tensor:
#      x y z
#    x 3.056140 0.000000 0.000000 
#    y 0.000000 2.561040 0.000000 
#    z 0.000000 0.000000 2.926250 
# 
# 
# High freq. dielectric constant tensor:
#      x y z
#    x 1.596500 0.000000 0.000000 
#    y 0.000000 1.538000 0.000000 
#    z 0.000000 0.000000 1.574970 
# 
# From -- ./inp_files/14687.got.cif
#   From: 2010.03.12/outbox.cif.g09.slc.cpg/sg59_8_cif.got.tgz:14687.got - 2010.04.16 16:29:54.
