data_PCOD8240809
_publ_section_title
;
Structure prediction by ZEFSAII (Michael W. Deem and Ramdas Pophale) SiO2 
 PCOD8240809
Probable space group: P M M N
;
_chemical_formula_sum "Si O2"
_cell_formula_units_Z 64
_cell_length_a 9.193674
_cell_length_b 18.720987
_cell_length_c 19.997360
_cell_angle_alpha 90.000000
_cell_angle_beta 90.000000
_cell_angle_gamma 90.000000
_cell_volume 3441.838646
_symmetry_space_group_name_H-M "P M M N"
_symmetry_group_IT_number 59
_space_group.IT_coordinate_system_code '2'
_symmetry_cell_setting 'orthorhombic'
loop_
_space_group_symop_operation_xyz
x,y,z
1/2-x,1/2-y,z
1/2+x,-y,-z
-x,1/2+y,-z
-x,-y,-z
1/2+x,1/2+y,-z
1/2-x,y,z
x,1/2-y,z
loop_
_atom_site_type_symbol
_atom_site_label
_atom_site_fract_x
_atom_site_fract_y
_atom_site_fract_z
Si Si1 0.415303 0.556922 0.410242
Si Si2 0.081139 0.332837 0.229463
Si Si3 0.583905 0.599114 0.535465
Si Si4 0.077827 0.333160 0.851809
Si Si5 0.578483 0.076285 0.743659
Si Si6 0.590909 0.957549 0.054400
Si Si7 0.088580 0.953823 0.814078
Si Si8 0.590649 0.167669 0.357323
O O1 0.250000 0.577856 0.428979
O O2 0.527029 0.595182 0.459817
O O3 0.436222 0.472413 0.420682
O O4 0.451742 0.583335 0.335485
O O5 0.250000 0.351580 0.229460
O O6 0.053709 0.250000 0.214965
O O7 0.995157 0.378615 0.174034
O O8 0.014041 0.361569 0.299124
O O9 0.750000 0.623960 0.532724
O O10 0.487662 0.658398 0.571849
O O11 0.250000 0.345218 0.840200
O O12 0.041533 0.250000 0.866223
O O13 0.027004 0.382139 0.915765
O O14 0.994933 0.358197 0.784453
O O15 0.750000 0.075400 0.759090
O O16 0.508037 0.001958 0.765229
O O17 0.750000 0.942150 0.023273
O O18 0.604739 0.011450 0.114727
O O19 0.500000 0.000000 0.000000
O O20 0.250000 0.941659 0.783395
O O21 0.750000 0.129904 0.356600
O O22 0.614012 0.250000 0.343861
#
# Coordination Sequence:
#
# PCOD8240809 Si02
#       8
#     8   8   8   8   8   8   8   8
#     4   9  19  33  47  68  98 128 160 205 260 311
#     4  10  20  33  50  74 103 134 172 217 260 303
#     4  10  19  31  49  70  93 125 167 213 258 307
#     4   9  19  37  58  80 109 142 177 219 266 317
#     4  10  19  32  53  79 105 133 171 218 265 315
#     4   9  19  35  56  82 109 140 176 213 255 303
#     4  10  20  34  53  77 106 139 173 208 252 306
#     4  10  20  33  49  68  93 128 165 202 250 305
#
# _framework density 18.594714
#
# number of rings (size 3 to 8) (size 9 to 14) (size 15 to 20)
#    0.000    2.375    0.000    3.375    0.000    6.750 
#    0.000    1.250    0.000    3.000    0.000    0.000 
#    0.000    0.000    0.000    0.000    0.000    0.000 
#
# Total GULP energy -793211.555785 kJ/mol
# GULP energy per Si atom -12393.930559 kJ/mol
# Density = 1.855239 g / cm^3
# Si number density = 18.594714 Si / 1000 Ang^3
#
#
#
# Elastic Constant Matrix: (Units=GPa)
#
#
# Indices 1 2 3 4 5 6 
#
# 1 116.0475 56.7546 36.2239 0.0000 0.0000 0.0000
# 2 56.7546 90.7952 46.5111 0.0000 0.0000 0.0000
# 3 36.2239 46.5111 67.4806 0.0000 0.0000 0.0000
# 4 0.0000 0.0000 0.0000 24.0742 0.0000 0.0000
# 5 0.0000 0.0000 0.0000 0.0000 31.9884 0.0000
# 6 0.0000 0.0000 0.0000 0.0000 0.0000 29.3001
#
#
#
# Elastic Compliance Matrix: (Units=1/GPa)
#
#
# Indices 1 2 3 4 5 6 
#
# 1 0.012594 -0.006816 -0.002063 0.000000 0.000000 0.000000
# 2 -0.006816 0.020713 -0.010618 0.000000 0.000000 0.000000
# 3 -0.002063 -0.010618 0.023245 0.000000 0.000000 0.000000
# 4 0.000000 0.000000 0.000000 0.041538 0.000000 0.000000
# 5 0.000000 0.000000 0.000000 0.000000 0.031261 0.000000
# 6 0.000000 0.000000 0.000000 0.000000 0.000000 0.034130
#
#
# Mechanical properties :
#
#
# Convention : Reuss Voigt Hill
#
# Bulk Modulus (GPa) = 56.94986 61.47807 59.21396
# Shear Modulus (GPa) = 24.00051 26.06144 25.03098
#
# Velocity S-wave (km/s) = 3.59655 3.74779 3.67295
# Velocity P-wave (km/s) = 6.92389 7.20151 7.06407
#
# Compressibility (1/GPa) = 0.01755931
#
# Stress axis : x y z
#
# Youngs Moduli (GPa) = 79.39981 48.27773 43.02002
#
# Poissons Ratio (x) = 0.32905 0.08875
# Poissons Ratio (y) = 0.54118 0.45679
# Poissons Ratio (z) = 0.16380 0.51261
#
# Static dielectric constant tensor:
#      x y z
#    x 4.251840 0.000000 0.000000 
#    y 0.000000 3.424250 0.000000 
#    z 0.000000 0.000000 3.540380 
# 
# 
# High freq. dielectric constant tensor:
#      x y z
#    x 1.735740 0.000000 0.000000 
#    y 0.000000 1.708520 0.000000 
#    z 0.000000 0.000000 1.704530 
# 
# From -- ./inp_files/29593.got.cif
#   From: 2010.03.12/outbox.cif.g09.slc.cpg/sg59_15_cif.got.tgz:29593.got - 2010.04.16 16:29:54.
