data_PCOD8240389
_publ_section_title
;
Structure prediction by ZEFSAII (Michael W. Deem and Ramdas Pophale) SiO2 
 PCOD8240389
Probable space group: P M M N
;
_chemical_formula_sum "Si O2"
_cell_formula_units_Z 64
_cell_length_a 9.058374
_cell_length_b 13.603634
_cell_length_c 30.756254
_cell_angle_alpha 90.000000
_cell_angle_beta 90.000000
_cell_angle_gamma 90.000000
_cell_volume 3789.994900
_symmetry_space_group_name_H-M "P M M N"
_symmetry_group_IT_number 59
_space_group.IT_coordinate_system_code '2'
_symmetry_cell_setting 'orthorhombic'
loop_
_space_group_symop_operation_xyz
x,y,z
1/2-x,1/2-y,z
1/2+x,-y,-z
-x,1/2+y,-z
-x,-y,-z
1/2+x,1/2+y,-z
1/2-x,y,z
x,1/2-y,z
loop_
_atom_site_type_symbol
_atom_site_label
_atom_site_fract_x
_atom_site_fract_y
_atom_site_fract_z
Si Si1 0.075804 0.359286 0.622929
Si Si2 0.578407 0.636905 0.757305
Si Si3 0.425193 0.962417 0.681912
Si Si4 0.420075 0.359856 0.987766
Si Si5 0.914633 0.636669 0.607611
Si Si6 0.075443 0.499049 0.546313
Si Si7 0.077151 0.954290 0.934559
Si Si8 0.078702 0.361338 0.142744
O O1 0.250000 0.349982 0.623611
O O2 0.004882 0.250000 0.628034
O O3 0.027144 0.430078 0.663055
O O4 0.027688 0.406018 0.576479
O O5 0.750000 0.623037 0.745692
O O6 0.531571 0.750000 0.747666
O O7 0.481376 0.557458 0.730712
O O8 0.548081 0.611240 0.807386
O O9 0.250000 0.949102 0.678984
O O10 0.506664 0.879776 0.653652
O O11 0.250000 0.375751 0.000698
O O12 0.449482 0.250000 0.970234
O O13 0.466188 0.435552 0.949831
O O14 0.513980 0.376126 0.031191
O O15 0.750000 0.588667 0.607081
O O16 0.898516 0.750000 0.598484
O O17 0.019234 0.596019 0.570024
O O18 0.250000 0.503012 0.540282
O O19 0.000000 0.500000 0.500000
O O20 0.250000 0.938804 0.931627
O O21 0.010243 0.937095 0.887061
O O22 0.250000 0.371515 0.131698
O O23 0.025926 0.250000 0.133461
#
# Coordination Sequence:
#
# PCOD8240389 Si02
#       8
#     8   8   8   8   8   8   8   8
#     4   8  16  32  51  69  91 122 158 191 226 273
#     4   9  18  32  49  69  95 128 158 182 221 284
#     4  10  19  30  49  75  97 118 149 194 239 274
#     4   9  18  32  47  63  89 126 160 189 230 285
#     4  10  20  33  49  68  93 127 159 186 225 277
#     4  10  20  33  50  72  97 125 157 195 236 277
#     4  10  19  29  45  70  94 117 153 200 239 271
#     4   9  18  32  48  66  92 127 159 184 223 283
#
# _framework density 16.886565999999998
#
# number of rings (size 3 to 8) (size 9 to 14) (size 15 to 20)
#    0.000    2.625    0.000    3.750    0.000    6.250 
#    0.000    2.500    0.000   13.875    0.000    5.250 
#    0.000    0.000    0.000    0.000    0.000    0.000 
#
# Total GULP energy -793363.021225 kJ/mol
# GULP energy per Si atom -12396.297207 kJ/mol
# Density = 1.684813 g / cm^3
# Si number density = 16.886566 Si / 1000 Ang^3
#
#
#
# Elastic Constant Matrix: (Units=GPa)
#
#
# Indices 1 2 3 4 5 6 
#
# 1 71.8492 38.3488 47.0417 0.0000 0.0000 0.0000
# 2 38.3488 105.2866 56.1039 0.0000 0.0000 0.0000
# 3 47.0417 56.1039 112.6544 0.0000 0.0000 0.0000
# 4 0.0000 0.0000 0.0000 19.0117 0.0000 0.0000
# 5 0.0000 0.0000 0.0000 0.0000 34.9808 0.0000
# 6 0.0000 0.0000 0.0000 0.0000 0.0000 22.0933
#
#
#
# Elastic Compliance Matrix: (Units=1/GPa)
#
#
# Indices 1 2 3 4 5 6 
#
# 1 0.020273 -0.003911 -0.006518 0.000000 0.000000 0.000000
# 2 -0.003911 0.013683 -0.005181 0.000000 0.000000 0.000000
# 3 -0.006518 -0.005181 0.014179 0.000000 0.000000 0.000000
# 4 0.000000 0.000000 0.000000 0.052599 0.000000 0.000000
# 5 0.000000 0.000000 0.000000 0.000000 0.028587 0.000000
# 6 0.000000 0.000000 0.000000 0.000000 0.000000 0.045263
#
#
# Mechanical properties :
#
#
# Convention : Reuss Voigt Hill
#
# Bulk Modulus (GPa) = 59.11986 63.64210 61.38098
# Shear Modulus (GPa) = 23.64709 25.10354 24.37531
#
# Velocity S-wave (km/s) = 3.74618 3.85983 3.80343
# Velocity P-wave (km/s) = 7.33470 7.59172 7.46432
#
# Compressibility (1/GPa) = 0.01691479
#
# Stress axis : x y z
#
# Youngs Moduli (GPa) = 49.32727 73.08118 70.52781
#
# Poissons Ratio (x) = 0.28581 0.45968
# Poissons Ratio (y) = 0.19292 0.36544
# Poissons Ratio (z) = 0.32150 0.37867
#
# Static dielectric constant tensor:
#      x y z
#    x 2.780990 0.000000 0.000000 
#    y 0.000000 3.228410 0.000000 
#    z 0.000000 0.000000 1.776500 
# 
# 
# High freq. dielectric constant tensor:
#      x y z
#    x 1.650560 0.000000 0.000000 
#    y 0.000000 1.637620 0.000000 
#    z 0.000000 0.000000 1.645750 
# 
# From -- ./inp_files/33194.got.cif
#   From: 2010.03.12/outbox.cif.g09.slc.cpg/sg59_17_cif.got.tgz:33194.got - 2010.04.16 16:29:54.
