data_PCOD8240275
_publ_section_title
;
Structure prediction by ZEFSAII (Michael W. Deem and Ramdas Pophale) SiO2 
 PCOD8240275
Probable space group: P M M N
;
_chemical_formula_sum "Si O2"
_cell_formula_units_Z 56
_cell_length_a 24.499939
_cell_length_b 9.112400
_cell_length_c 15.943140
_cell_angle_alpha 90.000000
_cell_angle_beta 90.000000
_cell_angle_gamma 90.000000
_cell_volume 3559.357727
_symmetry_space_group_name_H-M "P M M N"
_symmetry_group_IT_number 59
_space_group.IT_coordinate_system_code '2'
_symmetry_cell_setting 'orthorhombic'
loop_
_space_group_symop_operation_xyz
x,y,z
1/2-x,1/2-y,z
1/2+x,-y,-z
-x,1/2+y,-z
-x,-y,-z
1/2+x,1/2+y,-z
1/2-x,y,z
x,1/2-y,z
loop_
_atom_site_type_symbol
_atom_site_label
_atom_site_fract_x
_atom_site_fract_y
_atom_site_fract_z
Si Si1 0.604557 0.922380 0.611076
Si Si2 0.991487 0.417149 0.298734
Si Si3 0.491474 0.422215 0.870165
Si Si4 0.553843 0.079769 0.470425
Si Si5 0.810861 0.581513 0.896892
Si Si6 0.313323 0.917101 0.273307
Si Si7 0.578662 0.919443 0.974381
O O1 0.610569 0.750000 0.596827
O O2 0.550252 0.961844 0.663550
O O3 0.603482 0.000865 0.519329
O O4 0.656499 0.983491 0.659223
O O5 0.993737 0.250000 0.267261
O O6 0.975804 0.518858 0.221042
O O7 0.944009 0.436887 0.369219
O O8 0.499447 0.250000 0.864259
O O9 0.548222 0.490406 0.901823
O O10 0.442542 0.466619 0.933779
O O11 0.551417 0.250000 0.495952
O O12 0.500000 0.000000 0.500000
O O13 0.750000 0.547956 0.932782
O O14 0.814571 0.750000 0.866293
O O15 0.824604 0.478434 0.819030
O O16 0.856216 0.550339 0.968526
O O17 0.250000 0.926196 0.295842
O O18 0.334684 0.750000 0.276748
O O19 0.564929 0.750000 0.957778
#
# Coordination Sequence:
#
# PCOD8240275 Si02
#       7
#     8   8   8   8   8   8   8
#     4  10  19  30  45  64  87 116 146 177 214 254
#     4   9  18  30  43  62  88 115 141 172 212 255
#     4  10  19  28  42  63  86 115 146 176 213 258
#     4   9  17  29  44  63  87 113 142 174 210 253
#     4   9  17  30  47  63  82 112 146 179 216 256
#     4  10  20  31  43  63  90 116 144 178 213 252
#     4   9  18  31  43  60  87 113 142 179 217 259
#
# _framework density 15.733177
#
# number of rings (size 3 to 8) (size 9 to 14) (size 15 to 20)
#    0.000    2.571    0.000    3.429    0.000    8.857 
#    0.000    0.000    0.000    0.000    0.000    1.000 
#    0.000    3.429    0.000    0.000    0.000    0.000 
#
# Total GULP energy -694214.090092 kJ/mol
# GULP energy per Si atom -12396.680180 kJ/mol
# Density = 1.569737 g / cm^3
# Si number density = 15.733177 Si / 1000 Ang^3
#
#
#
# Elastic Constant Matrix: (Units=GPa)
#
#
# Indices 1 2 3 4 5 6 
#
# 1 78.1839 35.1447 44.9125 0.0000 0.0000 0.0000
# 2 35.1447 85.7808 48.9623 0.0000 0.0000 0.0000
# 3 44.9125 48.9623 93.0170 0.0000 0.0000 0.0000
# 4 0.0000 0.0000 0.0000 29.6672 0.0000 0.0000
# 5 0.0000 0.0000 0.0000 0.0000 25.4285 0.0000
# 6 0.0000 0.0000 0.0000 0.0000 0.0000 21.6976
#
#
#
# Elastic Compliance Matrix: (Units=1/GPa)
#
#
# Indices 1 2 3 4 5 6 
#
# 1 0.018419 -0.003531 -0.007035 0.000000 0.000000 0.000000
# 2 -0.003531 0.017341 -0.007423 0.000000 0.000000 0.000000
# 3 -0.007035 -0.007423 0.018055 0.000000 0.000000 0.000000
# 4 0.000000 0.000000 0.000000 0.033707 0.000000 0.000000
# 5 0.000000 0.000000 0.000000 0.000000 0.039326 0.000000
# 6 0.000000 0.000000 0.000000 0.000000 0.000000 0.046088
#
#
# Mechanical properties :
#
#
# Convention : Reuss Voigt Hill
#
# Bulk Modulus (GPa) = 56.06302 57.22453 56.64377
# Shear Modulus (GPa) = 23.27105 23.88949 23.58027
#
# Velocity S-wave (km/s) = 3.85009 3.90091 3.87558
# Velocity P-wave (km/s) = 7.44817 7.53262 7.49051
#
# Compressibility (1/GPa) = 0.01783707
#
# Stress axis : x y z
#
# Youngs Moduli (GPa) = 54.29295 57.66576 55.38685
#
# Poissons Ratio (x) = 0.20361 0.38963
# Poissons Ratio (y) = 0.19170 0.41115
# Poissons Ratio (z) = 0.38193 0.42807
#
# Static dielectric constant tensor:
#      x y z
#    x 2.884530 0.000000 0.000000 
#    y 0.000000 3.170480 0.000000 
#    z 0.000000 0.000000 2.951770 
# 
# 
# High freq. dielectric constant tensor:
#      x y z
#    x 1.576970 0.000000 0.000000 
#    y 0.000000 1.618950 0.000000 
#    z 0.000000 0.000000 1.591150 
# 
# From -- ./inp_files/28381.got.cif
#   From: 2010.03.12/outbox.cif.g09.slc.cpg/sg59_15_cif.got.tgz:28381.got - 2010.04.16 16:29:54.
