data_PCOD8240111
_publ_section_title
;
Structure prediction by ZEFSAII (Michael W. Deem and Ramdas Pophale) SiO2 
 PCOD8240111
Probable space group: P M M N
;
_chemical_formula_sum "Si O2"
_cell_formula_units_Z 40
_cell_length_a 8.737454
_cell_length_b 9.886077
_cell_length_c 24.704206
_cell_angle_alpha 90.000000
_cell_angle_beta 90.000000
_cell_angle_gamma 90.000000
_cell_volume 2133.928143
_symmetry_space_group_name_H-M "P M M N"
_symmetry_group_IT_number 59
_space_group.IT_coordinate_system_code '2'
_symmetry_cell_setting 'orthorhombic'
loop_
_space_group_symop_operation_xyz
x,y,z
1/2-x,1/2-y,z
1/2+x,-y,-z
-x,1/2+y,-z
-x,-y,-z
1/2+x,1/2+y,-z
1/2-x,y,z
x,1/2-y,z
loop_
_atom_site_type_symbol
_atom_site_label
_atom_site_fract_x
_atom_site_fract_y
_atom_site_fract_z
Si Si1 0.068249 0.592881 0.546813
Si Si2 0.432500 0.401765 0.642675
Si Si3 0.578619 0.591749 0.239232
Si Si4 0.569073 0.250000 0.065064
Si Si5 0.931386 0.250000 0.943442
Si Si6 0.567291 0.513220 0.125322
O O1 0.250000 0.590732 0.541942
O O2 0.009719 0.750000 0.544917
O O3 0.012353 0.519369 0.601969
O O4 0.000000 0.500000 0.500000
O O5 0.250000 0.397882 0.646037
O O6 0.488393 0.250000 0.624741
O O7 0.501480 0.437173 0.702438
O O8 0.750000 0.535035 0.243661
O O9 0.578343 0.750000 0.227081
O O10 0.500786 0.520971 0.187038
O O11 0.750000 0.250000 0.060772
O O12 0.510199 0.375117 0.099661
O O13 0.500954 0.250000 0.004522
O O14 0.750000 0.250000 0.943893
O O15 0.992462 0.378551 0.912961
O O16 0.750000 0.533017 0.125934
#
# Coordination Sequence:
#
# PCOD8240111 Si02
#       6
#     8   8   8   4   4   8
#     4  10  20  33  50  75 105 136 170 204 242 292
#     4   8  14  26  45  70  99 126 157 202 250 288
#     4   8  13  24  46  73  94 119 159 202 243 291
#     4   9  20  33  47  73 103 127 160 207 254 298
#     4  11  21  33  49  71  99 131 168 205 244 298
#     4  10  18  33  53  73  97 128 165 206 250 296
#
# _framework density 18.744772000000001
#
# number of rings (size 3 to 8) (size 9 to 14) (size 15 to 20)
#    0.000    2.800    1.000    2.700    0.000    1.200 
#    1.800    1.500    0.000    1.200    0.000    0.000 
#    0.000    0.000    0.000    0.000    0.000    0.000 
#
# Total GULP energy -495525.411158 kJ/mol
# GULP energy per Si atom -12388.135279 kJ/mol
# Density = 1.870211 g / cm^3
# Si number density = 18.744772 Si / 1000 Ang^3
#
#
#
# Elastic Constant Matrix: (Units=GPa)
#
#
# Indices 1 2 3 4 5 6 
#
# 1 14.9522 18.3708 17.7348 0.0000 0.0000 0.0000
# 2 18.3708 162.7799 106.8453 0.0000 0.0000 0.0000
# 3 17.7348 106.8453 199.2446 0.0000 0.0000 0.0000
# 4 0.0000 0.0000 0.0000 32.1692 0.0000 0.0000
# 5 0.0000 0.0000 0.0000 0.0000 20.2452 0.0000
# 6 0.0000 0.0000 0.0000 0.0000 0.0000 20.1322
#
#
#
# Elastic Compliance Matrix: (Units=1/GPa)
#
#
# Indices 1 2 3 4 5 6 
#
# 1 0.079180 -0.006651 -0.003481 0.000000 0.000000 0.000000
# 2 -0.006651 0.010039 -0.004791 0.000000 0.000000 0.000000
# 3 -0.003481 -0.004791 0.007898 0.000000 0.000000 0.000000
# 4 0.000000 0.000000 0.000000 0.031086 0.000000 0.000000
# 5 0.000000 0.000000 0.000000 0.000000 0.049394 0.000000
# 6 0.000000 0.000000 0.000000 0.000000 0.000000 0.049672
#
#
# Mechanical properties :
#
#
# Convention : Reuss Voigt Hill
#
# Bulk Modulus (GPa) = 14.86541 73.65315 44.25928
# Shear Modulus (GPa) = 17.88656 30.11106 23.99881
#
# Velocity S-wave (km/s) = 3.09239 4.01230 3.58200
# Velocity P-wave (km/s) = 4.54952 7.80017 6.38517
#
# Compressibility (1/GPa) = 0.06727024
#
# Stress axis : x y z
#
# Youngs Moduli (GPa) = 12.62938 99.61351 126.61155
#
# Poissons Ratio (x) = 0.66253 0.44076
# Poissons Ratio (y) = 0.08400 0.60664
# Poissons Ratio (z) = 0.04397 0.47728
#
# Static dielectric constant tensor:
#      x y z
#    x 2.907250 0.000000 0.000000 
#    y 0.000000 3.511680 0.000000 
#    z 0.000000 0.000000 3.982000 
# 
# 
# High freq. dielectric constant tensor:
#      x y z
#    x 1.664240 0.000000 0.000000 
#    y 0.000000 1.724150 0.000000 
#    z 0.000000 0.000000 1.753620 
# 
# From -- ./inp_files/32420.got.cif
#   From: 2010.03.12/outbox.cif.g09.slc.cpg/sg59_17_cif.got.tgz:32420.got - 2010.04.16 16:29:54.
