data_PCOD8240029
_publ_section_title
;
Structure prediction by ZEFSAII (Michael W. Deem and Ramdas Pophale) SiO2 
 PCOD8240029
Probable space group: P M M N
;
_chemical_formula_sum "Si O2"
_cell_formula_units_Z 48
_cell_length_a 9.045175
_cell_length_b 17.958565
_cell_length_c 15.945499
_cell_angle_alpha 90.000000
_cell_angle_beta 90.000000
_cell_angle_gamma 90.000000
_cell_volume 2590.160758
_symmetry_space_group_name_H-M "P M M N"
_symmetry_group_IT_number 59
_space_group.IT_coordinate_system_code '2'
_symmetry_cell_setting 'orthorhombic'
loop_
_space_group_symop_operation_xyz
x,y,z
1/2-x,1/2-y,z
1/2+x,-y,-z
-x,1/2+y,-z
-x,-y,-z
1/2+x,1/2+y,-z
1/2-x,y,z
x,1/2-y,z
loop_
_atom_site_type_symbol
_atom_site_label
_atom_site_fract_x
_atom_site_fract_y
_atom_site_fract_z
Si Si1 0.924579 0.250000 0.093955
Si Si2 0.081226 0.968252 0.124499
Si Si3 0.425726 0.750000 0.718020
Si Si4 0.418190 0.113052 0.016335
Si Si5 0.075627 0.968581 0.316439
Si Si6 0.424984 0.833166 0.428634
Si Si7 0.074300 0.888195 0.608944
O O1 0.750000 0.250000 0.097340
O O2 0.990426 0.250000 0.187998
O O3 0.977403 0.321211 0.044229
O O4 0.250000 0.939361 0.118323
O O5 0.025580 0.970242 0.219897
O O6 0.067138 0.050160 0.086622
O O7 0.974009 0.913518 0.074250
O O8 0.250000 0.750000 0.717063
O O9 0.483293 0.675828 0.671940
O O10 0.250000 0.140281 0.007130
O O11 0.250000 0.980836 0.325553
O O12 0.025767 0.888972 0.354581
O O13 0.995958 0.033500 0.367008
O O14 0.250000 0.827173 0.432827
O O15 0.490676 0.750000 0.412642
O O16 0.482537 0.865740 0.516756
O O17 0.250000 0.896290 0.612363
#
# Coordination Sequence:
#
# PCOD8240029 Si02
#       7
#     4   8   4   8   8   8   8
#     4  11  21  33  51  78 107 134 172 217 261 315
#     4   9  19  36  54  76 105 138 176 219 265 317
#     4   9  18  31  51  78 105 136 176 219 255 307
#     4  10  20  35  55  75 104 140 173 215 270 321
#     4  10  20  33  52  80 108 135 176 222 263 313
#     4   9  17  32  53  75 104 142 179 216 257 308
#     4  10  18  32  54  77 104 139 179 217 260 309
#
# _framework density 18.531669000000001
#
# number of rings (size 3 to 8) (size 9 to 14) (size 15 to 20)
#    0.000    2.333    0.833    2.250    0.000    1.333 
#    1.500    1.250    0.000    1.500    0.000    0.000 
#    0.000    0.000    0.000    0.000    0.000    0.000 
#
# Total GULP energy -595245.871551 kJ/mol
# GULP energy per Si atom -12400.955657 kJ/mol
# Density = 1.848949 g / cm^3
# Si number density = 18.531669 Si / 1000 Ang^3
#
#
#
# Elastic Constant Matrix: (Units=GPa)
#
#
# Indices 1 2 3 4 5 6 
#
# 1 44.4091 31.7041 27.7525 0.0000 0.0000 0.0000
# 2 31.7041 126.1760 72.8118 0.0000 0.0000 0.0000
# 3 27.7525 72.8118 116.5275 0.0000 0.0000 0.0000
# 4 0.0000 0.0000 0.0000 20.6499 0.0000 0.0000
# 5 0.0000 0.0000 0.0000 0.0000 20.2870 0.0000
# 6 0.0000 0.0000 0.0000 0.0000 0.0000 22.9584
#
#
#
# Elastic Compliance Matrix: (Units=1/GPa)
#
#
# Indices 1 2 3 4 5 6 
#
# 1 0.028375 -0.005051 -0.003601 0.000000 0.000000 0.000000
# 2 -0.005051 0.013294 -0.007104 0.000000 0.000000 0.000000
# 3 -0.003601 -0.007104 0.013878 0.000000 0.000000 0.000000
# 4 0.000000 0.000000 0.000000 0.048426 0.000000 0.000000
# 5 0.000000 0.000000 0.000000 0.000000 0.049293 0.000000
# 6 0.000000 0.000000 0.000000 0.000000 0.000000 0.043557
#
#
# Mechanical properties :
#
#
# Convention : Reuss Voigt Hill
#
# Bulk Modulus (GPa) = 41.60802 61.29438 51.45120
# Shear Modulus (GPa) = 21.15530 23.10200 22.12865
#
# Velocity S-wave (km/s) = 3.38239 3.53458 3.45932
# Velocity P-wave (km/s) = 6.14452 7.05727 6.61665
#
# Compressibility (1/GPa) = 0.02403383
#
# Stress axis : x y z
#
# Youngs Moduli (GPa) = 35.24256 75.22210 72.05607
#
# Poissons Ratio (x) = 0.37998 0.25951
# Poissons Ratio (y) = 0.17803 0.51186
# Poissons Ratio (z) = 0.12692 0.53435
#
# Static dielectric constant tensor:
#      x y z
#    x 3.139800 0.000000 0.000000 
#    y 0.000000 3.517990 0.000000 
#    z 0.000000 0.000000 3.574030 
# 
# 
# High freq. dielectric constant tensor:
#      x y z
#    x 1.690680 0.000000 0.000000 
#    y 0.000000 1.724580 0.000000 
#    z 0.000000 0.000000 1.727650 
# 
# From -- ./inp_files/20490.got.cif
#   From: 2010.03.12/outbox.cif.g09.slc.cpg/sg59_11_cif.got.tgz:20490.got - 2010.04.16 16:29:54.
