data_PCOD8240435
_publ_section_title
;
Structure prediction by ZEFSAII (Michael W. Deem and Ramdas Pophale) SiO2 
 PCOD8240435
Probable space group: P M M N
;
_chemical_formula_sum "Si O2"
_cell_formula_units_Z 56
_cell_length_a 9.106886
_cell_length_b 17.643807
_cell_length_c 20.597841
_cell_angle_alpha 90.000000
_cell_angle_beta 90.000000
_cell_angle_gamma 90.000000
_cell_volume 3309.663954
_symmetry_space_group_name_H-M "P M M N"
_symmetry_group_IT_number 59
_space_group.IT_coordinate_system_code '2'
_symmetry_cell_setting 'orthorhombic'
loop_
_space_group_symop_operation_xyz
x,y,z
1/2-x,1/2-y,z
1/2+x,-y,-z
-x,1/2+y,-z
-x,-y,-z
1/2+x,1/2+y,-z
1/2-x,y,z
x,1/2-y,z
loop_
_atom_site_type_symbol
_atom_site_label
_atom_site_fract_x
_atom_site_fract_y
_atom_site_fract_z
Si Si1 0.583048 0.063128 0.037362
Si Si2 0.577177 0.530193 0.154614
Si Si3 0.414684 0.389727 0.518557
Si Si4 0.422807 0.836351 0.074645
Si Si5 0.084074 0.952461 0.593526
Si Si6 0.076173 0.978390 0.290198
Si Si7 0.084406 0.667039 0.366877
O O1 0.750000 0.043937 0.024645
O O2 0.546297 0.143717 0.002423
O O3 0.548741 0.048196 0.113448
O O4 0.500000 0.000000 0.000000
O O5 0.750000 0.544775 0.165595
O O6 0.497257 0.511325 0.221063
O O7 0.509848 0.605649 0.121170
O O8 0.250000 0.363475 0.502571
O O9 0.416046 0.470671 0.553048
O O10 0.505158 0.389674 0.451266
O O11 0.486865 0.331161 0.568443
O O12 0.250000 0.843483 0.090626
O O13 0.476687 0.750000 0.086333
O O14 0.250000 0.926835 0.609938
O O15 0.992414 0.960987 0.659926
O O16 0.250000 0.991207 0.285524
O O17 0.033145 0.893906 0.313921
O O18 0.250000 0.647316 0.388779
O O19 0.073871 0.750000 0.334094
#
# Coordination Sequence:
#
# PCOD8240435 Si02
#       7
#     8   8   8   8   8   8   8
#     4   8  15  28  45  64  86 113 145 182 222 263
#     4  10  19  30  44  64  92 122 150 182 224 273
#     4   9  16  26  42  63  84 107 138 177 219 258
#     4   9  17  30  48  68  89 115 149 186 222 263
#     4   9  16  27  43  62  84 109 139 178 220 258
#     4  10  19  30  44  63  88 118 152 186 219 260
#     4   9  18  31  44  59  83 116 150 181 215 258
#
# _framework density 16.920148000000001
#
# number of rings (size 3 to 8) (size 9 to 14) (size 15 to 20)
#    0.000    2.857    0.000    1.714    0.000    5.714 
#    0.000    1.429    0.000    0.000    0.000    1.000 
#    0.000    5.714    0.000    0.000    0.000    0.000 
#
# Total GULP energy -693740.563171 kJ/mol
# GULP energy per Si atom -12388.224342 kJ/mol
# Density = 1.688164 g / cm^3
# Si number density = 16.920148 Si / 1000 Ang^3
#
#
#
# Elastic Constant Matrix: (Units=GPa)
#
#
# Indices 1 2 3 4 5 6 
#
# 1 88.8677 9.1403 51.9476 0.0000 0.0000 0.0000
# 2 9.1403 10.0836 16.4270 0.0000 0.0000 0.0000
# 3 51.9476 16.4270 117.1896 0.0000 0.0000 0.0000
# 4 0.0000 0.0000 0.0000 17.0612 0.0000 0.0000
# 5 0.0000 0.0000 0.0000 0.0000 31.7894 0.0000
# 6 0.0000 0.0000 0.0000 0.0000 0.0000 16.6577
#
#
#
# Elastic Compliance Matrix: (Units=1/GPa)
#
#
# Indices 1 2 3 4 5 6 
#
# 1 0.015291 -0.003653 -0.006266 0.000000 0.000000 0.000000
# 2 -0.003653 0.129392 -0.016518 0.000000 0.000000 0.000000
# 3 -0.006266 -0.016518 0.013626 0.000000 0.000000 0.000000
# 4 0.000000 0.000000 0.000000 0.058613 0.000000 0.000000
# 5 0.000000 0.000000 0.000000 0.000000 0.031457 0.000000
# 6 0.000000 0.000000 0.000000 0.000000 0.000000 0.060032
#
#
# Mechanical properties :
#
#
# Convention : Reuss Voigt Hill
#
# Bulk Modulus (GPa) = 9.48449 41.24116 25.36282
# Shear Modulus (GPa) = 12.61253 22.34340 17.47796
#
# Velocity S-wave (km/s) = 2.73319 3.63784 3.21747
# Velocity P-wave (km/s) = 3.94690 6.48630 5.36890
#
# Compressibility (1/GPa) = 0.10543534
#
# Stress axis : x y z
#
# Youngs Moduli (GPa) = 65.39653 7.72845 73.38718
#
# Poissons Ratio (x) = 0.02823 0.45987
# Poissons Ratio (y) = 0.23886 1.21224
# Poissons Ratio (z) = 0.40980 0.12766
#
# Static dielectric constant tensor:
#      x y z
#    x 3.328610 0.000000 0.000000 
#    y 0.000000 2.728680 0.000000 
#    z 0.000000 0.000000 2.490130 
# 
# 
# High freq. dielectric constant tensor:
#      x y z
#    x 1.665820 0.000000 0.000000 
#    y 0.000000 1.610320 0.000000 
#    z 0.000000 0.000000 1.644930 
# 
# From -- ./inp_files/26041.got.cif
#   From: 2010.03.12/outbox.cif.g09.slc.cpg/sg59_14_cif.got.tgz:26041.got - 2010.04.16 16:29:54.
