data_PCOD8240729
_publ_section_title
;
Structure prediction by ZEFSAII (Michael W. Deem and Ramdas Pophale) SiO2 
 PCOD8240729
Probable space group: P M M N
;
_chemical_formula_sum "Si O2"
_cell_formula_units_Z 48
_cell_length_a 18.766573
_cell_length_b 12.478967
_cell_length_c 12.546707
_cell_angle_alpha 90.000000
_cell_angle_beta 90.000000
_cell_angle_gamma 90.000000
_cell_volume 2938.281258
_symmetry_space_group_name_H-M "P M M N"
_symmetry_group_IT_number 59
_space_group.IT_coordinate_system_code '2'
_symmetry_cell_setting 'orthorhombic'
loop_
_space_group_symop_operation_xyz
x,y,z
1/2-x,1/2-y,z
1/2+x,-y,-z
-x,1/2+y,-z
-x,-y,-z
1/2+x,1/2+y,-z
1/2-x,y,z
x,1/2-y,z
loop_
_atom_site_type_symbol
_atom_site_label
_atom_site_fract_x
_atom_site_fract_y
_atom_site_fract_z
Si Si1 0.835810 0.022159 0.690373
Si Si2 0.672174 0.250000 0.682636
Si Si3 0.328624 0.750000 0.064249
Si Si4 0.063177 0.122403 0.908329
Si Si5 0.665404 0.631513 0.507410
Si Si6 0.091703 0.958376 0.090747
Si Si7 0.829224 0.622649 0.274000
O O1 0.750000 0.023165 0.699319
O O2 0.865599 0.939416 0.603608
O O3 0.865625 0.138789 0.650146
O O4 0.866735 0.996515 0.806574
O O5 0.750000 0.250000 0.629642
O O6 0.677834 0.250000 0.809594
O O7 0.250000 0.750000 0.011594
O O8 0.368908 0.640428 0.030188
O O9 0.067247 0.250000 0.928120
O O10 0.115769 0.083569 0.814790
O O11 0.984831 0.086416 0.873011
O O12 0.086264 0.061113 0.014916
O O13 0.750000 0.636687 0.516205
O O14 0.632623 0.750000 0.521382
O O15 0.645421 0.582263 0.391380
O O16 0.750000 0.578257 0.246672
O O17 0.826042 0.750000 0.279479
#
# Coordination Sequence:
#
# PCOD8240729 Si02
#       7
#     8   4   4   8   8   8   8
#     4   9  16  27  45  69  93 117 149 192 234 277
#     4   7  12  22  38  61  85 112 144 179 216 257
#     4   9  16  30  50  69  94 124 160 195 227 281
#     4  10  20  33  48  67  95 128 159 200 243 283
#     4   8  14  26  45  68  92 116 145 185 237 286
#     4  10  19  31  47  70  95 126 161 195 243 289
#     4   8  15  29  48  67  88 120 158 190 225 277
#
# _framework density 16.336079999999999
#
# number of rings (size 3 to 8) (size 9 to 14) (size 15 to 20)
#    0.000    3.167    0.833    2.500    0.000    2.000 
#    0.000    0.833    0.000    1.000    0.000    2.333 
#    0.000    0.000    0.000    0.000    0.000    0.000 
#
# Total GULP energy -594688.619959 kJ/mol
# GULP energy per Si atom -12389.346249 kJ/mol
# Density = 1.629890 g / cm^3
# Si number density = 16.336080 Si / 1000 Ang^3
#
#
#
# Elastic Constant Matrix: (Units=GPa)
#
#
# Indices 1 2 3 4 5 6 
#
# 1 71.2378 29.5134 41.9368 0.0000 0.0000 0.0000
# 2 29.5134 85.2566 52.1888 0.0000 0.0000 0.0000
# 3 41.9368 52.1888 91.7093 0.0000 0.0000 0.0000
# 4 0.0000 0.0000 0.0000 14.6185 0.0000 0.0000
# 5 0.0000 0.0000 0.0000 0.0000 14.3664 0.0000
# 6 0.0000 0.0000 0.0000 0.0000 0.0000 16.7331
#
#
#
# Elastic Compliance Matrix: (Units=1/GPa)
#
#
# Indices 1 2 3 4 5 6 
#
# 1 0.019423 -0.001975 -0.007758 0.000000 0.000000 0.000000
# 2 -0.001975 0.018200 -0.009454 0.000000 0.000000 0.000000
# 3 -0.007758 -0.009454 0.019832 0.000000 0.000000 0.000000
# 4 0.000000 0.000000 0.000000 0.068407 0.000000 0.000000
# 5 0.000000 0.000000 0.000000 0.000000 0.069607 0.000000
# 6 0.000000 0.000000 0.000000 0.000000 0.000000 0.059762
#
#
# Mechanical properties :
#
#
# Convention : Reuss Voigt Hill
#
# Bulk Modulus (GPa) = 52.40821 55.05352 53.73086
# Shear Modulus (GPa) = 16.66874 17.44791 17.05833
#
# Velocity S-wave (km/s) = 3.19778 3.27166 3.23493
# Velocity P-wave (km/s) = 6.76648 6.93148 6.84948
#
# Compressibility (1/GPa) = 0.01908098
#
# Stress axis : x y z
#
# Youngs Moduli (GPa) = 51.48659 54.94474 50.42467
#
# Poissons Ratio (x) = 0.10850 0.39119
# Poissons Ratio (y) = 0.10167 0.47672
# Poissons Ratio (z) = 0.39942 0.51945
#
# Static dielectric constant tensor:
#      x y z
#    x 3.044640 0.000000 0.000000 
#    y 0.000000 3.289760 0.000000 
#    z 0.000000 0.000000 3.020290 
# 
# 
# High freq. dielectric constant tensor:
#      x y z
#    x 1.609770 0.000000 0.000000 
#    y 0.000000 1.621350 0.000000 
#    z 0.000000 0.000000 1.609410 
# 
# From -- ./inp_files/18246.got.cif
#   From: 2010.03.12/outbox.cif.g09.slc.cpg/sg59_10_cif.got.tgz:18246.got - 2010.04.16 16:29:54.
