data_PCOD8240322
_publ_section_title
;
Structure prediction by ZEFSAII (Michael W. Deem and Ramdas Pophale) SiO2 
 PCOD8240322
Probable space group: P M M N
;
_chemical_formula_sum "Si O2"
_cell_formula_units_Z 64
_cell_length_a 9.680088
_cell_length_b 13.756816
_cell_length_c 31.066340
_cell_angle_alpha 90.000000
_cell_angle_beta 90.000000
_cell_angle_gamma 90.000000
_cell_volume 4137.017185
_symmetry_space_group_name_H-M "P M M N"
_symmetry_group_IT_number 59
_space_group.IT_coordinate_system_code '2'
_symmetry_cell_setting 'orthorhombic'
loop_
_space_group_symop_operation_xyz
x,y,z
1/2-x,1/2-y,z
1/2+x,-y,-z
-x,1/2+y,-z
-x,-y,-z
1/2+x,1/2+y,-z
1/2-x,y,z
x,1/2-y,z
loop_
_atom_site_type_symbol
_atom_site_label
_atom_site_fract_x
_atom_site_fract_y
_atom_site_fract_z
Si Si1 0.593763 0.364793 0.479968
Si Si2 0.410108 0.522690 0.937741
Si Si3 0.910659 0.362276 0.146996
Si Si4 0.087833 0.138357 0.320281
Si Si5 0.597369 0.865389 0.775884
Si Si6 0.408511 0.959203 0.608642
Si Si7 0.910231 0.362393 0.976459
Si Si8 0.408083 0.358853 0.557811
O O1 0.750000 0.400937 0.488688
O O2 0.584298 0.250000 0.477928
O O3 0.541448 0.404141 0.434264
O O4 0.497012 0.403034 0.518512
O O5 0.250000 0.492482 0.936959
O O6 0.455989 0.574762 0.893927
O O7 0.499550 0.424888 0.942981
O O8 0.440029 0.599588 0.975539
O O9 0.750000 0.373896 0.156971
O O10 0.948403 0.250000 0.137740
O O11 0.991221 0.404380 0.188380
O O12 0.250000 0.126856 0.329125
O O13 0.042299 0.250000 0.327320
O O14 0.051226 0.102564 0.271950
O O15 0.004049 0.069295 0.351851
O O16 0.750000 0.906730 0.786422
O O17 0.602213 0.750000 0.776496
O O18 0.250000 0.932537 0.619621
O O19 0.426771 0.074469 0.600030
O O20 0.750000 0.375070 0.964362
O O21 0.955375 0.250000 0.973804
O O22 0.250000 0.360657 0.542125
O O23 0.455838 0.250000 0.570231
#
# Coordination Sequence:
#
# PCOD8240322 Si02
#       8
#     8   8   8   8   8   8   8   8
#     4   9  17  28  41  59  83 108 135 169 206 241
#     4   9  17  28  42  62  87 114 146 183 218 252
#     4   9  16  26  42  64  88 114 143 173 207 248
#     4   9  18  31  45  63  88 114 137 163 200 249
#     4   8  15  28  43  60  85 113 137 165 204 248
#     4  10  19  29  43  63  85 110 139 171 206 242
#     4   9  17  29  43  59  84 118 151 182 217 255
#     4   9  18  31  44  59  81 109 141 174 205 238
#
# _framework density 15.470083000000001
#
# number of rings (size 3 to 8) (size 9 to 14) (size 15 to 20)
#    0.000    3.000    0.000    1.875    0.000    4.500 
#    0.000    2.500    0.000    2.250    0.000    0.875 
#    0.000    3.000    0.000    0.000    0.000    0.000 
#
# Total GULP energy -793457.775459 kJ/mol
# GULP energy per Si atom -12397.777742 kJ/mol
# Density = 1.543487 g / cm^3
# Si number density = 15.470083 Si / 1000 Ang^3
#
#
#
# Elastic Constant Matrix: (Units=GPa)
#
#
# Indices 1 2 3 4 5 6 
#
# 1 65.5517 40.3183 63.8803 0.0000 0.0000 0.0000
# 2 40.3183 70.6598 50.1102 0.0000 0.0000 0.0000
# 3 63.8803 50.1102 119.4345 0.0000 0.0000 0.0000
# 4 0.0000 0.0000 0.0000 22.2127 0.0000 0.0000
# 5 0.0000 0.0000 0.0000 0.0000 30.9890 0.0000
# 6 0.0000 0.0000 0.0000 0.0000 0.0000 21.4906
#
#
#
# Elastic Compliance Matrix: (Units=1/GPa)
#
#
# Indices 1 2 3 4 5 6 
#
# 1 0.036096 -0.009829 -0.015182 0.000000 0.000000 0.000000
# 2 -0.009829 0.022824 -0.004319 0.000000 0.000000 0.000000
# 3 -0.015182 -0.004319 0.018305 0.000000 0.000000 0.000000
# 4 0.000000 0.000000 0.000000 0.045019 0.000000 0.000000
# 5 0.000000 0.000000 0.000000 0.000000 0.032270 0.000000
# 6 0.000000 0.000000 0.000000 0.000000 0.000000 0.046532
#
#
# Mechanical properties :
#
#
# Convention : Reuss Voigt Hill
#
# Bulk Modulus (GPa) = 53.86708 62.69597 58.28153
# Shear Modulus (GPa) = 18.80455 21.69425 20.24940
#
# Velocity S-wave (km/s) = 3.49025 3.74884 3.62185
# Velocity P-wave (km/s) = 7.15110 7.70413 7.43276
#
# Compressibility (1/GPa) = 0.01856421
#
# Stress axis : x y z
#
# Youngs Moduli (GPa) = 27.70413 43.81429 54.63025
#
# Poissons Ratio (x) = 0.43067 0.82939
# Poissons Ratio (y) = 0.27232 0.23593
# Poissons Ratio (z) = 0.42060 0.18922
#
# Static dielectric constant tensor:
#      x y z
#    x 3.059400 0.000000 0.000000 
#    y 0.000000 2.877590 0.000000 
#    z 0.000000 0.000000 2.935350 
# 
# 
# High freq. dielectric constant tensor:
#      x y z
#    x 1.595140 0.000000 0.000000 
#    y 0.000000 1.573780 0.000000 
#    z 0.000000 0.000000 1.579730 
# 
# From -- ./inp_files/33229.got.cif
#   From: 2010.03.12/outbox.cif.g09.slc.cpg/sg59_17_cif.got.tgz:33229.got - 2010.04.16 16:29:54.
