data_PCOD8240691
_publ_section_title
;
Structure prediction by ZEFSAII (Michael W. Deem and Ramdas Pophale) SiO2 
 PCOD8240691
Probable space group: P M M N
;
_chemical_formula_sum "Si O2"
_cell_formula_units_Z 64
_cell_length_a 9.640198
_cell_length_b 19.705419
_cell_length_c 20.167844
_cell_angle_alpha 90.000000
_cell_angle_beta 90.000000
_cell_angle_gamma 90.000000
_cell_volume 3831.167158
_symmetry_space_group_name_H-M "P M M N"
_symmetry_group_IT_number 59
_space_group.IT_coordinate_system_code '2'
_symmetry_cell_setting 'orthorhombic'
loop_
_space_group_symop_operation_xyz
x,y,z
1/2-x,1/2-y,z
1/2+x,-y,-z
-x,1/2+y,-z
-x,-y,-z
1/2+x,1/2+y,-z
1/2-x,y,z
x,1/2-y,z
loop_
_atom_site_type_symbol
_atom_site_label
_atom_site_fract_x
_atom_site_fract_y
_atom_site_fract_z
Si Si1 0.089033 0.171450 0.604209
Si Si2 0.415575 0.825848 0.662379
Si Si3 0.086530 0.938004 0.760954
Si Si4 0.403662 0.830460 0.515986
Si Si5 0.906460 0.081692 0.953223
Si Si6 0.590793 0.326631 0.836873
Si Si7 0.912977 0.590516 0.265375
Si Si8 0.588929 0.459539 0.093479
O O1 0.250000 0.162570 0.587998
O O2 0.053026 0.250000 0.619900
O O3 0.043213 0.126022 0.666268
O O4 0.006546 0.142750 0.540778
O O5 0.250000 0.824022 0.664732
O O6 0.473144 0.750000 0.677566
O O7 0.479922 0.878613 0.715663
O O8 0.460573 0.851046 0.588812
O O9 0.250000 0.929746 0.757220
O O10 0.034908 0.928130 0.837058
O O11 0.043465 0.011597 0.732565
O O12 0.250000 0.861179 0.503542
O O13 0.395088 0.750000 0.513243
O O14 0.750000 0.053084 0.945055
O O15 0.922986 0.152478 0.914373
O O16 0.937291 0.092177 0.031967
O O17 0.010482 0.028922 0.920635
O O18 0.750000 0.333688 0.813162
O O19 0.537797 0.250000 0.829916
O O20 0.494977 0.374691 0.793751
O O21 0.750000 0.599563 0.251486
O O22 0.750000 0.478599 0.101473
#
# Coordination Sequence:
#
# PCOD8240691 Si02
#       8
#     8   8   8   8   8   8   8   8
#     4   9  17  28  42  61  86 116 149 186 227 266
#     4   8  14  26  45  69  93 115 144 185 232 278
#     4   9  16  27  45  68  92 118 149 188 229 270
#     4   8  14  26  45  65  84 112 150 185 218 265
#     4   9  17  29  45  65  89 117 151 188 223 263
#     4  10  20  32  45  64  94 128 157 189 231 273
#     4  10  19  31  46  66  92 122 156 192 227 269
#     4   9  16  28  47  68  88 114 150 186 222 266
#
# _framework density 16.705090999999999
#
# number of rings (size 3 to 8) (size 9 to 14) (size 15 to 20)
#    0.000    3.000    1.250    1.125    0.000    1.250 
#    0.000    2.500    0.000    5.250    0.000    0.000 
#    0.000    1.000    0.000    0.000    0.000    0.000 
#
# Total GULP energy -793159.674822 kJ/mol
# GULP energy per Si atom -12393.119919 kJ/mol
# Density = 1.666707 g / cm^3
# Si number density = 16.705091 Si / 1000 Ang^3
#
#
#
# Elastic Constant Matrix: (Units=GPa)
#
#
# Indices 1 2 3 4 5 6 
#
# 1 32.1577 21.8921 36.6321 0.0000 0.0000 0.0000
# 2 21.8921 86.6912 67.2253 0.0000 0.0000 0.0000
# 3 36.6321 67.2253 157.5292 0.0000 0.0000 0.0000
# 4 0.0000 0.0000 0.0000 27.8830 0.0000 0.0000
# 5 0.0000 0.0000 0.0000 0.0000 21.5902 0.0000
# 6 0.0000 0.0000 0.0000 0.0000 0.0000 11.1975
#
#
#
# Elastic Compliance Matrix: (Units=1/GPa)
#
#
# Indices 1 2 3 4 5 6 
#
# 1 0.043547 -0.004699 -0.008121 0.000000 0.000000 0.000000
# 2 -0.004699 0.017748 -0.006481 0.000000 0.000000 0.000000
# 3 -0.008121 -0.006481 0.011002 0.000000 0.000000 0.000000
# 4 0.000000 0.000000 0.000000 0.035864 0.000000 0.000000
# 5 0.000000 0.000000 0.000000 0.000000 0.046317 0.000000
# 6 0.000000 0.000000 0.000000 0.000000 0.000000 0.089306
#
#
# Mechanical properties :
#
#
# Convention : Reuss Voigt Hill
#
# Bulk Modulus (GPa) = 29.67885 58.65303 44.16594
# Shear Modulus (GPa) = 17.02893 22.17605 19.60249
#
# Velocity S-wave (km/s) = 3.19625 3.64744 3.42927
# Velocity P-wave (km/s) = 5.60591 7.27499 6.49430
#
# Compressibility (1/GPa) = 0.03369403
#
# Stress axis : x y z
#
# Youngs Moduli (GPa) = 22.96377 56.34545 90.89060
#
# Poissons Ratio (x) = 0.26479 0.73812
# Poissons Ratio (y) = 0.10792 0.58906
# Poissons Ratio (z) = 0.18649 0.36517
#
# Static dielectric constant tensor:
#      x y z
#    x 2.984100 0.000000 0.000000 
#    y 0.000000 3.071620 0.000000 
#    z 0.000000 0.000000 3.544700 
# 
# 
# High freq. dielectric constant tensor:
#      x y z
#    x 1.616300 0.000000 0.000000 
#    y 0.000000 1.616520 0.000000 
#    z 0.000000 0.000000 1.657730 
# 
# From -- ./inp_files/27986.got.cif
#   From: 2010.03.12/outbox.cif.g09.slc.cpg/sg59_14_cif.got.tgz:27986.got - 2010.04.16 16:29:54.
