data_PCOD8240455
_publ_section_title
;
Structure prediction by ZEFSAII (Michael W. Deem and Ramdas Pophale) SiO2 
 PCOD8240455
Probable space group: P M M N
;
_chemical_formula_sum "Si O2"
_cell_formula_units_Z 56
_cell_length_a 9.097343
_cell_length_b 13.645826
_cell_length_c 28.857401
_cell_angle_alpha 90.000000
_cell_angle_beta 90.000000
_cell_angle_gamma 90.000000
_cell_volume 3582.379681
_symmetry_space_group_name_H-M "P M M N"
_symmetry_group_IT_number 59
_space_group.IT_coordinate_system_code '2'
_symmetry_cell_setting 'orthorhombic'
loop_
_space_group_symop_operation_xyz
x,y,z
1/2-x,1/2-y,z
1/2+x,-y,-z
-x,1/2+y,-z
-x,-y,-z
1/2+x,1/2+y,-z
1/2-x,y,z
x,1/2-y,z
loop_
_atom_site_type_symbol
_atom_site_label
_atom_site_fract_x
_atom_site_fract_y
_atom_site_fract_z
Si Si1 0.080228 0.862926 0.975425
Si Si2 0.921771 0.636420 0.338131
Si Si3 0.422905 0.363757 0.844692
Si Si4 0.922839 0.970028 0.430798
Si Si5 0.915827 0.366449 0.752794
Si Si6 0.422986 0.360775 0.476722
Si Si7 0.920968 0.465959 0.929083
O O1 0.250000 0.882268 0.962844
O O2 0.036850 0.750000 0.969107
O O3 0.049511 0.892848 0.028352
O O4 0.978421 0.925549 0.941192
O O5 0.750000 0.621327 0.328888
O O6 0.958116 0.750000 0.346901
O O7 0.976857 0.577207 0.382884
O O8 0.008054 0.593713 0.293860
O O9 0.250000 0.380811 0.841929
O O10 0.462114 0.250000 0.852710
O O11 0.493876 0.403651 0.797220
O O12 0.488881 0.426305 0.886027
O O13 0.750000 0.986805 0.430472
O O14 0.969959 0.897832 0.472370
O O15 0.000241 0.074803 0.437034
O O16 0.750000 0.406944 0.755628
O O17 0.918663 0.250000 0.751710
O O18 0.250000 0.368733 0.469914
O O19 0.478734 0.250000 0.471204
O O20 0.750000 0.471637 0.916183
#
# Coordination Sequence:
#
# PCOD8240455 Si02
#       7
#     8   8   8   8   8   8   8
#     4   9  18  32  47  64  90 122 153 185 220 259
#     4   9  16  27  43  62  86 115 144 174 211 257
#     4  10  19  30  45  65  90 120 151 181 216 262
#     4   9  17  28  43  63  85 112 146 179 212 252
#     4   9  17  28  42  62  88 115 143 177 216 257
#     4   9  17  29  43  60  85 115 145 178 215 253
#     4  10  19  30  46  68  92 118 150 186 223 261
#
# _framework density 15.632066999999999
#
# number of rings (size 3 to 8) (size 9 to 14) (size 15 to 20)
#    0.000    2.714    0.000    2.143    0.000    6.571 
#    0.000    0.000    0.000    2.571    0.000    1.000 
#    0.000    3.429    0.000    0.000    0.000    0.000 
#
# Total GULP energy -694462.774614 kJ/mol
# GULP energy per Si atom -12401.120975 kJ/mol
# Density = 1.559649 g / cm^3
# Si number density = 15.632067 Si / 1000 Ang^3
#
#
#
# Elastic Constant Matrix: (Units=GPa)
#
#
# Indices 1 2 3 4 5 6 
#
# 1 68.0798 39.3304 55.4660 0.0000 0.0000 0.0000
# 2 39.3304 89.6686 52.0329 0.0000 0.0000 0.0000
# 3 55.4660 52.0329 123.0238 0.0000 0.0000 0.0000
# 4 0.0000 0.0000 0.0000 22.5567 0.0000 0.0000
# 5 0.0000 0.0000 0.0000 0.0000 30.3964 0.0000
# 6 0.0000 0.0000 0.0000 0.0000 0.0000 24.2558
#
#
#
# Elastic Compliance Matrix: (Units=1/GPa)
#
#
# Indices 1 2 3 4 5 6 
#
# 1 0.025413 -0.005961 -0.008936 0.000000 0.000000 0.000000
# 2 -0.005961 0.016178 -0.004155 0.000000 0.000000 0.000000
# 3 -0.008936 -0.004155 0.013915 0.000000 0.000000 0.000000
# 4 0.000000 0.000000 0.000000 0.044333 0.000000 0.000000
# 5 0.000000 0.000000 0.000000 0.000000 0.032899 0.000000
# 6 0.000000 0.000000 0.000000 0.000000 0.000000 0.041227
#
#
# Mechanical properties :
#
#
# Convention : Reuss Voigt Hill
#
# Bulk Modulus (GPa) = 57.46755 63.82563 60.64659
# Shear Modulus (GPa) = 22.94954 24.37130 23.66042
#
# Velocity S-wave (km/s) = 3.83574 3.95277 3.89470
# Velocity P-wave (km/s) = 7.51396 7.85819 7.68800
#
# Compressibility (1/GPa) = 0.01740112
#
# Stress axis : x y z
#
# Youngs Moduli (GPa) = 39.34980 61.81326 71.86587
#
# Poissons Ratio (x) = 0.36847 0.64222
# Poissons Ratio (y) = 0.23457 0.29859
# Poissons Ratio (z) = 0.35165 0.25682
#
# Static dielectric constant tensor:
#      x y z
#    x 3.033530 0.000000 0.000000 
#    y 0.000000 2.825740 0.000000 
#    z 0.000000 0.000000 3.013240 
# 
# 
# High freq. dielectric constant tensor:
#      x y z
#    x 1.607130 0.000000 0.000000 
#    y 0.000000 1.569840 0.000000 
#    z 0.000000 0.000000 1.596310 
# 
# From -- ./inp_files/33187.got.cif
#   From: 2010.03.12/outbox.cif.g09.slc.cpg/sg59_17_cif.got.tgz:33187.got - 2010.04.16 16:29:54.
