data_PCOD8240946
_publ_section_title
;
Structure prediction by ZEFSAII (Michael W. Deem and Ramdas Pophale) SiO2 
 PCOD8240946
Probable space group: P M M N
;
_chemical_formula_sum "Si O2"
_cell_formula_units_Z 64
_cell_length_a 13.850676
_cell_length_b 9.240977
_cell_length_c 27.867868
_cell_angle_alpha 90.000000
_cell_angle_beta 90.000000
_cell_angle_gamma 90.000000
_cell_volume 3566.913720
_symmetry_space_group_name_H-M "P M M N"
_symmetry_group_IT_number 59
_space_group.IT_coordinate_system_code '2'
_symmetry_cell_setting 'orthorhombic'
loop_
_space_group_symop_operation_xyz
x,y,z
1/2-x,1/2-y,z
1/2+x,-y,-z
-x,1/2+y,-z
-x,-y,-z
1/2+x,1/2+y,-z
1/2-x,y,z
x,1/2-y,z
loop_
_atom_site_type_symbol
_atom_site_label
_atom_site_fract_x
_atom_site_fract_y
_atom_site_fract_z
Si Si1 0.141289 0.589353 0.122284
Si Si2 0.363856 0.086325 0.479397
Si Si3 0.518698 0.579214 0.806120
Si Si4 0.515407 0.910269 0.047435
Si Si5 0.138080 0.421467 0.862813
Si Si6 0.142575 0.918877 0.573062
Si Si7 0.951791 0.580165 0.618104
Si Si8 0.140129 0.422266 0.285058
O O1 0.250000 0.546368 0.111691
O O2 0.131701 0.750000 0.146271
O O3 0.098173 0.464192 0.155079
O O4 0.089092 0.592121 0.071436
O O5 0.250000 0.082256 0.475440
O O6 0.402086 0.250000 0.486151
O O7 0.404959 0.016443 0.430414
O O8 0.398058 0.993765 0.525024
O O9 0.499904 0.750000 0.807333
O O10 0.417921 0.498393 0.818586
O O11 0.564250 0.527550 0.755572
O O12 0.549288 0.750000 0.032361
O O13 0.593566 0.973460 0.085941
O O14 0.500000 0.000000 0.000000
O O15 0.250000 0.465640 0.860434
O O16 0.122238 0.250000 0.857403
O O17 0.250000 0.975278 0.587423
O O18 0.145608 0.750000 0.561756
O O19 0.067489 0.952152 0.616354
O O20 0.931072 0.750000 0.619581
O O21 0.902036 0.511722 0.665201
O O22 0.250000 0.480571 0.276339
O O23 0.143280 0.250000 0.286321
#
# Coordination Sequence:
#
# PCOD8240946 Si02
#       8
#     8   8   8   8   8   8   8   8
#     4   9  18  33  51  69  94 131 168 197 231 284
#     4   9  16  26  43  65  85 110 148 188 223 267
#     4  10  19  31  50  77 102 121 152 203 254 291
#     4   9  18  31  47  71 101 131 163 199 240 284
#     4   9  19  37  57  73  96 135 175 204 235 284
#     4   9  17  28  42  61  86 116 149 185 226 271
#     4   9  16  27  43  63  88 119 153 185 223 278
#     4   9  17  29  46  70  99 125 149 187 241 293
#
# _framework density 17.942682000000001
#
# number of rings (size 3 to 8) (size 9 to 14) (size 15 to 20)
#    0.000    2.875    0.000    2.250    0.000    5.000 
#    0.000    0.625    0.000    5.250    0.000    3.500 
#    0.000    0.000    0.000    0.000    0.000    0.000 
#
# Total GULP energy -793090.672614 kJ/mol
# GULP energy per Si atom -12392.041760 kJ/mol
# Density = 1.790184 g / cm^3
# Si number density = 17.942682 Si / 1000 Ang^3
#
#
#
# Elastic Constant Matrix: (Units=GPa)
#
#
# Indices 1 2 3 4 5 6 
#
# 1 133.6939 26.2550 65.5455 0.0000 0.0000 0.0000
# 2 26.2550 36.2120 31.3740 0.0000 0.0000 0.0000
# 3 65.5455 31.3740 109.6838 0.0000 0.0000 0.0000
# 4 0.0000 0.0000 0.0000 20.3998 0.0000 0.0000
# 5 0.0000 0.0000 0.0000 0.0000 21.8912 0.0000
# 6 0.0000 0.0000 0.0000 0.0000 0.0000 22.0748
#
#
#
# Elastic Compliance Matrix: (Units=1/GPa)
#
#
# Indices 1 2 3 4 5 6 
#
# 1 0.010816 -0.002981 -0.005611 0.000000 0.000000 0.000000
# 2 -0.002981 0.037535 -0.008955 0.000000 0.000000 0.000000
# 3 -0.005611 -0.008955 0.015032 0.000000 0.000000 0.000000
# 4 0.000000 0.000000 0.000000 0.049020 0.000000 0.000000
# 5 0.000000 0.000000 0.000000 0.000000 0.045680 0.000000
# 6 0.000000 0.000000 0.000000 0.000000 0.000000 0.045301
#
#
# Mechanical properties :
#
#
# Convention : Reuss Voigt Hill
#
# Bulk Modulus (GPa) = 35.34947 58.43761 46.89354
# Shear Modulus (GPa) = 20.16884 23.30085 21.73484
#
# Velocity S-wave (km/s) = 3.35635 3.60756 3.48422
# Velocity P-wave (km/s) = 5.89612 7.07053 6.50986
#
# Compressibility (1/GPa) = 0.02828897
#
# Stress axis : x y z
#
# Youngs Moduli (GPa) = 92.45628 26.64170 66.52630
#
# Poissons Ratio (x) = 0.07941 0.37327
# Poissons Ratio (y) = 0.27559 0.59576
# Poissons Ratio (z) = 0.51876 0.23858
#
# Static dielectric constant tensor:
#      x y z
#    x 3.613910 0.000000 0.000000 
#    y 0.000000 3.138180 0.000000 
#    z 0.000000 0.000000 3.306750 
# 
# 
# High freq. dielectric constant tensor:
#      x y z
#    x 1.707950 0.000000 0.000000 
#    y 0.000000 1.662490 0.000000 
#    z 0.000000 0.000000 1.679460 
# 
# From -- ./inp_files/33311.got.cif
#   From: 2010.03.12/outbox.cif.g09.slc.cpg/sg59_17_cif.got.tgz:33311.got - 2010.04.16 16:29:54.
