data_PCOD8240087
_publ_section_title
;
Structure prediction by ZEFSAII (Michael W. Deem and Ramdas Pophale) SiO2 
 PCOD8240087
Probable space group: P M M N
;
_chemical_formula_sum "Si O2"
_cell_formula_units_Z 56
_cell_length_a 15.372860
_cell_length_b 8.877022
_cell_length_c 21.400403
_cell_angle_alpha 90.000000
_cell_angle_beta 90.000000
_cell_angle_gamma 90.000000
_cell_volume 2920.410627
_symmetry_space_group_name_H-M "P M M N"
_symmetry_group_IT_number 59
_space_group.IT_coordinate_system_code '2'
_symmetry_cell_setting 'orthorhombic'
loop_
_space_group_symop_operation_xyz
x,y,z
1/2-x,1/2-y,z
1/2+x,-y,-z
-x,1/2+y,-z
-x,-y,-z
1/2+x,1/2+y,-z
1/2-x,y,z
x,1/2-y,z
loop_
_atom_site_type_symbol
_atom_site_label
_atom_site_fract_x
_atom_site_fract_y
_atom_site_fract_z
Si Si1 0.153875 0.928874 0.563138
Si Si2 0.151021 0.424603 0.139333
Si Si3 0.407106 0.427364 0.004013
Si Si4 0.655481 0.928622 0.127769
Si Si5 0.499796 0.071283 0.786342
Si Si6 0.649609 0.075480 0.577975
Si Si7 0.499119 0.928595 0.652079
O O1 0.250000 0.988499 0.583476
O O2 0.155079 0.750000 0.563886
O O3 0.133182 0.982131 0.492653
O O4 0.079801 0.991693 0.609181
O O5 0.250000 0.452371 0.160057
O O6 0.125017 0.250000 0.146645
O O7 0.140825 0.477405 0.067465
O O8 0.091418 0.523451 0.184365
O O9 0.418739 0.250000 0.001982
O O10 0.500000 0.500000 0.000000
O O11 0.353284 0.483817 0.943864
O O12 0.750000 0.984410 0.152392
O O13 0.650246 0.750000 0.130166
O O14 0.578324 0.993934 0.170620
O O15 0.497483 0.250000 0.780636
O O16 0.486566 0.000125 0.719203
O O17 0.750000 0.051224 0.596700
O O18 0.623575 0.250000 0.585116
O O19 0.591410 0.976402 0.623870
O O20 0.496173 0.750000 0.657698
#
# Coordination Sequence:
#
# PCOD8240087 Si02
#       7
#     8   8   8   8   8   8   8
#     4   8  16  33  57  84 112 142 176 216 267 323
#     4  10  21  37  58  82 108 140 179 225 276 326
#     4  10  18  32  57  84 110 138 172 218 272 325
#     4   9  18  34  56  80 106 139 178 218 266 322
#     4  11  23  38  55  77 107 146 186 226 267 316
#     4   9  18  35  59  84 110 141 178 220 266 319
#     4  11  22  35  55  81 111 146 181 221 268 317
#
# _framework density 19.175384999999999
#
# number of rings (size 3 to 8) (size 9 to 14) (size 15 to 20)
#    0.000    2.286    1.429    2.571    0.000    3.429 
#    0.000    0.714    0.000    7.286    0.000    0.000 
#    0.000    0.000    0.000    0.000    0.000    0.000 
#
# Total GULP energy -694327.463964 kJ/mol
# GULP energy per Si atom -12398.704714 kJ/mol
# Density = 1.913174 g / cm^3
# Si number density = 19.175385 Si / 1000 Ang^3
#
#
#
# Elastic Constant Matrix: (Units=GPa)
#
#
# Indices 1 2 3 4 5 6 
#
# 1 110.5137 19.8973 34.2430 0.0000 0.0000 0.0000
# 2 19.8973 36.4441 17.7111 0.0000 0.0000 0.0000
# 3 34.2430 17.7111 86.9383 0.0000 0.0000 0.0000
# 4 0.0000 0.0000 0.0000 7.2676 0.0000 0.0000
# 5 0.0000 0.0000 0.0000 0.0000 14.2682 0.0000
# 6 0.0000 0.0000 0.0000 0.0000 0.0000 25.7190
#
#
#
# Elastic Compliance Matrix: (Units=1/GPa)
#
#
# Indices 1 2 3 4 5 6 
#
# 1 0.010876 -0.004280 -0.003412 0.000000 0.000000 0.000000
# 2 -0.004280 0.032139 -0.004861 0.000000 0.000000 0.000000
# 3 -0.003412 -0.004861 0.013837 0.000000 0.000000 0.000000
# 4 0.000000 0.000000 0.000000 0.137597 0.000000 0.000000
# 5 0.000000 0.000000 0.000000 0.000000 0.070086 0.000000
# 6 0.000000 0.000000 0.000000 0.000000 0.000000 0.038882
#
#
# Mechanical properties :
#
#
# Convention : Reuss Voigt Hill
#
# Bulk Modulus (GPa) = 31.50133 41.95543 36.72838
# Shear Modulus (GPa) = 14.74468 20.25393 17.49931
#
# Velocity S-wave (km/s) = 2.77598 3.25352 3.02419
# Velocity P-wave (km/s) = 5.17092 6.00343 5.60266
#
# Compressibility (1/GPa) = 0.03174469
#
# Stress axis : x y z
#
# Youngs Moduli (GPa) = 91.94149 31.11519 72.27146
#
# Poissons Ratio (x) = 0.13317 0.24659
# Poissons Ratio (y) = 0.39351 0.35135
# Poissons Ratio (z) = 0.31371 0.15127
#
# Static dielectric constant tensor:
#      x y z
#    x 3.695550 0.000000 0.000000 
#    y 0.000000 3.180190 0.000000 
#    z 0.000000 0.000000 3.676970 
# 
# 
# High freq. dielectric constant tensor:
#      x y z
#    x 1.759730 0.000000 0.000000 
#    y 0.000000 1.714050 0.000000 
#    z 0.000000 0.000000 1.748030 
# 
# From -- ./inp_files/28970.got.cif
#   From: 2010.03.12/outbox.cif.g09.slc.cpg/sg59_15_cif.got.tgz:28970.got - 2010.04.16 16:29:54.
