data_PCOD8240393
_publ_section_title
;
Structure prediction by ZEFSAII (Michael W. Deem and Ramdas Pophale) SiO2 
 PCOD8240393
Probable space group: P M M N
;
_chemical_formula_sum "Si O2"
_cell_formula_units_Z 64
_cell_length_a 9.122665
_cell_length_b 26.896858
_cell_length_c 14.637332
_cell_angle_alpha 90.000000
_cell_angle_beta 90.000000
_cell_angle_gamma 90.000000
_cell_volume 3591.577157
_symmetry_space_group_name_H-M "P M M N"
_symmetry_group_IT_number 59
_space_group.IT_coordinate_system_code '2'
_symmetry_cell_setting 'orthorhombic'
loop_
_space_group_symop_operation_xyz
x,y,z
1/2-x,1/2-y,z
1/2+x,-y,-z
-x,1/2+y,-z
-x,-y,-z
1/2+x,1/2+y,-z
1/2-x,y,z
x,1/2-y,z
loop_
_atom_site_type_symbol
_atom_site_label
_atom_site_fract_x
_atom_site_fract_y
_atom_site_fract_z
Si Si1 0.580686 0.191648 0.650751
Si Si2 0.922456 0.617618 0.478718
Si Si3 0.580677 0.693446 0.166117
Si Si4 0.580577 0.892306 0.031136
Si Si5 0.417969 0.419293 0.166695
Si Si6 0.919355 0.034426 0.842549
Si Si7 0.419598 0.467151 0.661549
Si Si8 0.422153 0.918862 0.652442
O O1 0.750000 0.175834 0.647417
O O2 0.559309 0.250000 0.635216
O O3 0.492233 0.164735 0.571037
O O4 0.516017 0.175557 0.748595
O O5 0.750000 0.626183 0.488749
O O6 0.959157 0.567136 0.424215
O O7 0.994360 0.613886 0.578004
O O8 0.750000 0.687439 0.194684
O O9 0.543941 0.750000 0.138581
O O10 0.540635 0.659810 0.079000
O O11 0.750000 0.906332 0.045419
O O12 0.486909 0.936946 0.072170
O O13 0.545681 0.886989 0.923388
O O14 0.250000 0.412331 0.198228
O O15 0.449533 0.476446 0.141912
O O16 0.523240 0.401178 0.247995
O O17 0.750000 0.047472 0.836447
O O18 0.991827 0.053000 0.748401
O O19 0.250000 0.463728 0.687997
O O20 0.464407 0.523430 0.637010
O O21 0.250000 0.909402 0.644023
#
# Coordination Sequence:
#
# PCOD8240393 Si02
#       8
#     8   8   8   8   8   8   8   8
#     4  10  21  36  53  75 103 131 159 196 243 293
#     4  11  21  33  52  75  99 129 165 203 244 292
#     4   9  18  33  52  74  99 126 157 194 238 288
#     4  10  19  31  49  70  95 128 163 200 243 291
#     4   9  19  34  48  66  95 131 168 204 243 285
#     4  10  19  29  45  70  99 129 162 201 241 287
#     4   9  19  33  48  70 101 134 165 199 241 291
#     4  10  20  34  51  71  98 132 168 205 245 288
#
# _framework density 17.819469000000002
#
# number of rings (size 3 to 8) (size 9 to 14) (size 15 to 20)
#    0.000    2.250    0.000    3.000    0.000    6.750 
#    0.000    0.000    0.000    0.750    0.000    1.750 
#    0.000    0.000    0.000    0.000    0.000    0.000 
#
# Total GULP energy -793853.845828 kJ/mol
# GULP energy per Si atom -12403.966341 kJ/mol
# Density = 1.777891 g / cm^3
# Si number density = 17.819469 Si / 1000 Ang^3
#
#
#
# Elastic Constant Matrix: (Units=GPa)
#
#
# Indices 1 2 3 4 5 6 
#
# 1 88.2387 38.5155 65.3915 0.0000 0.0000 0.0000
# 2 38.5155 57.8044 54.3839 0.0000 0.0000 0.0000
# 3 65.3915 54.3839 135.7689 0.0000 0.0000 0.0000
# 4 0.0000 0.0000 0.0000 28.4709 0.0000 0.0000
# 5 0.0000 0.0000 0.0000 0.0000 30.4825 0.0000
# 6 0.0000 0.0000 0.0000 0.0000 0.0000 22.9329
#
#
#
# Elastic Compliance Matrix: (Units=1/GPa)
#
#
# Indices 1 2 3 4 5 6 
#
# 1 0.019037 -0.006512 -0.006560 0.000000 0.000000 0.000000
# 2 -0.006512 0.029990 -0.008876 0.000000 0.000000 0.000000
# 3 -0.006560 -0.008876 0.014081 0.000000 0.000000 0.000000
# 4 0.000000 0.000000 0.000000 0.035124 0.000000 0.000000
# 5 0.000000 0.000000 0.000000 0.000000 0.032806 0.000000
# 6 0.000000 0.000000 0.000000 0.000000 0.000000 0.043605
#
#
# Mechanical properties :
#
#
# Convention : Reuss Voigt Hill
#
# Bulk Modulus (GPa) = 52.05683 66.48818 59.27250
# Shear Modulus (GPa) = 22.22774 24.61202 23.41988
#
# Velocity S-wave (km/s) = 3.53567 3.72046 3.62924
# Velocity P-wave (km/s) = 6.77826 7.47321 7.13420
#
# Compressibility (1/GPa) = 0.01920978
#
# Stress axis : x y z
#
# Youngs Moduli (GPa) = 52.52840 33.34443 71.01921
#
# Poissons Ratio (x) = 0.21715 0.46592
# Poissons Ratio (y) = 0.34209 0.63038
# Poissons Ratio (z) = 0.34461 0.29597
#
# Static dielectric constant tensor:
#      x y z
#    x 3.354470 0.000000 0.000000 
#    y 0.000000 3.170210 0.000000 
#    z 0.000000 0.000000 3.301960 
# 
# 
# High freq. dielectric constant tensor:
#      x y z
#    x 1.696520 0.000000 0.000000 
#    y 0.000000 1.666290 0.000000 
#    z 0.000000 0.000000 1.688240 
# 
# From -- ./inp_files/21917.got.cif
#   From: 2010.03.12/outbox.cif.g09.slc.cpg/sg59_11_cif.got.tgz:21917.got - 2010.04.16 16:29:54.
