data_PCOD8240479
_publ_section_title
;
Structure prediction by ZEFSAII (Michael W. Deem and Ramdas Pophale) SiO2 
 PCOD8240479
Probable space group: P M M N
;
_chemical_formula_sum "Si O2"
_cell_formula_units_Z 48
_cell_length_a 26.656432
_cell_length_b 8.822657
_cell_length_c 11.412574
_cell_angle_alpha 90.000000
_cell_angle_beta 90.000000
_cell_angle_gamma 90.000000
_cell_volume 2684.015503
_symmetry_space_group_name_H-M "P M M N"
_symmetry_group_IT_number 59
_space_group.IT_coordinate_system_code '2'
_symmetry_cell_setting 'orthorhombic'
loop_
_space_group_symop_operation_xyz
x,y,z
1/2-x,1/2-y,z
1/2+x,-y,-z
-x,1/2+y,-z
-x,-y,-z
1/2+x,1/2+y,-z
1/2-x,y,z
x,1/2-y,z
loop_
_atom_site_type_symbol
_atom_site_label
_atom_site_fract_x
_atom_site_fract_y
_atom_site_fract_z
Si Si1 0.376884 0.572547 0.802571
Si Si2 0.951154 0.073205 0.635786
Si Si3 0.435180 0.426780 0.609813
Si Si4 0.384642 0.084801 0.174049
Si Si5 0.452924 0.415307 0.954893
Si Si6 0.307016 0.069968 0.992052
O O1 0.367203 0.750000 0.797779
O O2 0.387652 0.509112 0.672094
O O3 0.428849 0.530710 0.864178
O O4 0.330927 0.497444 0.872834
O O5 0.945212 0.250000 0.607828
O O6 0.009562 0.035146 0.666059
O O7 0.934308 0.978136 0.524081
O O8 0.913059 0.030563 0.740416
O O9 0.424286 0.250000 0.616008
O O10 0.375192 0.250000 0.235461
O O11 0.417544 0.117653 0.061939
O O12 0.333522 0.016424 0.114911
O O13 0.465352 0.250000 0.896111
O O14 0.500000 0.500000 0.000000
O O15 0.250000 0.013260 0.998039
O O16 0.311296 0.250000 0.981733
#
# Coordination Sequence:
#
# PCOD8240479 Si02
#       6
#     8   8   8   8   8   8
#     4  11  21  32  49  74 103 132 166 209 255 304
#     4  10  20  32  49  74 103 136 172 209 249 295
#     4  10  20  34  51  71 101 140 177 209 245 296
#     4   9  18  31  48  71  98 129 164 203 248 300
#     4  10  19  30  45  68  99 133 168 204 246 297
#     4   9  19  37  58  77  99 130 169 212 259 310
#
# _framework density 17.883652999999999
#
# number of rings (size 3 to 8) (size 9 to 14) (size 15 to 20)
#    0.000    2.167    0.000    5.000    0.000    8.333 
#    0.000    0.000    0.000    1.000    0.000    2.333 
#    0.000    0.000    0.000    0.000    0.000    0.000 
#
# Total GULP energy -594680.191524 kJ/mol
# GULP energy per Si atom -12389.170657 kJ/mol
# Density = 1.784295 g / cm^3
# Si number density = 17.883653 Si / 1000 Ang^3
#
#
#
# Elastic Constant Matrix: (Units=GPa)
#
#
# Indices 1 2 3 4 5 6 
#
# 1 58.9234 23.4417 16.6968 0.0000 0.0000 0.0000
# 2 23.4417 75.8133 24.5773 0.0000 0.0000 0.0000
# 3 16.6968 24.5773 58.9661 0.0000 0.0000 0.0000
# 4 0.0000 0.0000 0.0000 27.5903 0.0000 0.0000
# 5 0.0000 0.0000 0.0000 0.0000 26.6399 0.0000
# 6 0.0000 0.0000 0.0000 0.0000 0.0000 16.2546
#
#
#
# Elastic Compliance Matrix: (Units=1/GPa)
#
#
# Indices 1 2 3 4 5 6 
#
# 1 0.019979 -0.005022 -0.003564 0.000000 0.000000 0.000000
# 2 -0.005022 0.016513 -0.005461 0.000000 0.000000 0.000000
# 3 -0.003564 -0.005461 0.020244 0.000000 0.000000 0.000000
# 4 0.000000 0.000000 0.000000 0.036245 0.000000 0.000000
# 5 0.000000 0.000000 0.000000 0.000000 0.037538 0.000000
# 6 0.000000 0.000000 0.000000 0.000000 0.000000 0.061521
#
#
# Mechanical properties :
#
#
# Convention : Reuss Voigt Hill
#
# Bulk Modulus (GPa) = 34.91287 35.90382 35.40834
# Shear Modulus (GPa) = 21.76927 22.69609 22.23268
#
# Velocity S-wave (km/s) = 3.49273 3.56630 3.52971
# Velocity P-wave (km/s) = 5.98583 6.08917 6.03772
#
# Compressibility (1/GPa) = 0.02864273
#
# Stress axis : x y z
#
# Youngs Moduli (GPa) = 50.05232 60.55670 49.39696
#
# Poissons Ratio (x) = 0.30413 0.17605
# Poissons Ratio (y) = 0.25137 0.26975
# Poissons Ratio (z) = 0.17839 0.33069
#
# Static dielectric constant tensor:
#      x y z
#    x 3.088110 0.000000 0.000000 
#    y 0.000000 3.283400 0.000000 
#    z 0.000000 0.000000 3.294500 
# 
# 
# High freq. dielectric constant tensor:
#      x y z
#    x 1.667060 0.000000 0.000000 
#    y 0.000000 1.699140 0.000000 
#    z 0.000000 0.000000 1.685130 
# 
# From -- ./inp_files/19041.got.cif
#   From: 2010.03.12/outbox.cif.g09.slc.cpg/sg59_10_cif.got.tgz:19041.got - 2010.04.16 16:29:54.
