data_PCOD8240761
_publ_section_title
;
Structure prediction by ZEFSAII (Michael W. Deem and Ramdas Pophale) SiO2 
 PCOD8240761
Probable space group: P M M N
;
_chemical_formula_sum "Si O2"
_cell_formula_units_Z 64
_cell_length_a 22.386491
_cell_length_b 9.605361
_cell_length_c 17.603337
_cell_angle_alpha 90.000000
_cell_angle_beta 90.000000
_cell_angle_gamma 90.000000
_cell_volume 3785.251322
_symmetry_space_group_name_H-M "P M M N"
_symmetry_group_IT_number 59
_space_group.IT_coordinate_system_code '2'
_symmetry_cell_setting 'orthorhombic'
loop_
_space_group_symop_operation_xyz
x,y,z
1/2-x,1/2-y,z
1/2+x,-y,-z
-x,1/2+y,-z
-x,-y,-z
1/2+x,1/2+y,-z
1/2-x,y,z
x,1/2-y,z
loop_
_atom_site_type_symbol
_atom_site_label
_atom_site_fract_x
_atom_site_fract_y
_atom_site_fract_z
Si Si1 0.680058 0.908371 0.426855
Si Si2 0.578736 0.412712 0.844357
Si Si3 0.401386 0.589272 0.675805
Si Si4 0.056534 0.906877 0.993001
Si Si5 0.854395 0.588740 0.594406
Si Si6 0.683136 0.089568 0.732641
Si Si7 0.457903 0.588359 0.828995
Si Si8 0.488554 0.407512 0.428026
O O1 0.750000 0.920044 0.415081
O O2 0.657381 0.750000 0.418913
O O3 0.662264 0.965127 0.510081
O O4 0.650552 0.998442 0.360715
O O5 0.565624 0.250000 0.828962
O O6 0.598647 0.436881 0.933549
O O7 0.634430 0.464994 0.793630
O O8 0.518683 0.498240 0.825482
O O9 0.382704 0.750000 0.667813
O O10 0.411673 0.544804 0.763138
O O11 0.463979 0.556742 0.635935
O O12 0.033374 0.750000 0.998579
O O13 0.080808 0.933727 0.907289
O O14 0.000000 0.000000 0.000000
O O15 0.835610 0.750000 0.603429
O O16 0.819169 0.498855 0.655639
O O17 0.924318 0.564060 0.608798
O O18 0.750000 0.072236 0.766935
O O19 0.670485 0.250000 0.712060
O O20 0.476926 0.750000 0.818285
O O21 0.500000 0.500000 0.500000
O O22 0.493423 0.250000 0.456948
#
# Coordination Sequence:
#
# PCOD8240761 Si02
#       8
#     8   8   8   8   8   8   8   8
#     4  10  21  36  52  68  88 121 164 202 235 275
#     4   9  17  30  48  71  98 128 159 191 233 285
#     4  10  20  32  48  72  99 125 154 192 240 284
#     4   8  14  26  46  70  96 123 150 183 226 278
#     4  10  20  35  53  71  93 123 159 199 239 282
#     4  10  21  34  47  67  96 129 164 201 238 279
#     4   9  17  30  49  74 101 125 153 194 241 288
#     4  10  19  31  48  70  95 121 151 189 235 284
#
# _framework density 16.907727999999999
#
# number of rings (size 3 to 8) (size 9 to 14) (size 15 to 20)
#    0.000    2.500    1.250    1.125    0.000    4.000 
#    0.000    0.000    0.000    0.750    0.000    3.500 
#    0.000    0.000    0.000    0.000    0.000    0.000 
#
# Total GULP energy -793121.551021 kJ/mol
# GULP energy per Si atom -12392.524235 kJ/mol
# Density = 1.686925 g / cm^3
# Si number density = 16.907728 Si / 1000 Ang^3
#
#
#
# Elastic Constant Matrix: (Units=GPa)
#
#
# Indices 1 2 3 4 5 6 
#
# 1 61.8729 26.2177 42.7090 0.0000 0.0000 0.0000
# 2 26.2177 48.4821 46.5574 0.0000 0.0000 0.0000
# 3 42.7090 46.5574 142.7083 0.0000 0.0000 0.0000
# 4 0.0000 0.0000 0.0000 23.8502 0.0000 0.0000
# 5 0.0000 0.0000 0.0000 0.0000 18.5538 0.0000
# 6 0.0000 0.0000 0.0000 0.0000 0.0000 23.3700
#
#
#
# Elastic Compliance Matrix: (Units=1/GPa)
#
#
# Indices 1 2 3 4 5 6 
#
# 1 0.022442 -0.008281 -0.004015 0.000000 0.000000 0.000000
# 2 -0.008281 0.033091 -0.008318 0.000000 0.000000 0.000000
# 3 -0.004015 -0.008318 0.010922 0.000000 0.000000 0.000000
# 4 0.000000 0.000000 0.000000 0.041928 0.000000 0.000000
# 5 0.000000 0.000000 0.000000 0.000000 0.053897 0.000000
# 6 0.000000 0.000000 0.000000 0.000000 0.000000 0.042790
#
#
# Mechanical properties :
#
#
# Convention : Reuss Voigt Hill
#
# Bulk Modulus (GPa) = 39.63551 53.78127 46.70839
# Shear Modulus (GPa) = 19.63030 22.32674 20.97852
#
# Velocity S-wave (km/s) = 3.41108 3.63782 3.52627
# Velocity P-wave (km/s) = 6.24556 7.03724 6.65319
#
# Compressibility (1/GPa) = 0.02522990
#
# Stress axis : x y z
#
# Youngs Moduli (GPa) = 44.55868 30.21925 91.55457
#
# Poissons Ratio (x) = 0.25023 0.36759
# Poissons Ratio (y) = 0.36897 0.76152
# Poissons Ratio (z) = 0.17890 0.25135
#
# Static dielectric constant tensor:
#      x y z
#    x 2.754540 0.000000 0.000000 
#    y 0.000000 3.198350 0.000000 
#    z 0.000000 0.000000 3.591500 
# 
# 
# High freq. dielectric constant tensor:
#      x y z
#    x 1.624720 0.000000 0.000000 
#    y 0.000000 1.652370 0.000000 
#    z 0.000000 0.000000 1.661420 
# 
# From -- ./inp_files/26220.got.cif
#   From: 2010.03.12/outbox.cif.g09.slc.cpg/sg59_14_cif.got.tgz:26220.got - 2010.04.16 16:29:54.
