data_PCOD8240996
_publ_section_title
;
Structure prediction by ZEFSAII (Michael W. Deem and Ramdas Pophale) SiO2 
 PCOD8240996
Probable space group: P M M N
;
_chemical_formula_sum "Si O2"
_cell_formula_units_Z 64
_cell_length_a 18.904739
_cell_length_b 9.132636
_cell_length_c 20.088571
_cell_angle_alpha 90.000000
_cell_angle_beta 90.000000
_cell_angle_gamma 90.000000
_cell_volume 3468.293791
_symmetry_space_group_name_H-M "P M M N"
_symmetry_group_IT_number 59
_space_group.IT_coordinate_system_code '2'
_symmetry_cell_setting 'orthorhombic'
loop_
_space_group_symop_operation_xyz
x,y,z
1/2-x,1/2-y,z
1/2+x,-y,-z
-x,1/2+y,-z
-x,-y,-z
1/2+x,1/2+y,-z
1/2-x,y,z
x,1/2-y,z
loop_
_atom_site_type_symbol
_atom_site_label
_atom_site_fract_x
_atom_site_fract_y
_atom_site_fract_z
Si Si1 0.167745 0.422285 0.852030
Si Si2 0.454866 0.420919 0.603501
Si Si3 0.413842 0.081516 0.456497
Si Si4 0.537096 0.919322 0.061016
Si Si5 0.168435 0.590780 0.366535
Si Si6 0.329175 0.084393 0.242678
Si Si7 0.034791 0.087821 0.169648
Si Si8 0.411640 0.582011 0.733805
O O1 0.250000 0.461155 0.868122
O O2 0.158774 0.250000 0.837798
O O3 0.117518 0.466165 0.915940
O O4 0.143108 0.507634 0.785667
O O5 0.462272 0.250000 0.620823
O O6 0.531079 0.489702 0.588571
O O7 0.412364 0.447084 0.534995
O O8 0.412039 0.499534 0.662802
O O9 0.426386 0.250000 0.439831
O O10 0.340304 0.017752 0.429516
O O11 0.535626 0.750000 0.043491
O O12 0.487200 0.955224 0.122907
O O13 0.500000 0.000000 0.000000
O O14 0.250000 0.611541 0.354534
O O15 0.132615 0.750000 0.378178
O O16 0.138009 0.518025 0.299678
O O17 0.250000 0.039101 0.219830
O O18 0.329220 0.250000 0.270254
O O19 0.381494 0.069672 0.180321
O O20 0.019509 0.250000 0.138439
O O21 0.991410 0.074456 0.238354
O O22 0.387530 0.750000 0.722919
#
# Coordination Sequence:
#
# PCOD8240996 Si02
#       8
#     8   8   8   8   8   8   8   8
#     4   9  19  37  59  81 106 138 177 218 259 307
#     4  10  20  33  50  72  98 129 166 211 262 313
#     4  10  20  33  49  69  94 127 168 214 263 314
#     4  10  20  35  57  82 107 137 171 207 249 297
#     4  10  20  32  47  68  94 126 164 206 252 303
#     4   9  17  30  49  72  99 133 171 209 250 297
#     4   9  18  32  50  74 103 133 166 204 244 290
#     4  10  19  31  51  78 105 133 168 212 262 313
#
# _framework density 18.452877999999998
#
# number of rings (size 3 to 8) (size 9 to 14) (size 15 to 20)
#    0.000    2.375    0.000    2.625    0.000    5.000 
#    0.000    1.250    0.000    4.500    0.000    0.000 
#    0.000    0.000    0.000    0.000    0.000    0.000 
#
# Total GULP energy -792998.188736 kJ/mol
# GULP energy per Si atom -12390.596699 kJ/mol
# Density = 1.841088 g / cm^3
# Si number density = 18.452878 Si / 1000 Ang^3
#
#
#
# Elastic Constant Matrix: (Units=GPa)
#
#
# Indices 1 2 3 4 5 6 
#
# 1 96.5490 45.1130 51.2348 0.0000 0.0000 0.0000
# 2 45.1130 96.8234 55.4694 0.0000 0.0000 0.0000
# 3 51.2348 55.4694 95.7409 0.0000 0.0000 0.0000
# 4 0.0000 0.0000 0.0000 35.8748 0.0000 0.0000
# 5 0.0000 0.0000 0.0000 0.0000 24.7009 0.0000
# 6 0.0000 0.0000 0.0000 0.0000 0.0000 24.8962
#
#
#
# Elastic Compliance Matrix: (Units=1/GPa)
#
#
# Indices 1 2 3 4 5 6 
#
# 1 0.015279 -0.003644 -0.006065 0.000000 0.000000 0.000000
# 2 -0.003644 0.016329 -0.007510 0.000000 0.000000 0.000000
# 3 -0.006065 -0.007510 0.018041 0.000000 0.000000 0.000000
# 4 0.000000 0.000000 0.000000 0.027875 0.000000 0.000000
# 5 0.000000 0.000000 0.000000 0.000000 0.040484 0.000000
# 6 0.000000 0.000000 0.000000 0.000000 0.000000 0.040167
#
#
# Mechanical properties :
#
#
# Convention : Reuss Voigt Hill
#
# Bulk Modulus (GPa) = 65.74489 65.86088 65.80288
# Shear Modulus (GPa) = 25.29304 26.24745 25.77025
#
# Velocity S-wave (km/s) = 3.70629 3.77557 3.74109
# Velocity P-wave (km/s) = 7.34992 7.40104 7.37553
#
# Compressibility (1/GPa) = 0.01521031
#
# Stress axis : x y z
#
# Youngs Moduli (GPa) = 65.45095 61.24259 55.42789
#
# Poissons Ratio (x) = 0.22319 0.33616
# Poissons Ratio (y) = 0.23852 0.41626
# Poissons Ratio (z) = 0.39695 0.45993
#
# Static dielectric constant tensor:
#      x y z
#    x 3.427580 0.000000 0.000000 
#    y 0.000000 3.768060 0.000000 
#    z 0.000000 0.000000 3.300880 
# 
# 
# High freq. dielectric constant tensor:
#      x y z
#    x 1.703890 0.000000 0.000000 
#    y 0.000000 1.728360 0.000000 
#    z 0.000000 0.000000 1.698380 
# 
# From -- ./inp_files/28146.got.cif
#   From: 2010.03.12/outbox.cif.g09.slc.cpg/sg59_15_cif.got.tgz:28146.got - 2010.04.16 16:29:54.
