data_PCOD8240718
_publ_section_title
;
Structure prediction by ZEFSAII (Michael W. Deem and Ramdas Pophale) SiO2 
 PCOD8240718
Probable space group: P M M N
;
_chemical_formula_sum "Si O2"
_cell_formula_units_Z 64
_cell_length_a 9.093884
_cell_length_b 23.099769
_cell_length_c 18.846773
_cell_angle_alpha 90.000000
_cell_angle_beta 90.000000
_cell_angle_gamma 90.000000
_cell_volume 3959.077897
_symmetry_space_group_name_H-M "P M M N"
_symmetry_group_IT_number 59
_space_group.IT_coordinate_system_code '2'
_symmetry_cell_setting 'orthorhombic'
loop_
_space_group_symop_operation_xyz
x,y,z
1/2-x,1/2-y,z
1/2+x,-y,-z
-x,1/2+y,-z
-x,-y,-z
1/2+x,1/2+y,-z
1/2-x,y,z
x,1/2-y,z
loop_
_atom_site_type_symbol
_atom_site_label
_atom_site_fract_x
_atom_site_fract_y
_atom_site_fract_z
Si Si1 0.579890 0.025539 0.099164
Si Si2 0.421907 0.002013 0.743317
Si Si3 0.577619 0.316336 0.894258
Si Si4 0.080060 0.683588 0.398475
Si Si5 0.079005 0.415251 0.531027
Si Si6 0.079115 0.018338 0.392149
Si Si7 0.079869 0.623314 0.251323
Si Si8 0.577753 0.910230 0.017881
O O1 0.750000 0.037372 0.082349
O O2 0.544809 0.029580 0.182437
O O3 0.535637 0.961515 0.072348
O O4 0.484318 0.074151 0.059835
O O5 0.250000 0.004207 0.727440
O O6 0.501949 0.964748 0.681914
O O7 0.480410 0.067010 0.744108
O O8 0.750000 0.323010 0.907308
O O9 0.527176 0.250000 0.899197
O O10 0.532944 0.340080 0.817210
O O11 0.494490 0.351181 0.955536
O O12 0.250000 0.674215 0.418189
O O13 0.033507 0.750000 0.405136
O O14 0.047731 0.663501 0.318651
O O15 0.980882 0.648893 0.454967
O O16 0.250000 0.420217 0.550532
O O17 0.051820 0.430519 0.448493
O O18 0.989520 0.458441 0.581073
O O19 0.250000 0.006842 0.378906
O O20 0.250000 0.604403 0.247728
O O21 0.750000 0.900591 0.011764
#
# Coordination Sequence:
#
# PCOD8240718 Si02
#       8
#     8   8   8   8   8   8   8   8
#     4   9  19  33  48  69  98 126 157 199 247 295
#     4  11  20  31  49  74 101 128 160 199 245 293
#     4  10  20  33  49  69  97 135 172 202 238 285
#     4  10  20  33  49  70  98 133 170 204 240 285
#     4  10  20  33  49  70  96 127 165 206 244 285
#     4  10  20  33  49  70  97 128 162 201 247 296
#     4  10  19  31  47  68  98 134 170 201 233 279
#     4  10  19  32  49  70  95 126 164 204 243 285
#
# _framework density 16.165381
#
# number of rings (size 3 to 8) (size 9 to 14) (size 15 to 20)
#    0.000    2.000    2.500    1.875    0.000    5.000 
#    0.000    0.000    0.000    2.250    0.000    0.875 
#    0.000    5.000    0.000    0.000    0.000    0.000 
#
# Total GULP energy -793797.423292 kJ/mol
# GULP energy per Si atom -12403.084739 kJ/mol
# Density = 1.612859 g / cm^3
# Si number density = 16.165381 Si / 1000 Ang^3
#
#
#
# Elastic Constant Matrix: (Units=GPa)
#
#
# Indices 1 2 3 4 5 6 
#
# 1 82.2337 44.1409 61.8949 0.0000 0.0000 0.0000
# 2 44.1409 83.4937 56.4379 0.0000 0.0000 0.0000
# 3 61.8949 56.4379 116.7626 0.0000 0.0000 0.0000
# 4 0.0000 0.0000 0.0000 22.4966 0.0000 0.0000
# 5 0.0000 0.0000 0.0000 0.0000 27.8284 0.0000
# 6 0.0000 0.0000 0.0000 0.0000 0.0000 24.6062
#
#
#
# Elastic Compliance Matrix: (Units=1/GPa)
#
#
# Indices 1 2 3 4 5 6 
#
# 1 0.021822 -0.005522 -0.008899 0.000000 0.000000 0.000000
# 2 -0.005522 0.019186 -0.006347 0.000000 0.000000 0.000000
# 3 -0.008899 -0.006347 0.016349 0.000000 0.000000 0.000000
# 4 0.000000 0.000000 0.000000 0.044451 0.000000 0.000000
# 5 0.000000 0.000000 0.000000 0.000000 0.035935 0.000000
# 6 0.000000 0.000000 0.000000 0.000000 0.000000 0.040640
#
#
# Mechanical properties :
#
#
# Convention : Reuss Voigt Hill
#
# Bulk Modulus (GPa) = 63.19821 67.49305 65.34563
# Shear Modulus (GPa) = 22.20318 22.98731 22.59525
#
# Velocity S-wave (km/s) = 3.71010 3.77504 3.74271
# Velocity P-wave (km/s) = 7.58504 7.80023 7.69338
#
# Compressibility (1/GPa) = 0.01582323
#
# Stress axis : x y z
#
# Youngs Moduli (GPa) = 45.82474 52.12068 61.16437
#
# Poissons Ratio (x) = 0.28779 0.54430
# Poissons Ratio (y) = 0.25303 0.38820
# Poissons Ratio (z) = 0.40779 0.33080
#
# Static dielectric constant tensor:
#      x y z
#    x 3.104060 0.000000 0.000000 
#    y 0.000000 2.876090 0.000000 
#    z 0.000000 0.000000 3.229440 
# 
# 
# High freq. dielectric constant tensor:
#      x y z
#    x 1.630830 0.000000 0.000000 
#    y 0.000000 1.591740 0.000000 
#    z 0.000000 0.000000 1.620600 
# 
# From -- ./inp_files/26485.got.cif
#   From: 2010.03.12/outbox.cif.g09.slc.cpg/sg59_14_cif.got.tgz:26485.got - 2010.04.16 16:29:54.
