data_PCOD8241432
_publ_section_title
;
Structure prediction by ZEFSAII (Michael W. Deem and Ramdas Pophale) SiO2 
 PCOD8241432
Probable space group: P M M N
;
_chemical_formula_sum "Si O2"
_cell_formula_units_Z 56
_cell_length_a 9.160403
_cell_length_b 14.627344
_cell_length_c 21.349561
_cell_angle_alpha 90.000000
_cell_angle_beta 90.000000
_cell_angle_gamma 90.000000
_cell_volume 2860.678188
_symmetry_space_group_name_H-M "P M M N"
_symmetry_group_IT_number 59
_space_group.IT_coordinate_system_code '2'
_symmetry_cell_setting 'orthorhombic'
loop_
_space_group_symop_operation_xyz
x,y,z
1/2-x,1/2-y,z
1/2+x,-y,-z
-x,1/2+y,-z
-x,-y,-z
1/2+x,1/2+y,-z
1/2-x,y,z
x,1/2-y,z
loop_
_atom_site_type_symbol
_atom_site_label
_atom_site_fract_x
_atom_site_fract_y
_atom_site_fract_z
Si Si1 0.416197 0.854547 0.201841
Si Si2 0.576622 0.001706 0.276583
Si Si3 0.080891 0.143342 0.513651
Si Si4 0.420176 0.000941 0.405493
Si Si5 0.913536 0.888223 0.945182
Si Si6 0.913927 0.395664 0.936043
Si Si7 0.914016 0.350871 0.177107
O O1 0.250000 0.892928 0.204993
O O2 0.420571 0.750000 0.222331
O O3 0.478095 0.866317 0.131310
O O4 0.519935 0.905363 0.250739
O O5 0.750000 0.999423 0.285037
O O6 0.523254 0.079221 0.228105
O O7 0.502653 0.025009 0.342045
O O8 0.250000 0.136549 0.533487
O O9 0.033677 0.250000 0.506695
O O10 0.984948 0.093122 0.566341
O O11 0.053665 0.089450 0.448984
O O12 0.250000 0.983986 0.392827
O O13 0.750000 0.850384 0.946253
O O14 0.991555 0.847400 0.885151
O O15 0.918003 0.996330 0.941249
O O16 0.990464 0.852166 0.008485
O O17 0.750000 0.357388 0.942903
O O18 0.750000 0.380491 0.158430
O O19 0.916226 0.250000 0.207514
#
# Coordination Sequence:
#
# PCOD8241432 Si02
#       7
#     8   8   8   8   8   8   8
#     4  10  21  38  59  81 107 144 189 235 285 340
#     4  11  23  39  59  82 114 152 190 233 279 328
#     4   9  19  38  63  91 122 153 188 230 272 317
#     4  10  21  37  60  89 120 154 190 227 274 326
#     4  10  19  32  54  81 108 139 181 232 286 342
#     4   9  18  33  53  78 109 142 179 226 285 347
#     4  10  22  39  57  78 107 146 190 234 285 342
#
# _framework density 19.575776999999999
#
# number of rings (size 3 to 8) (size 9 to 14) (size 15 to 20)
#    0.000    2.143    1.429    1.286    0.000    4.857 
#    0.000    1.429    0.000    0.000    0.000    0.000 
#    0.000    0.000    0.000    0.000    0.000    0.000 
#
# Total GULP energy -694457.080787 kJ/mol
# GULP energy per Si atom -12401.019300 kJ/mol
# Density = 1.953122 g / cm^3
# Si number density = 19.575777 Si / 1000 Ang^3
#
#
#
# Elastic Constant Matrix: (Units=GPa)
#
#
# Indices 1 2 3 4 5 6 
#
# 1 91.2690 33.0914 48.9981 0.0000 0.0000 0.0000
# 2 33.0914 87.8832 30.3742 0.0000 0.0000 0.0000
# 3 48.9981 30.3742 103.7952 0.0000 0.0000 0.0000
# 4 0.0000 0.0000 0.0000 0.9957 0.0000 0.0000
# 5 0.0000 0.0000 0.0000 0.0000 34.1745 0.0000
# 6 0.0000 0.0000 0.0000 0.0000 0.0000 21.6587
#
#
#
# Elastic Compliance Matrix: (Units=1/GPa)
#
#
# Indices 1 2 3 4 5 6 
#
# 1 0.015702 -0.003728 -0.006321 0.000000 0.000000 0.000000
# 2 -0.003728 0.013544 -0.002204 0.000000 0.000000 0.000000
# 3 -0.006321 -0.002204 0.013263 0.000000 0.000000 0.000000
# 4 0.000000 0.000000 0.000000 1.004361 0.000000 0.000000
# 5 0.000000 0.000000 0.000000 0.000000 0.029262 0.000000
# 6 0.000000 0.000000 0.000000 0.000000 0.000000 0.046171
#
#
# Mechanical properties :
#
#
# Convention : Reuss Voigt Hill
#
# Bulk Modulus (GPa) = 55.54449 56.43055 55.98752
# Shear Modulus (GPa) = 4.33723 22.73135 13.53429
#
# Velocity S-wave (km/s) = 1.49011 3.41133 2.63226
# Velocity P-wave (km/s) = 5.60324 6.66375 6.15637
#
# Compressibility (1/GPa) = 0.01800359
#
# Stress axis : x y z
#
# Youngs Moduli (GPa) = 63.68691 73.83357 75.39531
#
# Poissons Ratio (x) = 0.27522 0.47661
# Poissons Ratio (y) = 0.23739 0.16616
# Poissons Ratio (z) = 0.40260 0.16272
#
# Static dielectric constant tensor:
#      x y z
#    x 3.667770 0.000000 0.000000 
#    y 0.000000 3.545010 0.000000 
#    z 0.000000 0.000000 3.520780 
# 
# 
# High freq. dielectric constant tensor:
#      x y z
#    x 1.762310 0.000000 0.000000 
#    y 0.000000 1.765600 0.000000 
#    z 0.000000 0.000000 1.758430 
# 
# From -- ./inp_files/29058.got.cif
#   From: 2010.03.12/outbox.cif.g09.slc.cpg/sg59_15_cif.got.tgz:29058.got - 2010.04.16 16:29:54.
