data_PCOD8241858
_publ_section_title
;
Structure prediction by ZEFSAII (Michael W. Deem and Ramdas Pophale) SiO2 
 PCOD8241858
Probable space group: P M M N
;
_chemical_formula_sum "Si O2"
_cell_formula_units_Z 64
_cell_length_a 9.439085
_cell_length_b 23.437510
_cell_length_c 15.065364
_cell_angle_alpha 90.000000
_cell_angle_beta 90.000000
_cell_angle_gamma 90.000000
_cell_volume 3332.890126
_symmetry_space_group_name_H-M "P M M N"
_symmetry_group_IT_number 59
_space_group.IT_coordinate_system_code '2'
_symmetry_cell_setting 'orthorhombic'
loop_
_space_group_symop_operation_xyz
x,y,z
1/2-x,1/2-y,z
1/2+x,-y,-z
-x,1/2+y,-z
-x,-y,-z
1/2+x,1/2+y,-z
1/2-x,y,z
x,1/2-y,z
loop_
_atom_site_type_symbol
_atom_site_label
_atom_site_fract_x
_atom_site_fract_y
_atom_site_fract_z
Si Si1 0.918692 0.883464 0.818737
Si Si2 0.914607 0.493233 0.221648
Si Si3 0.582231 0.814501 0.990416
Si Si4 0.089683 0.813246 0.302988
Si Si5 0.582667 0.813838 0.650609
Si Si6 0.409855 0.346550 0.542941
Si Si7 0.590573 0.977416 0.419146
Si Si8 0.585667 0.881741 0.163435
O O1 0.750000 0.892315 0.818853
O O2 0.976463 0.852118 0.730646
O O3 0.991957 0.944958 0.825110
O O4 0.970227 0.844812 0.900811
O O5 0.750000 0.475873 0.220335
O O6 0.966660 0.501716 0.323519
O O7 0.938151 0.550328 0.163344
O O8 0.750000 0.810726 0.990068
O O9 0.519409 0.750000 0.996868
O O10 0.530524 0.853610 0.072216
O O11 0.250000 0.835723 0.313191
O O12 0.087569 0.750000 0.260914
O O13 0.016831 0.809003 0.399400
O O14 0.003548 0.856114 0.242788
O O15 0.750000 0.810262 0.660644
O O16 0.518270 0.750000 0.655358
O O17 0.538184 0.844007 0.558869
O O18 0.250000 0.321673 0.549797
O O19 0.414963 0.409708 0.581090
O O20 0.750000 0.999309 0.433741
O O21 0.500000 0.000000 0.500000
O O22 0.750000 0.866955 0.180720
#
# Coordination Sequence:
#
# PCOD8241858 Si02
#       8
#     8   8   8   8   8   8   8   8
#     4  10  20  35  57  84 113 144 183 230 280 332
#     4  10  21  37  54  78 114 149 187 231 276 329
#     4   9  18  34  60  91 114 138 182 235 281 327
#     4  11  23  36  52  80 115 145 177 226 284 333
#     4   9  17  30  52  81 110 141 182 233 279 323
#     4  10  19  34  54  77 105 145 192 227 268 331
#     4  10  20  34  52  77 109 147 191 236 276 325
#     4  10  20  38  61  82 109 148 189 228 271 330
#
# _framework density 19.202552000000001
#
# number of rings (size 3 to 8) (size 9 to 14) (size 15 to 20)
#    0.000    2.125    1.250    2.250    0.000    6.500 
#    0.000    1.250    0.000    3.000    0.000    0.000 
#    0.000    0.000    0.000    0.000    0.000    0.000 
#
# Total GULP energy -793585.389671 kJ/mol
# GULP energy per Si atom -12399.771714 kJ/mol
# Density = 1.915885 g / cm^3
# Si number density = 19.202552 Si / 1000 Ang^3
#
#
#
# Elastic Constant Matrix: (Units=GPa)
#
#
# Indices 1 2 3 4 5 6 
#
# 1 57.6851 40.3954 40.2366 0.0000 0.0000 0.0000
# 2 40.3954 114.8563 60.4055 0.0000 0.0000 0.0000
# 3 40.2366 60.4055 138.1946 0.0000 0.0000 0.0000
# 4 0.0000 0.0000 0.0000 38.7712 0.0000 0.0000
# 5 0.0000 0.0000 0.0000 0.0000 14.3955 0.0000
# 6 0.0000 0.0000 0.0000 0.0000 0.0000 24.7581
#
#
#
# Elastic Compliance Matrix: (Units=1/GPa)
#
#
# Indices 1 2 3 4 5 6 
#
# 1 0.024945 -0.006432 -0.004451 0.000000 0.000000 0.000000
# 2 -0.006432 0.012964 -0.003794 0.000000 0.000000 0.000000
# 3 -0.004451 -0.003794 0.010191 0.000000 0.000000 0.000000
# 4 0.000000 0.000000 0.000000 0.025792 0.000000 0.000000
# 5 0.000000 0.000000 0.000000 0.000000 0.069466 0.000000
# 6 0.000000 0.000000 0.000000 0.000000 0.000000 0.040391
#
#
# Mechanical properties :
#
#
# Convention : Reuss Voigt Hill
#
# Bulk Modulus (GPa) = 53.34877 65.86791 59.60834
# Shear Modulus (GPa) = 22.79449 26.89819 24.84634
#
# Velocity S-wave (km/s) = 3.44910 3.74673 3.60100
# Velocity P-wave (km/s) = 6.61092 7.28653 6.95693
#
# Compressibility (1/GPa) = 0.01874457
#
# Stress axis : x y z
#
# Youngs Moduli (GPa) = 40.08882 77.13675 98.13011
#
# Poissons Ratio (x) = 0.49615 0.43681
# Poissons Ratio (y) = 0.25785 0.37229
# Poissons Ratio (z) = 0.17845 0.29265
#
# Static dielectric constant tensor:
#      x y z
#    x 3.232070 0.000000 0.000000 
#    y 0.000000 3.689340 0.000000 
#    z 0.000000 0.000000 3.624920 
# 
# 
# High freq. dielectric constant tensor:
#      x y z
#    x 1.709740 0.000000 0.000000 
#    y 0.000000 1.755650 0.000000 
#    z 0.000000 0.000000 1.752320 
# 
# From -- ./inp_files/21527.got.cif
#   From: 2010.03.12/outbox.cif.g09.slc.cpg/sg59_11_cif.got.tgz:21527.got - 2010.04.16 16:29:54.
