data_PCOD8241128
_publ_section_title
;
Structure prediction by ZEFSAII (Michael W. Deem and Ramdas Pophale) SiO2 
 PCOD8241128
Probable space group: P M M N
;
_chemical_formula_sum "Si O2"
_cell_formula_units_Z 64
_cell_length_a 23.112642
_cell_length_b 8.855413
_cell_length_c 18.858270
_cell_angle_alpha 90.000000
_cell_angle_beta 90.000000
_cell_angle_gamma 90.000000
_cell_volume 3859.759657
_symmetry_space_group_name_H-M "P M M N"
_symmetry_group_IT_number 59
_space_group.IT_coordinate_system_code '2'
_symmetry_cell_setting 'orthorhombic'
loop_
_space_group_symop_operation_xyz
x,y,z
1/2-x,1/2-y,z
1/2+x,-y,-z
-x,1/2+y,-z
-x,-y,-z
1/2+x,1/2+y,-z
1/2-x,y,z
x,1/2-y,z
loop_
_atom_site_type_symbol
_atom_site_label
_atom_site_fract_x
_atom_site_fract_y
_atom_site_fract_z
Si Si1 0.089994 0.573410 0.514627
Si Si2 0.021905 0.424581 0.398918
Si Si3 0.973643 0.074652 0.893505
Si Si4 0.816873 0.076270 0.110177
Si Si5 0.634152 0.571189 0.246499
Si Si6 0.315534 0.428417 0.603787
Si Si7 0.088110 0.425713 0.981507
Si Si8 0.010345 0.573878 0.757763
O O1 0.099959 0.750000 0.513854
O O2 0.073113 0.518793 0.435760
O O3 0.149486 0.496672 0.538103
O O4 0.039988 0.523813 0.569738
O O5 0.032462 0.250000 0.416298
O O6 0.023049 0.458186 0.315465
O O7 0.962784 0.250000 0.878495
O O8 0.036962 0.044200 0.925710
O O9 0.968450 0.980925 0.820661
O O10 0.924285 0.014691 0.946047
O O11 0.750000 0.060453 0.089577
O O12 0.836967 0.250000 0.110977
O O13 0.826458 0.006328 0.187443
O O14 0.852664 0.986638 0.051044
O O15 0.639114 0.750000 0.237060
O O16 0.657644 0.515003 0.322141
O O17 0.568116 0.523694 0.238084
O O18 0.250000 0.486808 0.598378
O O19 0.318861 0.250000 0.599036
O O20 0.094098 0.250000 0.999248
O O21 0.025887 0.750000 0.765393
#
# Coordination Sequence:
#
# PCOD8241128 Si02
#       8
#     8   8   8   8   8   8   8   8
#     4  10  19  32  50  73  97 128 168 211 253 293
#     4   9  19  33  49  71 100 132 164 203 253 302
#     4  10  20  33  51  75 102 132 166 207 255 301
#     4  11  23  36  51  72 101 138 175 212 252 293
#     4  11  21  33  49  71 101 137 176 211 245 291
#     4  10  21  35  50  69  98 137 175 210 250 296
#     4  10  20  34  52  74  99 133 170 209 253 296
#     4  11  20  32  51  75 104 135 168 205 250 303
#
# _framework density 16.581344000000001
#
# number of rings (size 3 to 8) (size 9 to 14) (size 15 to 20)
#    0.000    1.750    2.500    2.625    0.000    4.750 
#    0.000    0.000    0.000    0.000    0.000    0.875 
#    0.000    1.000    0.000    0.000    0.000    0.000 
#
# Total GULP energy -793906.511335 kJ/mol
# GULP energy per Si atom -12404.789240 kJ/mol
# Density = 1.654360 g / cm^3
# Si number density = 16.581344 Si / 1000 Ang^3
#
#
#
# Elastic Constant Matrix: (Units=GPa)
#
#
# Indices 1 2 3 4 5 6 
#
# 1 69.3263 21.8810 40.5741 0.0000 0.0000 0.0000
# 2 21.8810 51.6802 29.8534 0.0000 0.0000 0.0000
# 3 40.5741 29.8534 98.4007 0.0000 0.0000 0.0000
# 4 0.0000 0.0000 0.0000 29.4045 0.0000 0.0000
# 5 0.0000 0.0000 0.0000 0.0000 22.5582 0.0000
# 6 0.0000 0.0000 0.0000 0.0000 0.0000 25.1496
#
#
#
# Elastic Compliance Matrix: (Units=1/GPa)
#
#
# Indices 1 2 3 4 5 6 
#
# 1 0.019823 -0.004451 -0.006823 0.000000 0.000000 0.000000
# 2 -0.004451 0.024461 -0.005586 0.000000 0.000000 0.000000
# 3 -0.006823 -0.005586 0.014671 0.000000 0.000000 0.000000
# 4 0.000000 0.000000 0.000000 0.034008 0.000000 0.000000
# 5 0.000000 0.000000 0.000000 0.000000 0.044330 0.000000
# 6 0.000000 0.000000 0.000000 0.000000 0.000000 0.039762
#
#
# Mechanical properties :
#
#
# Convention : Reuss Voigt Hill
#
# Bulk Modulus (GPa) = 39.62907 44.89158 42.26032
# Shear Modulus (GPa) = 22.81163 23.89572 23.35367
#
# Velocity S-wave (km/s) = 3.71312 3.80033 3.75698
# Velocity P-wave (km/s) = 6.50651 6.81095 6.66047
#
# Compressibility (1/GPa) = 0.02523400
#
# Stress axis : x y z
#
# Youngs Moduli (GPa) = 50.44687 40.88138 68.16362
#
# Poissons Ratio (x) = 0.18198 0.46509
# Poissons Ratio (y) = 0.22456 0.38074
# Poissons Ratio (z) = 0.34421 0.22835
#
# Static dielectric constant tensor:
#      x y z
#    x 2.916150 0.000000 0.000000 
#    y 0.000000 3.184120 0.000000 
#    z 0.000000 0.000000 3.174680 
# 
# 
# High freq. dielectric constant tensor:
#      x y z
#    x 1.609250 0.000000 0.000000 
#    y 0.000000 1.652960 0.000000 
#    z 0.000000 0.000000 1.634380 
# 
# From -- ./inp_files/30933.got.cif
#   From: 2010.03.12/outbox.cif.g09.slc.cpg/sg59_16_cif.got.tgz:30933.got - 2010.04.16 16:29:54.
