data_PCOD8241229
_publ_section_title
;
Structure prediction by ZEFSAII (Michael W. Deem and Ramdas Pophale) SiO2 
 PCOD8241229
Probable space group: P M M N
;
_chemical_formula_sum "Si O2"
_cell_formula_units_Z 56
_cell_length_a 23.335217
_cell_length_b 8.841833
_cell_length_c 15.486106
_cell_angle_alpha 90.000000
_cell_angle_beta 90.000000
_cell_angle_gamma 90.000000
_cell_volume 3195.187727
_symmetry_space_group_name_H-M "P M M N"
_symmetry_group_IT_number 59
_space_group.IT_coordinate_system_code '2'
_symmetry_cell_setting 'orthorhombic'
loop_
_space_group_symop_operation_xyz
x,y,z
1/2-x,1/2-y,z
1/2+x,-y,-z
-x,1/2+y,-z
-x,-y,-z
1/2+x,1/2+y,-z
1/2-x,y,z
x,1/2-y,z
loop_
_atom_site_type_symbol
_atom_site_label
_atom_site_fract_x
_atom_site_fract_y
_atom_site_fract_z
Si Si1 0.564832 0.572808 0.681602
Si Si2 0.061197 0.927236 0.004504
Si Si3 0.865699 0.070546 0.157849
Si Si4 0.750000 0.427130 0.915691
Si Si5 0.560194 0.571304 0.306927
Si Si6 0.631762 0.426741 0.829839
Si Si7 0.940167 0.923530 0.494196
Si Si8 0.750000 0.929442 0.103892
O O1 0.552042 0.750000 0.694467
O O2 0.505848 0.482810 0.699104
O O3 0.614667 0.519893 0.745485
O O4 0.591596 0.539838 0.585064
O O5 0.053780 0.750000 0.997292
O O6 0.100453 0.985917 0.926659
O O7 0.089366 0.975986 0.094072
O O8 0.000000 0.000000 0.000000
O O9 0.857216 0.250000 0.158512
O O10 0.900926 0.019816 0.241016
O O11 0.804385 0.990700 0.156452
O O12 0.750000 0.250000 0.939994
O O13 0.695592 0.471677 0.858127
O O14 0.750000 0.515595 0.005270
O O15 0.562022 0.750000 0.286311
O O16 0.588109 0.531606 0.401921
O O17 0.627158 0.250000 0.809242
O O18 0.954701 0.750000 0.488400
O O19 0.000000 0.000000 0.500000
O O20 0.750000 0.750000 0.105359
#
# Coordination Sequence:
#
# PCOD8241229 Si02
#       8
#     8   8   8   4   8   8   8   4
#     4  10  19  32  51  79 111 143 175 212 264 322
#     4  10  21  34  50  72 103 137 168 204 258 312
#     4  11  22  38  56  76 105 142 177 219 266 313
#     4  10  20  40  60  73  98 137 182 223 264 306
#     4  10  19  33  53  80 109 139 178 221 263 315
#     4  10  20  35  54  74  99 137 177 219 263 308
#     4   8  16  30  49  73 106 141 173 212 260 312
#     4  12  24  38  58  81 102 135 182 225 262 310
#
# _framework density 17.526356
#
# number of rings (size 3 to 8) (size 9 to 14) (size 15 to 20)
#    0.000    2.000    1.429    2.786    0.000    5.714 
#    0.000    0.000    0.000    0.857    0.000    5.000 
#    0.000    0.000    0.000    0.000    0.000    0.000 
#
# Total GULP energy -694053.924182 kJ/mol
# GULP energy per Si atom -12393.820075 kJ/mol
# Density = 1.748646 g / cm^3
# Si number density = 17.526356 Si / 1000 Ang^3
#
#
#
# Elastic Constant Matrix: (Units=GPa)
#
#
# Indices 1 2 3 4 5 6 
#
# 1 67.3943 19.7346 5.1433 0.0000 0.0000 0.0000
# 2 19.7346 53.2083 28.3674 0.0000 0.0000 0.0000
# 3 5.1433 28.3674 85.0190 0.0000 0.0000 0.0000
# 4 0.0000 0.0000 0.0000 27.8808 0.0000 0.0000
# 5 0.0000 0.0000 0.0000 0.0000 2.9197 0.0000
# 6 0.0000 0.0000 0.0000 0.0000 0.0000 27.5189
#
#
#
# Elastic Compliance Matrix: (Units=1/GPa)
#
#
# Indices 1 2 3 4 5 6 
#
# 1 0.016761 -0.006904 0.001290 0.000000 0.000000 0.000000
# 2 -0.006904 0.025705 -0.008159 0.000000 0.000000 0.000000
# 3 0.001290 -0.008159 0.014406 0.000000 0.000000 0.000000
# 4 0.000000 0.000000 0.000000 0.035867 0.000000 0.000000
# 5 0.000000 0.000000 0.000000 0.000000 0.342499 0.000000
# 6 0.000000 0.000000 0.000000 0.000000 0.000000 0.036339
#
#
# Mechanical properties :
#
#
# Convention : Reuss Voigt Hill
#
# Bulk Modulus (GPa) = 34.10020 34.67915 34.38967
# Shear Modulus (GPa) = 9.82513 21.82230 15.82371
#
# Velocity S-wave (km/s) = 2.37025 3.53244 3.00801
# Velocity P-wave (km/s) = 5.19515 6.03882 5.63280
#
# Compressibility (1/GPa) = 0.02932534
#
# Stress axis : x y z
#
# Youngs Moduli (GPa) = 59.66107 38.90350 69.41378
#
# Poissons Ratio (x) = 0.26860 -0.08952
# Poissons Ratio (y) = 0.41191 0.56634
# Poissons Ratio (z) = -0.07694 0.31741
#
# Static dielectric constant tensor:
#      x y z
#    x 2.873850 0.000000 0.000000 
#    y 0.000000 3.244200 0.000000 
#    z 0.000000 0.000000 -3.858090 
# 
# 
# High freq. dielectric constant tensor:
#      x y z
#    x 1.652380 0.000000 0.000000 
#    y 0.000000 1.683700 0.000000 
#    z 0.000000 0.000000 1.692800 
# 
# From -- ./inp_files/24336.got.cif
#   From: 2010.03.12/outbox.cif.g09.slc.cpg/sg59_13_cif.got.tgz:24336.got - 2010.04.16 16:29:54.
