data_PCOD8241797
_publ_section_title
;
Structure prediction by ZEFSAII (Michael W. Deem and Ramdas Pophale) SiO2 
 PCOD8241797
Probable space group: P M M N
;
_chemical_formula_sum "Si O2"
_cell_formula_units_Z 48
_cell_length_a 8.646979
_cell_length_b 18.814178
_cell_length_c 14.736881
_cell_angle_alpha 90.000000
_cell_angle_beta 90.000000
_cell_angle_gamma 90.000000
_cell_volume 2397.481305
_symmetry_space_group_name_H-M "P M M N"
_symmetry_group_IT_number 59
_space_group.IT_coordinate_system_code '2'
_symmetry_cell_setting 'orthorhombic'
loop_
_space_group_symop_operation_xyz
x,y,z
1/2-x,1/2-y,z
1/2+x,-y,-z
-x,1/2+y,-z
-x,-y,-z
1/2+x,1/2+y,-z
1/2-x,y,z
x,1/2-y,z
loop_
_atom_site_type_symbol
_atom_site_label
_atom_site_fract_x
_atom_site_fract_y
_atom_site_fract_z
Si Si1 0.428994 0.457667 0.123977
Si Si2 0.930132 0.928199 0.672185
Si Si3 0.926336 0.169170 0.780770
Si Si4 0.070346 0.076577 0.630752
Si Si5 0.930799 0.332212 0.471063
Si Si6 0.926735 0.600891 0.062981
O O1 0.250000 0.482860 0.120752
O O2 0.470258 0.424457 0.221102
O O3 0.538385 0.524356 0.106604
O O4 0.461086 0.399502 0.045062
O O5 0.750000 0.915714 0.654100
O O6 0.026473 0.864748 0.626557
O O7 0.975798 0.003453 0.628081
O O8 0.750000 0.146606 0.763079
O O9 0.953327 0.250000 0.751008
O O10 0.036482 0.118300 0.723404
O O11 0.967826 0.159704 0.887147
O O12 0.250000 0.057858 0.625389
O O13 0.024357 0.125600 0.546977
O O14 0.750000 0.340521 0.490668
O O15 0.980770 0.250000 0.473063
O O16 0.750000 0.620379 0.081819
#
# Coordination Sequence:
#
# PCOD8241797 Si02
#       6
#     8   8   8   8   8   8
#     4   9  19  35  57  85 117 152 191 238 292 344
#     4  11  22  39  64  91 121 156 197 245 295 352
#     4  11  23  38  56  82 120 162 200 244 302 361
#     4  12  24  39  62  91 119 151 197 248 299 357
#     4  11  25  44  63  85 118 158 198 244 299 355
#     4  10  19  33  56  85 115 151 195 241 289 345
#
# _framework density 20.021011999999999
#
# number of rings (size 3 to 8) (size 9 to 14) (size 15 to 20)
#    0.000    1.333    1.667    4.500    0.000    6.000 
#    0.000    0.833    0.000    5.000    0.000    0.000 
#    0.000    0.000    0.000    0.000    0.000    0.000 
#
# Total GULP energy -595372.127429 kJ/mol
# GULP energy per Si atom -12403.585988 kJ/mol
# Density = 1.997544 g / cm^3
# Si number density = 20.021012 Si / 1000 Ang^3
#
#
#
# Elastic Constant Matrix: (Units=GPa)
#
#
# Indices 1 2 3 4 5 6 
#
# 1 51.4388 10.9416 18.3217 0.0000 0.0000 0.0000
# 2 10.9416 57.9579 33.1728 0.0000 0.0000 0.0000
# 3 18.3217 33.1728 116.3878 0.0000 0.0000 0.0000
# 4 0.0000 0.0000 0.0000 22.1996 0.0000 0.0000
# 5 0.0000 0.0000 0.0000 0.0000 32.1524 0.0000
# 6 0.0000 0.0000 0.0000 0.0000 0.0000 29.9477
#
#
#
# Elastic Compliance Matrix: (Units=1/GPa)
#
#
# Indices 1 2 3 4 5 6 
#
# 1 0.020885 -0.002463 -0.002586 0.000000 0.000000 0.000000
# 2 -0.002463 0.020908 -0.005571 0.000000 0.000000 0.000000
# 3 -0.002586 -0.005571 0.010587 0.000000 0.000000 0.000000
# 4 0.000000 0.000000 0.000000 0.045046 0.000000 0.000000
# 5 0.000000 0.000000 0.000000 0.000000 0.031102 0.000000
# 6 0.000000 0.000000 0.000000 0.000000 0.000000 0.033392
#
#
# Mechanical properties :
#
#
# Convention : Reuss Voigt Hill
#
# Bulk Modulus (GPa) = 32.11300 38.96184 35.53742
# Shear Modulus (GPa) = 25.83453 27.74985 26.79219
#
# Velocity S-wave (km/s) = 3.59607 3.72699 3.66212
# Velocity P-wave (km/s) = 5.77207 6.16631 5.97244
#
# Compressibility (1/GPa) = 0.03114004
#
# Stress axis : x y z
#
# Youngs Moduli (GPa) = 47.88014 47.82931 94.45564
#
# Poissons Ratio (x) = 0.11780 0.24424
# Poissons Ratio (y) = 0.11792 0.52625
# Poissons Ratio (z) = 0.12381 0.26648
#
# Static dielectric constant tensor:
#      x y z
#    x 3.672750 0.000000 0.000000 
#    y 0.000000 3.478890 0.000000 
#    z 0.000000 0.000000 3.960680 
# 
# 
# High freq. dielectric constant tensor:
#      x y z
#    x 1.788550 0.000000 0.000000 
#    y 0.000000 1.759260 0.000000 
#    z 0.000000 0.000000 1.795170 
# 
# From -- ./inp_files/20423.got.cif
#   From: 2010.03.12/outbox.cif.g09.slc.cpg/sg59_11_cif.got.tgz:20423.got - 2010.04.16 16:29:54.
