data_PCOD8241851
_publ_section_title
;
Structure prediction by ZEFSAII (Michael W. Deem and Ramdas Pophale) SiO2 
 PCOD8241851
Probable space group: P M M N
;
_chemical_formula_sum "Si O2"
_cell_formula_units_Z 64
_cell_length_a 9.436105
_cell_length_b 25.632532
_cell_length_c 14.449169
_cell_angle_alpha 90.000000
_cell_angle_beta 90.000000
_cell_angle_gamma 90.000000
_cell_volume 3494.838761
_symmetry_space_group_name_H-M "P M M N"
_symmetry_group_IT_number 59
_space_group.IT_coordinate_system_code '2'
_symmetry_cell_setting 'orthorhombic'
loop_
_space_group_symop_operation_xyz
x,y,z
1/2-x,1/2-y,z
1/2+x,-y,-z
-x,1/2+y,-z
-x,-y,-z
1/2+x,1/2+y,-z
1/2-x,y,z
x,1/2-y,z
loop_
_atom_site_type_symbol
_atom_site_label
_atom_site_fract_x
_atom_site_fract_y
_atom_site_fract_z
Si Si1 0.917427 0.002672 0.712614
Si Si2 0.918659 0.901964 0.601484
Si Si3 0.084629 0.478600 0.086444
Si Si4 0.415490 0.598679 0.412407
Si Si5 0.413376 0.809266 0.279437
Si Si6 0.587782 0.811252 0.103213
Si Si7 0.581410 0.691611 0.729272
Si Si8 0.915715 0.857757 0.915558
O O1 0.750000 0.998520 0.715915
O O2 0.967666 0.053965 0.658332
O O3 0.974117 0.950618 0.662260
O O4 0.970776 0.005924 0.819003
O O5 0.750000 0.903420 0.587927
O O6 0.969694 0.848400 0.650170
O O7 0.991825 0.906143 0.503048
O O8 0.250000 0.488985 0.068646
O O9 0.051894 0.417964 0.099308
O O10 0.000000 0.500000 0.000000
O O11 0.250000 0.591623 0.436608
O O12 0.446388 0.654935 0.367611
O O13 0.250000 0.813412 0.250734
O O14 0.455857 0.750000 0.305725
O O15 0.501716 0.830246 0.192454
O O16 0.750000 0.828268 0.118559
O O17 0.572895 0.750000 0.088778
O O18 0.518935 0.838422 0.012816
O O19 0.750000 0.689811 0.734304
O O20 0.526941 0.750000 0.705753
O O21 0.518807 0.673929 0.828826
O O22 0.750000 0.845720 0.919913
#
# Coordination Sequence:
#
# PCOD8241851 Si02
#       8
#     8   8   8   8   8   8   8   8
#     4   9  18  35  55  73  99 134 169 201 242 299
#     4  10  19  34  54  77 101 126 162 212 256 290
#     4  10  20  34  52  76 105 136 166 202 247 293
#     4  10  21  35  53  73  95 131 172 206 246 301
#     4   9  19  35  51  69  97 133 169 203 244 296
#     4   9  17  29  48  74 100 126 160 202 243 285
#     4   9  16  28  50  78 104 132 166 202 247 305
#     4   9  16  29  49  73 103 134 163 199 246 298
#
# _framework density 18.312718
#
# number of rings (size 3 to 8) (size 9 to 14) (size 15 to 20)
#    0.000    2.625    1.250    0.750    1.750    2.500 
#    0.000    1.250    0.000    0.750    0.000    0.000 
#    0.000    0.000    0.000    0.000    0.000    0.000 
#
# Total GULP energy -793491.140054 kJ/mol
# GULP energy per Si atom -12398.299063 kJ/mol
# Density = 1.827104 g / cm^3
# Si number density = 18.312718 Si / 1000 Ang^3
#
#
#
# Elastic Constant Matrix: (Units=GPa)
#
#
# Indices 1 2 3 4 5 6 
#
# 1 31.8216 28.0662 42.9419 0.0000 0.0000 0.0000
# 2 28.0662 103.9442 68.0070 0.0000 0.0000 0.0000
# 3 42.9419 68.0070 162.8508 0.0000 0.0000 0.0000
# 4 0.0000 0.0000 0.0000 33.9781 0.0000 0.0000
# 5 0.0000 0.0000 0.0000 0.0000 27.2690 0.0000
# 6 0.0000 0.0000 0.0000 0.0000 0.0000 13.3110
#
#
#
# Elastic Compliance Matrix: (Units=1/GPa)
#
#
# Indices 1 2 3 4 5 6 
#
# 1 0.052249 -0.007009 -0.010851 0.000000 0.000000 0.000000
# 2 -0.007009 0.014177 -0.004072 0.000000 0.000000 0.000000
# 3 -0.010851 -0.004072 0.010702 0.000000 0.000000 0.000000
# 4 0.000000 0.000000 0.000000 0.029431 0.000000 0.000000
# 5 0.000000 0.000000 0.000000 0.000000 0.036672 0.000000
# 6 0.000000 0.000000 0.000000 0.000000 0.000000 0.075126
#
#
# Mechanical properties :
#
#
# Convention : Reuss Voigt Hill
#
# Bulk Modulus (GPa) = 30.06116 64.07185 47.06651
# Shear Modulus (GPa) = 18.29429 25.55173 21.92301
#
# Velocity S-wave (km/s) = 3.16411 3.73942 3.46373
# Velocity P-wave (km/s) = 5.45893 7.32857 6.46173
#
# Compressibility (1/GPa) = 0.03326551
#
# Stress axis : x y z
#
# Youngs Moduli (GPa) = 19.13903 70.53462 93.43665
#
# Poissons Ratio (x) = 0.49436 1.01385
# Poissons Ratio (y) = 0.13414 0.38051
# Poissons Ratio (z) = 0.20767 0.28725
#
# Static dielectric constant tensor:
#      x y z
#    x 2.989260 0.000000 0.000000 
#    y 0.000000 3.556210 0.000000 
#    z 0.000000 0.000000 3.475840 
# 
# 
# High freq. dielectric constant tensor:
#      x y z
#    x 1.659100 0.000000 0.000000 
#    y 0.000000 1.720950 0.000000 
#    z 0.000000 0.000000 1.721010 
# 
# From -- ./inp_files/16349.got.cif
#   From: 2010.03.12/outbox.cif.g09.slc.cpg/sg59_9_cif.got.tgz:16349.got - 2010.04.16 16:29:54.
