data_PCOD8241914
_publ_section_title
;
Structure prediction by ZEFSAII (Michael W. Deem and Ramdas Pophale) SiO2 
 PCOD8241914
Probable space group: P M M N
;
_chemical_formula_sum "Si O2"
_cell_formula_units_Z 48
_cell_length_a 8.527038
_cell_length_b 31.341731
_cell_length_c 9.119911
_cell_angle_alpha 90.000000
_cell_angle_beta 90.000000
_cell_angle_gamma 90.000000
_cell_volume 2437.315651
_symmetry_space_group_name_H-M "P M M N"
_symmetry_group_IT_number 59
_space_group.IT_coordinate_system_code '2'
_symmetry_cell_setting 'orthorhombic'
loop_
_space_group_symop_operation_xyz
x,y,z
1/2-x,1/2-y,z
1/2+x,-y,-z
-x,1/2+y,-z
-x,-y,-z
1/2+x,1/2+y,-z
1/2-x,y,z
x,1/2-y,z
loop_
_atom_site_type_symbol
_atom_site_label
_atom_site_fract_x
_atom_site_fract_y
_atom_site_fract_z
Si Si1 0.934770 0.250000 0.833069
Si Si2 0.434888 0.996041 0.838336
Si Si3 0.065361 0.411232 0.838321
Si Si4 0.936007 0.250000 0.161565
Si Si5 0.565566 0.909280 0.827301
Si Si6 0.434524 0.330444 0.665240
Si Si7 0.433845 0.668932 0.655332
O O1 0.750000 0.250000 0.841554
O O2 0.988220 0.208558 0.747790
O O3 0.006755 0.250000 0.997278
O O4 0.250000 0.987370 0.838682
O O5 0.523053 0.956271 0.761356
O O6 0.475704 0.042370 0.766464
O O7 0.500000 0.000000 0.000000
O O8 0.250000 0.406695 0.848962
O O9 0.995757 0.374096 0.735548
O O10 0.002941 0.406495 0.005176
O O11 0.750000 0.250000 0.154626
O O12 0.996009 0.292088 0.245213
O O13 0.750000 0.900966 0.811405
O O14 0.470047 0.875080 0.735205
O O15 0.250000 0.327694 0.687134
O O16 0.473537 0.328964 0.495432
O O17 0.250000 0.672966 0.623403
#
# Coordination Sequence:
#
# PCOD8241914 Si02
#       7
#     4   8   8   4   8   8   8
#     4  11  22  39  60  84 108 137 176 221 266 318
#     4   9  16  30  52  80 110 143 181 229 280 328
#     4   8  17  33  55  80 109 141 182 230 275 321
#     4   9  21  39  60  82 108 139 178 223 270 320
#     4  10  19  34  55  82 111 144 185 232 277 327
#     4  11  22  38  57  81 111 146 180 219 269 324
#     4  11  22  38  57  81 112 148 183 224 274 328
#
# _framework density 19.693795999999999
#
# number of rings (size 3 to 8) (size 9 to 14) (size 15 to 20)
#    0.000    2.167    0.000    4.750    0.000    0.667 
#    0.000   13.750    0.000    0.000    0.000    0.000 
#    0.000    0.000    0.000    0.000    0.000    0.000 
#
# Total GULP energy -595026.474650 kJ/mol
# GULP energy per Si atom -12396.384889 kJ/mol
# Density = 1.964897 g / cm^3
# Si number density = 19.693796 Si / 1000 Ang^3
#
#
#
# Elastic Constant Matrix: (Units=GPa)
#
#
# Indices 1 2 3 4 5 6 
#
# 1 34.2438 13.8542 1.1548 0.0000 0.0000 0.0000
# 2 13.8542 183.1772 65.0557 0.0000 0.0000 0.0000
# 3 1.1548 65.0557 101.8978 0.0000 0.0000 0.0000
# 4 0.0000 0.0000 0.0000 -28.6088 0.0000 0.0000
# 5 0.0000 0.0000 0.0000 0.0000 25.3260 0.0000
# 6 0.0000 0.0000 0.0000 0.0000 0.0000 25.5400
#
#
#
# Elastic Compliance Matrix: (Units=1/GPa)
#
#
# Indices 1 2 3 4 5 6 
#
# 1 0.030288 -0.002805 0.001447 0.000000 0.000000 0.000000
# 2 -0.002805 0.007320 -0.004641 0.000000 0.000000 0.000000
# 3 0.001447 -0.004641 0.012761 0.000000 0.000000 0.000000
# 4 0.000000 0.000000 0.000000 -0.034954 0.000000 0.000000
# 5 0.000000 0.000000 0.000000 0.000000 0.039485 0.000000
# 6 0.000000 0.000000 0.000000 0.000000 0.000000 0.039154
#
#
# Mechanical properties :
#
#
# Convention : Reuss Voigt Hill
#
# Bulk Modulus (GPa) = 26.06130 53.27200 39.66665
# Shear Modulus (GPa) = 42.07275 20.40172 31.23724
#
# Velocity S-wave (km/s) = 4.62708 3.22210 3.98697
# Velocity P-wave (km/s) = 6.46594 6.39933 6.43272
#
# Compressibility (1/GPa) = 0.03837107
#
# Stress axis : x y z
#
# Youngs Moduli (GPa) = 33.01605 136.61669 78.36598
#
# Poissons Ratio (x) = 0.38319 -0.11343
# Poissons Ratio (y) = 0.09261 0.36373
# Poissons Ratio (z) = -0.04779 0.63410
#
# Static dielectric constant tensor:
#      x y z
#    x 3.467040 0.000000 0.000000 
#    y 0.000000 4.286550 0.000000 
#    z 0.000000 0.000000 3.523140 
# 
# 
# High freq. dielectric constant tensor:
#      x y z
#    x 1.755310 0.000000 0.000000 
#    y 0.000000 1.794660 0.000000 
#    z 0.000000 0.000000 1.745300 
# 
# From -- ./inp_files/6372.got.cif
#   From: 2010.03.12/outbox.cif.g09.slc.cpg/sg59_4_cif.got.tgz:6372.got - 2010.04.16 16:29:54.
