data_PCOD8241098
_publ_section_title
;
Structure prediction by ZEFSAII (Michael W. Deem and Ramdas Pophale) SiO2 
 PCOD8241098
Probable space group: P M M N
;
_chemical_formula_sum "Si O2"
_cell_formula_units_Z 64
_cell_length_a 27.818493
_cell_length_b 8.781558
_cell_length_c 14.387201
_cell_angle_alpha 90.000000
_cell_angle_beta 90.000000
_cell_angle_gamma 90.000000
_cell_volume 3514.645156
_symmetry_space_group_name_H-M "P M M N"
_symmetry_group_IT_number 59
_space_group.IT_coordinate_system_code '2'
_symmetry_cell_setting 'orthorhombic'
loop_
_space_group_symop_operation_xyz
x,y,z
1/2-x,1/2-y,z
1/2+x,-y,-z
-x,1/2+y,-z
-x,-y,-z
1/2+x,1/2+y,-z
1/2-x,y,z
x,1/2-y,z
loop_
_atom_site_type_symbol
_atom_site_label
_atom_site_fract_x
_atom_site_fract_y
_atom_site_fract_z
Si Si1 0.069750 0.073010 0.849317
Si Si2 0.119529 0.071609 0.032529
Si Si3 0.971359 0.925923 0.853831
Si Si4 0.193944 0.072714 0.349900
Si Si5 0.574124 0.569881 0.358858
Si Si6 0.805389 0.425968 0.842764
Si Si7 0.973590 0.572400 0.639143
Si Si8 0.614290 0.429587 0.530379
O O1 0.059536 0.250000 0.841642
O O2 0.083751 0.012032 0.746807
O O3 0.112082 0.037310 0.922815
O O4 0.020454 0.002769 0.887378
O O5 0.127358 0.250000 0.051183
O O6 0.073444 0.008517 0.088564
O O7 0.166012 0.980781 0.066590
O O8 0.977390 0.750000 0.875864
O O9 0.961389 0.959153 0.746149
O O10 0.250000 0.037817 0.365647
O O11 0.181773 0.250000 0.360166
O O12 0.177737 0.020387 0.247328
O O13 0.165276 0.978337 0.427088
O O14 0.580623 0.750000 0.369828
O O15 0.520531 0.522547 0.390900
O O16 0.612841 0.482777 0.422896
O O17 0.750000 0.457309 0.865094
O O18 0.815546 0.250000 0.822236
O O19 0.983232 0.750000 0.619536
O O20 0.928310 0.516816 0.581770
O O21 0.607574 0.250000 0.539203
#
# Coordination Sequence:
#
# PCOD8241098 Si02
#       8
#     8   8   8   8   8   8   8   8
#     4   9  19  33  50  72 100 135 175 216 253 294
#     4  10  19  32  51  76 103 134 173 211 251 300
#     4   9  18  30  47  72 103 135 166 204 250 303
#     4  10  21  38  59  81 105 133 163 200 251 307
#     4  10  20  35  51  70 101 139 178 220 262 302
#     4  10  21  36  54  79 108 135 165 203 248 299
#     4  10  19  32  49  73 105 139 175 212 254 306
#     4  12  23  34  52  77 103 134 172 212 256 307
#
# _framework density 18.209520000000001
#
# number of rings (size 3 to 8) (size 9 to 14) (size 15 to 20)
#    0.000    2.000    0.000    4.125    0.000    4.500 
#    0.000    0.000    0.000    0.750    0.000    1.750 
#    0.000    0.000    0.000    0.000    0.000    0.000 
#
# Total GULP energy -793792.970564 kJ/mol
# GULP energy per Si atom -12403.015165 kJ/mol
# Density = 1.816807 g / cm^3
# Si number density = 18.209520 Si / 1000 Ang^3
#
#
#
# Elastic Constant Matrix: (Units=GPa)
#
#
# Indices 1 2 3 4 5 6 
#
# 1 73.6795 25.4784 52.3242 0.0000 0.0000 0.0000
# 2 25.4784 51.8520 28.5531 0.0000 0.0000 0.0000
# 3 52.3242 28.5531 89.0049 0.0000 0.0000 0.0000
# 4 0.0000 0.0000 0.0000 24.7392 0.0000 0.0000
# 5 0.0000 0.0000 0.0000 0.0000 31.6934 0.0000
# 6 0.0000 0.0000 0.0000 0.0000 0.0000 31.5399
#
#
#
# Elastic Compliance Matrix: (Units=1/GPa)
#
#
# Indices 1 2 3 4 5 6 
#
# 1 0.024302 -0.004948 -0.012699 0.000000 0.000000 0.000000
# 2 -0.004948 0.024431 -0.004929 0.000000 0.000000 0.000000
# 3 -0.012699 -0.004929 0.020282 0.000000 0.000000 0.000000
# 4 0.000000 0.000000 0.000000 0.040422 0.000000 0.000000
# 5 0.000000 0.000000 0.000000 0.000000 0.031552 0.000000
# 6 0.000000 0.000000 0.000000 0.000000 0.000000 0.031706
#
#
# Mechanical properties :
#
#
# Convention : Reuss Voigt Hill
#
# Bulk Modulus (GPa) = 41.90587 47.47196 44.68892
# Shear Modulus (GPa) = 22.14338 24.80653 23.47495
#
# Velocity S-wave (km/s) = 3.49095 3.69492 3.59438
# Velocity P-wave (km/s) = 6.26994 6.65805 6.46691
#
# Compressibility (1/GPa) = 0.02386301
#
# Stress axis : x y z
#
# Youngs Moduli (GPa) = 41.14923 40.93148 49.30465
#
# Poissons Ratio (x) = 0.20253 0.62613
# Poissons Ratio (y) = 0.20361 0.24301
# Poissons Ratio (z) = 0.52256 0.20174
#
# Static dielectric constant tensor:
#      x y z
#    x 3.235820 0.000000 0.000000 
#    y 0.000000 3.363960 0.000000 
#    z 0.000000 0.000000 3.615500 
# 
# 
# High freq. dielectric constant tensor:
#      x y z
#    x 1.682760 0.000000 0.000000 
#    y 0.000000 1.711330 0.000000 
#    z 0.000000 0.000000 1.709760 
# 
# From -- ./inp_files/24698.got.cif
#   From: 2010.03.12/outbox.cif.g09.slc.cpg/sg59_13_cif.got.tgz:24698.got - 2010.04.16 16:29:54.
