data_PCOD8241622
_publ_section_title
;
Structure prediction by ZEFSAII (Michael W. Deem and Ramdas Pophale) SiO2 
 PCOD8241622
Probable space group: P M M N
;
_chemical_formula_sum "Si O2"
_cell_formula_units_Z 56
_cell_length_a 14.418263
_cell_length_b 32.185631
_cell_length_c 6.672544
_cell_angle_alpha 90.000000
_cell_angle_beta 90.000000
_cell_angle_gamma 90.000000
_cell_volume 3096.466724
_symmetry_space_group_name_H-M "P M M N"
_symmetry_group_IT_number 59
_space_group.IT_coordinate_system_code '2'
_symmetry_cell_setting 'orthorhombic'
loop_
_space_group_symop_operation_xyz
x,y,z
1/2-x,1/2-y,z
1/2+x,-y,-z
-x,1/2+y,-z
-x,-y,-z
1/2+x,1/2+y,-z
1/2-x,y,z
x,1/2-y,z
loop_
_atom_site_type_symbol
_atom_site_label
_atom_site_fract_x
_atom_site_fract_y
_atom_site_fract_z
Si Si1 0.008525 0.702432 0.842537
Si Si2 0.647838 0.434727 0.883020
Si Si3 0.013330 0.154164 0.556997
Si Si4 0.940590 0.012593 0.190581
Si Si5 0.010633 0.058371 0.567590
Si Si6 0.857571 0.159613 0.870267
Si Si7 0.644840 0.797628 0.166981
O O1 0.016775 0.750000 0.768038
O O2 0.001396 0.670082 0.664805
O O3 0.100442 0.691608 0.969124
O O4 0.914971 0.695486 0.968109
O O5 0.750000 0.439684 0.792344
O O6 0.581853 0.448297 0.700951
O O7 0.629827 0.387220 0.950589
O O8 0.642945 0.461812 0.088571
O O9 0.041231 0.105839 0.560753
O O10 0.101583 0.176613 0.651978
O O11 0.916278 0.163960 0.666376
O O12 0.996309 0.042948 0.341101
O O13 0.912713 0.971016 0.318200
O O14 0.000000 0.000000 0.000000
O O15 0.750000 0.170935 0.829160
O O16 0.750000 0.812468 0.125254
O O17 0.642503 0.750000 0.235083
#
# Coordination Sequence:
#
# PCOD8241622 Si02
#       7
#     8   8   8   8   8   8   8
#     4  10  20  33  51  76 104 136 174 212 253 303
#     4   9  17  30  50  73  94 123 164 206 248 295
#     4  10  19  33  54  77 103 135 171 211 255 304
#     4   9  17  31  50  70  94 128 163 197 242 293
#     4   9  18  31  49  73 100 128 163 204 247 297
#     4   9  19  34  50  73 105 136 169 210 253 299
#     4   9  19  36  56  77 100 128 168 217 264 310
#
# _framework density 18.085127
#
# number of rings (size 3 to 8) (size 9 to 14) (size 15 to 20)
#    0.000    2.714    0.000    1.286    0.000    3.714 
#    0.000    5.000    0.000    3.429    0.000    0.000 
#    0.000    0.000    0.000    0.000    0.000    0.000 
#
# Total GULP energy -693985.494333 kJ/mol
# GULP energy per Si atom -12392.598113 kJ/mol
# Density = 1.804396 g / cm^3
# Si number density = 18.085127 Si / 1000 Ang^3
#
#
#
# Elastic Constant Matrix: (Units=GPa)
#
#
# Indices 1 2 3 4 5 6 
#
# 1 102.4777 37.9988 32.5607 0.0000 0.0000 0.0000
# 2 37.9988 86.9519 47.2086 0.0000 0.0000 0.0000
# 3 32.5607 47.2086 96.8178 0.0000 0.0000 0.0000
# 4 0.0000 0.0000 0.0000 36.1519 0.0000 0.0000
# 5 0.0000 0.0000 0.0000 0.0000 13.7961 0.0000
# 6 0.0000 0.0000 0.0000 0.0000 0.0000 23.2179
#
#
#
# Elastic Compliance Matrix: (Units=1/GPa)
#
#
# Indices 1 2 3 4 5 6 
#
# 1 0.011923 -0.004126 -0.001998 0.000000 0.000000 0.000000
# 2 -0.004126 0.017069 -0.006935 0.000000 0.000000 0.000000
# 3 -0.001998 -0.006935 0.014382 0.000000 0.000000 0.000000
# 4 0.000000 0.000000 0.000000 0.027661 0.000000 0.000000
# 5 0.000000 0.000000 0.000000 0.000000 0.072484 0.000000
# 6 0.000000 0.000000 0.000000 0.000000 0.000000 0.043070
#
#
# Mechanical properties :
#
#
# Convention : Reuss Voigt Hill
#
# Bulk Modulus (GPa) = 57.95084 57.97597 57.96340
# Shear Modulus (GPa) = 22.88749 25.86513 24.37631
#
# Velocity S-wave (km/s) = 3.56131 3.78589 3.67531
# Velocity P-wave (km/s) = 7.00168 7.15803 7.08029
#
# Compressibility (1/GPa) = 0.01725601
#
# Stress axis : x y z
#
# Youngs Moduli (GPa) = 83.87253 58.58595 69.52950
#
# Poissons Ratio (x) = 0.24170 0.13893
# Poissons Ratio (y) = 0.34602 0.48221
# Poissons Ratio (z) = 0.16759 0.40632
#
# Static dielectric constant tensor:
#      x y z
#    x 3.293490 0.000000 0.000000 
#    y 0.000000 3.612030 0.000000 
#    z 0.000000 0.000000 3.355160 
# 
# 
# High freq. dielectric constant tensor:
#      x y z
#    x 1.675240 0.000000 0.000000 
#    y 0.000000 1.713110 0.000000 
#    z 0.000000 0.000000 1.702610 
# 
# From -- ./inp_files/2335.got.cif
#   From: 2010.03.12/outbox.cif.g09.slc.cpg/sg59_2_cif.got.tgz:2335.got - 2010.04.16 16:29:54.
