data_PCOD8241347
_publ_section_title
;
Structure prediction by ZEFSAII (Michael W. Deem and Ramdas Pophale) SiO2 
 PCOD8241347
Probable space group: P M M N
;
_chemical_formula_sum "Si O2"
_cell_formula_units_Z 64
_cell_length_a 19.347063
_cell_length_b 9.263374
_cell_length_c 21.082899
_cell_angle_alpha 90.000000
_cell_angle_beta 90.000000
_cell_angle_gamma 90.000000
_cell_volume 3778.457770
_symmetry_space_group_name_H-M "P M M N"
_symmetry_group_IT_number 59
_space_group.IT_coordinate_system_code '2'
_symmetry_cell_setting 'orthorhombic'
loop_
_space_group_symop_operation_xyz
x,y,z
1/2-x,1/2-y,z
1/2+x,-y,-z
-x,1/2+y,-z
-x,-y,-z
1/2+x,1/2+y,-z
1/2-x,y,z
x,1/2-y,z
loop_
_atom_site_type_symbol
_atom_site_label
_atom_site_fract_x
_atom_site_fract_y
_atom_site_fract_z
Si Si1 0.531999 0.085783 0.057302
Si Si2 0.128788 0.084581 0.774037
Si Si3 0.499452 0.088303 0.193341
Si Si4 0.555803 0.584137 0.677342
Si Si5 0.170615 0.585098 0.393195
Si Si6 0.170468 0.584183 0.539870
Si Si7 0.917384 0.918809 0.360334
Si Si8 0.824723 0.417336 0.113917
O O1 0.537913 0.250000 0.034766
O O2 0.480678 0.070748 0.118657
O O3 0.609582 0.024966 0.073487
O O4 0.500000 0.000000 0.000000
O O5 0.141067 0.250000 0.791754
O O6 0.135977 0.058248 0.698484
O O7 0.180706 0.991398 0.816759
O O8 0.051587 0.039363 0.791551
O O9 0.532581 0.250000 0.201425
O O10 0.438366 0.072335 0.245188
O O11 0.549646 0.750000 0.655928
O O12 0.625540 0.518771 0.650143
O O13 0.489196 0.501267 0.650486
O O14 0.250000 0.544888 0.380783
O O15 0.156086 0.750000 0.373789
O O16 0.151825 0.561532 0.466500
O O17 0.250000 0.541777 0.552584
O O18 0.157765 0.750000 0.559856
O O19 0.120057 0.479529 0.577925
O O20 0.934292 0.750000 0.369732
O O21 0.750000 0.444859 0.079860
O O22 0.837033 0.250000 0.126669
#
# Coordination Sequence:
#
# PCOD8241347 Si02
#       8
#     8   8   8   8   8   8   8   8
#     4   9  17  30  49  72  97 126 159 193 230 274
#     4   9  17  28  43  66  94 121 151 189 231 273
#     4   8  16  31  48  68  95 123 151 185 226 274
#     4  10  19  32  53  76  96 123 160 200 239 284
#     4   9  19  36  54  71  94 123 156 200 254 302
#     4   9  19  35  51  66  89 125 165 201 240 292
#     4  10  20  32  47  70 100 130 159 196 242 286
#     4   9  18  32  48  66  92 128 165 197 230 273
#
# _framework density 16.938127999999999
#
# number of rings (size 3 to 8) (size 9 to 14) (size 15 to 20)
#    0.000    2.875    0.000    2.625    0.000    6.250 
#    0.000    3.750    0.000    0.750    0.000    3.500 
#    0.000    0.000    0.000    0.000    0.000    0.000 
#
# Total GULP energy -792895.681309 kJ/mol
# GULP energy per Si atom -12388.995020 kJ/mol
# Density = 1.689958 g / cm^3
# Si number density = 16.938128 Si / 1000 Ang^3
#
#
#
# Elastic Constant Matrix: (Units=GPa)
#
#
# Indices 1 2 3 4 5 6 
#
# 1 88.9038 48.7103 61.8294 0.0000 0.0000 0.0000
# 2 48.7103 80.9324 53.1683 0.0000 0.0000 0.0000
# 3 61.8294 53.1683 103.0625 0.0000 0.0000 0.0000
# 4 0.0000 0.0000 0.0000 30.1697 0.0000 0.0000
# 5 0.0000 0.0000 0.0000 0.0000 20.9068 0.0000
# 6 0.0000 0.0000 0.0000 0.0000 0.0000 26.6988
#
#
#
# Elastic Compliance Matrix: (Units=1/GPa)
#
#
# Indices 1 2 3 4 5 6 
#
# 1 0.021493 -0.006754 -0.009410 0.000000 0.000000 0.000000
# 2 -0.006754 0.020813 -0.006685 0.000000 0.000000 0.000000
# 3 -0.009410 -0.006685 0.018797 0.000000 0.000000 0.000000
# 4 0.000000 0.000000 0.000000 0.033146 0.000000 0.000000
# 5 0.000000 0.000000 0.000000 0.000000 0.047831 0.000000
# 6 0.000000 0.000000 0.000000 0.000000 0.000000 0.037455
#
#
# Mechanical properties :
#
#
# Convention : Reuss Voigt Hill
#
# Bulk Modulus (GPa) = 64.91581 66.70163 65.80872
# Shear Modulus (GPa) = 21.70455 22.83444 22.26949
#
# Velocity S-wave (km/s) = 3.58355 3.67564 3.62989
# Velocity P-wave (km/s) = 7.45191 7.58148 7.51697
#
# Compressibility (1/GPa) = 0.01540457
#
# Stress axis : x y z
#
# Youngs Moduli (GPa) = 46.52735 48.04740 53.20112
#
# Poissons Ratio (x) = 0.32452 0.50060
# Poissons Ratio (y) = 0.31425 0.35565
# Poissons Ratio (z) = 0.43780 0.32120
#
# Static dielectric constant tensor:
#      x y z
#    x 3.017250 0.000000 0.000000 
#    y 0.000000 3.198240 0.000000 
#    z 0.000000 0.000000 3.202930 
# 
# 
# High freq. dielectric constant tensor:
#      x y z
#    x 1.628160 0.000000 0.000000 
#    y 0.000000 1.659940 0.000000 
#    z 0.000000 0.000000 1.643700 
# 
# From -- ./inp_files/30812.got.cif
#   From: 2010.03.12/outbox.cif.g09.slc.cpg/sg59_16_cif.got.tgz:30812.got - 2010.04.16 16:29:54.
