data_PCOD8241206
_publ_section_title
;
Structure prediction by ZEFSAII (Michael W. Deem and Ramdas Pophale) SiO2 
 PCOD8241206
Probable space group: P M M N
;
_chemical_formula_sum "Si O2"
_cell_formula_units_Z 48
_cell_length_a 16.148297
_cell_length_b 9.276564
_cell_length_c 17.135584
_cell_angle_alpha 90.000000
_cell_angle_beta 90.000000
_cell_angle_gamma 90.000000
_cell_volume 2566.922660
_symmetry_space_group_name_H-M "P M M N"
_symmetry_group_IT_number 59
_space_group.IT_coordinate_system_code '2'
_symmetry_cell_setting 'orthorhombic'
loop_
_space_group_symop_operation_xyz
x,y,z
1/2-x,1/2-y,z
1/2+x,-y,-z
-x,1/2+y,-z
-x,-y,-z
1/2+x,1/2+y,-z
1/2-x,y,z
x,1/2-y,z
loop_
_atom_site_type_symbol
_atom_site_label
_atom_site_fract_x
_atom_site_fract_y
_atom_site_fract_z
Si Si1 0.750000 0.582076 0.773205
Si Si2 0.657582 0.078749 0.187874
Si Si3 0.750000 0.420457 0.934955
Si Si4 0.844024 0.411749 0.494765
Si Si5 0.583564 0.420411 0.026212
Si Si6 0.570503 0.078810 0.341330
Si Si7 0.884333 0.918544 0.648279
O O1 0.750000 0.750000 0.795642
O O2 0.750000 0.489265 0.850347
O O3 0.669772 0.539525 0.723017
O O4 0.750000 0.016349 0.176067
O O5 0.661758 0.250000 0.192331
O O6 0.599403 0.033965 0.115794
O O7 0.620174 0.013758 0.267820
O O8 0.750000 0.250000 0.927132
O O9 0.665743 0.469898 0.978743
O O10 0.750000 0.408443 0.465964
O O11 0.875623 0.250000 0.513287
O O12 0.895848 0.482177 0.423628
O O13 0.851212 0.505371 0.571621
O O14 0.569419 0.250000 0.017189
O O15 0.500000 0.500000 0.000000
O O16 0.580380 0.250000 0.341760
O O17 0.476261 0.029625 0.332072
O O18 0.878801 0.750000 0.630893
#
# Coordination Sequence:
#
# PCOD8241206 Si02
#       7
#     4   8   4   8   8   8   8
#     4  10  22  36  54  79 104 140 184 223 268 326
#     4   9  16  31  55  79 105 137 175 219 265 314
#     4  10  22  40  58  83 116 148 186 233 282 334
#     4  10  19  32  51  76 104 134 172 213 261 315
#     4  10  21  37  59  86 114 147 186 228 279 336
#     4   9  18  30  50  78 104 132 172 220 260 308
#     4  10  20  35  52  74 104 136 175 218 262 315
#
# _framework density 18.699435000000001
#
# number of rings (size 3 to 8) (size 9 to 14) (size 15 to 20)
#    0.000    2.333    1.667    1.000    2.333    3.333 
#    0.000    0.000    0.000    1.000    0.000    0.000 
#    0.000    0.000    0.000    0.000    0.000    0.000 
#
# Total GULP energy -595111.331718 kJ/mol
# GULP energy per Si atom -12398.152744 kJ/mol
# Density = 1.865687 g / cm^3
# Si number density = 18.699435 Si / 1000 Ang^3
#
#
#
# Elastic Constant Matrix: (Units=GPa)
#
#
# Indices 1 2 3 4 5 6 
#
# 1 135.8966 28.9878 52.0013 0.0000 0.0000 0.0000
# 2 28.9878 25.5159 29.7563 0.0000 0.0000 0.0000
# 3 52.0013 29.7563 127.0757 0.0000 0.0000 0.0000
# 4 0.0000 0.0000 0.0000 21.1879 0.0000 0.0000
# 5 0.0000 0.0000 0.0000 0.0000 36.5970 0.0000
# 6 0.0000 0.0000 0.0000 0.0000 0.0000 21.6193
#
#
#
# Elastic Compliance Matrix: (Units=1/GPa)
#
#
# Indices 1 2 3 4 5 6 
#
# 1 0.010062 -0.009120 -0.001982 0.000000 0.000000 0.000000
# 2 -0.009120 0.062180 -0.010828 0.000000 0.000000 0.000000
# 3 -0.001982 -0.010828 0.011216 0.000000 0.000000 0.000000
# 4 0.000000 0.000000 0.000000 0.047197 0.000000 0.000000
# 5 0.000000 0.000000 0.000000 0.000000 0.027325 0.000000
# 6 0.000000 0.000000 0.000000 0.000000 0.000000 0.046255
#
#
# Mechanical properties :
#
#
# Convention : Reuss Voigt Hill
#
# Bulk Modulus (GPa) = 25.25400 56.66434 40.95917
# Shear Modulus (GPa) = 19.13551 27.73035 23.43293
#
# Velocity S-wave (km/s) = 3.20241 3.85509 3.54381
# Velocity P-wave (km/s) = 5.21617 7.08407 6.22063
#
# Compressibility (1/GPa) = 0.03959769
#
# Stress axis : x y z
#
# Youngs Moduli (GPa) = 99.38008 16.08237 89.15864
#
# Poissons Ratio (x) = 0.14667 0.17672
# Poissons Ratio (y) = 0.90635 0.96542
# Poissons Ratio (z) = 0.19698 0.17414
#
# Static dielectric constant tensor:
#      x y z
#    x 3.734450 0.000000 0.000000 
#    y 0.000000 3.010810 0.000000 
#    z 0.000000 0.000000 3.545230 
# 
# 
# High freq. dielectric constant tensor:
#      x y z
#    x 1.743840 0.000000 0.000000 
#    y 0.000000 1.676410 0.000000 
#    z 0.000000 0.000000 1.739080 
# 
# From -- ./inp_files/25628.got.cif
#   From: 2010.03.12/outbox.cif.g09.slc.cpg/sg59_13_cif.got.tgz:25628.got - 2010.04.16 16:29:54.
