data_PCOD8241574
_publ_section_title
;
Structure prediction by ZEFSAII (Michael W. Deem and Ramdas Pophale) SiO2 
 PCOD8241574
Probable space group: P M M N
;
_chemical_formula_sum "Si O2"
_cell_formula_units_Z 64
_cell_length_a 19.107591
_cell_length_b 9.424485
_cell_length_c 18.702057
_cell_angle_alpha 90.000000
_cell_angle_beta 90.000000
_cell_angle_gamma 90.000000
_cell_volume 3367.851552
_symmetry_space_group_name_H-M "P M M N"
_symmetry_group_IT_number 59
_space_group.IT_coordinate_system_code '2'
_symmetry_cell_setting 'orthorhombic'
loop_
_space_group_symop_operation_xyz
x,y,z
1/2-x,1/2-y,z
1/2+x,-y,-z
-x,1/2+y,-z
-x,-y,-z
1/2+x,1/2+y,-z
1/2-x,y,z
x,1/2-y,z
loop_
_atom_site_type_symbol
_atom_site_label
_atom_site_fract_x
_atom_site_fract_y
_atom_site_fract_z
Si Si1 0.825911 0.909974 0.679699
Si Si2 0.327188 0.586837 0.047459
Si Si3 0.051145 0.914234 0.947911
Si Si4 0.375685 0.094742 0.173725
Si Si5 0.969517 0.412145 0.213338
Si Si6 0.922789 0.084930 0.587366
Si Si7 0.428956 0.081146 0.647760
Si Si8 0.832167 0.083055 0.451446
O O1 0.750000 0.947181 0.646374
O O2 0.847854 0.750000 0.658558
O O3 0.817251 0.924909 0.765495
O O4 0.884428 0.016227 0.653934
O O5 0.250000 0.518524 0.038759
O O6 0.320599 0.750000 0.067562
O O7 0.370085 0.518630 0.111779
O O8 0.369324 0.565118 0.974243
O O9 0.027187 0.750000 0.950855
O O10 0.051336 0.967416 0.866090
O O11 0.000000 0.000000 0.000000
O O12 0.370536 0.250000 0.137435
O O13 0.447308 0.079725 0.217721
O O14 0.943150 0.250000 0.226293
O O15 0.938342 0.516285 0.273207
O O16 0.912053 0.250000 0.595424
O O17 0.883096 0.032377 0.515993
O O18 0.005128 0.045366 0.594725
O O19 0.418306 0.250000 0.654403
O O20 0.359242 0.008287 0.615770
O O21 0.750000 0.048737 0.466519
O O22 0.841884 0.250000 0.435858
#
# Coordination Sequence:
#
# PCOD8241574 Si02
#       8
#     8   8   8   8   8   8   8   8
#     4  10  20  32  48  75 112 152 188 225 273 329
#     4  10  21  35  52  78 111 144 180 229 286 340
#     4  10  20  35  56  80 108 144 188 234 280 331
#     4  10  19  33  53  77 110 149 188 229 273 332
#     4  10  20  36  58  83 111 148 192 235 281 336
#     4  10  21  37  58  85 115 148 186 227 278 336
#     4  11  23  38  60  89 118 149 187 237 287 333
#     4  10  22  41  63  85 112 150 192 233 282 341
#
# _framework density 19.003214
#
# number of rings (size 3 to 8) (size 9 to 14) (size 15 to 20)
#    0.000    1.875    2.500    1.500    0.000    4.250 
#    0.000    0.625    0.000    2.250    0.000    0.000 
#    0.000    0.000    0.000    0.000    0.000    0.000 
#
# Total GULP energy -793256.448406 kJ/mol
# GULP energy per Si atom -12394.632006 kJ/mol
# Density = 1.895996 g / cm^3
# Si number density = 19.003214 Si / 1000 Ang^3
#
#
#
# Elastic Constant Matrix: (Units=GPa)
#
#
# Indices 1 2 3 4 5 6 
#
# 1 76.3033 37.1790 46.6989 0.0000 0.0000 0.0000
# 2 37.1790 49.6108 49.8214 0.0000 0.0000 0.0000
# 3 46.6989 49.8214 112.0907 0.0000 0.0000 0.0000
# 4 0.0000 0.0000 0.0000 30.8681 0.0000 0.0000
# 5 0.0000 0.0000 0.0000 0.0000 21.7050 0.0000
# 6 0.0000 0.0000 0.0000 0.0000 0.0000 24.9332
#
#
#
# Elastic Compliance Matrix: (Units=1/GPa)
#
#
# Indices 1 2 3 4 5 6 
#
# 1 0.021264 -0.012714 -0.003208 0.000000 0.000000 0.000000
# 2 -0.012714 0.044010 -0.014264 0.000000 0.000000 0.000000
# 3 -0.003208 -0.014264 0.016598 0.000000 0.000000 0.000000
# 4 0.000000 0.000000 0.000000 0.032396 0.000000 0.000000
# 5 0.000000 0.000000 0.000000 0.000000 0.046072 0.000000
# 6 0.000000 0.000000 0.000000 0.000000 0.000000 0.040107
#
#
# Mechanical properties :
#
#
# Convention : Reuss Voigt Hill
#
# Bulk Modulus (GPa) = 46.51321 56.15592 51.33457
# Shear Modulus (GPa) = 18.65772 22.45495 20.55633
#
# Velocity S-wave (km/s) = 3.13680 3.44123 3.29253
# Velocity P-wave (km/s) = 6.13588 6.73827 6.44412
#
# Compressibility (1/GPa) = 0.02149927
#
# Stress axis : x y z
#
# Youngs Moduli (GPa) = 47.02850 22.72222 60.24838
#
# Poissons Ratio (x) = 0.28889 0.19327
# Poissons Ratio (y) = 0.59791 0.85941
# Poissons Ratio (z) = 0.15086 0.32412
#
# Static dielectric constant tensor:
#      x y z
#    x 3.636650 0.000000 0.000000 
#    y 0.000000 3.401860 0.000000 
#    z 0.000000 0.000000 3.395580 
# 
# 
# High freq. dielectric constant tensor:
#      x y z
#    x 1.737030 0.000000 0.000000 
#    y 0.000000 1.731980 0.000000 
#    z 0.000000 0.000000 1.733090 
# 
# From -- ./inp_files/28170.got.cif
#   From: 2010.03.12/outbox.cif.g09.slc.cpg/sg59_15_cif.got.tgz:28170.got - 2010.04.16 16:29:54.
