data_PCOD8241550
_publ_section_title
;
Structure prediction by ZEFSAII (Michael W. Deem and Ramdas Pophale) SiO2 
 PCOD8241550
Probable space group: P M M N
;
_chemical_formula_sum "Si O2"
_cell_formula_units_Z 64
_cell_length_a 18.909278
_cell_length_b 9.138236
_cell_length_c 19.826561
_cell_angle_alpha 90.000000
_cell_angle_beta 90.000000
_cell_angle_gamma 90.000000
_cell_volume 3425.979083
_symmetry_space_group_name_H-M "P M M N"
_symmetry_group_IT_number 59
_space_group.IT_coordinate_system_code '2'
_symmetry_cell_setting 'orthorhombic'
loop_
_space_group_symop_operation_xyz
x,y,z
1/2-x,1/2-y,z
1/2+x,-y,-z
-x,1/2+y,-z
-x,-y,-z
1/2+x,1/2+y,-z
1/2-x,y,z
x,1/2-y,z
loop_
_atom_site_type_symbol
_atom_site_label
_atom_site_fract_x
_atom_site_fract_y
_atom_site_fract_z
Si Si1 0.417847 0.423265 0.094844
Si Si2 0.899837 0.423174 0.657330
Si Si3 0.831815 0.919855 0.536798
Si Si4 0.550509 0.576066 0.288094
Si Si5 0.055047 0.077689 0.864551
Si Si6 0.669471 0.582998 0.775220
Si Si7 0.828156 0.575943 0.384460
Si Si8 0.328798 0.422438 0.968432
O O1 0.428134 0.250000 0.089598
O O2 0.493841 0.499520 0.092892
O O3 0.379192 0.470160 0.163563
O O4 0.371546 0.484465 0.032674
O O5 0.895171 0.250000 0.654967
O O6 0.882653 0.485291 0.583838
O O7 0.843068 0.482116 0.710639
O O8 0.977336 0.478343 0.679493
O O9 0.750000 0.948519 0.555129
O O10 0.850275 0.750000 0.546730
O O11 0.847581 0.971489 0.460493
O O12 0.554319 0.750000 0.288189
O O13 0.557435 0.516934 0.211830
O O14 0.614732 0.510089 0.332439
O O15 0.039720 0.250000 0.866014
O O16 0.129586 0.039048 0.899703
O O17 0.750000 0.566698 0.799135
O O18 0.652401 0.750000 0.755101
O O19 0.750000 0.516700 0.365013
O O20 0.827523 0.750000 0.381237
O O21 0.250000 0.492071 0.964973
O O22 0.321900 0.250000 0.977216
#
# Coordination Sequence:
#
# PCOD8241550 Si02
#       8
#     8   8   8   8   8   8   8   8
#     4  10  19  33  53  75 101 134 170 210 252 298
#     4  11  21  32  47  71 106 137 160 198 253 307
#     4   9  18  33  52  73  97 127 168 213 248 288
#     4   9  18  31  47  72 104 132 162 204 249 296
#     4  10  19  33  53  76 106 138 166 206 255 303
#     4  10  20  33  50  71  96 131 174 212 243 284
#     4   8  15  30  52  74  96 127 167 209 251 293
#     4   9  18  32  52  79 105 131 170 216 256 293
#
# _framework density 18.680792
#
# number of rings (size 3 to 8) (size 9 to 14) (size 15 to 20)
#    0.000    2.500    1.250    2.250    0.000    4.500 
#    0.000    2.500    0.000    3.750    0.000    0.000 
#    0.000    0.000    0.000    0.000    0.000    0.000 
#
# Total GULP energy -793606.873812 kJ/mol
# GULP energy per Si atom -12400.107403 kJ/mol
# Density = 1.863827 g / cm^3
# Si number density = 18.680792 Si / 1000 Ang^3
#
#
#
# Elastic Constant Matrix: (Units=GPa)
#
#
# Indices 1 2 3 4 5 6 
#
# 1 133.6755 28.7972 79.2709 0.0000 0.0000 0.0000
# 2 28.7972 31.7760 27.0290 0.0000 0.0000 0.0000
# 3 79.2709 27.0290 127.2379 0.0000 0.0000 0.0000
# 4 0.0000 0.0000 0.0000 17.5621 0.0000 0.0000
# 5 0.0000 0.0000 0.0000 0.0000 38.4417 0.0000
# 6 0.0000 0.0000 0.0000 0.0000 0.0000 21.6539
#
#
#
# Elastic Compliance Matrix: (Units=1/GPa)
#
#
# Indices 1 2 3 4 5 6 
#
# 1 0.012691 -0.005829 -0.006668 0.000000 0.000000 0.000000
# 2 -0.005829 0.041088 -0.005097 0.000000 0.000000 0.000000
# 3 -0.006668 -0.005097 0.013096 0.000000 0.000000 0.000000
# 4 0.000000 0.000000 0.000000 0.056941 0.000000 0.000000
# 5 0.000000 0.000000 0.000000 0.000000 0.026013 0.000000
# 6 0.000000 0.000000 0.000000 0.000000 0.000000 0.046181
#
#
# Mechanical properties :
#
#
# Convention : Reuss Voigt Hill
#
# Bulk Modulus (GPa) = 31.55837 62.54261 47.05049
# Shear Modulus (GPa) = 20.68153 26.03771 23.35962
#
# Velocity S-wave (km/s) = 3.33092 3.73744 3.54002
# Velocity P-wave (km/s) = 5.63237 7.22336 6.47690
#
# Compressibility (1/GPa) = 0.03168731
#
# Stress axis : x y z
#
# Youngs Moduli (GPa) = 78.79636 24.33787 76.35649
#
# Poissons Ratio (x) = 0.14187 0.50917
# Poissons Ratio (y) = 0.45931 0.38917
# Poissons Ratio (z) = 0.52544 0.12404
#
# Static dielectric constant tensor:
#      x y z
#    x 3.629110 0.000000 0.000000 
#    y 0.000000 2.971320 0.000000 
#    z 0.000000 0.000000 3.582920 
# 
# 
# High freq. dielectric constant tensor:
#      x y z
#    x 1.732010 0.000000 0.000000 
#    y 0.000000 1.676890 0.000000 
#    z 0.000000 0.000000 1.735740 
# 
# From -- ./inp_files/28304.got.cif
#   From: 2010.03.12/outbox.cif.g09.slc.cpg/sg59_15_cif.got.tgz:28304.got - 2010.04.16 16:29:54.
