data_PCOD8241863
_publ_section_title
;
Structure prediction by ZEFSAII (Michael W. Deem and Ramdas Pophale) SiO2 
 PCOD8241863
Probable space group: P M M N
;
_chemical_formula_sum "Si O2"
_cell_formula_units_Z 56
_cell_length_a 21.083450
_cell_length_b 9.115105
_cell_length_c 16.525588
_cell_angle_alpha 90.000000
_cell_angle_beta 90.000000
_cell_angle_gamma 90.000000
_cell_volume 3175.852146
_symmetry_space_group_name_H-M "P M M N"
_symmetry_group_IT_number 59
_space_group.IT_coordinate_system_code '2'
_symmetry_cell_setting 'orthorhombic'
loop_
_space_group_symop_operation_xyz
x,y,z
1/2-x,1/2-y,z
1/2+x,-y,-z
-x,1/2+y,-z
-x,-y,-z
1/2+x,1/2+y,-z
1/2-x,y,z
x,1/2-y,z
loop_
_atom_site_type_symbol
_atom_site_label
_atom_site_fract_x
_atom_site_fract_y
_atom_site_fract_z
Si Si1 0.177864 0.580145 0.638516
Si Si2 0.560850 0.422623 0.960513
Si Si3 0.090767 0.080583 0.534436
Si Si4 0.677320 0.579231 0.042288
Si Si5 0.124038 0.415830 0.786309
Si Si6 0.021766 0.584286 0.215214
Si Si7 0.979012 0.919990 0.624658
O O1 0.250000 0.542244 0.656351
O O2 0.165613 0.750000 0.623634
O O3 0.157308 0.494620 0.556966
O O4 0.137778 0.528720 0.715200
O O5 0.555622 0.250000 0.979404
O O6 0.562245 0.453137 0.864319
O O7 0.500000 0.500000 0.000000
O O8 0.627975 0.483050 0.991617
O O9 0.092257 0.250000 0.557207
O O10 0.077701 0.055295 0.439610
O O11 0.039221 0.008472 0.593402
O O12 0.750000 0.537591 0.019595
O O13 0.663746 0.750000 0.024478
O O14 0.667415 0.545688 0.136999
O O15 0.137677 0.250000 0.756491
O O16 0.051118 0.436696 0.810947
O O17 0.034328 0.750000 0.244600
O O18 0.043011 0.477757 0.288004
O O19 0.997612 0.750000 0.630670
#
# Coordination Sequence:
#
# PCOD8241863 Si02
#       7
#     8   8   8   8   8   8   8
#     4  11  23  35  49  75 109 142 178 218 259 307
#     4  11  22  37  57  81 111 145 185 230 276 327
#     4  10  20  34  52  75 103 137 174 209 254 313
#     4  10  21  38  58  80 110 147 186 228 275 329
#     4  10  19  34  54  77 108 146 182 213 261 324
#     4  10  20  34  54  80 110 142 177 219 268 322
#     4  10  20  33  53  79 104 132 169 216 263 305
#
# _framework density 17.633063
#
# number of rings (size 3 to 8) (size 9 to 14) (size 15 to 20)
#    0.000    1.714    2.857    2.143    0.000    5.429 
#    0.000    0.000    0.000    0.857    0.000    0.000 
#    0.000    0.000    0.000    0.000    0.000    0.000 
#
# Total GULP energy -694454.945625 kJ/mol
# GULP energy per Si atom -12400.981172 kJ/mol
# Density = 1.759293 g / cm^3
# Si number density = 17.633063 Si / 1000 Ang^3
#
#
#
# Elastic Constant Matrix: (Units=GPa)
#
#
# Indices 1 2 3 4 5 6 
#
# 1 80.4820 50.3764 47.8147 0.0000 0.0000 0.0000
# 2 50.3764 105.0399 58.4945 0.0000 0.0000 0.0000
# 3 47.8147 58.4945 100.6678 0.0000 0.0000 0.0000
# 4 0.0000 0.0000 0.0000 33.5699 0.0000 0.0000
# 5 0.0000 0.0000 0.0000 0.0000 25.6203 0.0000
# 6 0.0000 0.0000 0.0000 0.0000 0.0000 28.8722
#
#
#
# Elastic Compliance Matrix: (Units=1/GPa)
#
#
# Indices 1 2 3 4 5 6 
#
# 1 0.019768 -0.006286 -0.005737 0.000000 0.000000 0.000000
# 2 -0.006286 0.016073 -0.006354 0.000000 0.000000 0.000000
# 3 -0.005737 -0.006354 0.016351 0.000000 0.000000 0.000000
# 4 0.000000 0.000000 0.000000 0.029789 0.000000 0.000000
# 5 0.000000 0.000000 0.000000 0.000000 0.039031 0.000000
# 6 0.000000 0.000000 0.000000 0.000000 0.000000 0.034635
#
#
# Mechanical properties :
#
#
# Convention : Reuss Voigt Hill
#
# Bulk Modulus (GPa) = 64.77312 66.61787 65.69550
# Shear Modulus (GPa) = 25.31050 26.24610 25.77830
#
# Velocity S-wave (km/s) = 3.79278 3.86224 3.82767
# Velocity P-wave (km/s) = 7.48290 7.59943 7.54139
#
# Compressibility (1/GPa) = 0.01543850
#
# Stress axis : x y z
#
# Youngs Moduli (GPa) = 50.58706 62.21535 61.16002
#
# Poissons Ratio (x) = 0.39108 0.35086
# Poissons Ratio (y) = 0.31798 0.38861
# Poissons Ratio (z) = 0.29021 0.39531
#
# Static dielectric constant tensor:
#      x y z
#    x 3.262760 0.000000 0.000000 
#    y 0.000000 3.355770 0.000000 
#    z 0.000000 0.000000 3.308330 
# 
# 
# High freq. dielectric constant tensor:
#      x y z
#    x 1.661360 0.000000 0.000000 
#    y 0.000000 1.691850 0.000000 
#    z 0.000000 0.000000 1.679610 
# 
# From -- ./inp_files/24301.got.cif
#   From: 2010.03.12/outbox.cif.g09.slc.cpg/sg59_13_cif.got.tgz:24301.got - 2010.04.16 16:29:54.
