data_PCOD8241089
_publ_section_title
;
Structure prediction by ZEFSAII (Michael W. Deem and Ramdas Pophale) SiO2 
 PCOD8241089
Probable space group: P M M N
;
_chemical_formula_sum "Si O2"
_cell_formula_units_Z 64
_cell_length_a 23.124468
_cell_length_b 8.990897
_cell_length_c 19.263027
_cell_angle_alpha 90.000000
_cell_angle_beta 90.000000
_cell_angle_gamma 90.000000
_cell_volume 4004.970357
_symmetry_space_group_name_H-M "P M M N"
_symmetry_group_IT_number 59
_space_group.IT_coordinate_system_code '2'
_symmetry_cell_setting 'orthorhombic'
loop_
_space_group_symop_operation_xyz
x,y,z
1/2-x,1/2-y,z
1/2+x,-y,-z
-x,1/2+y,-z
-x,-y,-z
1/2+x,1/2+y,-z
1/2-x,y,z
x,1/2-y,z
loop_
_atom_site_type_symbol
_atom_site_label
_atom_site_fract_x
_atom_site_fract_y
_atom_site_fract_z
Si Si1 0.315492 0.420689 0.120361
Si Si2 0.909557 0.077653 0.520827
Si Si3 0.519410 0.924896 0.105381
Si Si4 0.816841 0.922297 0.611664
Si Si5 0.135612 0.926358 0.253367
Si Si6 0.504497 0.073591 0.745803
Si Si7 0.028477 0.077372 0.598051
Si Si8 0.081792 0.421825 0.027012
O O1 0.250000 0.455550 0.099263
O O2 0.323354 0.250000 0.144856
O O3 0.334411 0.528004 0.181876
O O4 0.352663 0.452360 0.050626
O O5 0.893736 0.250000 0.515505
O O6 0.963496 0.049434 0.571505
O O7 0.854326 0.991118 0.549580
O O8 0.924923 0.017522 0.444365
O O9 0.511458 0.750000 0.108372
O O10 0.528846 0.982715 0.184486
O O11 0.459363 0.987381 0.077532
O O12 0.572038 0.971125 0.053751
O O13 0.750000 0.944472 0.591844
O O14 0.832826 0.750000 0.619980
O O15 0.828997 0.003306 0.683865
O O16 0.137958 0.750000 0.261413
O O17 0.070031 0.987718 0.254107
O O18 0.507949 0.250000 0.742408
O O19 0.469884 0.019017 0.677672
O O20 0.045165 0.250000 0.590895
O O21 0.064645 0.250000 0.034838
#
# Coordination Sequence:
#
# PCOD8241089 Si02
#       8
#     8   8   8   8   8   8   8   8
#     4  10  20  32  43  60  91 127 159 190 227 273
#     4  10  19  32  49  71  94 120 157 195 231 274
#     4   9  16  28  46  65  88 115 149 191 234 276
#     4  11  23  36  49  67  94 129 163 193 230 273
#     4  11  20  32  47  67  93 123 162 197 225 266
#     4   9  16  28  46  68  92 120 150 186 232 280
#     4   9  17  31  48  67  93 122 152 188 237 285
#     4   9  17  28  43  64  86 116 154 191 232 273
#
# _framework density 15.980143
#
# number of rings (size 3 to 8) (size 9 to 14) (size 15 to 20)
#    0.000    2.250    2.500    1.500    0.000    3.250 
#    0.000    0.625    0.000    0.000    0.000    0.875 
#    0.000    5.000    0.000    0.000    0.000    0.125 
#
# Total GULP energy -793398.798354 kJ/mol
# GULP energy per Si atom -12396.856224 kJ/mol
# Density = 1.594377 g / cm^3
# Si number density = 15.980143 Si / 1000 Ang^3
#
#
#
# Elastic Constant Matrix: (Units=GPa)
#
#
# Indices 1 2 3 4 5 6 
#
# 1 82.7450 35.9536 61.2866 0.0000 0.0000 0.0000
# 2 35.9536 56.7164 38.6427 0.0000 0.0000 0.0000
# 3 61.2866 38.6427 145.3536 0.0000 0.0000 0.0000
# 4 0.0000 0.0000 0.0000 17.5404 0.0000 0.0000
# 5 0.0000 0.0000 0.0000 0.0000 24.0126 0.0000
# 6 0.0000 0.0000 0.0000 0.0000 0.0000 20.0915
#
#
#
# Elastic Compliance Matrix: (Units=1/GPa)
#
#
# Indices 1 2 3 4 5 6 
#
# 1 0.020584 -0.008714 -0.006362 0.000000 0.000000 0.000000
# 2 -0.008714 0.025220 -0.003031 0.000000 0.000000 0.000000
# 3 -0.006362 -0.003031 0.010368 0.000000 0.000000 0.000000
# 4 0.000000 0.000000 0.000000 0.057011 0.000000 0.000000
# 5 0.000000 0.000000 0.000000 0.000000 0.041645 0.000000
# 6 0.000000 0.000000 0.000000 0.000000 0.000000 0.049772
#
#
# Mechanical properties :
#
#
# Convention : Reuss Voigt Hill
#
# Bulk Modulus (GPa) = 50.10381 61.84232 55.97306
# Shear Modulus (GPa) = 20.20466 22.25771 21.23118
#
# Velocity S-wave (km/s) = 3.55964 3.73612 3.64895
# Velocity P-wave (km/s) = 6.95101 7.57595 7.27020
#
# Compressibility (1/GPa) = 0.01995856
#
# Stress axis : x y z
#
# Youngs Moduli (GPa) = 48.58160 39.65053 96.44887
#
# Poissons Ratio (x) = 0.34550 0.61365
# Poissons Ratio (y) = 0.42332 0.29233
# Poissons Ratio (z) = 0.30910 0.12018
#
# Static dielectric constant tensor:
#      x y z
#    x 2.926580 0.000000 0.000000 
#    y 0.000000 3.011560 0.000000 
#    z 0.000000 0.000000 3.392350 
# 
# 
# High freq. dielectric constant tensor:
#      x y z
#    x 1.584940 0.000000 0.000000 
#    y 0.000000 1.610850 0.000000 
#    z 0.000000 0.000000 1.615700 
# 
# From -- ./inp_files/30910.got.cif
#   From: 2010.03.12/outbox.cif.g09.slc.cpg/sg59_16_cif.got.tgz:30910.got - 2010.04.16 16:29:54.
