data_PCOD8241037
_publ_section_title
;
Structure prediction by ZEFSAII (Michael W. Deem and Ramdas Pophale) SiO2 
 PCOD8241037
Probable space group: P M M N
;
_chemical_formula_sum "Si O2"
_cell_formula_units_Z 64
_cell_length_a 29.352208
_cell_length_b 8.941043
_cell_length_c 12.542220
_cell_angle_alpha 90.000000
_cell_angle_beta 90.000000
_cell_angle_gamma 90.000000
_cell_volume 3291.572113
_symmetry_space_group_name_H-M "P M M N"
_symmetry_group_IT_number 59
_space_group.IT_coordinate_system_code '2'
_symmetry_cell_setting 'orthorhombic'
loop_
_space_group_symop_operation_xyz
x,y,z
1/2-x,1/2-y,z
1/2+x,-y,-z
-x,1/2+y,-z
-x,-y,-z
1/2+x,1/2+y,-z
1/2-x,y,z
x,1/2-y,z
loop_
_atom_site_type_symbol
_atom_site_label
_atom_site_fract_x
_atom_site_fract_y
_atom_site_fract_z
Si Si1 0.108848 0.927329 0.450977
Si Si2 0.459650 0.426829 0.289619
Si Si3 0.199235 0.422356 0.391647
Si Si4 0.168811 0.080877 0.159830
Si Si5 0.560080 0.427216 0.335856
Si Si6 0.919438 0.075120 0.897704
Si Si7 0.890334 0.427054 0.127349
Si Si8 0.800114 0.578551 0.071230
O O1 0.105222 0.750000 0.440674
O O2 0.086256 0.986815 0.560339
O O3 0.082078 0.001990 0.353788
O O4 0.161611 0.976438 0.450400
O O5 0.454472 0.250000 0.290880
O O6 0.507509 0.479270 0.340660
O O7 0.458375 0.485412 0.167087
O O8 0.250000 0.467658 0.431406
O O9 0.189031 0.250000 0.419539
O O10 0.198655 0.447903 0.264504
O O11 0.148468 0.250000 0.160456
O O12 0.199817 0.055888 0.056260
O O13 0.128212 0.961405 0.159645
O O14 0.562695 0.250000 0.330137
O O15 0.583752 0.493908 0.229805
O O16 0.929730 0.250000 0.890255
O O17 0.916721 0.018595 0.020425
O O18 0.889126 0.250000 0.128955
O O19 0.838272 0.481484 0.129826
O O20 0.750000 0.528804 0.111847
O O21 0.809539 0.750000 0.100829
#
# Coordination Sequence:
#
# PCOD8241037 Si02
#       8
#     8   8   8   8   8   8   8   8
#     4  11  22  38  59  82 110 141 182 232 275 316
#     4  11  21  36  59  83 109 143 181 222 276 333
#     4  10  20  34  54  81 112 147 182 216 265 327
#     4   9  16  29  50  75 108 146 176 210 261 323
#     4   9  21  40  59  78 104 145 189 227 270 323
#     4  10  19  31  52  83 115 141 170 219 271 318
#     4   9  19  37  56  76 108 145 182 223 268 321
#     4   9  17  30  50  78 109 141 180 223 267 317
#
# _framework density 19.443595999999999
#
# number of rings (size 3 to 8) (size 9 to 14) (size 15 to 20)
#    0.000    2.250    1.250    1.875    0.000    3.000 
#    0.000    5.000    0.000    6.000    0.000    0.000 
#    0.000    0.000    0.000    0.000    0.000    0.000 
#
# Total GULP energy -793488.824027 kJ/mol
# GULP energy per Si atom -12398.262875 kJ/mol
# Density = 1.939934 g / cm^3
# Si number density = 19.443596 Si / 1000 Ang^3
#
#
#
# Elastic Constant Matrix: (Units=GPa)
#
#
# Indices 1 2 3 4 5 6 
#
# 1 106.0210 26.3361 42.5589 0.0000 0.0000 0.0000
# 2 26.3361 51.1352 26.8079 0.0000 0.0000 0.0000
# 3 42.5589 26.8079 90.4074 0.0000 0.0000 0.0000
# 4 0.0000 0.0000 0.0000 17.7425 0.0000 0.0000
# 5 0.0000 0.0000 0.0000 0.0000 20.4354 0.0000
# 6 0.0000 0.0000 0.0000 0.0000 0.0000 27.3231
#
#
#
# Elastic Compliance Matrix: (Units=1/GPa)
#
#
# Indices 1 2 3 4 5 6 
#
# 1 0.012250 -0.003891 -0.004613 0.000000 0.000000 0.000000
# 2 -0.003891 0.024391 -0.005401 0.000000 0.000000 0.000000
# 3 -0.004613 -0.005401 0.014834 0.000000 0.000000 0.000000
# 4 0.000000 0.000000 0.000000 0.056362 0.000000 0.000000
# 5 0.000000 0.000000 0.000000 0.000000 0.048935 0.000000
# 6 0.000000 0.000000 0.000000 0.000000 0.000000 0.036599
#
#
# Mechanical properties :
#
#
# Convention : Reuss Voigt Hill
#
# Bulk Modulus (GPa) = 42.25465 48.77438 45.51452
# Shear Modulus (GPa) = 21.82736 23.22424 22.52580
#
# Velocity S-wave (km/s) = 3.35416 3.45982 3.40740
# Velocity P-wave (km/s) = 6.06462 6.41093 6.24017
#
# Compressibility (1/GPa) = 0.02366603
#
# Stress axis : x y z
#
# Youngs Moduli (GPa) = 81.63011 40.99797 67.41197
#
# Poissons Ratio (x) = 0.15952 0.31098
# Poissons Ratio (y) = 0.31761 0.36409
# Poissons Ratio (z) = 0.37657 0.22143
#
# Static dielectric constant tensor:
#      x y z
#    x 3.584770 0.000000 0.000000 
#    y 0.000000 3.343960 0.000000 
#    z 0.000000 0.000000 3.665590 
# 
# 
# High freq. dielectric constant tensor:
#      x y z
#    x 1.757130 0.000000 0.000000 
#    y 0.000000 1.739080 0.000000 
#    z 0.000000 0.000000 1.747010 
# 
# From -- ./inp_files/19263.got.cif
#   From: 2010.03.12/outbox.cif.g09.slc.cpg/sg59_10_cif.got.tgz:19263.got - 2010.04.16 16:29:54.
