data_PCOD8241145
_publ_section_title
;
Structure prediction by ZEFSAII (Michael W. Deem and Ramdas Pophale) SiO2 
 PCOD8241145
Probable space group: P M M N
;
_chemical_formula_sum "Si O2"
_cell_formula_units_Z 48
_cell_length_a 16.765902
_cell_length_b 15.802799
_cell_length_c 9.176872
_cell_angle_alpha 90.000000
_cell_angle_beta 90.000000
_cell_angle_gamma 90.000000
_cell_volume 2431.395529
_symmetry_space_group_name_H-M "P M M N"
_symmetry_group_IT_number 59
_space_group.IT_coordinate_system_code '2'
_symmetry_cell_setting 'orthorhombic'
loop_
_space_group_symop_operation_xyz
x,y,z
1/2-x,1/2-y,z
1/2+x,-y,-z
-x,1/2+y,-z
-x,-y,-z
1/2+x,1/2+y,-z
1/2-x,y,z
x,1/2-y,z
loop_
_atom_site_type_symbol
_atom_site_label
_atom_site_fract_x
_atom_site_fract_y
_atom_site_fract_z
Si Si1 0.655255 0.910775 0.469785
Si Si2 0.159839 0.750000 0.695811
Si Si3 0.154643 0.930444 0.705149
Si Si4 0.655203 0.909016 0.798630
Si Si5 0.085985 0.250000 0.034254
Si Si6 0.155601 0.250000 0.715642
Si Si7 0.844172 0.424361 0.962502
Si Si8 0.097663 0.750000 0.007047
O O1 0.750000 0.916164 0.473032
O O2 0.622761 0.902544 0.633727
O O3 0.627599 0.830965 0.375920
O O4 0.619394 0.995233 0.395079
O O5 0.250000 0.750000 0.640505
O O6 0.120548 0.839396 0.644537
O O7 0.159013 0.750000 0.871706
O O8 0.250000 0.929547 0.699246
O O9 0.127787 0.944055 0.872162
O O10 0.750000 0.901375 0.806275
O O11 0.619748 0.833229 0.891009
O O12 0.625395 0.998309 0.863330
O O13 0.991733 0.250000 0.051638
O O14 0.109401 0.250000 0.866097
O O15 0.250000 0.250000 0.745743
O O16 0.750000 0.415222 0.949566
O O17 0.884158 0.336686 0.903821
#
# Coordination Sequence:
#
# PCOD8241145 Si02
#       8
#     8   4   8   8   4   4   8   4
#     4   9  17  30  50  75 100 126 163 213 260 299
#     4   8  14  28  52  75  95 123 167 217 253 293
#     4   8  13  24  46  75  98 120 156 202 249 292
#     4  10  20  34  53  78 105 133 168 213 263 306
#     4  12  23  33  51  75 107 142 172 212 252 306
#     4  10  19  32  51  72  95 130 174 212 248 296
#     4   9  17  33  58  81 102 130 170 218 258 300
#     4  10  20  33  52  78 107 137 173 209 255 305
#
# _framework density 19.74175
#
# number of rings (size 3 to 8) (size 9 to 14) (size 15 to 20)
#    0.000    2.667    0.000    4.000    0.000    4.667 
#    0.000    0.833    0.000   17.000    0.000    0.000 
#    0.000    0.000    0.000    0.000    0.000    0.000 
#
# Total GULP energy -594889.362022 kJ/mol
# GULP energy per Si atom -12393.528375 kJ/mol
# Density = 1.969682 g / cm^3
# Si number density = 19.741750 Si / 1000 Ang^3
#
#
#
# Elastic Constant Matrix: (Units=GPa)
#
#
# Indices 1 2 3 4 5 6 
#
# 1 21.3433 23.5341 15.9779 0.0000 0.0000 0.0000
# 2 23.5341 219.0054 90.7672 0.0000 0.0000 0.0000
# 3 15.9779 90.7672 128.7927 0.0000 0.0000 0.0000
# 4 0.0000 0.0000 0.0000 1.7032 0.0000 0.0000
# 5 0.0000 0.0000 0.0000 0.0000 5.4567 0.0000
# 6 0.0000 0.0000 0.0000 0.0000 0.0000 -2.5600
#
#
#
# Elastic Compliance Matrix: (Units=1/GPa)
#
#
# Indices 1 2 3 4 5 6 
#
# 1 0.054379 -0.004305 -0.003712 0.000000 0.000000 0.000000
# 2 -0.004305 0.006791 -0.004252 0.000000 0.000000 0.000000
# 3 -0.003712 -0.004252 0.011221 0.000000 0.000000 0.000000
# 4 0.000000 0.000000 0.000000 0.587126 0.000000 0.000000
# 5 0.000000 0.000000 0.000000 0.000000 0.183261 0.000000
# 6 0.000000 0.000000 0.000000 0.000000 0.000000 -0.390620
#
#
# Mechanical properties :
#
#
# Convention : Reuss Voigt Hill
#
# Bulk Modulus (GPa) = 20.89727 69.96666 45.43197
# Shear Modulus (GPa) = 10.14923 16.84411 13.49667
#
# Velocity S-wave (km/s) = 2.26984 2.92417 2.61753
# Velocity P-wave (km/s) = 4.18065 6.84974 5.67436
#
# Compressibility (1/GPa) = 0.04785314
#
# Stress axis : x y z
#
# Youngs Moduli (GPa) = 18.38948 147.25610 89.11494
#
# Poissons Ratio (x) = 0.63393 0.33082
# Poissons Ratio (y) = 0.07917 0.37890
# Poissons Ratio (z) = 0.06827 0.62611
#
# Static dielectric constant tensor:
#      x y z
#    x 3.046390 0.000000 0.000000 
#    y 0.000000 4.179020 0.000000 
#    z 0.000000 0.000000 3.554780 
# 
# 
# High freq. dielectric constant tensor:
#      x y z
#    x 1.716590 0.000000 0.000000 
#    y 0.000000 1.800520 0.000000 
#    z 0.000000 0.000000 1.747440 
# 
# From -- ./inp_files/10310.got.cif
#   From: 2010.03.12/outbox.cif.g09.slc.cpg/sg59_6_cif.got.tgz:10310.got - 2010.04.16 16:29:54.
