data_PCOD8241513
_publ_section_title
;
Structure prediction by ZEFSAII (Michael W. Deem and Ramdas Pophale) SiO2 
 PCOD8241513
Probable space group: P M M N
;
_chemical_formula_sum "Si O2"
_cell_formula_units_Z 48
_cell_length_a 27.963737
_cell_length_b 9.233642
_cell_length_c 10.405894
_cell_angle_alpha 90.000000
_cell_angle_beta 90.000000
_cell_angle_gamma 90.000000
_cell_volume 2686.876092
_symmetry_space_group_name_H-M "P M M N"
_symmetry_group_IT_number 59
_space_group.IT_coordinate_system_code '2'
_symmetry_cell_setting 'orthorhombic'
loop_
_space_group_symop_operation_xyz
x,y,z
1/2-x,1/2-y,z
1/2+x,-y,-z
-x,1/2+y,-z
-x,-y,-z
1/2+x,1/2+y,-z
1/2-x,y,z
x,1/2-y,z
loop_
_atom_site_type_symbol
_atom_site_label
_atom_site_fract_x
_atom_site_fract_y
_atom_site_fract_z
Si Si1 0.053426 0.421731 0.240075
Si Si2 0.695774 0.082701 0.117063
Si Si3 0.887726 0.581751 0.008792
Si Si4 0.803238 0.917945 0.381196
Si Si5 0.454200 0.419720 0.750244
Si Si6 0.899128 0.579278 0.501298
O O1 0.046458 0.250000 0.246294
O O2 0.079990 0.484995 0.366613
O O3 0.002256 0.493608 0.226351
O O4 0.084395 0.468341 0.117787
O O5 0.750000 0.061835 0.068649
O O6 0.682251 0.250000 0.131016
O O7 0.661422 0.007953 0.013172
O O8 0.688234 0.009678 0.254453
O O9 0.874536 0.750000 0.002643
O O10 0.919051 0.544536 0.133069
O O11 0.750000 0.945185 0.438441
O O12 0.810314 0.750000 0.342782
O O13 0.843191 0.965117 0.485426
O O14 0.465885 0.250000 0.743352
O O15 0.429835 0.477759 0.619454
O O16 0.903490 0.750000 0.506927
#
# Coordination Sequence:
#
# PCOD8241513 Si02
#       6
#     8   8   8   8   8   8
#     4  10  21  34  50  74 105 136 170 212 252 295
#     4  10  20  33  52  79 105 128 163 211 254 296
#     4  10  20  35  53  75 103 135 170 209 251 298
#     4   9  16  30  54  77  99 131 166 202 250 302
#     4  10  19  33  52  72 100 137 175 211 249 297
#     4   9  17  32  51  75 105 132 165 209 251 296
#
# _framework density 17.864612000000001
#
# number of rings (size 3 to 8) (size 9 to 14) (size 15 to 20)
#    0.000    2.333    1.667    1.500    0.000    2.333 
#    0.000    1.667    0.000    3.000    0.000    2.333 
#    0.000    0.000    0.000    0.000    0.000    0.000 
#
# Total GULP energy -595188.213289 kJ/mol
# GULP energy per Si atom -12399.754444 kJ/mol
# Density = 1.782395 g / cm^3
# Si number density = 17.864612 Si / 1000 Ang^3
#
#
#
# Elastic Constant Matrix: (Units=GPa)
#
#
# Indices 1 2 3 4 5 6 
#
# 1 122.6696 49.2788 39.6640 0.0000 0.0000 0.0000
# 2 49.2788 47.8150 26.9887 0.0000 0.0000 0.0000
# 3 39.6640 26.9887 98.4678 0.0000 0.0000 0.0000
# 4 0.0000 0.0000 0.0000 9.1043 0.0000 0.0000
# 5 0.0000 0.0000 0.0000 0.0000 9.5106 0.0000
# 6 0.0000 0.0000 0.0000 0.0000 0.0000 30.8967
#
#
#
# Elastic Compliance Matrix: (Units=1/GPa)
#
#
# Indices 1 2 3 4 5 6 
#
# 1 0.014246 -0.013537 -0.002028 0.000000 0.000000 0.000000
# 2 -0.013537 0.037606 -0.004854 0.000000 0.000000 0.000000
# 3 -0.002028 -0.004854 0.012303 0.000000 0.000000 0.000000
# 4 0.000000 0.000000 0.000000 0.109838 0.000000 0.000000
# 5 0.000000 0.000000 0.000000 0.000000 0.105145 0.000000
# 6 0.000000 0.000000 0.000000 0.000000 0.000000 0.032366
#
#
# Mechanical properties :
#
#
# Convention : Reuss Voigt Hill
#
# Bulk Modulus (GPa) = 42.89009 55.64616 49.26812
# Shear Modulus (GPa) = 13.88445 20.10372 16.99409
#
# Velocity S-wave (km/s) = 2.79086 3.35824 3.08761
# Velocity P-wave (km/s) = 5.86905 6.80099 6.35214
#
# Compressibility (1/GPa) = 0.02331541
#
# Stress axis : x y z
#
# Youngs Moduli (GPa) = 70.19544 26.59173 81.28103
#
# Poissons Ratio (x) = 0.35998 0.16484
# Poissons Ratio (y) = 0.95026 0.39456
# Poissons Ratio (z) = 0.14236 0.12908
#
# Static dielectric constant tensor:
#      x y z
#    x 3.520040 0.000000 0.000000 
#    y 0.000000 3.130740 0.000000 
#    z 0.000000 0.000000 3.440860 
# 
# 
# High freq. dielectric constant tensor:
#      x y z
#    x 1.706900 0.000000 0.000000 
#    y 0.000000 1.670640 0.000000 
#    z 0.000000 0.000000 1.678480 
# 
# From -- ./inp_files/6328.got.cif
#   From: 2010.03.12/outbox.cif.g09.slc.cpg/sg59_4_cif.got.tgz:6328.got - 2010.04.16 16:29:54.
