data_PCOD8241326
_publ_section_title
;
Structure prediction by ZEFSAII (Michael W. Deem and Ramdas Pophale) SiO2 
 PCOD8241326
Probable space group: P M M N
;
_chemical_formula_sum "Si O2"
_cell_formula_units_Z 64
_cell_length_a 9.424633
_cell_length_b 19.189610
_cell_length_c 18.660997
_cell_angle_alpha 90.000000
_cell_angle_beta 90.000000
_cell_angle_gamma 90.000000
_cell_volume 3374.935203
_symmetry_space_group_name_H-M "P M M N"
_symmetry_group_IT_number 59
_space_group.IT_coordinate_system_code '2'
_symmetry_cell_setting 'orthorhombic'
loop_
_space_group_symop_operation_xyz
x,y,z
1/2-x,1/2-y,z
1/2+x,-y,-z
-x,1/2+y,-z
-x,-y,-z
1/2+x,1/2+y,-z
1/2-x,y,z
x,1/2-y,z
loop_
_atom_site_type_symbol
_atom_site_label
_atom_site_fract_x
_atom_site_fract_y
_atom_site_fract_z
Si Si1 0.087051 0.979756 0.385805
Si Si2 0.583990 0.063432 0.773225
Si Si3 0.592771 0.918263 0.844047
Si Si4 0.089418 0.667319 0.745543
Si Si5 0.412440 0.594611 0.527788
Si Si6 0.092613 0.068439 0.993661
Si Si7 0.417976 0.168580 0.866539
Si Si8 0.904670 0.829133 0.616939
O O1 0.250000 0.005115 0.380567
O O2 0.033578 0.954528 0.308000
O O3 0.074450 0.917258 0.443206
O O4 0.990922 0.040201 0.419195
O O5 0.750000 0.082519 0.774424
O O6 0.496832 0.130766 0.800208
O O7 0.550069 0.998173 0.825584
O O8 0.750000 0.904056 0.810741
O O9 0.474308 0.865387 0.816871
O O10 0.597398 0.900049 0.927359
O O11 0.250000 0.641809 0.734415
O O12 0.082536 0.750000 0.750702
O O13 0.993368 0.635996 0.681598
O O14 0.250000 0.599939 0.552131
O O15 0.500188 0.664986 0.544640
O O16 0.250000 0.045892 0.968553
O O17 0.034873 0.127814 0.939257
O O18 0.000000 0.000000 0.000000
O O19 0.250000 0.163661 0.854121
O O20 0.464701 0.250000 0.871505
O O21 0.750000 0.865249 0.608974
O O22 0.881157 0.750000 0.636030
#
# Coordination Sequence:
#
# PCOD8241326 Si02
#       8
#     8   8   8   8   8   8   8   8
#     4   9  19  34  53  78 110 142 174 222 274 325
#     4  10  20  36  57  82 109 141 185 228 272 325
#     4  10  20  33  55  84 111 143 181 222 271 330
#     4  10  21  35  51  77 112 146 182 225 273 326
#     4  10  19  32  52  79 107 138 178 222 274 326
#     4  10  20  36  58  84 111 143 183 227 274 327
#     4  10  22  39  58  82 113 148 185 229 280 330
#     4  10  20  34  52  72  99 139 181 220 267 323
#
# _framework density 18.963328000000001
#
# number of rings (size 3 to 8) (size 9 to 14) (size 15 to 20)
#    0.000    2.125    1.250    1.875    0.000    5.250 
#    0.000    1.875    0.000    3.750    0.000    0.000 
#    0.000    0.000    0.000    0.000    0.000    0.000 
#
# Total GULP energy -793096.468042 kJ/mol
# GULP energy per Si atom -12392.132313 kJ/mol
# Density = 1.892017 g / cm^3
# Si number density = 18.963328 Si / 1000 Ang^3
#
#
#
# Elastic Constant Matrix: (Units=GPa)
#
#
# Indices 1 2 3 4 5 6 
#
# 1 106.7668 33.2998 40.6666 0.0000 0.0000 0.0000
# 2 33.2998 59.8875 44.1666 0.0000 0.0000 0.0000
# 3 40.6666 44.1666 112.6989 0.0000 0.0000 0.0000
# 4 0.0000 0.0000 0.0000 30.6228 0.0000 0.0000
# 5 0.0000 0.0000 0.0000 0.0000 29.9637 0.0000
# 6 0.0000 0.0000 0.0000 0.0000 0.0000 31.4934
#
#
#
# Elastic Compliance Matrix: (Units=1/GPa)
#
#
# Indices 1 2 3 4 5 6 
#
# 1 0.011763 -0.004797 -0.002365 0.000000 0.000000 0.000000
# 2 -0.004797 0.025442 -0.008240 0.000000 0.000000 0.000000
# 3 -0.002365 -0.008240 0.012956 0.000000 0.000000 0.000000
# 4 0.000000 0.000000 0.000000 0.032655 0.000000 0.000000
# 5 0.000000 0.000000 0.000000 0.000000 0.033374 0.000000
# 6 0.000000 0.000000 0.000000 0.000000 0.000000 0.031753
#
#
# Mechanical properties :
#
#
# Convention : Reuss Voigt Hill
#
# Bulk Modulus (GPa) = 51.65811 57.29102 54.47457
# Shear Modulus (GPa) = 26.99818 29.16398 28.08108
#
# Velocity S-wave (km/s) = 3.77729 3.92588 3.85230
# Velocity P-wave (km/s) = 6.80618 7.12931 6.96962
#
# Compressibility (1/GPa) = 0.01935805
#
# Stress axis : x y z
#
# Youngs Moduli (GPa) = 85.01248 39.30522 77.18613
#
# Poissons Ratio (x) = 0.18853 0.18253
# Poissons Ratio (y) = 0.40778 0.63600
# Poissons Ratio (z) = 0.20104 0.32387
#
# Static dielectric constant tensor:
#      x y z
#    x 3.772700 0.000000 0.000000 
#    y 0.000000 3.397220 0.000000 
#    z 0.000000 0.000000 3.669360 
# 
# 
# High freq. dielectric constant tensor:
#      x y z
#    x 1.744190 0.000000 0.000000 
#    y 0.000000 1.720190 0.000000 
#    z 0.000000 0.000000 1.737170 
# 
# From -- ./inp_files/26194.got.cif
#   From: 2010.03.12/outbox.cif.g09.slc.cpg/sg59_14_cif.got.tgz:26194.got - 2010.04.16 16:29:54.
