data_PCOD8241857
_publ_section_title
;
Structure prediction by ZEFSAII (Michael W. Deem and Ramdas Pophale) SiO2 
 PCOD8241857
Probable space group: P M M N
;
_chemical_formula_sum "Si O2"
_cell_formula_units_Z 48
_cell_length_a 15.568452
_cell_length_b 8.955739
_cell_length_c 17.973520
_cell_angle_alpha 90.000000
_cell_angle_beta 90.000000
_cell_angle_gamma 90.000000
_cell_volume 2505.993843
_symmetry_space_group_name_H-M "P M M N"
_symmetry_group_IT_number 59
_space_group.IT_coordinate_system_code '2'
_symmetry_cell_setting 'orthorhombic'
loop_
_space_group_symop_operation_xyz
x,y,z
1/2-x,1/2-y,z
1/2+x,-y,-z
-x,1/2+y,-z
-x,-y,-z
1/2+x,1/2+y,-z
1/2-x,y,z
x,1/2-y,z
loop_
_atom_site_type_symbol
_atom_site_label
_atom_site_fract_x
_atom_site_fract_y
_atom_site_fract_z
Si Si1 0.916415 0.573097 0.791705
Si Si2 0.250000 0.426962 0.956361
Si Si3 0.750000 0.927931 0.705810
Si Si4 0.411634 0.573262 0.710227
Si Si5 0.419436 0.072212 0.039461
Si Si6 0.250000 0.427409 0.787353
Si Si7 0.420420 0.925228 0.539706
Si Si8 0.250000 0.574322 0.453630
O O1 0.911978 0.750000 0.791407
O O2 0.833634 0.509431 0.748505
O O3 0.916063 0.513714 0.875932
O O4 0.001923 0.517758 0.750425
O O5 0.250000 0.250000 0.958387
O O6 0.250000 0.486190 0.872103
O O7 0.165819 0.487051 0.998430
O O8 0.750000 0.750000 0.703264
O O9 0.750000 0.987227 0.622887
O O10 0.397399 0.750000 0.718071
O O11 0.333506 0.488897 0.747477
O O12 0.416882 0.522807 0.624899
O O13 0.427451 0.250000 0.035648
O O14 0.500000 0.000000 0.000000
O O15 0.250000 0.250000 0.783707
O O16 0.433864 0.750000 0.534568
O O17 0.332840 0.975835 0.500323
O O18 0.500000 0.000000 0.500000
O O19 0.250000 0.750000 0.438022
#
# Coordination Sequence:
#
# PCOD8241857 Si02
#       8
#     8   4   4   8   8   4   8   4
#     4   9  18  32  55  82 104 131 174 218 257 304
#     4   9  19  34  52  74 106 141 170 208 266 317
#     4  10  19  35  58  81 103 134 176 218 254 304
#     4  10  20  36  55  77 106 140 173 213 263 311
#     4  10  19  34  54  77 105 138 173 213 259 310
#     4  11  22  35  52  77 104 137 180 220 256 305
#     4  10  21  37  57  79 107 140 175 214 261 312
#     4  10  21  36  52  76 109 142 170 208 266 320
#
# _framework density 19.154077000000001
#
# number of rings (size 3 to 8) (size 9 to 14) (size 15 to 20)
#    0.000    2.167    0.000    3.250    0.000    6.000 
#    0.000    3.750    0.000    0.000    0.000    0.000 
#    0.000    0.000    0.000    0.000    0.000    0.000 
#
# Total GULP energy -595335.387373 kJ/mol
# GULP energy per Si atom -12402.820570 kJ/mol
# Density = 1.911048 g / cm^3
# Si number density = 19.154077 Si / 1000 Ang^3
#
#
#
# Elastic Constant Matrix: (Units=GPa)
#
#
# Indices 1 2 3 4 5 6 
#
# 1 217.4645 40.6300 122.7810 0.0000 0.0000 0.0000
# 2 40.6300 26.6068 39.7970 0.0000 0.0000 0.0000
# 3 122.7810 39.7970 215.4876 0.0000 0.0000 0.0000
# 4 0.0000 0.0000 0.0000 23.7901 0.0000 0.0000
# 5 0.0000 0.0000 0.0000 0.0000 46.5452 0.0000
# 6 0.0000 0.0000 0.0000 0.0000 0.0000 18.5809
#
#
#
# Elastic Compliance Matrix: (Units=1/GPa)
#
#
# Indices 1 2 3 4 5 6 
#
# 1 0.007647 -0.007130 -0.003040 0.000000 0.000000 0.000000
# 2 -0.007130 0.058577 -0.006756 0.000000 0.000000 0.000000
# 3 -0.003040 -0.006756 0.007621 0.000000 0.000000 0.000000
# 4 0.000000 0.000000 0.000000 0.042034 0.000000 0.000000
# 5 0.000000 0.000000 0.000000 0.000000 0.021485 0.000000
# 6 0.000000 0.000000 0.000000 0.000000 0.000000 0.053819
#
#
# Mechanical properties :
#
#
# Convention : Reuss Voigt Hill
#
# Bulk Modulus (GPa) = 25.00452 96.21945 60.61199
# Shear Modulus (GPa) = 20.97615 34.87327 27.92471
#
# Velocity S-wave (km/s) = 3.31286 4.27156 3.82239
# Velocity P-wave (km/s) = 5.26461 8.64129 7.15500
#
# Compressibility (1/GPa) = 0.03999277
#
# Stress axis : x y z
#
# Youngs Moduli (GPa) = 130.76610 17.07151 131.22125
#
# Poissons Ratio (x) = 0.12172 0.39897
# Poissons Ratio (y) = 0.93236 0.88649
# Poissons Ratio (z) = 0.39759 0.11533
#
# Static dielectric constant tensor:
#      x y z
#    x 3.449640 0.000000 0.000000 
#    y 0.000000 3.140070 0.000000 
#    z 0.000000 0.000000 3.826370 
# 
# 
# High freq. dielectric constant tensor:
#      x y z
#    x 1.766750 0.000000 0.000000 
#    y 0.000000 1.708110 0.000000 
#    z 0.000000 0.000000 1.766630 
# 
# From -- ./inp_files/27498.got.cif
#   From: 2010.03.12/outbox.cif.g09.slc.cpg/sg59_14_cif.got.tgz:27498.got - 2010.04.16 16:29:54.
