data_PCOD8241032
_publ_section_title
;
Structure prediction by ZEFSAII (Michael W. Deem and Ramdas Pophale) SiO2 
 PCOD8241032
Probable space group: P M M N
;
_chemical_formula_sum "Si O2"
_cell_formula_units_Z 64
_cell_length_a 14.624007
_cell_length_b 19.084639
_cell_length_c 11.733845
_cell_angle_alpha 90.000000
_cell_angle_beta 90.000000
_cell_angle_gamma 90.000000
_cell_volume 3274.844496
_symmetry_space_group_name_H-M "P M M N"
_symmetry_group_IT_number 59
_space_group.IT_coordinate_system_code '2'
_symmetry_cell_setting 'orthorhombic'
loop_
_space_group_symop_operation_xyz
x,y,z
1/2-x,1/2-y,z
1/2+x,-y,-z
-x,1/2+y,-z
-x,-y,-z
1/2+x,1/2+y,-z
1/2-x,y,z
x,1/2-y,z
loop_
_atom_site_type_symbol
_atom_site_label
_atom_site_fract_x
_atom_site_fract_y
_atom_site_fract_z
Si Si1 0.646834 0.643000 0.215609
Si Si2 0.645413 0.672265 0.961635
Si Si3 0.652418 0.031602 0.732296
Si Si4 0.483222 0.452986 0.110713
Si Si5 0.397960 0.024410 0.505010
Si Si6 0.452060 0.172792 0.560549
Si Si7 0.649456 0.484410 0.244295
Si Si8 0.648815 0.172243 0.629682
O O1 0.750000 0.657501 0.261466
O O2 0.573436 0.672172 0.305393
O O3 0.633133 0.560878 0.191292
O O4 0.630195 0.680731 0.096254
O O5 0.750000 0.647206 0.936184
O O6 0.629076 0.750000 0.908706
O O7 0.572357 0.618166 0.909955
O O8 0.750000 0.011979 0.788892
O O9 0.641010 0.115711 0.730761
O O10 0.570394 0.001145 0.801717
O O11 0.656613 0.003828 0.602570
O O12 0.576788 0.434182 0.179154
O O13 0.500000 0.500000 0.000000
O O14 0.395540 0.109965 0.501411
O O15 0.500000 0.000000 0.500000
O O16 0.356313 0.991291 0.619196
O O17 0.426418 0.250000 0.510031
O O18 0.562066 0.160364 0.545015
O O19 0.750000 0.455279 0.213856
O O20 0.750000 0.164234 0.569301
O O21 0.640413 0.250000 0.683159
#
# Coordination Sequence:
#
# PCOD8241032 Si02
#       8
#     8   8   8   8   8   8   8   8
#     4   9  17  32  54  82 113 145 184 236 296 350
#     4  10  21  37  57  83 116 156 201 247 296 351
#     4  11  22  38  60  85 114 151 188 239 296 346
#     4  12  23  37  60  87 117 152 198 244 287 348
#     4  11  19  36  58  82 112 148 194 238 286 354
#     4  10  19  31  52  81 114 147 183 234 293 345
#     4  10  20  35  58  86 117 150 190 242 294 349
#     4   9  18  32  51  78 110 143 181 228 287 350
#
# _framework density 19.542912999999999
#
# number of rings (size 3 to 8) (size 9 to 14) (size 15 to 20)
#    0.000    1.750    3.750    1.875    0.000    1.750 
#    0.000    0.625    0.000    1.875    0.000    0.000 
#    0.000    0.000    0.000    0.000    0.000    0.000 
#
# Total GULP energy -792961.443117 kJ/mol
# GULP energy per Si atom -12390.022549 kJ/mol
# Density = 1.949843 g / cm^3
# Si number density = 19.542913 Si / 1000 Ang^3
#
#
#
# Elastic Constant Matrix: (Units=GPa)
#
#
# Indices 1 2 3 4 5 6 
#
# 1 121.9878 41.3655 34.1808 0.0000 0.0000 0.0000
# 2 41.3655 106.5494 32.0860 0.0000 0.0000 0.0000
# 3 34.1808 32.0860 70.6785 0.0000 0.0000 0.0000
# 4 0.0000 0.0000 0.0000 13.0022 0.0000 0.0000
# 5 0.0000 0.0000 0.0000 0.0000 18.6290 0.0000
# 6 0.0000 0.0000 0.0000 0.0000 0.0000 21.9480
#
#
#
# Elastic Compliance Matrix: (Units=1/GPa)
#
#
# Indices 1 2 3 4 5 6 
#
# 1 0.010184 -0.002862 -0.003626 0.000000 0.000000 0.000000
# 2 -0.002862 0.011676 -0.003916 0.000000 0.000000 0.000000
# 3 -0.003626 -0.003916 0.017680 0.000000 0.000000 0.000000
# 4 0.000000 0.000000 0.000000 0.076910 0.000000 0.000000
# 5 0.000000 0.000000 0.000000 0.000000 0.053680 0.000000
# 6 0.000000 0.000000 0.000000 0.000000 0.000000 0.045562
#
#
# Mechanical properties :
#
#
# Convention : Reuss Voigt Hill
#
# Bulk Modulus (GPa) = 53.38617 57.16449 55.27533
# Shear Modulus (GPa) = 20.59782 23.48806 22.04294
#
# Velocity S-wave (km/s) = 3.25003 3.47056 3.36210
# Velocity P-wave (km/s) = 6.43897 6.73602 6.58917
#
# Compressibility (1/GPa) = 0.01873144
#
# Stress axis : x y z
#
# Youngs Moduli (GPa) = 98.19391 85.64770 56.56098
#
# Poissons Ratio (x) = 0.24511 0.20508
# Poissons Ratio (y) = 0.28101 0.22152
# Poissons Ratio (z) = 0.35604 0.33544
#
# Static dielectric constant tensor:
#      x y z
#    x 4.339810 0.000000 0.000000 
#    y 0.000000 154.385070 0.000000 
#    z 0.000000 0.000000 8.489630 
# 
# 
# High freq. dielectric constant tensor:
#      x y z
#    x 1.780740 0.000000 0.000000 
#    y 0.000000 1.758580 0.000000 
#    z 0.000000 0.000000 1.714380 
# 
# From -- ./inp_files/17204.got.cif
#   From: 2010.03.12/outbox.cif.g09.slc.cpg/sg59_9_cif.got.tgz:17204.got - 2010.04.16 16:29:54.
