data_PCOD8241507
_publ_section_title
;
Structure prediction by ZEFSAII (Michael W. Deem and Ramdas Pophale) SiO2 
 PCOD8241507
Probable space group: P M M N
;
_chemical_formula_sum "Si O2"
_cell_formula_units_Z 48
_cell_length_a 9.016765
_cell_length_b 20.828571
_cell_length_c 14.210680
_cell_angle_alpha 90.000000
_cell_angle_beta 90.000000
_cell_angle_gamma 90.000000
_cell_volume 2668.855658
_symmetry_space_group_name_H-M "P M M N"
_symmetry_group_IT_number 59
_space_group.IT_coordinate_system_code '2'
_symmetry_cell_setting 'orthorhombic'
loop_
_space_group_symop_operation_xyz
x,y,z
1/2-x,1/2-y,z
1/2+x,-y,-z
-x,1/2+y,-z
-x,-y,-z
1/2+x,1/2+y,-z
1/2-x,y,z
x,1/2-y,z
loop_
_atom_site_type_symbol
_atom_site_label
_atom_site_fract_x
_atom_site_fract_y
_atom_site_fract_z
Si Si1 0.575734 0.931095 0.896184
Si Si2 0.577123 0.619294 0.297525
Si Si3 0.925805 0.750000 0.390571
Si Si4 0.426017 0.997721 0.399554
Si Si5 0.927541 0.750000 0.604294
Si Si6 0.579161 0.936123 0.103659
Si Si7 0.425365 0.124768 0.292303
O O1 0.750000 0.939542 0.886571
O O2 0.521883 0.879896 0.817242
O O3 0.510414 0.000317 0.871454
O O4 0.529349 0.908062 0.001343
O O5 0.750000 0.609282 0.323404
O O6 0.516959 0.687286 0.335276
O O7 0.481157 0.564339 0.344755
O O8 0.552660 0.617042 0.184388
O O9 0.750000 0.750000 0.391654
O O10 0.987352 0.750000 0.497202
O O11 0.250000 0.995094 0.409608
O O12 0.500000 0.000000 0.500000
O O13 0.480212 0.061200 0.345366
O O14 0.750000 0.750000 0.604458
O O15 0.993285 0.812229 0.658097
O O16 0.750000 0.956665 0.098806
O O17 0.250000 0.130137 0.298771
#
# Coordination Sequence:
#
# PCOD8241507 Si02
#       7
#     8   8   4   8   4   8   8
#     4   9  16  29  47  71 100 127 157 200 251 299
#     4  10  19  33  51  74  99 131 171 208 250 302
#     4   9  18  32  50  68  98 137 171 207 252 305
#     4  11  21  33  50  74 100 129 165 214 257 297
#     4   9  16  28  45  66  92 129 167 199 240 295
#     4   9  17  28  47  73 100 127 159 200 249 300
#     4   9  17  29  47  70  96 125 162 200 243 293
#
# _framework density 17.985237999999999
#
# number of rings (size 3 to 8) (size 9 to 14) (size 15 to 20)
#    0.000    2.500    1.667    1.500    0.000    2.667 
#    0.000    1.250    0.000    5.000    0.000    4.667 
#    0.000    5.333    0.000    0.000    0.000    0.000 
#
# Total GULP energy -594955.021218 kJ/mol
# GULP energy per Si atom -12394.896275 kJ/mol
# Density = 1.794430 g / cm^3
# Si number density = 17.985238 Si / 1000 Ang^3
#
#
#
# Elastic Constant Matrix: (Units=GPa)
#
#
# Indices 1 2 3 4 5 6 
#
# 1 27.5565 22.3620 25.1319 0.0000 0.0000 0.0000
# 2 22.3620 148.8649 92.0222 0.0000 0.0000 0.0000
# 3 25.1319 92.0222 177.4919 0.0000 0.0000 0.0000
# 4 0.0000 0.0000 0.0000 35.1240 0.0000 0.0000
# 5 0.0000 0.0000 0.0000 0.0000 20.0919 0.0000
# 6 0.0000 0.0000 0.0000 0.0000 0.0000 19.4097
#
#
#
# Elastic Compliance Matrix: (Units=1/GPa)
#
#
# Indices 1 2 3 4 5 6 
#
# 1 0.043221 -0.003987 -0.004053 0.000000 0.000000 0.000000
# 2 -0.003987 0.010254 -0.004752 0.000000 0.000000 0.000000
# 3 -0.004053 -0.004752 0.008671 0.000000 0.000000 0.000000
# 4 0.000000 0.000000 0.000000 0.028471 0.000000 0.000000
# 5 0.000000 0.000000 0.000000 0.000000 0.049771 0.000000
# 6 0.000000 0.000000 0.000000 0.000000 0.000000 0.051521
#
#
# Mechanical properties :
#
#
# Convention : Reuss Voigt Hill
#
# Bulk Modulus (GPa) = 27.35012 70.32728 48.83870
# Shear Modulus (GPa) = 21.76956 29.21828 25.49392
#
# Velocity S-wave (km/s) = 3.48287 4.03497 3.76904
# Velocity P-wave (km/s) = 5.60481 7.80356 6.79373
#
# Compressibility (1/GPa) = 0.03656291
#
# Stress axis : x y z
#
# Youngs Moduli (GPa) = 23.13706 97.52614 115.32241
#
# Poissons Ratio (x) = 0.38887 0.46735
# Poissons Ratio (y) = 0.09226 0.54796
# Poissons Ratio (z) = 0.09376 0.46340
#
# Static dielectric constant tensor:
#      x y z
#    x 3.018760 0.000000 0.000000 
#    y 0.000000 3.501750 0.000000 
#    z 0.000000 0.000000 4.163940 
# 
# 
# High freq. dielectric constant tensor:
#      x y z
#    x 1.659030 0.000000 0.000000 
#    y 0.000000 1.677840 0.000000 
#    z 0.000000 0.000000 1.721370 
# 
# From -- ./inp_files/20547.got.cif
#   From: 2010.03.12/outbox.cif.g09.slc.cpg/sg59_11_cif.got.tgz:20547.got - 2010.04.16 16:29:54.
