data_PCOD8241946
_publ_section_title
;
Structure prediction by ZEFSAII (Michael W. Deem and Ramdas Pophale) SiO2 
 PCOD8241946
Probable space group: P M M N
;
_chemical_formula_sum "Si O2"
_cell_formula_units_Z 48
_cell_length_a 8.780187
_cell_length_b 15.339542
_cell_length_c 19.528729
_cell_angle_alpha 90.000000
_cell_angle_beta 90.000000
_cell_angle_gamma 90.000000
_cell_volume 2630.208259
_symmetry_space_group_name_H-M "P M M N"
_symmetry_group_IT_number 59
_space_group.IT_coordinate_system_code '2'
_symmetry_cell_setting 'orthorhombic'
loop_
_space_group_symop_operation_xyz
x,y,z
1/2-x,1/2-y,z
1/2+x,-y,-z
-x,1/2+y,-z
-x,-y,-z
1/2+x,1/2+y,-z
1/2-x,y,z
x,1/2-y,z
loop_
_atom_site_type_symbol
_atom_site_label
_atom_site_fract_x
_atom_site_fract_y
_atom_site_fract_z
Si Si1 0.069000 0.346089 0.576465
Si Si2 0.575287 0.850442 0.578331
Si Si3 0.579114 0.750000 0.072848
Si Si4 0.424057 0.750000 0.209541
Si Si5 0.075657 0.440932 0.943443
Si Si6 0.929440 0.494588 0.333191
Si Si7 0.068279 0.937845 0.204467
O O1 0.250000 0.345572 0.576706
O O2 0.009916 0.250000 0.601014
O O3 0.014283 0.363992 0.498927
O O4 0.004381 0.422293 0.624711
O O5 0.750000 0.881417 0.584968
O O6 0.559605 0.750000 0.600005
O O7 0.469940 0.906006 0.628356
O O8 0.750000 0.750000 0.106698
O O9 0.444805 0.750000 0.127839
O O10 0.560539 0.660001 0.030505
O O11 0.250000 0.750000 0.230008
O O12 0.493864 0.657041 0.233598
O O13 0.250000 0.468751 0.935739
O O14 0.997289 0.457315 0.870291
O O15 0.000000 0.500000 0.000000
O O16 0.750000 0.501450 0.323867
O O17 0.007900 0.491544 0.258548
O O18 0.250000 0.939706 0.199506
#
# Coordination Sequence:
#
# PCOD8241946 Si02
#       7
#     8   8   4   4   8   8   8
#     4   8  16  31  50  75 105 137 173 210 256 315
#     4   9  18  35  56  72  94 135 181 221 263 312
#     4   8  16  30  50  76 104 134 167 198 241 302
#     4   8  16  30  48  70 100 134 167 204 247 296
#     4  10  19  34  56  81 108 139 174 213 256 306
#     4  11  21  31  50  78 107 137 171 216 264 310
#     4  10  20  34  51  75 107 141 175 212 256 311
#
# _framework density 18.249504999999999
#
# number of rings (size 3 to 8) (size 9 to 14) (size 15 to 20)
#    0.000    2.667    0.000    3.000    1.167    1.667 
#    0.000    0.833    1.833    2.000    0.000    0.000 
#    0.000    0.000    0.000    0.000    0.000    0.000 
#
# Total GULP energy -594775.287148 kJ/mol
# GULP energy per Si atom -12391.151816 kJ/mol
# Density = 1.820797 g / cm^3
# Si number density = 18.249505 Si / 1000 Ang^3
#
#
#
# Elastic Constant Matrix: (Units=GPa)
#
#
# Indices 1 2 3 4 5 6 
#
# 1 66.0738 32.2584 37.8801 0.0000 0.0000 0.0000
# 2 32.2584 90.4971 58.6029 0.0000 0.0000 0.0000
# 3 37.8801 58.6029 100.2632 0.0000 0.0000 0.0000
# 4 0.0000 0.0000 0.0000 28.5911 0.0000 0.0000
# 5 0.0000 0.0000 0.0000 0.0000 25.3754 0.0000
# 6 0.0000 0.0000 0.0000 0.0000 0.0000 25.7599
#
#
#
# Elastic Compliance Matrix: (Units=1/GPa)
#
#
# Indices 1 2 3 4 5 6 
#
# 1 0.020023 -0.003602 -0.005460 0.000000 0.000000 0.000000
# 2 -0.003602 0.018428 -0.009410 0.000000 0.000000 0.000000
# 3 -0.005460 -0.009410 0.017536 0.000000 0.000000 0.000000
# 4 0.000000 0.000000 0.000000 0.034976 0.000000 0.000000
# 5 0.000000 0.000000 0.000000 0.000000 0.039408 0.000000
# 6 0.000000 0.000000 0.000000 0.000000 0.000000 0.038820
#
#
# Mechanical properties :
#
#
# Convention : Reuss Voigt Hill
#
# Bulk Modulus (GPa) = 52.50929 57.14631 54.82780
# Shear Modulus (GPa) = 23.53138 24.48478 24.00808
#
# Velocity S-wave (km/s) = 3.59475 3.66685 3.63098
# Velocity P-wave (km/s) = 6.78713 7.02208 6.90560
#
# Compressibility (1/GPa) = 0.01904425
#
# Stress axis : x y z
#
# Youngs Moduli (GPa) = 49.94233 54.26651 57.02423
#
# Poissons Ratio (x) = 0.19547 0.31133
# Poissons Ratio (y) = 0.17989 0.53659
# Poissons Ratio (z) = 0.27266 0.51064
#
# Static dielectric constant tensor:
#      x y z
#    x 3.197140 0.000000 0.000000 
#    y 0.000000 3.555090 0.000000 
#    z 0.000000 0.000000 3.143720 
# 
# 
# High freq. dielectric constant tensor:
#      x y z
#    x 1.697860 0.000000 0.000000 
#    y 0.000000 1.706860 0.000000 
#    z 0.000000 0.000000 1.685540 
# 
# From -- ./inp_files/25578.got.cif
#   From: 2010.03.12/outbox.cif.g09.slc.cpg/sg59_13_cif.got.tgz:25578.got - 2010.04.16 16:29:54.
