data_PCOD8241511
_publ_section_title
;
Structure prediction by ZEFSAII (Michael W. Deem and Ramdas Pophale) SiO2 
 PCOD8241511
Probable space group: P M M N
;
_chemical_formula_sum "Si O2"
_cell_formula_units_Z 64
_cell_length_a 9.118039
_cell_length_b 28.083572
_cell_length_c 15.332695
_cell_angle_alpha 90.000000
_cell_angle_beta 90.000000
_cell_angle_gamma 90.000000
_cell_volume 3926.198817
_symmetry_space_group_name_H-M "P M M N"
_symmetry_group_IT_number 59
_space_group.IT_coordinate_system_code '2'
_symmetry_cell_setting 'orthorhombic'
loop_
_space_group_symop_operation_xyz
x,y,z
1/2-x,1/2-y,z
1/2+x,-y,-z
-x,1/2+y,-z
-x,-y,-z
1/2+x,1/2+y,-z
1/2-x,y,z
x,1/2-y,z
loop_
_atom_site_type_symbol
_atom_site_label
_atom_site_fract_x
_atom_site_fract_y
_atom_site_fract_z
Si Si1 0.419193 0.048338 0.406274
Si Si2 0.411612 0.193590 0.008172
Si Si3 0.918487 0.195195 0.498826
Si Si4 0.919727 0.305881 0.176016
Si Si5 0.578040 0.848771 0.661443
Si Si6 0.076392 0.636277 0.333222
Si Si7 0.078841 0.045699 0.608076
Si Si8 0.921142 0.805223 0.186328
O O1 0.250000 0.033837 0.395280
O O2 0.459088 0.096090 0.354830
O O3 0.456689 0.056925 0.507445
O O4 0.518429 0.006380 0.366870
O O5 0.250000 0.173295 0.031655
O O6 0.402797 0.250000 0.005791
O O7 0.458666 0.176657 0.911625
O O8 0.527353 0.176505 0.080728
O O9 0.750000 0.183660 0.476333
O O10 0.939633 0.250000 0.524570
O O11 0.974235 0.164415 0.580367
O O12 0.013706 0.183978 0.414402
O O13 0.750000 0.318196 0.185670
O O14 0.950137 0.250000 0.189143
O O15 0.009143 0.334974 0.246931
O O16 0.750000 0.839381 0.664360
O O17 0.250000 0.631045 0.328845
O O18 0.003507 0.584362 0.333063
O O19 0.022001 0.664294 0.249293
O O20 0.250000 0.047727 0.629115
O O21 0.750000 0.813384 0.207250
O O22 0.962516 0.750000 0.198140
#
# Coordination Sequence:
#
# PCOD8241511 Si02
#       8
#     8   8   8   8   8   8   8   8
#     4   9  19  34  50  70  94 120 158 204 249 291
#     4   8  15  30  50  70  93 124 162 203 245 284
#     4  10  21  34  45  62  94 133 168 199 232 275
#     4  10  20  32  47  70 100 131 163 200 240 285
#     4  11  21  33  49  70  95 126 163 201 240 287
#     4  11  21  32  48  70  99 132 165 200 242 289
#     4  10  19  33  52  71  93 122 161 204 247 290
#     4   9  18  32  50  72  99 130 165 205 244 285
#
# _framework density 16.300751999999999
#
# number of rings (size 3 to 8) (size 9 to 14) (size 15 to 20)
#    0.000    2.250    1.250    3.000    0.000    5.750 
#    0.000    1.250    0.000    0.000    0.000    0.875 
#    0.000    0.000    0.000    0.000    0.000    0.000 
#
# Total GULP energy -793711.466044 kJ/mol
# GULP energy per Si atom -12401.741657 kJ/mol
# Density = 1.626365 g / cm^3
# Si number density = 16.300752 Si / 1000 Ang^3
#
#
#
# Elastic Constant Matrix: (Units=GPa)
#
#
# Indices 1 2 3 4 5 6 
#
# 1 77.5017 45.5316 41.1631 0.0000 0.0000 0.0000
# 2 45.5316 73.4663 36.2604 0.0000 0.0000 0.0000
# 3 41.1631 36.2604 86.1257 0.0000 0.0000 0.0000
# 4 0.0000 0.0000 0.0000 9.4036 0.0000 0.0000
# 5 0.0000 0.0000 0.0000 0.0000 29.7671 0.0000
# 6 0.0000 0.0000 0.0000 0.0000 0.0000 27.8807
#
#
#
# Elastic Compliance Matrix: (Units=1/GPa)
#
#
# Indices 1 2 3 4 5 6 
#
# 1 0.022643 -0.010972 -0.006203 0.000000 0.000000 0.000000
# 2 -0.010972 0.022499 -0.004228 0.000000 0.000000 0.000000
# 3 -0.006203 -0.004228 0.016356 0.000000 0.000000 0.000000
# 4 0.000000 0.000000 0.000000 0.106342 0.000000 0.000000
# 5 0.000000 0.000000 0.000000 0.000000 0.033594 0.000000
# 6 0.000000 0.000000 0.000000 0.000000 0.000000 0.035867
#
#
# Mechanical properties :
#
#
# Convention : Reuss Voigt Hill
#
# Bulk Modulus (GPa) = 53.50042 53.66710 53.58376
# Shear Modulus (GPa) = 17.46189 21.01953 19.24071
#
# Velocity S-wave (km/s) = 3.27652 3.59483 3.43936
# Velocity P-wave (km/s) = 6.87068 7.08696 6.97965
#
# Compressibility (1/GPa) = 0.01869144
#
# Stress axis : x y z
#
# Youngs Moduli (GPa) = 44.16308 44.44707 61.14072
#
# Poissons Ratio (x) = 0.48767 0.37924
# Poissons Ratio (y) = 0.48456 0.25852
# Poissons Ratio (z) = 0.27393 0.18794
#
# Static dielectric constant tensor:
#      x y z
#    x 3.149880 0.000000 0.000000 
#    y 0.000000 2.945660 0.000000 
#    z 0.000000 0.000000 3.074330 
# 
# 
# High freq. dielectric constant tensor:
#      x y z
#    x 1.637000 0.000000 0.000000 
#    y 0.000000 1.607400 0.000000 
#    z 0.000000 0.000000 1.614900 
# 
# From -- ./inp_files/21963.got.cif
#   From: 2010.03.12/outbox.cif.g09.slc.cpg/sg59_11_cif.got.tgz:21963.got - 2010.04.16 16:29:54.
