data_PCOD8241101
_publ_section_title
;
Structure prediction by ZEFSAII (Michael W. Deem and Ramdas Pophale) SiO2 
 PCOD8241101
Probable space group: P M M N
;
_chemical_formula_sum "Si O2"
_cell_formula_units_Z 64
_cell_length_a 29.530576
_cell_length_b 8.949927
_cell_length_c 14.850199
_cell_angle_alpha 90.000000
_cell_angle_beta 90.000000
_cell_angle_gamma 90.000000
_cell_volume 3924.855612
_symmetry_space_group_name_H-M "P M M N"
_symmetry_group_IT_number 59
_space_group.IT_coordinate_system_code '2'
_symmetry_cell_setting 'orthorhombic'
loop_
_space_group_symop_operation_xyz
x,y,z
1/2-x,1/2-y,z
1/2+x,-y,-z
-x,1/2+y,-z
-x,-y,-z
1/2+x,1/2+y,-z
1/2-x,y,z
x,1/2-y,z
loop_
_atom_site_type_symbol
_atom_site_label
_atom_site_fract_x
_atom_site_fract_y
_atom_site_fract_z
Si Si1 0.940170 0.576546 0.146736
Si Si2 0.198764 0.079841 0.782327
Si Si3 0.895962 0.574055 0.956617
Si Si4 0.799173 0.572943 0.014627
Si Si5 0.527485 0.576316 0.629350
Si Si6 0.437961 0.422745 0.562355
Si Si7 0.042496 0.924914 0.188836
Si Si8 0.381877 0.925497 0.700008
O O1 0.931562 0.750000 0.167035
O O2 0.915841 0.482445 0.223414
O O3 0.993357 0.537197 0.147346
O O4 0.919522 0.531406 0.050684
O O5 0.250000 0.071335 0.747340
O O6 0.180608 0.250000 0.778448
O O7 0.194726 0.015527 0.883443
O O8 0.169204 0.975575 0.718469
O O9 0.900933 0.750000 0.937204
O O10 0.919259 0.480009 0.878989
O O11 0.842891 0.522901 0.956978
O O12 0.750000 0.514915 0.976248
O O13 0.797576 0.750000 0.019060
O O14 0.515632 0.750000 0.642434
O O15 0.481839 0.487092 0.611713
O O16 0.561168 0.552424 0.544993
O O17 0.551127 0.511228 0.717861
O O18 0.435445 0.250000 0.587950
O O19 0.394715 0.507202 0.602628
O O20 0.048359 0.750000 0.206033
O O21 0.385058 0.750000 0.694996
#
# Coordination Sequence:
#
# PCOD8241101 Si02
#       8
#     8   8   8   8   8   8   8   8
#     4  10  20  34  48  66  96 137 176 207 241 286
#     4   9  17  32  53  72  96 132 169 205 248 298
#     4  10  19  32  50  69  96 132 171 211 244 291
#     4   8  14  27  49  73  93 121 163 207 249 290
#     4  10  20  34  52  74  96 124 164 207 248 287
#     4  10  20  34  52  72  98 128 162 202 244 296
#     4  11  22  33  48  69 100 137 170 207 248 295
#     4  12  22  30  48  75 104 135 166 204 246 297
#
# _framework density 16.306332000000001
#
# number of rings (size 3 to 8) (size 9 to 14) (size 15 to 20)
#    0.000    2.000    2.500    3.375    0.000    2.750 
#    0.000    0.000    0.000    0.375    0.000    0.875 
#    0.000    3.000    0.000    0.000    0.000    0.000 
#
# Total GULP energy -793538.684551 kJ/mol
# GULP energy per Si atom -12399.041946 kJ/mol
# Density = 1.626922 g / cm^3
# Si number density = 16.306332 Si / 1000 Ang^3
#
#
#
# Elastic Constant Matrix: (Units=GPa)
#
#
# Indices 1 2 3 4 5 6 
#
# 1 111.4612 41.1363 49.0992 0.0000 0.0000 0.0000
# 2 41.1363 85.0513 41.9984 0.0000 0.0000 0.0000
# 3 49.0992 41.9984 81.5922 0.0000 0.0000 0.0000
# 4 0.0000 0.0000 0.0000 23.7837 0.0000 0.0000
# 5 0.0000 0.0000 0.0000 0.0000 18.6212 0.0000
# 6 0.0000 0.0000 0.0000 0.0000 0.0000 23.0858
#
#
#
# Elastic Compliance Matrix: (Units=1/GPa)
#
#
# Indices 1 2 3 4 5 6 
#
# 1 0.012829 -0.003208 -0.006069 0.000000 0.000000 0.000000
# 2 -0.003208 0.016567 -0.006597 0.000000 0.000000 0.000000
# 3 -0.006069 -0.006597 0.019304 0.000000 0.000000 0.000000
# 4 0.000000 0.000000 0.000000 0.042046 0.000000 0.000000
# 5 0.000000 0.000000 0.000000 0.000000 0.053702 0.000000
# 6 0.000000 0.000000 0.000000 0.000000 0.000000 0.043317
#
#
# Mechanical properties :
#
#
# Convention : Reuss Voigt Hill
#
# Bulk Modulus (GPa) = 58.99051 60.28584 59.63818
# Shear Modulus (GPa) = 22.20618 22.82286 22.51452
#
# Velocity S-wave (km/s) = 3.69428 3.74522 3.71984
# Velocity P-wave (km/s) = 7.37915 7.46682 7.42311
#
# Compressibility (1/GPa) = 0.01695188
#
# Stress axis : x y z
#
# Youngs Moduli (GPa) = 77.94809 60.36129 51.80367
#
# Poissons Ratio (x) = 0.19365 0.31438
# Poissons Ratio (y) = 0.25008 0.34175
# Poissons Ratio (z) = 0.47304 0.39820
#
# Static dielectric constant tensor:
#      x y z
#    x 3.288730 0.000000 0.000000 
#    y 0.000000 3.003470 0.000000 
#    z 0.000000 0.000000 3.065140 
# 
# 
# High freq. dielectric constant tensor:
#      x y z
#    x 1.618710 0.000000 0.000000 
#    y 0.000000 1.623320 0.000000 
#    z 0.000000 0.000000 1.608890 
# 
# From -- ./inp_files/25004.got.cif
#   From: 2010.03.12/outbox.cif.g09.slc.cpg/sg59_13_cif.got.tgz:25004.got - 2010.04.16 16:29:54.
