data_PCOD8241769
_publ_section_title
;
Structure prediction by ZEFSAII (Michael W. Deem and Ramdas Pophale) SiO2 
 PCOD8241769
Probable space group: P M M N
;
_chemical_formula_sum "Si O2"
_cell_formula_units_Z 56
_cell_length_a 19.251565
_cell_length_b 8.945408
_cell_length_c 17.271534
_cell_angle_alpha 90.000000
_cell_angle_beta 90.000000
_cell_angle_gamma 90.000000
_cell_volume 2974.384473
_symmetry_space_group_name_H-M "P M M N"
_symmetry_group_IT_number 59
_space_group.IT_coordinate_system_code '2'
_symmetry_cell_setting 'orthorhombic'
loop_
_space_group_symop_operation_xyz
x,y,z
1/2-x,1/2-y,z
1/2+x,-y,-z
-x,1/2+y,-z
-x,-y,-z
1/2+x,1/2+y,-z
1/2-x,y,z
x,1/2-y,z
loop_
_atom_site_type_symbol
_atom_site_label
_atom_site_fract_x
_atom_site_fract_y
_atom_site_fract_z
Si Si1 0.053692 0.423223 0.608843
Si Si2 0.329524 0.921141 0.313477
Si Si3 0.905997 0.079729 0.537105
Si Si4 0.330607 0.075923 0.888841
Si Si5 0.087697 0.423840 0.184312
Si Si6 0.329616 0.925588 0.048420
Si Si7 0.567496 0.074843 0.228910
O O1 0.066311 0.250000 0.626414
O O2 0.102714 0.474048 0.537467
O O3 0.072788 0.516738 0.684009
O O4 0.974825 0.459425 0.585856
O O5 0.250000 0.954218 0.293893
O O6 0.349277 0.750000 0.292064
O O7 0.341872 0.948318 0.404887
O O8 0.376363 0.033548 0.264835
O O9 0.909037 0.250000 0.507520
O O10 0.250000 0.043971 0.872504
O O11 0.347239 0.250000 0.894063
O O12 0.372960 0.004891 0.819322
O O13 0.353928 0.002500 0.969400
O O14 0.100314 0.250000 0.167662
O O15 0.120313 0.520044 0.115927
O O16 0.006593 0.462943 0.190535
O O17 0.250000 0.968311 0.068836
O O18 0.338330 0.750000 0.038108
O O19 0.581600 0.250000 0.229476
#
# Coordination Sequence:
#
# PCOD8241769 Si02
#       7
#     8   8   8   8   8   8   8
#     4  10  19  33  56  81 107 143 186 233 282 329
#     4  10  20  35  55  80 113 152 191 232 283 340
#     4   9  18  33  53  78 108 144 186 231 280 335
#     4  10  22  41  64  87 111 142 183 233 288 341
#     4  11  23  36  54  83 117 151 191 234 278 329
#     4  10  21  38  60  84 113 152 193 230 276 337
#     4  11  23  38  58  85 116 150 189 232 281 338
#
# _framework density 18.827424000000001
#
# number of rings (size 3 to 8) (size 9 to 14) (size 15 to 20)
#    0.000    1.857    1.429    2.571    0.000    7.143 
#    0.000    0.714    0.000    2.571    0.000    0.000 
#    0.000    0.000    0.000    0.000    0.000    0.000 
#
# Total GULP energy -694630.833562 kJ/mol
# GULP energy per Si atom -12404.122028 kJ/mol
# Density = 1.878457 g / cm^3
# Si number density = 18.827424 Si / 1000 Ang^3
#
#
#
# Elastic Constant Matrix: (Units=GPa)
#
#
# Indices 1 2 3 4 5 6 
#
# 1 60.0539 42.0050 43.6877 0.0000 0.0000 0.0000
# 2 42.0050 82.1916 51.1772 0.0000 0.0000 0.0000
# 3 43.6877 51.1772 114.3564 0.0000 0.0000 0.0000
# 4 0.0000 0.0000 0.0000 42.4853 0.0000 0.0000
# 5 0.0000 0.0000 0.0000 0.0000 23.7160 0.0000
# 6 0.0000 0.0000 0.0000 0.0000 0.0000 25.7234
#
#
#
# Elastic Compliance Matrix: (Units=1/GPa)
#
#
# Indices 1 2 3 4 5 6 
#
# 1 0.028686 -0.010864 -0.006097 0.000000 0.000000 0.000000
# 2 -0.010864 0.020981 -0.005239 0.000000 0.000000 0.000000
# 3 -0.006097 -0.005239 0.013419 0.000000 0.000000 0.000000
# 4 0.000000 0.000000 0.000000 0.023538 0.000000 0.000000
# 5 0.000000 0.000000 0.000000 0.000000 0.042166 0.000000
# 6 0.000000 0.000000 0.000000 0.000000 0.000000 0.038875
#
#
# Mechanical properties :
#
#
# Convention : Reuss Voigt Hill
#
# Bulk Modulus (GPa) = 53.51821 58.92685 56.22253
# Shear Modulus (GPa) = 22.90503 26.36705 24.63604
#
# Velocity S-wave (km/s) = 3.49173 3.74633 3.62127
# Velocity P-wave (km/s) = 6.68907 7.07670 6.88561
#
# Compressibility (1/GPa) = 0.01868523
#
# Stress axis : x y z
#
# Youngs Moduli (GPa) = 34.86021 47.66216 74.52386
#
# Poissons Ratio (x) = 0.51780 0.45438
# Poissons Ratio (y) = 0.37872 0.39044
# Poissons Ratio (z) = 0.21255 0.24971
#
# Static dielectric constant tensor:
#      x y z
#    x 3.403680 0.000000 0.000000 
#    y 0.000000 3.558870 0.000000 
#    z 0.000000 0.000000 3.484620 
# 
# 
# High freq. dielectric constant tensor:
#      x y z
#    x 1.715890 0.000000 0.000000 
#    y 0.000000 1.741190 0.000000 
#    z 0.000000 0.000000 1.739270 
# 
# From -- ./inp_files/24245.got.cif
#   From: 2010.03.12/outbox.cif.g09.slc.cpg/sg59_13_cif.got.tgz:24245.got - 2010.04.16 16:29:54.
