data_PCOD8241490
_publ_section_title
;
Structure prediction by ZEFSAII (Michael W. Deem and Ramdas Pophale) SiO2 
 PCOD8241490
Probable space group: P M M N
;
_chemical_formula_sum "Si O2"
_cell_formula_units_Z 64
_cell_length_a 9.134649
_cell_length_b 28.036244
_cell_length_c 15.367212
_cell_angle_alpha 90.000000
_cell_angle_beta 90.000000
_cell_angle_gamma 90.000000
_cell_volume 3935.562175
_symmetry_space_group_name_H-M "P M M N"
_symmetry_group_IT_number 59
_space_group.IT_coordinate_system_code '2'
_symmetry_cell_setting 'orthorhombic'
loop_
_space_group_symop_operation_xyz
x,y,z
1/2-x,1/2-y,z
1/2+x,-y,-z
-x,1/2+y,-z
-x,-y,-z
1/2+x,1/2+y,-z
1/2-x,y,z
x,1/2-y,z
loop_
_atom_site_type_symbol
_atom_site_label
_atom_site_fract_x
_atom_site_fract_y
_atom_site_fract_z
Si Si1 0.082897 0.453088 0.905378
Si Si2 0.078352 0.805203 0.326957
Si Si3 0.417345 0.194061 0.013124
Si Si4 0.420660 0.695065 0.668140
Si Si5 0.420123 0.047147 0.106239
Si Si6 0.418642 0.350749 0.831663
Si Si7 0.584805 0.693302 0.498107
Si Si8 0.922708 0.137760 0.161183
O O1 0.250000 0.470489 0.897621
O O2 0.053301 0.406434 0.848603
O O3 0.979227 0.494778 0.869638
O O4 0.047040 0.440931 0.005541
O O5 0.250000 0.812526 0.338321
O O6 0.037776 0.750000 0.311319
O O7 0.022788 0.835586 0.246111
O O8 0.001180 0.825417 0.413620
O O9 0.250000 0.177631 0.030662
O O10 0.436894 0.250000 0.025535
O O11 0.523009 0.167841 0.079372
O O12 0.462943 0.180009 0.915720
O O13 0.250000 0.689617 0.647790
O O14 0.461691 0.750000 0.686679
O O15 0.507459 0.674208 0.585384
O O16 0.469391 0.664968 0.751497
O O17 0.250000 0.049230 0.128829
O O18 0.503654 0.085904 0.164381
O O19 0.250000 0.340955 0.806644
O O20 0.750000 0.673725 0.494885
O O21 0.580233 0.750000 0.499101
O O22 0.750000 0.131835 0.153583
#
# Coordination Sequence:
#
# PCOD8241490 Si02
#       8
#     8   8   8   8   8   8   8   8
#     4   9  18  33  51  70  93 122 160 204 250 291
#     4  10  20  32  47  70 100 131 163 200 240 284
#     4  10  20  33  47  65  95 133 168 201 238 280
#     4   9  18  32  48  68  97 130 162 199 241 283
#     4  10  19  33  51  70  94 123 161 205 249 290
#     4  10  19  33  50  69  95 128 164 201 241 287
#     4   9  17  30  49  71  93 122 161 202 243 285
#     4  11  21  32  48  70  98 131 166 200 240 289
#
# _framework density 16.261970999999999
#
# number of rings (size 3 to 8) (size 9 to 14) (size 15 to 20)
#    0.000    2.250    1.250    2.250    0.000    6.000 
#    0.000    1.250    0.000    0.000    0.000    0.875 
#    0.000    0.000    0.000    0.000    0.000    0.000 
#
# Total GULP energy -793803.461660 kJ/mol
# GULP energy per Si atom -12403.179088 kJ/mol
# Density = 1.622496 g / cm^3
# Si number density = 16.261971 Si / 1000 Ang^3
#
#
#
# Elastic Constant Matrix: (Units=GPa)
#
#
# Indices 1 2 3 4 5 6 
#
# 1 83.0924 40.0870 50.5747 0.0000 0.0000 0.0000
# 2 40.0870 66.4167 38.4996 0.0000 0.0000 0.0000
# 3 50.5747 38.4996 89.4347 0.0000 0.0000 0.0000
# 4 0.0000 0.0000 0.0000 7.4034 0.0000 0.0000
# 5 0.0000 0.0000 0.0000 0.0000 31.0319 0.0000
# 6 0.0000 0.0000 0.0000 0.0000 0.0000 27.2329
#
#
#
# Elastic Compliance Matrix: (Units=1/GPa)
#
#
# Indices 1 2 3 4 5 6 
#
# 1 0.020937 -0.007694 -0.008528 0.000000 0.000000 0.000000
# 2 -0.007694 0.022890 -0.005503 0.000000 0.000000 0.000000
# 3 -0.008528 -0.005503 0.018373 0.000000 0.000000 0.000000
# 4 0.000000 0.000000 0.000000 0.135073 0.000000 0.000000
# 5 0.000000 0.000000 0.000000 0.000000 0.032225 0.000000
# 6 0.000000 0.000000 0.000000 0.000000 0.000000 0.036720
#
#
# Mechanical properties :
#
#
# Convention : Reuss Voigt Hill
#
# Bulk Modulus (GPa) = 53.33075 55.25182 54.29128
# Shear Modulus (GPa) = 15.82697 20.45246 18.13971
#
# Velocity S-wave (km/s) = 3.12308 3.55023 3.34349
# Velocity P-wave (km/s) = 6.77280 7.13130 6.95436
#
# Compressibility (1/GPa) = 0.01875091
#
# Stress axis : x y z
#
# Youngs Moduli (GPa) = 47.76240 43.68728 54.42878
#
# Poissons Ratio (x) = 0.33611 0.46416
# Poissons Ratio (y) = 0.36747 0.29952
# Poissons Ratio (z) = 0.40731 0.24041
#
# Static dielectric constant tensor:
#      x y z
#    x 3.140600 0.000000 0.000000 
#    y 0.000000 2.964520 0.000000 
#    z 0.000000 0.000000 3.011920 
# 
# 
# High freq. dielectric constant tensor:
#      x y z
#    x 1.634930 0.000000 0.000000 
#    y 0.000000 1.606280 0.000000 
#    z 0.000000 0.000000 1.613110 
# 
# From -- ./inp_files/21862.got.cif
#   From: 2010.03.12/outbox.cif.g09.slc.cpg/sg59_11_cif.got.tgz:21862.got - 2010.04.16 16:29:54.
