data_PCOD8241854
_publ_section_title
;
Structure prediction by ZEFSAII (Michael W. Deem and Ramdas Pophale) SiO2 
 PCOD8241854
Probable space group: P M M N
;
_chemical_formula_sum "Si O2"
_cell_formula_units_Z 48
_cell_length_a 14.747186
_cell_length_b 9.021181
_cell_length_c 19.814682
_cell_angle_alpha 90.000000
_cell_angle_beta 90.000000
_cell_angle_gamma 90.000000
_cell_volume 2636.086526
_symmetry_space_group_name_H-M "P M M N"
_symmetry_group_IT_number 59
_space_group.IT_coordinate_system_code '2'
_symmetry_cell_setting 'orthorhombic'
loop_
_space_group_symop_operation_xyz
x,y,z
1/2-x,1/2-y,z
1/2+x,-y,-z
-x,1/2+y,-z
-x,-y,-z
1/2+x,1/2+y,-z
1/2-x,y,z
x,1/2-y,z
loop_
_atom_site_type_symbol
_atom_site_label
_atom_site_fract_x
_atom_site_fract_y
_atom_site_fract_z
Si Si1 0.648337 0.424609 0.416460
Si Si2 0.750000 0.425266 0.022398
Si Si3 0.354126 0.423449 0.446697
Si Si4 0.945794 0.075720 0.059742
Si Si5 0.070005 0.074702 0.183755
Si Si6 0.016105 0.425283 0.330182
Si Si7 0.250000 0.926543 0.131347
O O1 0.750000 0.478327 0.398932
O O2 0.644048 0.250000 0.427621
O O3 0.612575 0.497638 0.485235
O O4 0.584014 0.474307 0.354717
O O5 0.750000 0.250000 0.022139
O O6 0.658766 0.482120 0.059979
O O7 0.750000 0.483671 0.945652
O O8 0.250000 0.461035 0.431656
O O9 0.371040 0.250000 0.456582
O O10 0.410450 0.486914 0.383468
O O11 0.948923 0.250000 0.046089
O O12 0.991426 0.033677 0.130599
O O13 0.000000 0.000000 0.000000
O O14 0.089597 0.250000 0.184343
O O15 0.035276 0.012666 0.255670
O O16 0.161861 0.989790 0.167647
O O17 0.023658 0.250000 0.327158
O O18 0.250000 0.750000 0.136251
#
# Coordination Sequence:
#
# PCOD8241854 Si02
#       7
#     8   4   8   8   8   8   4
#     4   9  17  31  50  71  98 128 163 209 254 292
#     4   9  18  33  53  75 103 134 163 206 260 301
#     4   9  17  29  48  71  94 126 166 204 248 298
#     4  10  19  34  54  77 103 134 172 212 253 300
#     4  10  21  35  54  78 104 135 175 212 246 305
#     4   9  18  32  49  72 100 132 165 203 251 297
#     4  11  21  35  55  77 107 138 163 204 266 313
#
# _framework density 18.20881
#
# number of rings (size 3 to 8) (size 9 to 14) (size 15 to 20)
#    0.000    2.500    1.667    0.750    1.167    0.000 
#    1.500    2.083    0.000    0.000    0.000    0.000 
#    0.000    0.000    0.000    0.000    0.000    0.000 
#
# Total GULP energy -595111.585387 kJ/mol
# GULP energy per Si atom -12398.158029 kJ/mol
# Density = 1.816737 g / cm^3
# Si number density = 18.208810 Si / 1000 Ang^3
#
#
#
# Elastic Constant Matrix: (Units=GPa)
#
#
# Indices 1 2 3 4 5 6 
#
# 1 162.8000 30.0648 101.3601 0.0000 0.0000 0.0000
# 2 30.0648 26.2038 34.2674 0.0000 0.0000 0.0000
# 3 101.3601 34.2674 166.4135 0.0000 0.0000 0.0000
# 4 0.0000 0.0000 0.0000 23.1500 0.0000 0.0000
# 5 0.0000 0.0000 0.0000 0.0000 27.7914 0.0000
# 6 0.0000 0.0000 0.0000 0.0000 0.0000 17.9607
#
#
#
# Elastic Compliance Matrix: (Units=1/GPa)
#
#
# Indices 1 2 3 4 5 6 
#
# 1 0.010347 -0.004968 -0.005279 0.000000 0.000000 0.000000
# 2 -0.004968 0.054611 -0.008220 0.000000 0.000000 0.000000
# 3 -0.005279 -0.008220 0.010917 0.000000 0.000000 0.000000
# 4 0.000000 0.000000 0.000000 0.043197 0.000000 0.000000
# 5 0.000000 0.000000 0.000000 0.000000 0.035982 0.000000
# 6 0.000000 0.000000 0.000000 0.000000 0.000000 0.055677
#
#
# Mechanical properties :
#
#
# Convention : Reuss Voigt Hill
#
# Bulk Modulus (GPa) = 25.67913 76.31132 50.99522
# Shear Modulus (GPa) = 19.18324 26.42877 22.80600
#
# Velocity S-wave (km/s) = 3.24931 3.81389 3.54287
# Velocity P-wave (km/s) = 5.31136 7.83546 6.69346
#
# Compressibility (1/GPa) = 0.03894213
#
# Stress axis : x y z
#
# Youngs Moduli (GPa) = 96.64932 18.31132 91.59931
#
# Poissons Ratio (x) = 0.09096 0.48356
# Poissons Ratio (y) = 0.48012 0.75291
# Poissons Ratio (z) = 0.51022 0.15051
#
# Static dielectric constant tensor:
#      x y z
#    x 3.492230 0.000000 0.000000 
#    y 0.000000 3.071890 0.000000 
#    z 0.000000 0.000000 3.616340 
# 
# 
# High freq. dielectric constant tensor:
#      x y z
#    x 1.722200 0.000000 0.000000 
#    y 0.000000 1.672440 0.000000 
#    z 0.000000 0.000000 1.703230 
# 
# From -- ./inp_files/27411.got.cif
#   From: 2010.03.12/outbox.cif.g09.slc.cpg/sg59_14_cif.got.tgz:27411.got - 2010.04.16 16:29:54.
