data_PCOD8241710
_publ_section_title
;
Structure prediction by ZEFSAII (Michael W. Deem and Ramdas Pophale) SiO2 
 PCOD8241710
Probable space group: P M M N
;
_chemical_formula_sum "Si O2"
_cell_formula_units_Z 56
_cell_length_a 19.404671
_cell_length_b 9.115880
_cell_length_c 17.108624
_cell_angle_alpha 90.000000
_cell_angle_beta 90.000000
_cell_angle_gamma 90.000000
_cell_volume 3026.355659
_symmetry_space_group_name_H-M "P M M N"
_symmetry_group_IT_number 59
_space_group.IT_coordinate_system_code '2'
_symmetry_cell_setting 'orthorhombic'
loop_
_space_group_symop_operation_xyz
x,y,z
1/2-x,1/2-y,z
1/2+x,-y,-z
-x,1/2+y,-z
-x,-y,-z
1/2+x,1/2+y,-z
1/2-x,y,z
x,1/2-y,z
loop_
_atom_site_type_symbol
_atom_site_label
_atom_site_fract_x
_atom_site_fract_y
_atom_site_fract_z
Si Si1 0.051360 0.419922 0.897808
Si Si2 0.670371 0.082802 0.375394
Si Si3 0.670872 0.081605 0.556605
Si Si4 0.671440 0.581379 0.827053
Si Si5 0.581537 0.923857 0.681046
Si Si6 0.400524 0.920631 0.041482
Si Si7 0.057631 0.422804 0.719358
O O1 0.067068 0.250000 0.911651
O O2 0.066115 0.469000 0.809591
O O3 0.972419 0.457873 0.916623
O O4 0.101412 0.510714 0.954845
O O5 0.750000 0.050532 0.357635
O O6 0.651894 0.250000 0.352624
O O7 0.654033 0.056225 0.466033
O O8 0.626617 0.969827 0.324575
O O9 0.750000 0.040721 0.574314
O O10 0.656695 0.250000 0.580115
O O11 0.621635 0.974726 0.604290
O O12 0.750000 0.559926 0.800198
O O13 0.654612 0.750000 0.845476
O O14 0.623390 0.522470 0.757252
O O15 0.659167 0.489920 0.905721
O O16 0.574119 0.750000 0.678693
O O17 0.506546 0.995210 0.680604
O O18 0.386370 0.750000 0.033364
O O19 0.045659 0.250000 0.711221
#
# Coordination Sequence:
#
# PCOD8241710 Si02
#       7
#     8   8   8   8   8   8   8
#     4   9  19  35  54  78 109 141 178 223 272 325
#     4   9  20  40  62  83 109 143 184 230 283 338
#     4   9  19  37  59  81 110 149 188 229 279 332
#     4  10  21  36  53  77 113 152 186 226 278 330
#     4  11  22  35  55  83 115 149 189 231 276 330
#     4  10  19  33  55  80 105 139 184 226 268 321
#     4  11  22  37  58  85 115 145 184 231 280 333
#
# _framework density 18.504103000000001
#
# number of rings (size 3 to 8) (size 9 to 14) (size 15 to 20)
#    0.000    2.143    1.429    2.571    0.000    4.857 
#    0.000    2.143    0.000    0.857    0.000    0.000 
#    0.000    0.000    0.000    0.000    0.000    0.000 
#
# Total GULP energy -694636.675078 kJ/mol
# GULP energy per Si atom -12404.226341 kJ/mol
# Density = 1.846199 g / cm^3
# Si number density = 18.504103 Si / 1000 Ang^3
#
#
#
# Elastic Constant Matrix: (Units=GPa)
#
#
# Indices 1 2 3 4 5 6 
#
# 1 81.2281 42.4355 53.1934 0.0000 0.0000 0.0000
# 2 42.4355 77.9126 52.1539 0.0000 0.0000 0.0000
# 3 53.1934 52.1539 107.2057 0.0000 0.0000 0.0000
# 4 0.0000 0.0000 0.0000 33.2231 0.0000 0.0000
# 5 0.0000 0.0000 0.0000 0.0000 30.8814 0.0000
# 6 0.0000 0.0000 0.0000 0.0000 0.0000 31.0535
#
#
#
# Elastic Compliance Matrix: (Units=1/GPa)
#
#
# Indices 1 2 3 4 5 6 
#
# 1 0.020155 -0.006352 -0.006910 0.000000 0.000000 0.000000
# 2 -0.006352 0.021035 -0.007081 0.000000 0.000000 0.000000
# 3 -0.006910 -0.007081 0.016202 0.000000 0.000000 0.000000
# 4 0.000000 0.000000 0.000000 0.030100 0.000000 0.000000
# 5 0.000000 0.000000 0.000000 0.000000 0.032382 0.000000
# 6 0.000000 0.000000 0.000000 0.000000 0.000000 0.032202
#
#
# Mechanical properties :
#
#
# Convention : Reuss Voigt Hill
#
# Bulk Modulus (GPa) = 59.86583 62.43466 61.15025
# Shear Modulus (GPa) = 25.21055 26.93585 26.07320
#
# Velocity S-wave (km/s) = 3.69512 3.81946 3.75780
# Velocity P-wave (km/s) = 7.11535 7.29831 7.20741
#
# Compressibility (1/GPa) = 0.01670402
#
# Stress axis : x y z
#
# Youngs Moduli (GPa) = 49.61650 47.54071 61.72196
#
# Poissons Ratio (x) = 0.30196 0.42652
# Poissons Ratio (y) = 0.31514 0.43708
# Poissons Ratio (z) = 0.34287 0.33666
#
# Static dielectric constant tensor:
#      x y z
#    x 3.235000 0.000000 0.000000 
#    y 0.000000 3.340810 0.000000 
#    z 0.000000 0.000000 3.416270 
# 
# 
# High freq. dielectric constant tensor:
#      x y z
#    x 1.706120 0.000000 0.000000 
#    y 0.000000 1.720170 0.000000 
#    z 0.000000 0.000000 1.721490 
# 
# From -- ./inp_files/20985.got.cif
#   From: 2010.03.12/outbox.cif.g09.slc.cpg/sg59_11_cif.got.tgz:20985.got - 2010.04.16 16:29:54.
