data_PCOD8241515
_publ_section_title
;
Structure prediction by ZEFSAII (Michael W. Deem and Ramdas Pophale) SiO2 
 PCOD8241515
Probable space group: P M M N
;
_chemical_formula_sum "Si O2"
_cell_formula_units_Z 64
_cell_length_a 19.425959
_cell_length_b 9.728514
_cell_length_c 19.315928
_cell_angle_alpha 90.000000
_cell_angle_beta 90.000000
_cell_angle_gamma 90.000000
_cell_volume 3650.434446
_symmetry_space_group_name_H-M "P M M N"
_symmetry_group_IT_number 59
_space_group.IT_coordinate_system_code '2'
_symmetry_cell_setting 'orthorhombic'
loop_
_space_group_symop_operation_xyz
x,y,z
1/2-x,1/2-y,z
1/2+x,-y,-z
-x,1/2+y,-z
-x,-y,-z
1/2+x,1/2+y,-z
1/2-x,y,z
x,1/2-y,z
loop_
_atom_site_type_symbol
_atom_site_label
_atom_site_fract_x
_atom_site_fract_y
_atom_site_fract_z
Si Si1 0.537543 0.588991 0.205559
Si Si2 0.671585 0.407698 0.414200
Si Si3 0.059664 0.904389 0.476646
Si Si4 0.673761 0.404460 0.889032
Si Si5 0.671297 0.911174 0.282026
Si Si6 0.473287 0.908698 0.061836
Si Si7 0.575157 0.093258 0.685227
Si Si8 0.171460 0.096912 0.240074
O O1 0.532768 0.750000 0.198252
O O2 0.617164 0.545504 0.221279
O O3 0.506951 0.530623 0.133172
O O4 0.490954 0.542118 0.270701
O O5 0.750000 0.433733 0.435338
O O6 0.659336 0.250000 0.391051
O O7 0.629016 0.446754 0.482879
O O8 0.650677 0.505214 0.350510
O O9 0.039781 0.750000 0.496786
O O10 0.064320 0.921227 0.395354
O O11 0.000000 0.000000 0.500000
O O12 0.750000 0.426360 0.923779
O O13 0.670108 0.250000 0.857048
O O14 0.610068 0.422584 0.941244
O O15 0.661388 0.516946 0.831073
O O16 0.750000 0.944780 0.258277
O O17 0.663149 0.750000 0.299403
O O18 0.494951 0.750000 0.050754
O O19 0.500000 0.000000 0.000000
O O20 0.594363 0.250000 0.705335
O O21 0.636873 0.989893 0.699667
O O22 0.250000 0.108736 0.261399
O O23 0.139376 0.250000 0.232831
#
# Coordination Sequence:
#
# PCOD8241515 Si02
#       8
#     8   8   8   8   8   8   8   8
#     4   9  17  32  52  74 101 129 166 215 256 296
#     4   9  18  33  50  71 103 137 169 210 258 305
#     4  10  21  34  51  74 101 134 173 216 262 309
#     4   9  17  33  57  78 100 137 178 208 242 299
#     4   9  17  31  54  79  99 128 171 213 254 304
#     4  10  20  35  54  78 108 139 172 212 259 308
#     4  10  19  33  52  72  96 135 180 215 251 305
#     4  10  20  32  48  75 107 132 161 210 263 304
#
# _framework density 17.532160000000001
#
# number of rings (size 3 to 8) (size 9 to 14) (size 15 to 20)
#    0.000    2.500    1.250    1.125    0.000    3.750 
#    0.000    3.125    0.000    2.250    0.000    0.000 
#    0.000    0.000    0.000    0.000    0.000    0.000 
#
# Total GULP energy -793120.305922 kJ/mol
# GULP energy per Si atom -12392.504780 kJ/mol
# Density = 1.749226 g / cm^3
# Si number density = 17.532160 Si / 1000 Ang^3
#
#
#
# Elastic Constant Matrix: (Units=GPa)
#
#
# Indices 1 2 3 4 5 6 
#
# 1 113.3232 52.9301 71.8919 0.0000 0.0000 0.0000
# 2 52.9301 84.8604 45.2189 0.0000 0.0000 0.0000
# 3 71.8919 45.2189 101.6374 0.0000 0.0000 0.0000
# 4 0.0000 0.0000 0.0000 29.0645 0.0000 0.0000
# 5 0.0000 0.0000 0.0000 0.0000 26.3780 0.0000
# 6 0.0000 0.0000 0.0000 0.0000 0.0000 25.7768
#
#
#
# Elastic Compliance Matrix: (Units=1/GPa)
#
#
# Indices 1 2 3 4 5 6 
#
# 1 0.017955 -0.005809 -0.010116 0.000000 0.000000 0.000000
# 2 -0.005809 0.017325 -0.003599 0.000000 0.000000 0.000000
# 3 -0.010116 -0.003599 0.018596 0.000000 0.000000 0.000000
# 4 0.000000 0.000000 0.000000 0.034406 0.000000 0.000000
# 5 0.000000 0.000000 0.000000 0.000000 0.037910 0.000000
# 6 0.000000 0.000000 0.000000 0.000000 0.000000 0.038795
#
#
# Mechanical properties :
#
#
# Convention : Reuss Voigt Hill
#
# Bulk Modulus (GPa) = 67.44069 71.10031 69.27050
# Shear Modulus (GPa) = 23.92614 24.89590 24.41102
#
# Velocity S-wave (km/s) = 3.69819 3.77239 3.73548
# Velocity P-wave (km/s) = 7.53564 7.72120 7.62898
#
# Compressibility (1/GPa) = 0.01482784
#
# Stress axis : x y z
#
# Youngs Moduli (GPa) = 55.69541 57.71992 53.77642
#
# Poissons Ratio (x) = 0.33527 0.54399
# Poissons Ratio (y) = 0.32352 0.19356
# Poissons Ratio (z) = 0.56340 0.20775
#
# Static dielectric constant tensor:
#      x y z
#    x 4.200160 0.000000 0.000000 
#    y 0.000000 3.342950 0.000000 
#    z 0.000000 0.000000 2.997520 
# 
# 
# High freq. dielectric constant tensor:
#      x y z
#    x 1.688680 0.000000 0.000000 
#    y 0.000000 1.670940 0.000000 
#    z 0.000000 0.000000 1.653100 
# 
# From -- ./inp_files/26207.got.cif
#   From: 2010.03.12/outbox.cif.g09.slc.cpg/sg59_14_cif.got.tgz:26207.got - 2010.04.16 16:29:54.
