data_PCOD8241075
_publ_section_title
;
Structure prediction by ZEFSAII (Michael W. Deem and Ramdas Pophale) SiO2 
 PCOD8241075
Probable space group: P M M N
;
_chemical_formula_sum "Si O2"
_cell_formula_units_Z 64
_cell_length_a 29.478845
_cell_length_b 9.143375
_cell_length_c 14.846629
_cell_angle_alpha 90.000000
_cell_angle_beta 90.000000
_cell_angle_gamma 90.000000
_cell_volume 4001.702990
_symmetry_space_group_name_H-M "P M M N"
_symmetry_group_IT_number 59
_space_group.IT_coordinate_system_code '2'
_symmetry_cell_setting 'orthorhombic'
loop_
_space_group_symop_operation_xyz
x,y,z
1/2-x,1/2-y,z
1/2+x,-y,-z
-x,1/2+y,-z
-x,-y,-z
1/2+x,1/2+y,-z
1/2-x,y,z
x,1/2-y,z
loop_
_atom_site_type_symbol
_atom_site_label
_atom_site_fract_x
_atom_site_fract_y
_atom_site_fract_z
Si Si1 0.382237 0.918807 0.711653
Si Si2 0.464360 0.420527 0.374934
Si Si3 0.799315 0.576684 0.015715
Si Si4 0.060778 0.916577 0.542939
Si Si5 0.542979 0.422385 0.811822
Si Si6 0.801276 0.582828 0.218869
Si Si7 0.895794 0.577304 0.953780
Si Si8 0.058473 0.079558 0.858387
O O1 0.381631 0.750000 0.738112
O O2 0.396944 0.942240 0.608504
O O3 0.332174 0.985299 0.716810
O O4 0.416707 0.995552 0.779156
O O5 0.455149 0.250000 0.359199
O O6 0.433297 0.477868 0.457255
O O7 0.516208 0.455387 0.399327
O O8 0.451578 0.507485 0.285810
O O9 0.750000 0.519848 0.977911
O O10 0.797711 0.750000 0.020368
O O11 0.805876 0.520309 0.117610
O O12 0.842676 0.527449 0.957021
O O13 0.057859 0.750000 0.508216
O O14 0.549808 0.250000 0.803450
O O15 0.582405 0.488388 0.873007
O O16 0.494587 0.461884 0.856312
O O17 0.750000 0.569407 0.253855
O O18 0.818174 0.750000 0.222685
O O19 0.900575 0.750000 0.936136
O O20 0.920837 0.532324 0.045998
O O21 0.066260 0.250000 0.841007
#
# Coordination Sequence:
#
# PCOD8241075 Si02
#       8
#     8   8   8   8   8   8   8   8
#     4  11  20  30  48  73 102 130 159 200 245 292
#     4  10  19  33  51  70  93 124 162 201 238 283
#     4   8  14  27  48  70  91 120 159 202 243 280
#     4   9  19  33  48  70  97 125 157 196 242 285
#     4  11  22  33  47  68  98 132 166 206 245 287
#     4   9  17  31  50  70  96 130 166 201 238 287
#     4  10  19  32  49  68  94 129 168 205 238 286
#     4  10  20  33  47  66  95 134 173 201 232 281
#
# _framework density 15.993192000000001
#
# number of rings (size 3 to 8) (size 9 to 14) (size 15 to 20)
#    0.000    2.250    2.500    2.250    0.000    2.750 
#    0.000    0.000    0.000    0.375    0.000    0.875 
#    0.000    5.000    0.000    0.000    0.000    0.000 
#
# Total GULP energy -793523.220304 kJ/mol
# GULP energy per Si atom -12398.800317 kJ/mol
# Density = 1.595679 g / cm^3
# Si number density = 15.993192 Si / 1000 Ang^3
#
#
#
# Elastic Constant Matrix: (Units=GPa)
#
#
# Indices 1 2 3 4 5 6 
#
# 1 112.5752 41.8552 55.4175 0.0000 0.0000 0.0000
# 2 41.8552 59.6554 46.4439 0.0000 0.0000 0.0000
# 3 55.4175 46.4439 90.4498 0.0000 0.0000 0.0000
# 4 0.0000 0.0000 0.0000 28.1062 0.0000 0.0000
# 5 0.0000 0.0000 0.0000 0.0000 18.9486 0.0000
# 6 0.0000 0.0000 0.0000 0.0000 0.0000 22.4743
#
#
#
# Elastic Compliance Matrix: (Units=1/GPa)
#
#
# Indices 1 2 3 4 5 6 
#
# 1 0.013586 -0.005084 -0.005713 0.000000 0.000000 0.000000
# 2 -0.005084 0.029830 -0.012202 0.000000 0.000000 0.000000
# 3 -0.005713 -0.012202 0.020822 0.000000 0.000000 0.000000
# 4 0.000000 0.000000 0.000000 0.035579 0.000000 0.000000
# 5 0.000000 0.000000 0.000000 0.000000 0.052774 0.000000
# 6 0.000000 0.000000 0.000000 0.000000 0.000000 0.044495
#
#
# Mechanical properties :
#
#
# Convention : Reuss Voigt Hill
#
# Bulk Modulus (GPa) = 54.82862 61.12375 57.97619
# Shear Modulus (GPa) = 20.06714 21.83675 20.95194
#
# Velocity S-wave (km/s) = 3.54606 3.69911 3.62339
# Velocity P-wave (km/s) = 7.15003 7.51972 7.33720
#
# Compressibility (1/GPa) = 0.01823865
#
# Stress axis : x y z
#
# Youngs Moduli (GPa) = 73.60724 33.52382 48.02674
#
# Poissons Ratio (x) = 0.17043 0.27439
# Poissons Ratio (y) = 0.37421 0.58602
# Poissons Ratio (z) = 0.42054 0.40906
#
# Static dielectric constant tensor:
#      x y z
#    x 3.231730 0.000000 0.000000 
#    y 0.000000 2.974940 0.000000 
#    z 0.000000 0.000000 2.899490 
# 
# 
# High freq. dielectric constant tensor:
#      x y z
#    x 1.606340 0.000000 0.000000 
#    y 0.000000 1.610030 0.000000 
#    z 0.000000 0.000000 1.595090 
# 
# From -- ./inp_files/25005.got.cif
#   From: 2010.03.12/outbox.cif.g09.slc.cpg/sg59_13_cif.got.tgz:25005.got - 2010.04.16 16:29:54.
