data_PCOD8241938
_publ_section_title
;
Structure prediction by ZEFSAII (Michael W. Deem and Ramdas Pophale) SiO2 
 PCOD8241938
Probable space group: P M M N
;
_chemical_formula_sum "Si O2"
_cell_formula_units_Z 56
_cell_length_a 21.985260
_cell_length_b 8.744784
_cell_length_c 14.987121
_cell_angle_alpha 90.000000
_cell_angle_beta 90.000000
_cell_angle_gamma 90.000000
_cell_volume 2881.369179
_symmetry_space_group_name_H-M "P M M N"
_symmetry_group_IT_number 59
_space_group.IT_coordinate_system_code '2'
_symmetry_cell_setting 'orthorhombic'
loop_
_space_group_symop_operation_xyz
x,y,z
1/2-x,1/2-y,z
1/2+x,-y,-z
-x,1/2+y,-z
-x,-y,-z
1/2+x,1/2+y,-z
1/2-x,y,z
x,1/2-y,z
loop_
_atom_site_type_symbol
_atom_site_label
_atom_site_fract_x
_atom_site_fract_y
_atom_site_fract_z
Si Si1 0.128381 0.931032 0.639370
Si Si2 0.680669 0.429057 0.715626
Si Si3 0.180624 0.069966 0.472707
Si Si4 0.750000 0.070612 0.071884
Si Si5 0.750000 0.431884 0.268102
Si Si6 0.053002 0.068863 0.790989
Si Si7 0.578411 0.431304 0.849922
Si Si8 0.382267 0.930802 0.960618
O O1 0.121793 0.750000 0.640436
O O2 0.190260 0.993197 0.683267
O O3 0.131350 0.990567 0.537847
O O4 0.072812 0.001419 0.695485
O O5 0.750000 0.462639 0.745749
O O6 0.671012 0.250000 0.697021
O O7 0.663500 0.519790 0.626658
O O8 0.635583 0.491005 0.792396
O O9 0.250000 0.016514 0.494425
O O10 0.174058 0.250000 0.481613
O O11 0.750000 0.250000 0.086690
O O12 0.750000 0.995611 0.169885
O O13 0.811618 0.023505 0.020930
O O14 0.750000 0.250000 0.268301
O O15 0.056112 0.250000 0.786910
O O16 0.984397 0.009902 0.807692
O O17 0.095165 0.011882 0.871364
O O18 0.581083 0.250000 0.852948
O O19 0.582131 0.491300 0.952130
O O20 0.389802 0.750000 0.945868
#
# Coordination Sequence:
#
# PCOD8241938 Si02
#       8
#     8   8   8   4   4   8   8   8
#     4  11  20  34  56  81 108 143 186 224 263 317
#     4   9  18  35  59  84 106 135 180 230 273 318
#     4  10  20  34  54  84 117 144 170 212 276 336
#     4   9  16  28  50  81 108 131 171 230 272 304
#     4   9  16  28  48  77 106 133 171 224 266 300
#     4  11  22  36  51  76 114 150 180 221 273 327
#     4   9  20  36  56  80 107 140 185 233 272 314
#     4  10  19  34  56  80 107 143 185 227 271 321
#
# _framework density 19.435205
#
# number of rings (size 3 to 8) (size 9 to 14) (size 15 to 20)
#    0.000    2.143    2.143    1.714    1.000    0.571 
#    0.000    4.643    0.000    0.000    0.000    0.000 
#    0.000    0.000    0.000    0.000    0.000    0.000 
#
# Total GULP energy -694293.104176 kJ/mol
# GULP energy per Si atom -12398.091146 kJ/mol
# Density = 1.939097 g / cm^3
# Si number density = 19.435205 Si / 1000 Ang^3
#
#
#
# Elastic Constant Matrix: (Units=GPa)
#
#
# Indices 1 2 3 4 5 6 
#
# 1 97.1406 21.6076 32.9777 0.0000 0.0000 0.0000
# 2 21.6076 50.4913 21.4507 0.0000 0.0000 0.0000
# 3 32.9777 21.4507 90.7976 0.0000 0.0000 0.0000
# 4 0.0000 0.0000 0.0000 24.0063 0.0000 0.0000
# 5 0.0000 0.0000 0.0000 0.0000 29.4231 0.0000
# 6 0.0000 0.0000 0.0000 0.0000 0.0000 19.5770
#
#
#
# Elastic Compliance Matrix: (Units=1/GPa)
#
#
# Indices 1 2 3 4 5 6 
#
# 1 0.012352 -0.003757 -0.003599 0.000000 0.000000 0.000000
# 2 -0.003757 0.023158 -0.004106 0.000000 0.000000 0.000000
# 3 -0.003599 -0.004106 0.013291 0.000000 0.000000 0.000000
# 4 0.000000 0.000000 0.000000 0.041656 0.000000 0.000000
# 5 0.000000 0.000000 0.000000 0.000000 0.033987 0.000000
# 6 0.000000 0.000000 0.000000 0.000000 0.000000 0.051080
#
#
# Mechanical properties :
#
#
# Convention : Reuss Voigt Hill
#
# Bulk Modulus (GPa) = 38.64571 43.38904 41.01738
# Shear Modulus (GPa) = 24.14613 25.42751 24.78682
#
# Velocity S-wave (km/s) = 3.52858 3.62100 3.57509
# Velocity P-wave (km/s) = 6.04390 6.31313 6.17998
#
# Compressibility (1/GPa) = 0.02587609
#
# Stress axis : x y z
#
# Youngs Moduli (GPa) = 80.96036 43.18201 75.24101
#
# Poissons Ratio (x) = 0.16224 0.27076
# Poissons Ratio (y) = 0.30418 0.30897
# Poissons Ratio (z) = 0.29134 0.17732
#
# Static dielectric constant tensor:
#      x y z
#    x 3.716180 0.000000 0.000000 
#    y 0.000000 3.219160 0.000000 
#    z 0.000000 0.000000 3.613070 
# 
# 
# High freq. dielectric constant tensor:
#      x y z
#    x 1.750880 0.000000 0.000000 
#    y 0.000000 1.727480 0.000000 
#    z 0.000000 0.000000 1.761600 
# 
# From -- ./inp_files/24363.got.cif
#   From: 2010.03.12/outbox.cif.g09.slc.cpg/sg59_13_cif.got.tgz:24363.got - 2010.04.16 16:29:54.
