data_PCOD8241117
_publ_section_title
;
Structure prediction by ZEFSAII (Michael W. Deem and Ramdas Pophale) SiO2 
 PCOD8241117
Probable space group: P M M N
;
_chemical_formula_sum "Si O2"
_cell_formula_units_Z 48
_cell_length_a 9.012679
_cell_length_b 33.125433
_cell_length_c 9.136882
_cell_angle_alpha 90.000000
_cell_angle_beta 90.000000
_cell_angle_gamma 90.000000
_cell_volume 2727.806019
_symmetry_space_group_name_H-M "P M M N"
_symmetry_group_IT_number 59
_space_group.IT_coordinate_system_code '2'
_symmetry_cell_setting 'orthorhombic'
loop_
_space_group_symop_operation_xyz
x,y,z
1/2-x,1/2-y,z
1/2+x,-y,-z
-x,1/2+y,-z
-x,-y,-z
1/2+x,1/2+y,-z
1/2-x,y,z
x,1/2-y,z
loop_
_atom_site_type_symbol
_atom_site_label
_atom_site_fract_x
_atom_site_fract_y
_atom_site_fract_z
Si Si1 0.916230 0.835286 0.624991
Si Si2 0.924139 0.129699 0.941177
Si Si3 0.072909 0.458152 0.458457
Si Si4 0.926895 0.382779 0.611097
Si Si5 0.086541 0.414338 0.178218
Si Si6 0.922372 0.204837 0.127162
O O1 0.750000 0.822319 0.578369
O O2 0.911249 0.874784 0.723255
O O3 0.014489 0.844641 0.481934
O O4 0.991377 0.799851 0.719392
O O5 0.750000 0.127278 0.945655
O O6 0.980756 0.125268 0.776396
O O7 0.980033 0.172703 0.006290
O O8 0.981225 0.092067 0.038841
O O9 0.250000 0.458400 0.481904
O O10 0.033573 0.450143 0.286843
O O11 0.000000 0.500000 0.500000
O O12 0.001800 0.424210 0.561057
O O13 0.750000 0.386087 0.595644
O O14 0.250000 0.423771 0.116652
O O15 0.750000 0.197193 0.160141
O O16 0.950747 0.250000 0.066594
#
# Coordination Sequence:
#
# PCOD8241117 Si02
#       6
#     8   8   8   8   8   8
#     4   9  17  30  48  70  95 125 162 200 237 283
#     4   9  18  31  49  73  99 129 165 201 241 292
#     4  10  20  34  52  75  99 127 164 205 249 293
#     4  10  19  32  50  73 100 129 163 202 243 291
#     4   8  16  30  48  69  93 123 160 198 237 285
#     4   9  17  31  51  73  97 127 163 203 246 289
#
# _framework density 17.596561000000001
#
# number of rings (size 3 to 8) (size 9 to 14) (size 15 to 20)
#    0.000    2.833    0.000    2.500    0.000    6.333 
#    0.000    1.667    0.000    3.000    0.000    0.000 
#    0.000    0.000    0.000    0.000    0.000    0.000 
#
# Total GULP energy -594964.308071 kJ/mol
# GULP energy per Si atom -12395.089751 kJ/mol
# Density = 1.755651 g / cm^3
# Si number density = 17.596561 Si / 1000 Ang^3
#
#
#
# Elastic Constant Matrix: (Units=GPa)
#
#
# Indices 1 2 3 4 5 6 
#
# 1 68.4933 31.5350 49.7557 0.0000 0.0000 0.0000
# 2 31.5350 74.0025 43.9947 0.0000 0.0000 0.0000
# 3 49.7557 43.9947 133.4659 0.0000 0.0000 0.0000
# 4 0.0000 0.0000 0.0000 19.6556 0.0000 0.0000
# 5 0.0000 0.0000 0.0000 0.0000 25.9928 0.0000
# 6 0.0000 0.0000 0.0000 0.0000 0.0000 22.9463
#
#
#
# Elastic Compliance Matrix: (Units=1/GPa)
#
#
# Indices 1 2 3 4 5 6 
#
# 1 0.021694 -0.005518 -0.006269 0.000000 0.000000 0.000000
# 2 -0.005518 0.018210 -0.003946 0.000000 0.000000 0.000000
# 3 -0.006269 -0.003946 0.011130 0.000000 0.000000 0.000000
# 4 0.000000 0.000000 0.000000 0.050876 0.000000 0.000000
# 5 0.000000 0.000000 0.000000 0.000000 0.038472 0.000000
# 6 0.000000 0.000000 0.000000 0.000000 0.000000 0.043580
#
#
# Mechanical properties :
#
#
# Convention : Reuss Voigt Hill
#
# Bulk Modulus (GPa) = 51.09840 58.50363 54.80101
# Shear Modulus (GPa) = 22.52756 23.76402 23.14579
#
# Velocity S-wave (km/s) = 3.58190 3.67889 3.63072
# Velocity P-wave (km/s) = 6.79769 7.16694 6.98476
#
# Compressibility (1/GPa) = 0.01957009
#
# Stress axis : x y z
#
# Youngs Moduli (GPa) = 46.09520 54.91462 89.84667
#
# Poissons Ratio (x) = 0.30301 0.56322
# Poissons Ratio (y) = 0.25435 0.35450
# Poissons Ratio (z) = 0.28895 0.21667
#
# Static dielectric constant tensor:
#      x y z
#    x 3.396000 0.000000 0.000000 
#    y 0.000000 3.210880 0.000000 
#    z 0.000000 0.000000 3.449250 
# 
# 
# High freq. dielectric constant tensor:
#      x y z
#    x 1.686210 0.000000 0.000000 
#    y 0.000000 1.658700 0.000000 
#    z 0.000000 0.000000 1.672960 
# 
# From -- ./inp_files/6323.got.cif
#   From: 2010.03.12/outbox.cif.g09.slc.cpg/sg59_4_cif.got.tgz:6323.got - 2010.04.16 16:29:54.
