data_PCOD8241119
_publ_section_title
;
Structure prediction by ZEFSAII (Michael W. Deem and Ramdas Pophale) SiO2 
 PCOD8241119
Probable space group: P M M N
;
_chemical_formula_sum "Si O2"
_cell_formula_units_Z 64
_cell_length_a 19.635858
_cell_length_b 9.182640
_cell_length_c 19.197105
_cell_angle_alpha 90.000000
_cell_angle_beta 90.000000
_cell_angle_gamma 90.000000
_cell_volume 3461.411095
_symmetry_space_group_name_H-M "P M M N"
_symmetry_group_IT_number 59
_space_group.IT_coordinate_system_code '2'
_symmetry_cell_setting 'orthorhombic'
loop_
_space_group_symop_operation_xyz
x,y,z
1/2-x,1/2-y,z
1/2+x,-y,-z
-x,1/2+y,-z
-x,-y,-z
1/2+x,1/2+y,-z
1/2-x,y,z
x,1/2-y,z
loop_
_atom_site_type_symbol
_atom_site_label
_atom_site_fract_x
_atom_site_fract_y
_atom_site_fract_z
Si Si1 0.325733 0.585228 0.081907
Si Si2 0.537267 0.923933 0.936864
Si Si3 0.935079 0.579527 0.683400
Si Si4 0.037682 0.577823 0.796520
Si Si5 0.565237 0.922537 0.527952
Si Si6 0.327708 0.081446 0.586478
Si Si7 0.325326 0.908215 0.246003
Si Si8 0.173193 0.578361 0.728026
O O1 0.250000 0.540988 0.053003
O O2 0.343196 0.750000 0.056631
O O3 0.384042 0.473668 0.057865
O O4 0.322775 0.578864 0.164022
O O5 0.534106 0.750000 0.943202
O O6 0.498319 0.981509 0.866857
O O7 0.500000 0.000000 0.000000
O O8 0.942613 0.750000 0.678065
O O9 0.927743 0.514668 0.606109
O O10 0.866871 0.541899 0.724065
O O11 0.998488 0.515841 0.728131
O O12 0.030568 0.750000 0.798795
O O13 0.117738 0.532778 0.787573
O O14 0.555666 0.750000 0.527084
O O15 0.628945 0.969840 0.480243
O O16 0.500000 0.000000 0.500000
O O17 0.250000 0.049823 0.566333
O O18 0.340356 0.250000 0.603648
O O19 0.348817 0.992892 0.655126
O O20 0.250000 0.921259 0.277273
O O21 0.356626 0.750000 0.266862
O O22 0.250000 0.528999 0.750545
O O23 0.170790 0.750000 0.716098
#
# Coordination Sequence:
#
# PCOD8241119 Si02
#       8
#     8   8   8   8   8   8   8   8
#     4   9  18  35  58  82 110 143 179 219 265 320
#     4  11  22  37  57  82 114 149 184 223 271 326
#     4  10  19  32  50  73 100 135 178 221 262 311
#     4   9  18  33  52  76 105 133 169 220 267 311
#     4  10  21  34  50  72 101 136 174 217 264 313
#     4   9  18  33  50  71 103 139 173 211 260 315
#     4   9  18  32  50  75 106 135 167 213 263 311
#     4   9  17  32  56  80  99 128 173 220 263 309
#
# _framework density 18.489568999999999
#
# number of rings (size 3 to 8) (size 9 to 14) (size 15 to 20)
#    0.000    2.500    1.250    1.875    0.000    3.000 
#    0.000    5.000    0.000    3.750    0.000    0.000 
#    0.000    0.000    0.000    0.000    0.000    0.000 
#
# Total GULP energy -793082.071962 kJ/mol
# GULP energy per Si atom -12391.907374 kJ/mol
# Density = 1.844749 g / cm^3
# Si number density = 18.489569 Si / 1000 Ang^3
#
#
#
# Elastic Constant Matrix: (Units=GPa)
#
#
# Indices 1 2 3 4 5 6 
#
# 1 138.6765 36.7758 64.2363 0.0000 0.0000 0.0000
# 2 36.7758 32.1747 27.3586 0.0000 0.0000 0.0000
# 3 64.2363 27.3586 85.3617 0.0000 0.0000 0.0000
# 4 0.0000 0.0000 0.0000 25.2921 0.0000 0.0000
# 5 0.0000 0.0000 0.0000 0.0000 29.3712 0.0000
# 6 0.0000 0.0000 0.0000 0.0000 0.0000 31.0141
#
#
#
# Elastic Compliance Matrix: (Units=1/GPa)
#
#
# Indices 1 2 3 4 5 6 
#
# 1 0.012636 -0.008739 -0.006708 0.000000 0.000000 0.000000
# 2 -0.008739 0.048767 -0.009054 0.000000 0.000000 0.000000
# 3 -0.006708 -0.009054 0.019664 0.000000 0.000000 0.000000
# 4 0.000000 0.000000 0.000000 0.039538 0.000000 0.000000
# 5 0.000000 0.000000 0.000000 0.000000 0.034047 0.000000
# 6 0.000000 0.000000 0.000000 0.000000 0.000000 0.032243
#
#
# Mechanical properties :
#
#
# Convention : Reuss Voigt Hill
#
# Bulk Modulus (GPa) = 31.18521 56.99491 44.09006
# Shear Modulus (GPa) = 20.27694 25.65828 22.96761
#
# Velocity S-wave (km/s) = 3.31519 3.72925 3.52830
# Velocity P-wave (km/s) = 5.61756 7.03103 6.36366
#
# Compressibility (1/GPa) = 0.03206648
#
# Stress axis : x y z
#
# Youngs Moduli (GPa) = 79.14171 20.50546 50.85358
#
# Poissons Ratio (x) = 0.17919 0.34111
# Poissons Ratio (y) = 0.69161 0.46042
# Poissons Ratio (z) = 0.53086 0.18565
#
# Static dielectric constant tensor:
#      x y z
#    x 5.326230 0.000000 0.000000 
#    y 0.000000 3.312370 0.000000 
#    z 0.000000 0.000000 3.781460 
# 
# 
# High freq. dielectric constant tensor:
#      x y z
#    x 1.729960 0.000000 0.000000 
#    y 0.000000 1.697280 0.000000 
#    z 0.000000 0.000000 1.702590 
# 
# From -- ./inp_files/27949.got.cif
#   From: 2010.03.12/outbox.cif.g09.slc.cpg/sg59_14_cif.got.tgz:27949.got - 2010.04.16 16:29:54.
