data_PCOD8241553
_publ_section_title
;
Structure prediction by ZEFSAII (Michael W. Deem and Ramdas Pophale) SiO2 
 PCOD8241553
Probable space group: P M M N
;
_chemical_formula_sum "Si O2"
_cell_formula_units_Z 64
_cell_length_a 8.959566
_cell_length_b 27.806365
_cell_length_c 14.048408
_cell_angle_alpha 90.000000
_cell_angle_beta 90.000000
_cell_angle_gamma 90.000000
_cell_volume 3499.921503
_symmetry_space_group_name_H-M "P M M N"
_symmetry_group_IT_number 59
_space_group.IT_coordinate_system_code '2'
_symmetry_cell_setting 'orthorhombic'
loop_
_space_group_symop_operation_xyz
x,y,z
1/2-x,1/2-y,z
1/2+x,-y,-z
-x,1/2+y,-z
-x,-y,-z
1/2+x,1/2+y,-z
1/2-x,y,z
x,1/2-y,z
loop_
_atom_site_type_symbol
_atom_site_label
_atom_site_fract_x
_atom_site_fract_y
_atom_site_fract_z
Si Si1 0.425791 0.018987 0.702803
Si Si2 0.083306 0.693011 0.121846
Si Si3 0.072015 0.074909 0.369934
Si Si4 0.925550 0.894180 0.425233
Si Si5 0.576661 0.806464 0.932784
Si Si6 0.923296 0.482434 0.095520
Si Si7 0.574560 0.695666 0.312537
Si Si8 0.073442 0.616490 0.809749
O O1 0.250000 0.008525 0.689190
O O2 0.516901 0.979083 0.645445
O O3 0.465729 0.017058 0.815299
O O4 0.477564 0.069725 0.658741
O O5 0.250000 0.671264 0.114298
O O6 0.089294 0.750000 0.120506
O O7 0.006794 0.675894 0.218776
O O8 0.985160 0.674691 0.033706
O O9 0.250000 0.077072 0.363553
O O10 0.008129 0.092027 0.472343
O O11 0.001920 0.110566 0.292719
O O12 0.750000 0.897854 0.433344
O O13 0.973451 0.839781 0.398005
O O14 0.750000 0.819464 0.927144
O O15 0.548087 0.750000 0.918633
O O16 0.487188 0.833705 0.850899
O O17 0.750000 0.484580 0.074323
O O18 0.972245 0.428069 0.121993
O O19 0.000000 0.500000 0.000000
O O20 0.750000 0.693333 0.291790
O O21 0.525438 0.750000 0.339432
O O22 0.250000 0.618963 0.796515
#
# Coordination Sequence:
#
# PCOD8241553 Si02
#       8
#     8   8   8   8   8   8   8   8
#     4   9  18  34  52  72 100 132 166 207 259 312
#     4   9  17  30  48  71 101 134 165 203 251 296
#     4  10  19  33  53  76 100 128 168 217 266 312
#     4   9  18  32  52  76 100 129 170 218 262 305
#     4  10  20  34  54  80 105 133 175 219 254 296
#     4   9  19  33  50  73 102 136 170 204 247 303
#     4   9  17  31  50  72 101 137 173 207 247 297
#     4  10  21  37  54  74 104 140 172 206 257 313
#
# _framework density 18.286124999999998
#
# number of rings (size 3 to 8) (size 9 to 14) (size 15 to 20)
#    0.000    2.625    0.000    2.625    0.000    5.750 
#    0.000    4.375    0.000    2.250    0.000    0.000 
#    0.000    0.000    0.000    0.000    0.000    0.000 
#
# Total GULP energy -793475.206589 kJ/mol
# GULP energy per Si atom -12398.050103 kJ/mol
# Density = 1.824451 g / cm^3
# Si number density = 18.286125 Si / 1000 Ang^3
#
#
#
# Elastic Constant Matrix: (Units=GPa)
#
#
# Indices 1 2 3 4 5 6 
#
# 1 67.2188 35.4980 45.2204 0.0000 0.0000 0.0000
# 2 35.4980 87.0196 72.0917 0.0000 0.0000 0.0000
# 3 45.2204 72.0917 150.5756 0.0000 0.0000 0.0000
# 4 0.0000 0.0000 0.0000 28.5315 0.0000 0.0000
# 5 0.0000 0.0000 0.0000 0.0000 23.8276 0.0000
# 6 0.0000 0.0000 0.0000 0.0000 0.0000 24.5568
#
#
#
# Elastic Compliance Matrix: (Units=1/GPa)
#
#
# Indices 1 2 3 4 5 6 
#
# 1 0.020006 -0.005276 -0.003482 0.000000 0.000000 0.000000
# 2 -0.005276 0.020438 -0.008201 0.000000 0.000000 0.000000
# 3 -0.003482 -0.008201 0.011613 0.000000 0.000000 0.000000
# 4 0.000000 0.000000 0.000000 0.035049 0.000000 0.000000
# 5 0.000000 0.000000 0.000000 0.000000 0.041968 0.000000
# 6 0.000000 0.000000 0.000000 0.000000 0.000000 0.040722
#
#
# Mechanical properties :
#
#
# Convention : Reuss Voigt Hill
#
# Bulk Modulus (GPa) = 55.12983 67.82601 61.47792
# Shear Modulus (GPa) = 23.83688 25.51679 24.67684
#
# Velocity S-wave (km/s) = 3.61439 3.73958 3.67752
# Velocity P-wave (km/s) = 6.90162 7.47114 7.19202
#
# Compressibility (1/GPa) = 0.01813900
#
# Stress axis : x y z
#
# Youngs Moduli (GPa) = 49.98615 48.92900 86.11025
#
# Poissons Ratio (x) = 0.25817 0.29982
# Poissons Ratio (y) = 0.26374 0.70615
# Poissons Ratio (z) = 0.17404 0.40124
#
# Static dielectric constant tensor:
#      x y z
#    x 3.329660 0.000000 0.000000 
#    y 0.000000 3.355230 0.000000 
#    z 0.000000 0.000000 3.518300 
# 
# 
# High freq. dielectric constant tensor:
#      x y z
#    x 1.702340 0.000000 0.000000 
#    y 0.000000 1.697000 0.000000 
#    z 0.000000 0.000000 1.710430 
# 
# From -- ./inp_files/15081.got.cif
#   From: 2010.03.12/outbox.cif.g09.slc.cpg/sg59_8_cif.got.tgz:15081.got - 2010.04.16 16:29:54.
