data_PCOD8241177
_publ_section_title
;
Structure prediction by ZEFSAII (Michael W. Deem and Ramdas Pophale) SiO2 
 PCOD8241177
Probable space group: P M M N
;
_chemical_formula_sum "Si O2"
_cell_formula_units_Z 48
_cell_length_a 8.998811
_cell_length_b 31.132474
_cell_length_c 9.639891
_cell_angle_alpha 90.000000
_cell_angle_beta 90.000000
_cell_angle_gamma 90.000000
_cell_volume 2700.666068
_symmetry_space_group_name_H-M "P M M N"
_symmetry_group_IT_number 59
_space_group.IT_coordinate_system_code '2'
_symmetry_cell_setting 'orthorhombic'
loop_
_space_group_symop_operation_xyz
x,y,z
1/2-x,1/2-y,z
1/2+x,-y,-z
-x,1/2+y,-z
-x,-y,-z
1/2+x,1/2+y,-z
1/2-x,y,z
x,1/2-y,z
loop_
_atom_site_type_symbol
_atom_site_label
_atom_site_fract_x
_atom_site_fract_y
_atom_site_fract_z
Si Si1 0.588351 0.250000 0.673727
Si Si2 0.420765 0.996194 0.854757
Si Si3 0.080017 0.409008 0.840948
Si Si4 0.915250 0.250000 0.345149
Si Si5 0.577764 0.914158 0.837360
Si Si6 0.572310 0.341746 0.651267
Si Si7 0.574206 0.663762 0.640857
O O1 0.750000 0.250000 0.744468
O O2 0.601698 0.250000 0.508751
O O3 0.510773 0.295518 0.712476
O O4 0.250000 0.985664 0.880589
O O5 0.439170 0.042510 0.779822
O O6 0.493250 0.955930 0.773495
O O7 0.500000 0.000000 0.000000
O O8 0.250000 0.393599 0.821072
O O9 0.969176 0.378617 0.758134
O O10 0.034515 0.406682 0.002295
O O11 0.750000 0.250000 0.277284
O O12 0.005517 0.292252 0.298953
O O13 0.750000 0.924542 0.822748
O O14 0.531581 0.872484 0.751636
O O15 0.750000 0.339536 0.630634
O O16 0.496059 0.350963 0.504426
O O17 0.750000 0.669409 0.622629
#
# Coordination Sequence:
#
# PCOD8241177 Si02
#       7
#     4   8   8   4   8   8   8
#     4   7  14  29  46  65  92 122 156 196 234 275
#     4   9  17  30  50  72  97 129 165 203 245 295
#     4   9  18  33  50  72 100 128 161 203 246 293
#     4   9  17  31  50  73 100 130 166 204 238 289
#     4   9  19  34  52  74 100 129 166 208 247 293
#     4  10  19  32  51  74  99 129 164 205 247 292
#     4  10  19  33  53  75 100 132 165 202 249 295
#
# _framework density 17.773392999999999
#
# number of rings (size 3 to 8) (size 9 to 14) (size 15 to 20)
#    0.000    2.833    0.000    3.750    0.000    4.667 
#    0.000    2.917    0.000    3.000    0.000    0.000 
#    0.000    0.000    0.000    0.000    0.000    0.000 
#
# Total GULP energy -594774.236895 kJ/mol
# GULP energy per Si atom -12391.129935 kJ/mol
# Density = 1.773294 g / cm^3
# Si number density = 17.773393 Si / 1000 Ang^3
#
#
#
# Elastic Constant Matrix: (Units=GPa)
#
#
# Indices 1 2 3 4 5 6 
#
# 1 88.7388 71.7435 31.3346 0.0000 0.0000 0.0000
# 2 71.7435 170.4268 56.4004 0.0000 0.0000 0.0000
# 3 31.3346 56.4004 50.9831 0.0000 0.0000 0.0000
# 4 0.0000 0.0000 0.0000 29.3052 0.0000 0.0000
# 5 0.0000 0.0000 0.0000 0.0000 20.7915 0.0000
# 6 0.0000 0.0000 0.0000 0.0000 0.0000 35.8605
#
#
#
# Elastic Compliance Matrix: (Units=1/GPa)
#
#
# Indices 1 2 3 4 5 6 
#
# 1 0.017620 -0.006048 -0.004139 0.000000 0.000000 0.000000
# 2 -0.006048 0.011332 -0.008819 0.000000 0.000000 0.000000
# 3 -0.004139 -0.008819 0.031915 0.000000 0.000000 0.000000
# 4 0.000000 0.000000 0.000000 0.034124 0.000000 0.000000
# 5 0.000000 0.000000 0.000000 0.000000 0.048096 0.000000
# 6 0.000000 0.000000 0.000000 0.000000 0.000000 0.027886
#
#
# Mechanical properties :
#
#
# Convention : Reuss Voigt Hill
#
# Bulk Modulus (GPa) = 43.75479 69.90062 56.82771
# Shear Modulus (GPa) = 23.08372 27.23614 25.15993
#
# Velocity S-wave (km/s) = 3.60777 3.91885 3.76652
# Velocity P-wave (km/s) = 6.48276 7.73891 7.13852
#
# Compressibility (1/GPa) = 0.02285464
#
# Stress axis : x y z
#
# Youngs Moduli (GPa) = 56.75382 88.24537 31.33348
#
# Poissons Ratio (x) = 0.53367 0.12970
# Poissons Ratio (y) = 0.34322 0.27634
# Poissons Ratio (z) = 0.23492 0.77826
#
# Static dielectric constant tensor:
#      x y z
#    x 3.403080 0.000000 0.000000 
#    y 0.000000 3.857410 0.000000 
#    z 0.000000 0.000000 2.908660 
# 
# 
# High freq. dielectric constant tensor:
#      x y z
#    x 1.690780 0.000000 0.000000 
#    y 0.000000 1.710490 0.000000 
#    z 0.000000 0.000000 1.638020 
# 
# From -- ./inp_files/6369.got.cif
#   From: 2010.03.12/outbox.cif.g09.slc.cpg/sg59_4_cif.got.tgz:6369.got - 2010.04.16 16:29:54.
