data_PCOD8241427
_publ_section_title
;
Structure prediction by ZEFSAII (Michael W. Deem and Ramdas Pophale) SiO2 
 PCOD8241427
Probable space group: P M M N
;
_chemical_formula_sum "Si O2"
_cell_formula_units_Z 64
_cell_length_a 18.443412
_cell_length_b 9.071500
_cell_length_c 21.087796
_cell_angle_alpha 90.000000
_cell_angle_beta 90.000000
_cell_angle_gamma 90.000000
_cell_volume 3528.186748
_symmetry_space_group_name_H-M "P M M N"
_symmetry_group_IT_number 59
_space_group.IT_coordinate_system_code '2'
_symmetry_cell_setting 'orthorhombic'
loop_
_space_group_symop_operation_xyz
x,y,z
1/2-x,1/2-y,z
1/2+x,-y,-z
-x,1/2+y,-z
-x,-y,-z
1/2+x,1/2+y,-z
1/2-x,y,z
x,1/2-y,z
loop_
_atom_site_type_symbol
_atom_site_label
_atom_site_fract_x
_atom_site_fract_y
_atom_site_fract_z
Si Si1 0.668335 0.079184 0.367646
Si Si2 0.668498 0.575087 0.120598
Si Si3 0.470694 0.580226 0.560983
Si Si4 0.422845 0.075774 0.999440
Si Si5 0.166178 0.917696 0.102328
Si Si6 0.536622 0.922479 0.694348
Si Si7 0.099135 0.425101 0.747907
Si Si8 0.667202 0.419637 0.750932
O O1 0.750000 0.051502 0.391973
O O2 0.654952 0.250000 0.349209
O O3 0.612631 0.034153 0.423586
O O4 0.654187 0.982370 0.305549
O O5 0.750000 0.509496 0.117076
O O6 0.672367 0.750000 0.119350
O O7 0.622415 0.516915 0.060953
O O8 0.629846 0.521085 0.184709
O O9 0.500000 0.500000 0.500000
O O10 0.475597 0.750000 0.544435
O O11 0.519788 0.539359 0.621416
O O12 0.433272 0.250000 0.997026
O O13 0.500000 0.000000 0.000000
O O14 0.380663 0.032734 0.062948
O O15 0.250000 0.942453 0.085910
O O16 0.143313 0.750000 0.086140
O O17 0.151222 0.951063 0.175661
O O18 0.528977 0.750000 0.707719
O O19 0.480660 0.007102 0.739937
O O20 0.617598 0.976030 0.708172
O O21 0.093685 0.250000 0.743553
O O22 0.750000 0.458376 0.734427
O O23 0.650668 0.250000 0.734782
#
# Coordination Sequence:
#
# PCOD8241427 Si02
#       8
#     8   8   8   8   8   8   8   8
#     4   9  18  34  54  78 110 142 173 217 271 318
#     4   9  19  35  53  74 102 135 171 215 265 315
#     4   9  19  35  54  77 107 143 180 218 261 311
#     4  11  23  37  53  75 104 140 181 225 270 321
#     4   9  19  37  58  78 103 135 174 224 276 324
#     4  10  21  36  54  80 113 143 174 217 267 316
#     4  10  19  32  54  81 106 137 177 218 262 318
#     4   9  19  36  58  82 107 138 179 225 272 323
#
# _framework density 18.139628999999999
#
# number of rings (size 3 to 8) (size 9 to 14) (size 15 to 20)
#    0.000    2.500    0.000    3.375    1.750    4.750 
#    0.000    3.750    0.000    6.750    0.000    0.000 
#    0.000    0.000    0.000    0.000    0.000    0.000 
#
# Total GULP energy -793661.221013 kJ/mol
# GULP energy per Si atom -12400.956578 kJ/mol
# Density = 1.809834 g / cm^3
# Si number density = 18.139629 Si / 1000 Ang^3
#
#
#
# Elastic Constant Matrix: (Units=GPa)
#
#
# Indices 1 2 3 4 5 6 
#
# 1 146.5914 56.1248 82.9790 0.0000 0.0000 0.0000
# 2 56.1248 68.5829 48.8777 0.0000 0.0000 0.0000
# 3 82.9790 48.8777 105.9765 0.0000 0.0000 0.0000
# 4 0.0000 0.0000 0.0000 31.7540 0.0000 0.0000
# 5 0.0000 0.0000 0.0000 0.0000 28.0692 0.0000
# 6 0.0000 0.0000 0.0000 0.0000 0.0000 32.8946
#
#
#
# Elastic Compliance Matrix: (Units=1/GPa)
#
#
# Indices 1 2 3 4 5 6 
#
# 1 0.013388 -0.005192 -0.008088 0.000000 0.000000 0.000000
# 2 -0.005192 0.023734 -0.006881 0.000000 0.000000 0.000000
# 3 -0.008088 -0.006881 0.018943 0.000000 0.000000 0.000000
# 4 0.000000 0.000000 0.000000 0.031492 0.000000 0.000000
# 5 0.000000 0.000000 0.000000 0.000000 0.035626 0.000000
# 6 0.000000 0.000000 0.000000 0.000000 0.000000 0.030400
#
#
# Mechanical properties :
#
#
# Convention : Reuss Voigt Hill
#
# Bulk Modulus (GPa) = 63.52372 77.45710 70.49041
# Shear Modulus (GPa) = 25.10653 27.42151 26.26402
#
# Velocity S-wave (km/s) = 3.72435 3.89226 3.80923
# Velocity P-wave (km/s) = 7.32050 7.93680 7.63487
#
# Compressibility (1/GPa) = 0.01574215
#
# Stress axis : x y z
#
# Youngs Moduli (GPa) = 74.69564 42.13449 52.79094
#
# Poissons Ratio (x) = 0.21875 0.42698
# Poissons Ratio (y) = 0.38779 0.36326
# Poissons Ratio (z) = 0.60414 0.28994
#
# Static dielectric constant tensor:
#      x y z
#    x 3.427270 0.000000 0.000000 
#    y 0.000000 3.220110 0.000000 
#    z 0.000000 0.000000 3.265040 
# 
# 
# High freq. dielectric constant tensor:
#      x y z
#    x 1.714240 0.000000 0.000000 
#    y 0.000000 1.693910 0.000000 
#    z 0.000000 0.000000 1.693170 
# 
# From -- ./inp_files/30844.got.cif
#   From: 2010.03.12/outbox.cif.g09.slc.cpg/sg59_16_cif.got.tgz:30844.got - 2010.04.16 16:29:54.
