data_PCOD8241084
_publ_section_title
;
Structure prediction by ZEFSAII (Michael W. Deem and Ramdas Pophale) SiO2 
 PCOD8241084
Probable space group: P M M N
;
_chemical_formula_sum "Si O2"
_cell_formula_units_Z 64
_cell_length_a 19.071499
_cell_length_b 9.353563
_cell_length_c 19.998161
_cell_angle_alpha 90.000000
_cell_angle_beta 90.000000
_cell_angle_gamma 90.000000
_cell_volume 3567.401295
_symmetry_space_group_name_H-M "P M M N"
_symmetry_group_IT_number 59
_space_group.IT_coordinate_system_code '2'
_symmetry_cell_setting 'orthorhombic'
loop_
_space_group_symop_operation_xyz
x,y,z
1/2-x,1/2-y,z
1/2+x,-y,-z
-x,1/2+y,-z
-x,-y,-z
1/2+x,1/2+y,-z
1/2-x,y,z
x,1/2-y,z
loop_
_atom_site_type_symbol
_atom_site_label
_atom_site_fract_x
_atom_site_fract_y
_atom_site_fract_z
Si Si1 0.407349 0.590503 0.729998
Si Si2 0.829851 0.910797 0.164929
Si Si3 0.923392 0.580512 0.397174
Si Si4 0.581507 0.086443 0.632131
Si Si5 0.331728 0.915381 0.496868
Si Si6 0.917418 0.911196 0.044795
Si Si7 0.570615 0.591273 0.757344
Si Si8 0.453579 0.417398 0.097691
O O1 0.378003 0.750000 0.715877
O O2 0.373613 0.527693 0.796177
O O3 0.388032 0.487180 0.668551
O O4 0.489075 0.596824 0.742107
O O5 0.750000 0.945783 0.177872
O O6 0.849205 0.750000 0.188980
O O7 0.845101 0.924974 0.085472
O O8 0.912256 0.750000 0.397457
O O9 0.882102 0.514524 0.459403
O O10 0.006117 0.537951 0.399023
O O11 0.574316 0.250000 0.653504
O O12 0.643344 0.061424 0.579191
O O13 0.605218 0.004451 0.699505
O O14 0.250000 0.960341 0.503230
O O15 0.342048 0.750000 0.517894
O O16 0.947649 0.750000 0.047566
O O17 0.904004 0.951034 0.966632
O O18 0.972386 0.011150 0.082351
O O19 0.603702 0.750000 0.752917
O O20 0.581008 0.525991 0.832652
O O21 0.467809 0.250000 0.108458
#
# Coordination Sequence:
#
# PCOD8241084 Si02
#       8
#     8   8   8   8   8   8   8   8
#     4  10  19  32  49  70  96 127 162 198 240 288
#     4  10  20  32  45  64  94 131 167 201 238 286
#     4  10  20  34  54  78 103 130 163 206 249 294
#     4   9  19  34  53  77 102 130 165 204 247 296
#     4  10  21  37  55  75 101 132 166 204 247 298
#     4   9  17  28  45  67  92 124 159 197 240 285
#     4   9  17  29  48  73 100 125 153 198 248 292
#     4   9  16  28  46  70  97 121 151 198 247 286
#
# _framework density 17.94023
#
# number of rings (size 3 to 8) (size 9 to 14) (size 15 to 20)
#    0.000    2.500    1.250    1.125    0.000    3.000 
#    0.000    0.000    0.000    0.750    0.000    1.750 
#    0.000    0.000    0.000    0.000    0.000    0.000 
#
# Total GULP energy -793175.800403 kJ/mol
# GULP energy per Si atom -12393.371881 kJ/mol
# Density = 1.789940 g / cm^3
# Si number density = 17.940230 Si / 1000 Ang^3
#
#
#
# Elastic Constant Matrix: (Units=GPa)
#
#
# Indices 1 2 3 4 5 6 
#
# 1 30.3380 18.2971 17.2443 0.0000 0.0000 0.0000
# 2 18.2971 67.3767 41.9054 0.0000 0.0000 0.0000
# 3 17.2443 41.9054 114.0449 0.0000 0.0000 0.0000
# 4 0.0000 0.0000 0.0000 31.2687 0.0000 0.0000
# 5 0.0000 0.0000 0.0000 0.0000 10.0205 0.0000
# 6 0.0000 0.0000 0.0000 0.0000 0.0000 12.7026
#
#
#
# Elastic Compliance Matrix: (Units=1/GPa)
#
#
# Indices 1 2 3 4 5 6 
#
# 1 0.040035 -0.009212 -0.002668 0.000000 0.000000 0.000000
# 2 -0.009212 0.021358 -0.006455 0.000000 0.000000 0.000000
# 3 -0.002668 -0.006455 0.011544 0.000000 0.000000 0.000000
# 4 0.000000 0.000000 0.000000 0.031981 0.000000 0.000000
# 5 0.000000 0.000000 0.000000 0.000000 0.099796 0.000000
# 6 0.000000 0.000000 0.000000 0.000000 0.000000 0.078724
#
#
# Mechanical properties :
#
#
# Convention : Reuss Voigt Hill
#
# Bulk Modulus (GPa) = 27.57462 40.73924 34.15693
# Shear Modulus (GPa) = 15.05127 19.75256 17.40192
#
# Velocity S-wave (km/s) = 2.89964 3.32176 3.11785
# Velocity P-wave (km/s) = 5.15889 6.12125 5.66056
#
# Compressibility (1/GPa) = 0.03626524
#
# Stress axis : x y z
#
# Youngs Moduli (GPa) = 24.97832 46.81985 86.62605
#
# Poissons Ratio (x) = 0.43132 0.23116
# Poissons Ratio (y) = 0.23011 0.55918
# Poissons Ratio (z) = 0.06665 0.30223
#
# Static dielectric constant tensor:
#      x y z
#    x 2.975870 0.000000 0.000000 
#    y 0.000000 3.455080 0.000000 
#    z 0.000000 0.000000 3.646100 
# 
# 
# High freq. dielectric constant tensor:
#      x y z
#    x 1.648950 0.000000 0.000000 
#    y 0.000000 1.696110 0.000000 
#    z 0.000000 0.000000 1.708980 
# 
# From -- ./inp_files/29761.got.cif
#   From: 2010.03.12/outbox.cif.g09.slc.cpg/sg59_15_cif.got.tgz:29761.got - 2010.04.16 16:29:54.
