data_PCOD8241752
_publ_section_title
;
Structure prediction by ZEFSAII (Michael W. Deem and Ramdas Pophale) SiO2 
 PCOD8241752
Probable space group: P M M N
;
_chemical_formula_sum "Si O2"
_cell_formula_units_Z 56
_cell_length_a 8.531586
_cell_length_b 24.197847
_cell_length_c 14.669579
_cell_angle_alpha 90.000000
_cell_angle_beta 90.000000
_cell_angle_gamma 90.000000
_cell_volume 3028.476092
_symmetry_space_group_name_H-M "P M M N"
_symmetry_group_IT_number 59
_space_group.IT_coordinate_system_code '2'
_symmetry_cell_setting 'orthorhombic'
loop_
_space_group_symop_operation_xyz
x,y,z
1/2-x,1/2-y,z
1/2+x,-y,-z
-x,1/2+y,-z
-x,-y,-z
1/2+x,1/2+y,-z
1/2-x,y,z
x,1/2-y,z
loop_
_atom_site_type_symbol
_atom_site_label
_atom_site_fract_x
_atom_site_fract_y
_atom_site_fract_z
Si Si1 0.069151 0.362339 0.785318
Si Si2 0.565974 0.250000 0.715979
Si Si3 0.932804 0.866672 0.529276
Si Si4 0.934423 0.250000 0.503636
Si Si5 0.428132 0.920181 0.059828
Si Si6 0.432635 0.936720 0.365988
Si Si7 0.432179 0.552854 0.668998
Si Si8 0.068758 0.968813 0.874295
O O1 0.250000 0.367888 0.759912
O O2 0.010305 0.301921 0.763911
O O3 0.039314 0.374785 0.892297
O O4 0.973168 0.408030 0.729333
O O5 0.750000 0.250000 0.732526
O O6 0.523703 0.250000 0.610097
O O7 0.750000 0.867510 0.506415
O O8 0.990592 0.804002 0.542178
O O9 0.025308 0.895112 0.446832
O O10 0.967003 0.899156 0.622352
O O11 0.750000 0.250000 0.486160
O O12 0.250000 0.903277 0.079402
O O13 0.457955 0.980043 0.103631
O O14 0.460675 0.921758 0.951033
O O15 0.250000 0.950420 0.369840
O O16 0.526908 0.993757 0.375579
O O17 0.250000 0.564413 0.651494
O O18 0.475407 0.555204 0.775751
O O19 0.250000 0.988766 0.876073
#
# Coordination Sequence:
#
# PCOD8241752 Si02
#       8
#     8   4   8   4   8   8   8   8
#     4  12  23  36  56  84 117 153 188 230 285 343
#     4  11  23  39  61  84 110 147 192 236 281 337
#     4  12  25  40  59  83 114 152 191 236 288 342
#     4  11  23  41  63  84 108 145 194 240 283 333
#     4  10  19  33  55  83 114 148 186 229 278 333
#     4  12  23  37  56  83 116 153 192 234 283 339
#     4  11  22  38  58  84 118 154 193 237 285 340
#     4   9  19  34  55  82 113 149 188 230 278 331
#
# _framework density 18.491147999999999
#
# number of rings (size 3 to 8) (size 9 to 14) (size 15 to 20)
#    0.000    1.000    2.857    5.571    0.000    1.714 
#    0.000    0.000    0.000    0.857    0.000    6.000 
#    0.000    0.000    0.000    0.000    0.000    0.000 
#
# Total GULP energy -694672.680417 kJ/mol
# GULP energy per Si atom -12404.869293 kJ/mol
# Density = 1.844906 g / cm^3
# Si number density = 18.491148 Si / 1000 Ang^3
#
#
#
# Elastic Constant Matrix: (Units=GPa)
#
#
# Indices 1 2 3 4 5 6 
#
# 1 69.1293 19.6433 27.2412 0.0000 0.0000 0.0000
# 2 19.6433 107.7279 42.4044 0.0000 0.0000 0.0000
# 3 27.2412 42.4044 87.6120 0.0000 0.0000 0.0000
# 4 0.0000 0.0000 0.0000 18.7435 0.0000 0.0000
# 5 0.0000 0.0000 0.0000 0.0000 25.7342 0.0000
# 6 0.0000 0.0000 0.0000 0.0000 0.0000 38.9362
#
#
#
# Elastic Compliance Matrix: (Units=1/GPa)
#
#
# Indices 1 2 3 4 5 6 
#
# 1 0.016617 -0.001231 -0.004571 0.000000 0.000000 0.000000
# 2 -0.001231 0.011558 -0.005212 0.000000 0.000000 0.000000
# 3 -0.004571 -0.005212 0.015358 0.000000 0.000000 0.000000
# 4 0.000000 0.000000 0.000000 0.053352 0.000000 0.000000
# 5 0.000000 0.000000 0.000000 0.000000 0.038859 0.000000
# 6 0.000000 0.000000 0.000000 0.000000 0.000000 0.025683
#
#
# Mechanical properties :
#
#
# Convention : Reuss Voigt Hill
#
# Bulk Modulus (GPa) = 46.49830 49.22743 47.86286
# Shear Modulus (GPa) = 26.22993 28.36145 27.29569
#
# Velocity S-wave (km/s) = 3.77040 3.92061 3.84624
# Velocity P-wave (km/s) = 6.64495 6.86839 6.75760
#
# Compressibility (1/GPa) = 0.02150616
#
# Stress axis : x y z
#
# Youngs Moduli (GPa) = 60.18084 86.51643 65.11402
#
# Poissons Ratio (x) = 0.10647 0.29763
# Poissons Ratio (y) = 0.07406 0.33935
# Poissons Ratio (z) = 0.27508 0.45090
#
# Static dielectric constant tensor:
#      x y z
#    x 3.498450 0.000000 0.000000 
#    y 0.000000 3.306150 0.000000 
#    z 0.000000 0.000000 3.590070 
# 
# 
# High freq. dielectric constant tensor:
#      x y z
#    x 1.732340 0.000000 0.000000 
#    y 0.000000 1.698420 0.000000 
#    z 0.000000 0.000000 1.715560 
# 
# From -- ./inp_files/21201.got.cif
#   From: 2010.03.12/outbox.cif.g09.slc.cpg/sg59_11_cif.got.tgz:21201.got - 2010.04.16 16:29:54.
