data_PCOD8241125
_publ_section_title
;
Structure prediction by ZEFSAII (Michael W. Deem and Ramdas Pophale) SiO2 
 PCOD8241125
Probable space group: P M M N
;
_chemical_formula_sum "Si O2"
_cell_formula_units_Z 48
_cell_length_a 15.350431
_cell_length_b 8.714672
_cell_length_c 18.777596
_cell_angle_alpha 90.000000
_cell_angle_beta 90.000000
_cell_angle_gamma 90.000000
_cell_volume 2511.953587
_symmetry_space_group_name_H-M "P M M N"
_symmetry_group_IT_number 59
_space_group.IT_coordinate_system_code '2'
_symmetry_cell_setting 'orthorhombic'
loop_
_space_group_symop_operation_xyz
x,y,z
1/2-x,1/2-y,z
1/2+x,-y,-z
-x,1/2+y,-z
-x,-y,-z
1/2+x,1/2+y,-z
1/2-x,y,z
x,1/2-y,z
loop_
_atom_site_type_symbol
_atom_site_label
_atom_site_fract_x
_atom_site_fract_y
_atom_site_fract_z
Si Si1 0.907445 0.432083 0.834624
Si Si2 0.402216 0.069285 0.680299
Si Si3 0.750000 0.067644 0.578586
Si Si4 0.750000 0.573843 0.085315
Si Si5 0.403516 0.569273 0.325334
Si Si6 0.750000 0.925319 0.917018
Si Si7 0.750000 0.929757 0.424250
Si Si8 0.406662 0.568569 0.831687
O O1 0.913035 0.250000 0.839031
O O2 0.882460 0.487051 0.754725
O O3 0.835949 0.492165 0.888719
O O4 0.001118 0.499035 0.855582
O O5 0.397288 0.250000 0.696604
O O6 0.498386 0.020361 0.653432
O O7 0.335096 0.019645 0.619492
O O8 0.378396 0.982888 0.752757
O O9 0.750000 0.250000 0.581769
O O10 0.665026 0.998056 0.618694
O O11 0.750000 0.018296 0.497620
O O12 0.750000 0.750000 0.110970
O O13 0.835606 0.489762 0.113055
O O14 0.750000 0.560756 0.001050
O O15 0.393971 0.750000 0.327792
O O16 0.750000 0.750000 0.891327
O O17 0.750000 0.750000 0.439697
O O18 0.412378 0.750000 0.834706
#
# Coordination Sequence:
#
# PCOD8241125 Si02
#       8
#     8   8   4   4   8   4   4   8
#     4  10  20  38  63  85 111 150 190 226 278 344
#     4   9  18  35  56  75 102 141 181 219 267 330
#     4  10  19  32  50  73 104 138 175 220 266 316
#     4  11  24  41  58  79 114 157 190 221 276 342
#     4   8  16  32  54  77  99 134 181 220 260 320
#     4  11  24  39  57  85 117 147 188 239 278 316
#     4  10  21  34  49  73 105 140 177 218 268 328
#     4  11  22  37  60  89 115 139 182 240 284 324
#
# _framework density 19.108635
#
# number of rings (size 3 to 8) (size 9 to 14) (size 15 to 20)
#    0.000    2.167    0.000    4.500    0.000    5.333 
#    0.000    5.000    0.000    0.000    0.000    0.000 
#    0.000    0.000    0.000    0.000    0.000    0.000 
#
# Total GULP energy -595250.128445 kJ/mol
# GULP energy per Si atom -12401.044343 kJ/mol
# Density = 1.906514 g / cm^3
# Si number density = 19.108635 Si / 1000 Ang^3
#
#
#
# Elastic Constant Matrix: (Units=GPa)
#
#
# Indices 1 2 3 4 5 6 
#
# 1 152.1400 52.1171 82.4985 0.0000 0.0000 0.0000
# 2 52.1171 92.7360 45.2987 0.0000 0.0000 0.0000
# 3 82.4985 45.2987 103.4536 0.0000 0.0000 0.0000
# 4 0.0000 0.0000 0.0000 29.9835 0.0000 0.0000
# 5 0.0000 0.0000 0.0000 0.0000 23.7583 0.0000
# 6 0.0000 0.0000 0.0000 0.0000 0.0000 22.4644
#
#
#
# Elastic Compliance Matrix: (Units=1/GPa)
#
#
# Indices 1 2 3 4 5 6 
#
# 1 0.012071 -0.002648 -0.008466 0.000000 0.000000 0.000000
# 2 -0.002648 0.014298 -0.004149 0.000000 0.000000 0.000000
# 3 -0.008466 -0.004149 0.018234 0.000000 0.000000 0.000000
# 4 0.000000 0.000000 0.000000 0.033352 0.000000 0.000000
# 5 0.000000 0.000000 0.000000 0.000000 0.042091 0.000000
# 6 0.000000 0.000000 0.000000 0.000000 0.000000 0.044515
#
#
# Mechanical properties :
#
#
# Convention : Reuss Voigt Hill
#
# Bulk Modulus (GPa) = 71.04035 78.68426 74.86230
# Shear Modulus (GPa) = 25.02756 26.46891 25.74823
#
# Velocity S-wave (km/s) = 3.62297 3.72584 3.67477
# Velocity P-wave (km/s) = 7.39994 7.73149 7.56753
#
# Compressibility (1/GPa) = 0.01407651
#
# Stress axis : x y z
#
# Youngs Moduli (GPa) = 82.84303 69.93890 54.84176
#
# Poissons Ratio (x) = 0.18522 0.46431
# Poissons Ratio (y) = 0.21939 0.22753
# Poissons Ratio (z) = 0.70138 0.29016
#
# Static dielectric constant tensor:
#      x y z
#    x 3.901310 0.000000 0.000000 
#    y 0.000000 3.382310 0.000000 
#    z 0.000000 0.000000 3.478940 
# 
# 
# High freq. dielectric constant tensor:
#      x y z
#    x 1.761670 0.000000 0.000000 
#    y 0.000000 1.729620 0.000000 
#    z 0.000000 0.000000 1.737950 
# 
# From -- ./inp_files/27509.got.cif
#   From: 2010.03.12/outbox.cif.g09.slc.cpg/sg59_14_cif.got.tgz:27509.got - 2010.04.16 16:29:54.
