data_PCOD8241554
_publ_section_title
;
Structure prediction by ZEFSAII (Michael W. Deem and Ramdas Pophale) SiO2 
 PCOD8241554
Probable space group: P M M N
;
_chemical_formula_sum "Si O2"
_cell_formula_units_Z 48
_cell_length_a 31.145011
_cell_length_b 8.999830
_cell_length_c 9.162598
_cell_angle_alpha 90.000000
_cell_angle_beta 90.000000
_cell_angle_gamma 90.000000
_cell_volume 2568.274427
_symmetry_space_group_name_H-M "P M M N"
_symmetry_group_IT_number 59
_space_group.IT_coordinate_system_code '2'
_symmetry_cell_setting 'orthorhombic'
loop_
_space_group_symop_operation_xyz
x,y,z
1/2-x,1/2-y,z
1/2+x,-y,-z
-x,1/2+y,-z
-x,-y,-z
1/2+x,1/2+y,-z
1/2-x,y,z
x,1/2-y,z
loop_
_atom_site_type_symbol
_atom_site_label
_atom_site_fract_x
_atom_site_fract_y
_atom_site_fract_z
Si Si1 0.497545 0.426165 0.656244
Si Si2 0.579190 0.424598 0.173243
Si Si3 0.581234 0.077817 0.834851
Si Si4 0.334481 0.081670 0.825464
Si Si5 0.750000 0.083000 0.827263
Si Si6 0.666197 0.583569 0.827184
Si Si7 0.250000 0.581474 0.824303
O O1 0.500000 0.500000 0.500000
O O2 0.493247 0.250000 0.641828
O O3 0.457044 0.489236 0.740526
O O4 0.540020 0.472547 0.744094
O O5 0.576829 0.250000 0.206675
O O6 0.624805 0.486943 0.228521
O O7 0.572389 0.460562 0.003218
O O8 0.591670 0.250000 0.815821
O O9 0.622340 0.991321 0.771700
O O10 0.337353 0.250000 0.765629
O O11 0.291811 0.003337 0.763030
O O12 0.332717 0.081688 0.999106
O O13 0.750000 0.250000 0.767477
O O14 0.792438 0.002753 0.765266
O O15 0.750000 0.080334 0.001448
O O16 0.667822 0.750000 0.765561
O O17 0.250000 0.750000 0.765651
#
# Coordination Sequence:
#
# PCOD8241554 Si02
#       7
#     8   8   8   8   4   8   4
#     4  11  23  38  54  74 100 131 167 208 253 303
#     4  10  19  33  53  76 101 131 167 208 252 299
#     4   9  19  34  52  74 101 132 167 206 251 300
#     4   9  16  26  41  65  97 131 164 201 245 293
#     4   9  15  23  37  59  94 133 164 197 242 291
#     4   9  16  25  41  66  96 128 164 203 244 290
#     4   9  15  23  37  61  94 131 166 201 242 289
#
# _framework density 18.689592999999999
#
# number of rings (size 3 to 8) (size 9 to 14) (size 15 to 20)
#    0.000    2.500    0.000    3.000    0.000    8.000 
#    0.000    0.000    0.000    0.000    0.000    1.167 
#    0.000    6.667    0.000    0.000    0.000    0.000 
#
# Total GULP energy -595232.209552 kJ/mol
# GULP energy per Si atom -12400.671032 kJ/mol
# Density = 1.864705 g / cm^3
# Si number density = 18.689593 Si / 1000 Ang^3
#
#
#
# Elastic Constant Matrix: (Units=GPa)
#
#
# Indices 1 2 3 4 5 6 
#
# 1 203.7074 93.9770 49.6942 0.0000 0.0000 0.0000
# 2 93.9770 130.3820 35.5561 0.0000 0.0000 0.0000
# 3 49.6942 35.5561 40.1923 0.0000 0.0000 0.0000
# 4 0.0000 0.0000 0.0000 18.0542 0.0000 0.0000
# 5 0.0000 0.0000 0.0000 0.0000 -3.3653 0.0000
# 6 0.0000 0.0000 0.0000 0.0000 0.0000 43.8627
#
#
#
# Elastic Compliance Matrix: (Units=1/GPa)
#
#
# Indices 1 2 3 4 5 6 
#
# 1 0.008549 -0.004322 -0.006746 0.000000 0.000000 0.000000
# 2 -0.004322 0.012293 -0.005532 0.000000 0.000000 0.000000
# 3 -0.006746 -0.005532 0.038115 0.000000 0.000000 0.000000
# 4 0.000000 0.000000 0.000000 0.055389 0.000000 0.000000
# 5 0.000000 0.000000 0.000000 0.000000 -0.297149 0.000000
# 6 0.000000 0.000000 0.000000 0.000000 0.000000 0.022798
#
#
# Mechanical properties :
#
#
# Convention : Reuss Voigt Hill
#
# Bulk Modulus (GPa) = 38.82372 81.41512 60.11942
# Shear Modulus (GPa) = -42.29433 24.71395 -8.79019
#
# Velocity S-wave (km/s) = -4.76225 3.64034 -2.17105
# Velocity P-wave (km/s) = 3.06931 7.83108 5.09436
#
# Compressibility (1/GPa) = 0.02575745
#
# Stress axis : x y z
#
# Youngs Moduli (GPa) = 116.97875 81.34390 26.23639
#
# Poissons Ratio (x) = 0.35156 0.17699
# Poissons Ratio (y) = 0.50557 0.14513
# Poissons Ratio (z) = 0.78915 0.44997
#
# Static dielectric constant tensor:
#      x y z
#    x 3.697430 0.000000 0.000000 
#    y 0.000000 3.631950 0.000000 
#    z 0.000000 0.000000 2.600390 
# 
# 
# High freq. dielectric constant tensor:
#      x y z
#    x 1.746700 0.000000 0.000000 
#    y 0.000000 1.742370 0.000000 
#    z 0.000000 0.000000 1.658970 
# 
# From -- ./inp_files/13001.got.cif
#   From: 2010.03.12/outbox.cif.g09.slc.cpg/sg59_7_cif.got.tgz:13001.got - 2010.04.16 16:29:54.
