data_PCOD8241266
_publ_section_title
;
Structure prediction by ZEFSAII (Michael W. Deem and Ramdas Pophale) SiO2 
 PCOD8241266
Probable space group: P M M N
;
_chemical_formula_sum "Si O2"
_cell_formula_units_Z 48
_cell_length_a 8.783870
_cell_length_b 18.892106
_cell_length_c 15.339029
_cell_angle_alpha 90.000000
_cell_angle_beta 90.000000
_cell_angle_gamma 90.000000
_cell_volume 2545.447487
_symmetry_space_group_name_H-M "P M M N"
_symmetry_group_IT_number 59
_space_group.IT_coordinate_system_code '2'
_symmetry_cell_setting 'orthorhombic'
loop_
_space_group_symop_operation_xyz
x,y,z
1/2-x,1/2-y,z
1/2+x,-y,-z
-x,1/2+y,-z
-x,-y,-z
1/2+x,1/2+y,-z
1/2-x,y,z
x,1/2-y,z
loop_
_atom_site_type_symbol
_atom_site_label
_atom_site_fract_x
_atom_site_fract_y
_atom_site_fract_z
Si Si1 0.429284 0.067229 0.647587
Si Si2 0.930273 0.408212 0.340673
Si Si3 0.569234 0.828899 0.007171
Si Si4 0.930409 0.931725 0.157503
Si Si5 0.928909 0.831097 0.501660
Si Si6 0.069661 0.417986 0.157523
O O1 0.250000 0.070867 0.638766
O O2 0.477981 0.091582 0.744628
O O3 0.499149 0.120526 0.575972
O O4 0.485853 0.986890 0.630649
O O5 0.750000 0.405291 0.333419
O O6 0.988781 0.350870 0.408883
O O7 0.998616 0.389032 0.246857
O O8 0.750000 0.826101 0.009307
O O9 0.500122 0.750000 0.011373
O O10 0.513502 0.865830 0.918679
O O11 0.510552 0.871952 0.091394
O O12 0.750000 0.944244 0.151233
O O13 0.011486 0.004480 0.132397
O O14 0.750000 0.843636 0.513843
O O15 0.965290 0.750000 0.478588
O O16 0.250000 0.419163 0.166533
#
# Coordination Sequence:
#
# PCOD8241266 Si02
#       6
#     8   8   8   8   8   8
#     4   8  16  31  51  75  99 126 162 203 246 293
#     4  10  20  35  54  74  98 130 171 214 252 294
#     4   9  18  31  49  75 104 134 168 206 249 297
#     4   9  17  32  54  77 101 130 167 209 250 296
#     4  10  20  33  50  74 103 132 162 200 250 306
#     4  10  19  32  52  76 102 133 170 211 253 297
#
# _framework density 18.857194
#
# number of rings (size 3 to 8) (size 9 to 14) (size 15 to 20)
#    0.000    2.667    0.000    3.000    0.000    1.667 
#    0.000    9.167    0.000    4.000    0.000    0.000 
#    0.000    0.000    0.000    0.000    0.000    0.000 
#
# Total GULP energy -595162.522969 kJ/mol
# GULP energy per Si atom -12399.219229 kJ/mol
# Density = 1.881427 g / cm^3
# Si number density = 18.857194 Si / 1000 Ang^3
#
#
#
# Elastic Constant Matrix: (Units=GPa)
#
#
# Indices 1 2 3 4 5 6 
#
# 1 41.2883 25.4958 28.0247 0.0000 0.0000 0.0000
# 2 25.4958 98.2966 66.3599 0.0000 0.0000 0.0000
# 3 28.0247 66.3599 126.1930 0.0000 0.0000 0.0000
# 4 0.0000 0.0000 0.0000 24.3143 0.0000 0.0000
# 5 0.0000 0.0000 0.0000 0.0000 21.0594 0.0000
# 6 0.0000 0.0000 0.0000 0.0000 0.0000 23.4816
#
#
#
# Elastic Compliance Matrix: (Units=1/GPa)
#
#
# Indices 1 2 3 4 5 6 
#
# 1 0.030085 -0.005105 -0.003997 0.000000 0.000000 0.000000
# 2 -0.005105 0.016639 -0.007616 0.000000 0.000000 0.000000
# 3 -0.003997 -0.007616 0.012817 0.000000 0.000000 0.000000
# 4 0.000000 0.000000 0.000000 0.041128 0.000000 0.000000
# 5 0.000000 0.000000 0.000000 0.000000 0.047485 0.000000
# 6 0.000000 0.000000 0.000000 0.000000 0.000000 0.042587
#
#
# Mechanical properties :
#
#
# Convention : Reuss Voigt Hill
#
# Bulk Modulus (GPa) = 38.30636 56.17095 47.23866
# Shear Modulus (GPa) = 21.47044 23.49755 22.48400
#
# Velocity S-wave (km/s) = 3.37795 3.53381 3.45676
# Velocity P-wave (km/s) = 5.96423 6.81929 6.40604
#
# Compressibility (1/GPa) = 0.02610533
#
# Stress axis : x y z
#
# Youngs Moduli (GPa) = 33.23891 60.09956 78.02194
#
# Poissons Ratio (x) = 0.30683 0.31182
# Poissons Ratio (y) = 0.16969 0.59422
# Poissons Ratio (z) = 0.13284 0.45772
#
# Static dielectric constant tensor:
#      x y z
#    x 3.115800 0.000000 0.000000 
#    y 0.000000 3.626940 0.000000 
#    z 0.000000 0.000000 3.698820 
# 
# 
# High freq. dielectric constant tensor:
#      x y z
#    x 1.699840 0.000000 0.000000 
#    y 0.000000 1.729040 0.000000 
#    z 0.000000 0.000000 1.747240 
# 
# From -- ./inp_files/20357.got.cif
#   From: 2010.03.12/outbox.cif.g09.slc.cpg/sg59_11_cif.got.tgz:20357.got - 2010.04.16 16:29:54.
