data_PCOD8241706
_publ_section_title
;
Structure prediction by ZEFSAII (Michael W. Deem and Ramdas Pophale) SiO2 
 PCOD8241706
Probable space group: P M M N
;
_chemical_formula_sum "Si O2"
_cell_formula_units_Z 48
_cell_length_a 29.920298
_cell_length_b 8.874608
_cell_length_c 10.028907
_cell_angle_alpha 90.000000
_cell_angle_beta 90.000000
_cell_angle_gamma 90.000000
_cell_volume 2662.984862
_symmetry_space_group_name_H-M "P M M N"
_symmetry_group_IT_number 59
_space_group.IT_coordinate_system_code '2'
_symmetry_cell_setting 'orthorhombic'
loop_
_space_group_symop_operation_xyz
x,y,z
1/2-x,1/2-y,z
1/2+x,-y,-z
-x,1/2+y,-z
-x,-y,-z
1/2+x,1/2+y,-z
1/2-x,y,z
x,1/2-y,z
loop_
_atom_site_type_symbol
_atom_site_label
_atom_site_fract_x
_atom_site_fract_y
_atom_site_fract_z
Si Si1 0.630232 0.429386 0.894150
Si Si2 0.200784 0.571398 0.890723
Si Si3 0.197807 0.923328 0.590474
Si Si4 0.865489 0.927486 0.616972
Si Si5 0.035455 0.072858 0.097157
Si Si6 0.965909 0.575744 0.599286
O O1 0.626514 0.250000 0.893951
O O2 0.647778 0.485795 0.751592
O O3 0.583035 0.499702 0.933599
O O4 0.665136 0.490572 0.003935
O O5 0.250000 0.505417 0.924879
O O6 0.203230 0.750000 0.897372
O O7 0.186905 0.524483 0.741020
O O8 0.250000 0.944315 0.558870
O O9 0.183635 0.750000 0.567184
O O10 0.169771 0.031772 0.495822
O O11 0.864951 0.750000 0.646803
O O12 0.915170 0.979159 0.571972
O O13 0.038835 0.250000 0.071275
O O14 0.020784 0.037709 0.248651
O O15 0.000000 0.000000 0.000000
O O16 0.969665 0.750000 0.570056
O O17 0.000000 0.500000 0.500000
#
# Coordination Sequence:
#
# PCOD8241706 Si02
#       6
#     8   8   8   8   8   8
#     4  10  19  33  55  80 104 135 174 214 258 306
#     4   8  16  32  53  77 104 132 168 215 258 299
#     4   9  18  34  55  77 101 133 173 213 254 302
#     4  10  21  36  51  74 108 139 169 209 257 307
#     4  10  21  37  54  76 106 137 171 212 258 309
#     4   9  20  36  53  74 101 133 170 211 254 304
#
# _framework density 18.024887
#
# number of rings (size 3 to 8) (size 9 to 14) (size 15 to 20)
#    0.000    2.667    0.000    3.500    0.000    6.333 
#    0.000    8.333    0.000    3.500    0.000    0.000 
#    0.000    0.000    0.000    0.000    0.000    0.000 
#
# Total GULP energy -595160.690376 kJ/mol
# GULP energy per Si atom -12399.181049 kJ/mol
# Density = 1.798386 g / cm^3
# Si number density = 18.024887 Si / 1000 Ang^3
#
#
#
# Elastic Constant Matrix: (Units=GPa)
#
#
# Indices 1 2 3 4 5 6 
#
# 1 109.9702 46.7780 94.3227 0.0000 0.0000 0.0000
# 2 46.7780 67.9873 48.8178 0.0000 0.0000 0.0000
# 3 94.3227 48.8178 132.3045 0.0000 0.0000 0.0000
# 4 0.0000 0.0000 0.0000 26.7331 0.0000 0.0000
# 5 0.0000 0.0000 0.0000 0.0000 41.4614 0.0000
# 6 0.0000 0.0000 0.0000 0.0000 0.0000 29.8345
#
#
#
# Elastic Compliance Matrix: (Units=1/GPa)
#
#
# Indices 1 2 3 4 5 6 
#
# 1 0.025090 -0.006012 -0.015669 0.000000 0.000000 0.000000
# 2 -0.006012 0.021451 -0.003629 0.000000 0.000000 0.000000
# 3 -0.015669 -0.003629 0.020068 0.000000 0.000000 0.000000
# 4 0.000000 0.000000 0.000000 0.037407 0.000000 0.000000
# 5 0.000000 0.000000 0.000000 0.000000 0.024119 0.000000
# 6 0.000000 0.000000 0.000000 0.000000 0.000000 0.033518
#
#
# Mechanical properties :
#
#
# Convention : Reuss Voigt Hill
#
# Bulk Modulus (GPa) = 62.54177 76.67766 69.60972
# Shear Modulus (GPa) = 22.97767 27.62870 25.30319
#
# Velocity S-wave (km/s) = 3.57427 3.91936 3.75079
# Velocity P-wave (km/s) = 7.19769 7.94444 7.58026
#
# Compressibility (1/GPa) = 0.01598931
#
# Stress axis : x y z
#
# Youngs Moduli (GPa) = 39.85615 46.61836 49.83034
#
# Poissons Ratio (x) = 0.28027 0.78079
# Poissons Ratio (y) = 0.23962 0.18083
# Poissons Ratio (z) = 0.62451 0.16917
#
# Static dielectric constant tensor:
#      x y z
#    x 3.590020 0.000000 0.000000 
#    y 0.000000 3.196880 0.000000 
#    z 0.000000 0.000000 3.437670 
# 
# 
# High freq. dielectric constant tensor:
#      x y z
#    x 1.702200 0.000000 0.000000 
#    y 0.000000 1.688430 0.000000 
#    z 0.000000 0.000000 1.702970 
# 
# From -- ./inp_files/6235.got.cif
#   From: 2010.03.12/outbox.cif.g09.slc.cpg/sg59_4_cif.got.tgz:6235.got - 2010.04.16 16:29:54.
