data_PCOD8241302
_publ_section_title
;
Structure prediction by ZEFSAII (Michael W. Deem and Ramdas Pophale) SiO2 
 PCOD8241302
Probable space group: P M M N
;
_chemical_formula_sum "Si O2"
_cell_formula_units_Z 40
_cell_length_a 9.167400
_cell_length_b 26.003664
_cell_length_c 9.106964
_cell_angle_alpha 90.000000
_cell_angle_beta 90.000000
_cell_angle_gamma 90.000000
_cell_volume 2170.972623
_symmetry_space_group_name_H-M "P M M N"
_symmetry_group_IT_number 59
_space_group.IT_coordinate_system_code '2'
_symmetry_cell_setting 'orthorhombic'
loop_
_space_group_symop_operation_xyz
x,y,z
1/2-x,1/2-y,z
1/2+x,-y,-z
-x,1/2+y,-z
-x,-y,-z
1/2+x,1/2+y,-z
1/2-x,y,z
x,1/2-y,z
loop_
_atom_site_type_symbol
_atom_site_label
_atom_site_fract_x
_atom_site_fract_y
_atom_site_fract_z
Si Si1 0.579324 0.094431 0.677453
Si Si2 0.918687 0.095645 0.335531
Si Si3 0.586139 0.805935 0.673486
Si Si4 0.423932 0.003825 0.844474
Si Si5 0.913987 0.693245 0.324626
O O1 0.750000 0.087409 0.712166
O O2 0.543372 0.087368 0.505959
O O3 0.483556 0.053461 0.762640
O O4 0.528018 0.150754 0.733457
O O5 0.750000 0.105133 0.312717
O O6 0.993324 0.146311 0.265984
O O7 0.972720 0.045827 0.248441
O O8 0.750000 0.813025 0.731796
O O9 0.525536 0.750000 0.727670
O O10 0.582696 0.806475 0.499056
O O11 0.250000 0.007587 0.860921
O O12 0.500000 0.000000 0.000000
O O13 0.750000 0.679936 0.270656
O O14 0.959878 0.750000 0.266112
#
# Coordination Sequence:
#
# PCOD8241302 Si02
#       5
#     8   8   8   8   8
#     4  10  19  32  52  78 104 131 165 204 248 297
#     4   9  19  33  51  76 103 131 165 205 247 294
#     4   8  14  25  44  72 103 132 162 197 239 289
#     4  11  23  38  53  71  98 132 170 211 255 301
#     4   8  14  26  45  71 103 135 164 197 240 288
#
# _framework density 18.424921999999999
#
# number of rings (size 3 to 8) (size 9 to 14) (size 15 to 20)
#    0.000    2.800    0.000    3.000    0.000    3.200 
#    0.000    4.000    0.000    1.200    0.000    5.600 
#    0.000    0.000    0.000    0.000    0.000    0.000 
#
# Total GULP energy -495787.083889 kJ/mol
# GULP energy per Si atom -12394.677097 kJ/mol
# Density = 1.838299 g / cm^3
# Si number density = 18.424922 Si / 1000 Ang^3
#
#
#
# Elastic Constant Matrix: (Units=GPa)
#
#
# Indices 1 2 3 4 5 6 
#
# 1 81.2486 72.6723 36.4576 0.0000 0.0000 0.0000
# 2 72.6723 180.9846 50.2300 0.0000 0.0000 0.0000
# 3 36.4576 50.2300 44.9267 0.0000 0.0000 0.0000
# 4 0.0000 0.0000 0.0000 -2.8081 0.0000 0.0000
# 5 0.0000 0.0000 0.0000 0.0000 21.5538 0.0000
# 6 0.0000 0.0000 0.0000 0.0000 0.0000 40.7139
#
#
#
# Elastic Compliance Matrix: (Units=1/GPa)
#
#
# Indices 1 2 3 4 5 6 
#
# 1 0.022986 -0.005876 -0.012083 0.000000 0.000000 0.000000
# 2 -0.005876 0.009513 -0.005868 0.000000 0.000000 0.000000
# 3 -0.012083 -0.005868 0.038624 0.000000 0.000000 0.000000
# 4 0.000000 0.000000 0.000000 -0.356115 0.000000 0.000000
# 5 0.000000 0.000000 0.000000 0.000000 0.046396 0.000000
# 6 0.000000 0.000000 0.000000 0.000000 0.000000 0.024562
#
#
# Mechanical properties :
#
#
# Convention : Reuss Voigt Hill
#
# Bulk Modulus (GPa) = 42.60870 69.54219 56.07544
# Shear Modulus (GPa) = -31.53418 21.74524 -4.89447
#
# Velocity S-wave (km/s) = -4.14151 3.43914 -1.63163
# Velocity P-wave (km/s) = 0.55344 7.32091 5.19144
#
# Compressibility (1/GPa) = 0.02346938
#
# Stress axis : x y z
#
# Youngs Moduli (GPa) = 43.50566 105.11468 25.89052
#
# Poissons Ratio (x) = 0.61767 0.31283
# Poissons Ratio (y) = 0.25565 0.15193
# Poissons Ratio (z) = 0.52567 0.61681
#
# Static dielectric constant tensor:
#      x y z
#    x 3.460560 0.000000 0.000000 
#    y 0.000000 4.232820 0.000000 
#    z 0.000000 0.000000 4.240820 
# 
# 
# High freq. dielectric constant tensor:
#      x y z
#    x 1.714140 0.000000 0.000000 
#    y 0.000000 1.737100 0.000000 
#    z 0.000000 0.000000 1.663820 
# 
# From -- ./inp_files/5676.got.cif
#   From: 2010.03.12/outbox.cif.g09.slc.cpg/sg59_3_cif.got.tgz:5676.got - 2010.04.16 16:29:54.
