data_PCOD8241687
_publ_section_title
;
Structure prediction by ZEFSAII (Michael W. Deem and Ramdas Pophale) SiO2 
 PCOD8241687
Probable space group: P M M N
;
_chemical_formula_sum "Si O2"
_cell_formula_units_Z 64
_cell_length_a 8.739081
_cell_length_b 24.086419
_cell_length_c 15.006309
_cell_angle_alpha 90.000000
_cell_angle_beta 90.000000
_cell_angle_gamma 90.000000
_cell_volume 3158.725501
_symmetry_space_group_name_H-M "P M M N"
_symmetry_group_IT_number 59
_space_group.IT_coordinate_system_code '2'
_symmetry_cell_setting 'orthorhombic'
loop_
_space_group_symop_operation_xyz
x,y,z
1/2-x,1/2-y,z
1/2+x,-y,-z
-x,1/2+y,-z
-x,-y,-z
1/2+x,1/2+y,-z
1/2-x,y,z
x,1/2-y,z
loop_
_atom_site_type_symbol
_atom_site_label
_atom_site_fract_x
_atom_site_fract_y
_atom_site_fract_z
Si Si1 0.570538 0.625814 0.550186
Si Si2 0.425844 0.982985 0.629973
Si Si3 0.574979 0.015541 0.161360
Si Si4 0.929018 0.097301 0.620900
Si Si5 0.571802 0.401832 0.821974
Si Si6 0.573533 0.186082 0.969238
Si Si7 0.573462 0.186635 0.296468
Si Si8 0.928750 0.873652 0.868694
O O1 0.750000 0.616245 0.557101
O O2 0.479602 0.571874 0.581434
O O3 0.519614 0.637400 0.447866
O O4 0.520862 0.676889 0.612680
O O5 0.250000 0.995989 0.606238
O O6 0.448191 0.974000 0.734523
O O7 0.530099 0.033746 0.596746
O O8 0.750000 0.019352 0.131032
O O9 0.481836 0.063486 0.109445
O O10 0.513089 0.954768 0.135235
O O11 0.750000 0.107740 0.609621
O O12 0.985382 0.110659 0.721379
O O13 0.750000 0.416544 0.820124
O O14 0.534101 0.347865 0.880097
O O15 0.750000 0.177452 0.997422
O O16 0.537542 0.250000 0.948423
O O17 0.466850 0.165880 0.048889
O O18 0.750000 0.172464 0.314775
O O19 0.550354 0.250000 0.266419
O O20 0.515796 0.147139 0.218528
O O21 0.750000 0.871961 0.849233
#
# Coordination Sequence:
#
# PCOD8241687 Si02
#       8
#     8   8   8   8   8   8   8   8
#     4  12  23  35  55  83 117 156 198 241 290 349
#     4  10  19  33  54  82 117 155 197 241 289 348
#     4  10  20  35  59  88 122 160 196 238 296 360
#     4  10  20  35  56  83 118 154 196 246 296 348
#     4   9  20  39  62  88 119 155 200 252 301 350
#     4  10  22  42  66  89 115 152 199 248 297 352
#     4  11  24  42  62  84 115 156 200 247 298 354
#     4  12  24  38  61  91 123 155 192 239 295 360
#
# _framework density 20.261337000000001
#
# number of rings (size 3 to 8) (size 9 to 14) (size 15 to 20)
#    0.000    1.500    1.250    4.500    0.000    5.250 
#    0.000    0.625    0.000    2.250    0.000    0.000 
#    0.000    0.000    0.000    0.000    0.000    0.000 
#
# Total GULP energy -793901.969511 kJ/mol
# GULP energy per Si atom -12404.718274 kJ/mol
# Density = 2.021522 g / cm^3
# Si number density = 20.261337 Si / 1000 Ang^3
#
#
#
# Elastic Constant Matrix: (Units=GPa)
#
#
# Indices 1 2 3 4 5 6 
#
# 1 64.6296 30.5252 29.8067 0.0000 0.0000 0.0000
# 2 30.5252 103.4591 48.6350 0.0000 0.0000 0.0000
# 3 29.8067 48.6350 69.5547 0.0000 0.0000 0.0000
# 4 0.0000 0.0000 0.0000 29.1003 0.0000 0.0000
# 5 0.0000 0.0000 0.0000 0.0000 25.3887 0.0000
# 6 0.0000 0.0000 0.0000 0.0000 0.0000 28.6168
#
#
#
# Elastic Compliance Matrix: (Units=1/GPa)
#
#
# Indices 1 2 3 4 5 6 
#
# 1 0.019800 -0.002761 -0.006555 0.000000 0.000000 0.000000
# 2 -0.002761 0.014783 -0.009154 0.000000 0.000000 0.000000
# 3 -0.006555 -0.009154 0.023587 0.000000 0.000000 0.000000
# 4 0.000000 0.000000 0.000000 0.034364 0.000000 0.000000
# 5 0.000000 0.000000 0.000000 0.000000 0.039388 0.000000
# 6 0.000000 0.000000 0.000000 0.000000 0.000000 0.034944
#
#
# Mechanical properties :
#
#
# Convention : Reuss Voigt Hill
#
# Bulk Modulus (GPa) = 47.09986 50.61968 48.85977
# Shear Modulus (GPa) = 23.71004 25.19960 24.45482
#
# Velocity S-wave (km/s) = 3.42455 3.53048 3.47792
# Velocity P-wave (km/s) = 6.23966 6.45420 6.34783
#
# Compressibility (1/GPa) = 0.02123148
#
# Stress axis : x y z
#
# Youngs Moduli (GPa) = 50.50632 67.64365 42.39657
#
# Poissons Ratio (x) = 0.18673 0.27789
# Poissons Ratio (y) = 0.13943 0.38810
# Poissons Ratio (z) = 0.33104 0.61921
#
# Static dielectric constant tensor:
#      x y z
#    x 3.672750 0.000000 0.000000 
#    y 0.000000 3.622110 0.000000 
#    z 0.000000 0.000000 3.862970 
# 
# 
# High freq. dielectric constant tensor:
#      x y z
#    x 1.795040 0.000000 0.000000 
#    y 0.000000 1.777140 0.000000 
#    z 0.000000 0.000000 1.793820 
# 
# From -- ./inp_files/21441.got.cif
#   From: 2010.03.12/outbox.cif.g09.slc.cpg/sg59_11_cif.got.tgz:21441.got - 2010.04.16 16:29:54.
