data_PCOD8241219
_publ_section_title
;
Structure prediction by ZEFSAII (Michael W. Deem and Ramdas Pophale) SiO2 
 PCOD8241219
Probable space group: P M M N
;
_chemical_formula_sum "Si O2"
_cell_formula_units_Z 64
_cell_length_a 22.121437
_cell_length_b 18.015905
_cell_length_c 9.766214
_cell_angle_alpha 90.000000
_cell_angle_beta 90.000000
_cell_angle_gamma 90.000000
_cell_volume 3892.204538
_symmetry_space_group_name_H-M "P M M N"
_symmetry_group_IT_number 59
_space_group.IT_coordinate_system_code '2'
_symmetry_cell_setting 'orthorhombic'
loop_
_space_group_symop_operation_xyz
x,y,z
1/2-x,1/2-y,z
1/2+x,-y,-z
-x,1/2+y,-z
-x,-y,-z
1/2+x,1/2+y,-z
1/2-x,y,z
x,1/2-y,z
loop_
_atom_site_type_symbol
_atom_site_label
_atom_site_fract_x
_atom_site_fract_y
_atom_site_fract_z
Si Si1 0.818361 0.833752 0.927880
Si Si2 0.049979 0.537113 0.175071
Si Si3 0.422478 0.962905 0.863494
Si Si4 0.385458 0.335700 0.588210
Si Si5 0.320934 0.073991 0.811632
Si Si6 0.463698 0.834548 0.682168
Si Si7 0.523965 0.334273 0.631026
Si Si8 0.905312 0.888275 0.703998
O O1 0.750000 0.852273 0.888082
O O2 0.825577 0.750000 0.980425
O O3 0.856575 0.846635 0.793755
O O4 0.840823 0.885769 0.049394
O O5 0.087989 0.473558 0.251050
O O6 0.979580 0.514925 0.170453
O O7 0.057415 0.612193 0.262250
O O8 0.077980 0.552741 0.025806
O O9 0.423808 0.886065 0.780113
O O10 0.360947 0.999886 0.808988
O O11 0.368974 0.250000 0.557455
O O12 0.335914 0.370763 0.687845
O O13 0.452123 0.341243 0.652518
O O14 0.382723 0.384616 0.451166
O O15 0.250000 0.053866 0.806871
O O16 0.443133 0.750000 0.705105
O O17 0.457050 0.857734 0.522987
O O18 0.533227 0.842786 0.725190
O O19 0.544747 0.250000 0.660480
#
# Coordination Sequence:
#
# PCOD8241219 Si02
#       8
#     8   8   8   8   8   8   8   8
#     4  10  20  34  50  67  96 139 177 207 244 289
#     4  10  19  32  51  77 103 134 167 208 255 307
#     4  10  20  33  50  76 103 130 173 210 253 301
#     4  10  20  32  49  74 103 135 171 207 245 293
#     4  11  22  36  50  70 101 137 177 213 249 294
#     4   9  19  32  52  79 106 132 161 206 259 310
#     4   9  18  32  50  77 107 134 162 197 254 310
#     4  10  19  32  52  75 106 134 170 207 248 297
#
# _framework density 16.443123
#
# number of rings (size 3 to 8) (size 9 to 14) (size 15 to 20)
#    0.000    2.125    2.500    2.250    1.750    3.250 
#    0.000    0.000    0.000    0.375    0.000    0.000 
#    0.000    0.500    0.000    0.000    0.000    0.000 
#
# Total GULP energy -793677.178030 kJ/mol
# GULP energy per Si atom -12401.205907 kJ/mol
# Density = 1.640570 g / cm^3
# Si number density = 16.443123 Si / 1000 Ang^3
#
#
#
# Elastic Constant Matrix: (Units=GPa)
#
#
# Indices 1 2 3 4 5 6 
#
# 1 52.8394 31.3689 30.8733 0.0000 0.0000 0.0000
# 2 31.3689 98.7934 59.2416 0.0000 0.0000 0.0000
# 3 30.8733 59.2416 90.6218 0.0000 0.0000 0.0000
# 4 0.0000 0.0000 0.0000 33.8888 0.0000 0.0000
# 5 0.0000 0.0000 0.0000 0.0000 22.3929 0.0000
# 6 0.0000 0.0000 0.0000 0.0000 0.0000 18.7356
#
#
#
# Elastic Compliance Matrix: (Units=1/GPa)
#
#
# Indices 1 2 3 4 5 6 
#
# 1 0.024852 -0.004628 -0.005441 0.000000 0.000000 0.000000
# 2 -0.004628 0.017510 -0.009870 0.000000 0.000000 0.000000
# 3 -0.005441 -0.009870 0.019341 0.000000 0.000000 0.000000
# 4 0.000000 0.000000 0.000000 0.029508 0.000000 0.000000
# 5 0.000000 0.000000 0.000000 0.000000 0.044657 0.000000
# 6 0.000000 0.000000 0.000000 0.000000 0.000000 0.053374
#
#
# Mechanical properties :
#
#
# Convention : Reuss Voigt Hill
#
# Bulk Modulus (GPa) = 45.82044 53.91357 49.86700
# Shear Modulus (GPa) = 21.15091 23.05487 22.10289
#
# Velocity S-wave (km/s) = 3.59040 3.74852 3.67031
# Velocity P-wave (km/s) = 6.71673 7.18292 6.95373
#
# Compressibility (1/GPa) = 0.02182432
#
# Stress axis : x y z
#
# Youngs Moduli (GPa) = 40.23819 57.10896 51.70387
#
# Poissons Ratio (x) = 0.26432 0.28132
# Poissons Ratio (y) = 0.18623 0.51033
# Poissons Ratio (z) = 0.21894 0.56368
#
# Static dielectric constant tensor:
#      x y z
#    x 2.802330 0.000000 0.000000 
#    y 0.000000 3.130990 0.000000 
#    z 0.000000 0.000000 3.173590 
# 
# 
# High freq. dielectric constant tensor:
#      x y z
#    x 1.596810 0.000000 0.000000 
#    y 0.000000 1.631200 0.000000 
#    z 0.000000 0.000000 1.644490 
# 
# From -- ./inp_files/10703.got.cif
#   From: 2010.03.12/outbox.cif.g09.slc.cpg/sg59_6_cif.got.tgz:10703.got - 2010.04.16 16:29:54.
