data_PCOD8241396
_publ_section_title
;
Structure prediction by ZEFSAII (Michael W. Deem and Ramdas Pophale) SiO2 
 PCOD8241396
Probable space group: P M M N
;
_chemical_formula_sum "Si O2"
_cell_formula_units_Z 64
_cell_length_a 23.560359
_cell_length_b 9.213042
_cell_length_c 15.134531
_cell_angle_alpha 90.000000
_cell_angle_beta 90.000000
_cell_angle_gamma 90.000000
_cell_volume 3285.140301
_symmetry_space_group_name_H-M "P M M N"
_symmetry_group_IT_number 59
_space_group.IT_coordinate_system_code '2'
_symmetry_cell_setting 'orthorhombic'
loop_
_space_group_symop_operation_xyz
x,y,z
1/2-x,1/2-y,z
1/2+x,-y,-z
-x,1/2+y,-z
-x,-y,-z
1/2+x,1/2+y,-z
1/2-x,y,z
x,1/2-y,z
loop_
_atom_site_type_symbol
_atom_site_label
_atom_site_fract_x
_atom_site_fract_y
_atom_site_fract_z
Si Si1 0.128534 0.420301 0.820920
Si Si2 0.020100 0.082442 0.412954
Si Si3 0.148697 0.414155 0.457303
Si Si4 0.312503 0.911462 0.304539
Si Si5 0.313868 0.422189 0.643798
Si Si6 0.387122 0.921571 0.150082
Si Si7 0.315931 0.921799 0.984170
Si Si8 0.996250 0.580124 0.231972
O O1 0.140051 0.250000 0.833593
O O2 0.153218 0.481171 0.728910
O O3 0.061348 0.454485 0.821102
O O4 0.161817 0.504952 0.895843
O O5 0.999743 0.250000 0.415495
O O6 0.087480 0.071824 0.413944
O O7 0.997562 0.007737 0.323667
O O8 0.000000 0.000000 0.500000
O O9 0.170626 0.250000 0.459191
O O10 0.191135 0.502337 0.395730
O O11 0.151979 0.476520 0.557061
O O12 0.250000 0.906459 0.262209
O O13 0.334897 0.750000 0.325973
O O14 0.353612 0.987993 0.233697
O O15 0.250000 0.484488 0.641972
O O16 0.313239 0.250000 0.648093
O O17 0.378485 0.750000 0.149089
O O18 0.357809 0.982738 0.061248
O O19 0.453180 0.964429 0.163903
O O20 0.250000 0.964644 0.002176
O O21 0.321631 0.750000 0.973863
O O22 0.000027 0.750000 0.257314
#
# Coordination Sequence:
#
# PCOD8241396 Si02
#       8
#     8   8   8   8   8   8   8   8
#     4  10  21  37  58  83 111 145 188 238 292 348
#     4  11  22  35  54  80 113 153 196 240 284 334
#     4  10  20  34  52  77 107 142 185 230 279 333
#     4  10  19  32  53  80 109 144 185 227 274 332
#     4   9  17  31  51  73 102 142 182 221 271 332
#     4   9  18  35  58  81 111 150 189 229 280 341
#     4  10  21  38  60  85 112 146 190 237 287 346
#     4  10  20  37  59  82 112 151 193 236 287 347
#
# _framework density 19.481663999999999
#
# number of rings (size 3 to 8) (size 9 to 14) (size 15 to 20)
#    0.000    2.125    1.250    2.250    0.000    6.500 
#    0.000    1.875    0.000    3.750    0.000    0.000 
#    0.000    0.000    0.000    0.000    0.000    0.000 
#
# Total GULP energy -793379.923801 kJ/mol
# GULP energy per Si atom -12396.561309 kJ/mol
# Density = 1.943732 g / cm^3
# Si number density = 19.481664 Si / 1000 Ang^3
#
#
#
# Elastic Constant Matrix: (Units=GPa)
#
#
# Indices 1 2 3 4 5 6 
#
# 1 100.3304 29.7199 46.8028 0.0000 0.0000 0.0000
# 2 29.7199 49.3672 34.1973 0.0000 0.0000 0.0000
# 3 46.8028 34.1973 130.6771 0.0000 0.0000 0.0000
# 4 0.0000 0.0000 0.0000 28.6497 0.0000 0.0000
# 5 0.0000 0.0000 0.0000 0.0000 39.7379 0.0000
# 6 0.0000 0.0000 0.0000 0.0000 0.0000 18.8071
#
#
#
# Elastic Compliance Matrix: (Units=1/GPa)
#
#
# Indices 1 2 3 4 5 6 
#
# 1 0.013155 -0.005687 -0.003223 0.000000 0.000000 0.000000
# 2 -0.005687 0.027200 -0.005081 0.000000 0.000000 0.000000
# 3 -0.003223 -0.005081 0.010137 0.000000 0.000000 0.000000
# 4 0.000000 0.000000 0.000000 0.034904 0.000000 0.000000
# 5 0.000000 0.000000 0.000000 0.000000 0.025165 0.000000
# 6 0.000000 0.000000 0.000000 0.000000 0.000000 0.053171
#
#
# Mechanical properties :
#
#
# Convention : Reuss Voigt Hill
#
# Bulk Modulus (GPa) = 44.42714 55.75719 50.09217
# Shear Modulus (GPa) = 25.09812 28.74927 26.92369
#
# Velocity S-wave (km/s) = 3.59318 3.84566 3.72156
# Velocity P-wave (km/s) = 6.32998 6.95711 6.65094
#
# Compressibility (1/GPa) = 0.02250876
#
# Stress axis : x y z
#
# Youngs Moduli (GPa) = 76.01491 36.76509 98.65172
#
# Poissons Ratio (x) = 0.20908 0.31800
# Poissons Ratio (y) = 0.43228 0.50127
# Poissons Ratio (z) = 0.24503 0.18681
#
# Static dielectric constant tensor:
#      x y z
#    x 3.774080 0.000000 0.000000 
#    y 0.000000 3.268180 0.000000 
#    z 0.000000 0.000000 3.625100 
# 
# 
# High freq. dielectric constant tensor:
#      x y z
#    x 1.773030 0.000000 0.000000 
#    y 0.000000 1.721780 0.000000 
#    z 0.000000 0.000000 1.762550 
# 
# From -- ./inp_files/24649.got.cif
#   From: 2010.03.12/outbox.cif.g09.slc.cpg/sg59_13_cif.got.tgz:24649.got - 2010.04.16 16:29:54.
