data_PCOD8241516
_publ_section_title
;
Structure prediction by ZEFSAII (Michael W. Deem and Ramdas Pophale) SiO2 
 PCOD8241516
Probable space group: P M M N
;
_chemical_formula_sum "Si O2"
_cell_formula_units_Z 48
_cell_length_a 9.564920
_cell_length_b 18.095849
_cell_length_c 15.849740
_cell_angle_alpha 90.000000
_cell_angle_beta 90.000000
_cell_angle_gamma 90.000000
_cell_volume 2743.357764
_symmetry_space_group_name_H-M "P M M N"
_symmetry_group_IT_number 59
_space_group.IT_coordinate_system_code '2'
_symmetry_cell_setting 'orthorhombic'
loop_
_space_group_symop_operation_xyz
x,y,z
1/2-x,1/2-y,z
1/2+x,-y,-z
-x,1/2+y,-z
-x,-y,-z
1/2+x,1/2+y,-z
1/2-x,y,z
x,1/2-y,z
loop_
_atom_site_type_symbol
_atom_site_label
_atom_site_fract_x
_atom_site_fract_y
_atom_site_fract_z
Si Si1 0.406563 0.750000 0.108422
Si Si2 0.908874 0.403816 0.963922
Si Si3 0.911733 0.750000 0.273165
Si Si4 0.413804 0.664669 0.556486
Si Si5 0.085092 0.538390 0.682270
Si Si6 0.585050 0.883702 0.394511
Si Si7 0.586313 0.016247 0.130772
O O1 0.250000 0.750000 0.145939
O O2 0.432120 0.682431 0.045987
O O3 0.509337 0.750000 0.185953
O O4 0.750000 0.428797 0.945457
O O5 0.007969 0.441873 0.895467
O O6 0.949079 0.422156 0.060562
O O7 0.750000 0.750000 0.251080
O O8 0.952868 0.676438 0.323883
O O9 0.250000 0.653931 0.536476
O O10 0.446688 0.750000 0.579328
O O11 0.462522 0.612643 0.634062
O O12 0.501872 0.638594 0.477205
O O13 0.250000 0.533528 0.684611
O O14 0.030617 0.463976 0.636139
O O15 0.028629 0.542793 0.778307
O O16 0.750000 0.883318 0.414868
O O17 0.750000 0.997931 0.135776
#
# Coordination Sequence:
#
# PCOD8241516 Si02
#       7
#     4   8   4   8   8   8   8
#     4  10  20  32  46  73 106 130 156 197 248 298
#     4   9  18  32  50  73 102 131 160 200 249 295
#     4  10  20  32  50  75  98 128 166 205 246 290
#     4  10  20  34  50  71 101 131 161 199 245 293
#     4   9  18  32  51  75  97 125 166 206 239 283
#     4  10  19  33  52  72  97 126 164 206 243 287
#     4   9  17  33  54  72  95 130 167 203 241 285
#
# _framework density 17.496805999999999
#
# number of rings (size 3 to 8) (size 9 to 14) (size 15 to 20)
#    0.000    2.500    0.833    1.500    0.000    2.667 
#    1.500    1.667    0.000    0.000    0.000    0.000 
#    0.000    0.000    0.000    0.000    0.000    0.000 
#
# Total GULP energy -595116.945792 kJ/mol
# GULP energy per Si atom -12398.269704 kJ/mol
# Density = 1.745698 g / cm^3
# Si number density = 17.496806 Si / 1000 Ang^3
#
#
#
# Elastic Constant Matrix: (Units=GPa)
#
#
# Indices 1 2 3 4 5 6 
#
# 1 34.4109 33.6204 41.1137 0.0000 0.0000 0.0000
# 2 33.6204 146.0990 83.0581 0.0000 0.0000 0.0000
# 3 41.1137 83.0581 110.3813 0.0000 0.0000 0.0000
# 4 0.0000 0.0000 0.0000 15.4570 0.0000 0.0000
# 5 0.0000 0.0000 0.0000 0.0000 25.9724 0.0000
# 6 0.0000 0.0000 0.0000 0.0000 0.0000 17.0140
#
#
#
# Elastic Compliance Matrix: (Units=1/GPa)
#
#
# Indices 1 2 3 4 5 6 
#
# 1 0.052601 -0.001689 -0.018322 0.000000 0.000000 0.000000
# 2 -0.001689 0.012016 -0.008413 0.000000 0.000000 0.000000
# 3 -0.018322 -0.008413 0.022214 0.000000 0.000000 0.000000
# 4 0.000000 0.000000 0.000000 0.064696 0.000000 0.000000
# 5 0.000000 0.000000 0.000000 0.000000 0.038502 0.000000
# 6 0.000000 0.000000 0.000000 0.000000 0.000000 0.058775
#
#
# Mechanical properties :
#
#
# Convention : Reuss Voigt Hill
#
# Bulk Modulus (GPa) = 33.34992 67.38618 50.36805
# Shear Modulus (GPa) = 15.84060 20.56193 18.20126
#
# Velocity S-wave (km/s) = 3.01215 3.43181 3.22881
# Velocity P-wave (km/s) = 5.58564 7.36886 6.53833
#
# Compressibility (1/GPa) = 0.02998508
#
# Stress axis : x y z
#
# Youngs Moduli (GPa) = 19.01107 83.22346 45.01675
#
# Poissons Ratio (x) = 0.14053 0.82478
# Poissons Ratio (y) = 0.03210 0.37871
# Poissons Ratio (z) = 0.34831 0.70012
#
# Static dielectric constant tensor:
#      x y z
#    x 3.136300 0.000000 0.000000 
#    y 0.000000 2.250910 0.000000 
#    z 0.000000 0.000000 3.404200 
# 
# 
# High freq. dielectric constant tensor:
#      x y z
#    x 1.657020 0.000000 0.000000 
#    y 0.000000 1.684230 0.000000 
#    z 0.000000 0.000000 1.679090 
# 
# From -- ./inp_files/20549.got.cif
#   From: 2010.03.12/outbox.cif.g09.slc.cpg/sg59_11_cif.got.tgz:20549.got - 2010.04.16 16:29:54.
