data_PCOD8241636
_publ_section_title
;
Structure prediction by ZEFSAII (Michael W. Deem and Ramdas Pophale) SiO2 
 PCOD8241636
Probable space group: P M M N
;
_chemical_formula_sum "Si O2"
_cell_formula_units_Z 64
_cell_length_a 9.209731
_cell_length_b 18.629976
_cell_length_c 20.081848
_cell_angle_alpha 90.000000
_cell_angle_beta 90.000000
_cell_angle_gamma 90.000000
_cell_volume 3445.584590
_symmetry_space_group_name_H-M "P M M N"
_symmetry_group_IT_number 59
_space_group.IT_coordinate_system_code '2'
_symmetry_cell_setting 'orthorhombic'
loop_
_space_group_symop_operation_xyz
x,y,z
1/2-x,1/2-y,z
1/2+x,-y,-z
-x,1/2+y,-z
-x,-y,-z
1/2+x,1/2+y,-z
1/2-x,y,z
x,1/2-y,z
loop_
_atom_site_type_symbol
_atom_site_label
_atom_site_fract_x
_atom_site_fract_y
_atom_site_fract_z
Si Si1 0.420726 0.935027 0.315910
Si Si2 0.920839 0.422663 0.923619
Si Si3 0.077845 0.919619 0.705509
Si Si4 0.583370 0.584319 0.945204
Si Si5 0.922016 0.330693 0.799340
Si Si6 0.080327 0.566565 0.467754
Si Si7 0.415081 0.166207 0.186076
Si Si8 0.078829 0.670669 0.580781
O O1 0.250000 0.950669 0.309914
O O2 0.466658 0.867244 0.270711
O O3 0.467480 0.919343 0.391886
O O4 0.505059 0.003302 0.288236
O O5 0.750000 0.411844 0.928626
O O6 0.963364 0.506493 0.915974
O O7 0.983402 0.378295 0.860618
O O8 0.990267 0.392160 0.991129
O O9 0.250000 0.928734 0.704524
O O10 0.018140 0.880406 0.639041
O O11 0.031373 0.872776 0.768124
O O12 0.750000 0.581598 0.967814
O O13 0.554777 0.643870 0.889639
O O14 0.750000 0.327053 0.804634
O O15 0.987495 0.250000 0.801789
O O16 0.250000 0.549822 0.473035
O O17 0.038187 0.637568 0.509169
O O18 0.000000 0.500000 0.500000
O O19 0.250000 0.145095 0.206299
O O20 0.441707 0.250000 0.193043
O O21 0.250000 0.677107 0.589404
O O22 0.008131 0.750000 0.585833
#
# Coordination Sequence:
#
# PCOD8241636 Si02
#       8
#     8   8   8   8   8   8   8   8
#     4  10  20  34  56  81 105 138 179 223 265 316
#     4   9  17  31  52  75 101 135 174 219 261 307
#     4  11  21  34  54  77 106 143 178 219 264 315
#     4   9  18  33  52  74 103 137 174 216 262 314
#     4   9  18  33  53  79 109 139 176 223 273 319
#     4  10  19  33  54  78 105 137 174 217 261 312
#     4  10  21  36  53  75 106 141 175 215 263 314
#     4   9  18  32  50  75 106 137 170 212 263 311
#
# _framework density 18.574497000000001
#
# number of rings (size 3 to 8) (size 9 to 14) (size 15 to 20)
#    0.000    2.375    1.250    1.500    0.000    4.250 
#    0.000    5.625    0.000    2.250    0.000    1.750 
#    0.000    0.000    0.000    0.000    0.000    0.000 
#
# Total GULP energy -793617.366190 kJ/mol
# GULP energy per Si atom -12400.271347 kJ/mol
# Density = 1.853222 g / cm^3
# Si number density = 18.574497 Si / 1000 Ang^3
#
#
#
# Elastic Constant Matrix: (Units=GPa)
#
#
# Indices 1 2 3 4 5 6 
#
# 1 29.8521 24.4158 30.3711 0.0000 0.0000 0.0000
# 2 24.4158 106.7293 55.9937 0.0000 0.0000 0.0000
# 3 30.3711 55.9937 130.1863 0.0000 0.0000 0.0000
# 4 0.0000 0.0000 0.0000 29.6062 0.0000 0.0000
# 5 0.0000 0.0000 0.0000 0.0000 24.6346 0.0000
# 6 0.0000 0.0000 0.0000 0.0000 0.0000 16.2580
#
#
#
# Elastic Compliance Matrix: (Units=1/GPa)
#
#
# Indices 1 2 3 4 5 6 
#
# 1 0.047154 -0.006477 -0.008214 0.000000 0.000000 0.000000
# 2 -0.006477 0.012990 -0.004076 0.000000 0.000000 0.000000
# 3 -0.008214 -0.004076 0.011351 0.000000 0.000000 0.000000
# 4 0.000000 0.000000 0.000000 0.033777 0.000000 0.000000
# 5 0.000000 0.000000 0.000000 0.000000 0.040593 0.000000
# 6 0.000000 0.000000 0.000000 0.000000 0.000000 0.061508
#
#
# Mechanical properties :
#
#
# Convention : Reuss Voigt Hill
#
# Bulk Modulus (GPa) = 29.44774 54.25878 41.85326
# Shear Modulus (GPa) = 19.51396 24.49890 22.00643
#
# Velocity S-wave (km/s) = 3.24478 3.63568 3.44578
# Velocity P-wave (km/s) = 5.47050 6.84829 6.19780
#
# Compressibility (1/GPa) = 0.03395847
#
# Stress axis : x y z
#
# Youngs Moduli (GPa) = 21.20731 76.98477 88.10078
#
# Poissons Ratio (x) = 0.49867 0.72370
# Poissons Ratio (y) = 0.13737 0.35908
# Poissons Ratio (z) = 0.17421 0.31377
#
# Static dielectric constant tensor:
#      x y z
#    x 3.143280 0.000000 0.000000 
#    y 0.000000 3.662720 0.000000 
#    z 0.000000 0.000000 3.571340 
# 
# 
# High freq. dielectric constant tensor:
#      x y z
#    x 1.687760 0.000000 0.000000 
#    y 0.000000 1.722810 0.000000 
#    z 0.000000 0.000000 1.732150 
# 
# From -- ./inp_files/29554.got.cif
#   From: 2010.03.12/outbox.cif.g09.slc.cpg/sg59_15_cif.got.tgz:29554.got - 2010.04.16 16:29:54.
