data_PCOD8241695
_publ_section_title
;
Structure prediction by ZEFSAII (Michael W. Deem and Ramdas Pophale) SiO2 
 PCOD8241695
Probable space group: P M M N
;
_chemical_formula_sum "Si O2"
_cell_formula_units_Z 64
_cell_length_a 9.001561
_cell_length_b 14.208791
_cell_length_c 25.910047
_cell_angle_alpha 90.000000
_cell_angle_beta 90.000000
_cell_angle_gamma 90.000000
_cell_volume 3313.928666
_symmetry_space_group_name_H-M "P M M N"
_symmetry_group_IT_number 59
_space_group.IT_coordinate_system_code '2'
_symmetry_cell_setting 'orthorhombic'
loop_
_space_group_symop_operation_xyz
x,y,z
1/2-x,1/2-y,z
1/2+x,-y,-z
-x,1/2+y,-z
-x,-y,-z
1/2+x,1/2+y,-z
1/2-x,y,z
x,1/2-y,z
loop_
_atom_site_type_symbol
_atom_site_label
_atom_site_fract_x
_atom_site_fract_y
_atom_site_fract_z
Si Si1 0.073432 0.096827 0.985666
Si Si2 0.426140 0.353626 0.871169
Si Si3 0.073449 0.025921 0.775431
Si Si4 0.426459 0.356900 0.677181
Si Si5 0.088991 0.852661 0.918767
Si Si6 0.924419 0.356663 0.477950
Si Si7 0.575025 0.547268 0.427172
Si Si8 0.923498 0.640174 0.819231
O O1 0.250000 0.099796 0.990393
O O2 0.017304 0.120664 0.928408
O O3 0.002782 0.164055 0.028650
O O4 0.000000 0.000000 0.000000
O O5 0.250000 0.354037 0.871036
O O6 0.486193 0.250000 0.857488
O O7 0.484955 0.423882 0.827548
O O8 0.250000 0.013587 0.773976
O O9 0.016075 0.088249 0.727637
O O10 0.998166 0.922370 0.773907
O O11 0.250000 0.352029 0.677895
O O12 0.490369 0.250000 0.676084
O O13 0.483124 0.417101 0.628186
O O14 0.250000 0.906904 0.926162
O O15 0.127551 0.750000 0.898119
O O16 0.992532 0.899403 0.873274
O O17 0.750000 0.359236 0.488065
O O18 0.972786 0.250000 0.460878
O O19 0.968199 0.436456 0.435277
O O20 0.002763 0.384218 0.530989
O O21 0.750000 0.560563 0.432101
O O22 0.750000 0.620615 0.821593
O O23 0.956179 0.750000 0.808326
#
# Coordination Sequence:
#
# PCOD8241695 Si02
#       8
#     8   8   8   8   8   8   8   8
#     4  11  21  32  48  70  98 131 167 207 253 307
#     4   9  18  32  50  72  98 130 166 202 245 300
#     4  10  19  33  55  79 101 128 167 214 257 298
#     4   9  17  30  51  79 107 135 171 215 259 303
#     4  10  20  34  52  73  96 122 156 200 249 304
#     4   9  17  29  46  71 105 142 178 219 267 313
#     4   9  17  30  49  74 104 140 181 220 259 308
#     4  10  21  37  56  76 100 132 167 205 254 311
#
# _framework density 19.312425999999999
#
# number of rings (size 3 to 8) (size 9 to 14) (size 15 to 20)
#    0.000    2.375    0.000    3.000    0.000    5.250 
#    0.000    1.875    0.000    6.000    0.000    0.000 
#    0.000    0.000    0.000    0.000    0.000    0.000 
#
# Total GULP energy -792990.481240 kJ/mol
# GULP energy per Si atom -12390.476269 kJ/mol
# Density = 1.926847 g / cm^3
# Si number density = 19.312426 Si / 1000 Ang^3
#
#
#
# Elastic Constant Matrix: (Units=GPa)
#
#
# Indices 1 2 3 4 5 6 
#
# 1 55.1753 36.9245 33.6217 0.0000 0.0000 0.0000
# 2 36.9245 143.9049 79.2723 0.0000 0.0000 0.0000
# 3 33.6217 79.2723 134.3427 0.0000 0.0000 0.0000
# 4 0.0000 0.0000 0.0000 31.1152 0.0000 0.0000
# 5 0.0000 0.0000 0.0000 0.0000 21.8901 0.0000
# 6 0.0000 0.0000 0.0000 0.0000 0.0000 23.9759
#
#
#
# Elastic Compliance Matrix: (Units=1/GPa)
#
#
# Indices 1 2 3 4 5 6 
#
# 1 0.022854 -0.004020 -0.003348 0.000000 0.000000 0.000000
# 2 -0.004020 0.011003 -0.005486 0.000000 0.000000 0.000000
# 3 -0.003348 -0.005486 0.011519 0.000000 0.000000 0.000000
# 4 0.000000 0.000000 0.000000 0.032139 0.000000 0.000000
# 5 0.000000 0.000000 0.000000 0.000000 0.045683 0.000000
# 6 0.000000 0.000000 0.000000 0.000000 0.000000 0.041709
#
#
# Mechanical properties :
#
#
# Convention : Reuss Voigt Hill
#
# Bulk Modulus (GPa) = 50.84449 70.33999 60.59224
# Shear Modulus (GPa) = 25.35886 27.63654 26.49770
#
# Velocity S-wave (km/s) = 3.62758 3.78699 3.70814
# Velocity P-wave (km/s) = 6.62799 7.45808 7.05526
#
# Compressibility (1/GPa) = 0.01966782
#
# Stress axis : x y z
#
# Youngs Moduli (GPa) = 43.75557 90.88583 86.81457
#
# Poissons Ratio (x) = 0.36537 0.29061
# Poissons Ratio (y) = 0.17590 0.47630
# Poissons Ratio (z) = 0.14647 0.49863
#
# Static dielectric constant tensor:
#      x y z
#    x 3.187980 0.000000 0.000000 
#    y 0.000000 3.791600 0.000000 
#    z 0.000000 0.000000 3.280890 
# 
# 
# High freq. dielectric constant tensor:
#      x y z
#    x 1.723330 0.000000 0.000000 
#    y 0.000000 1.768820 0.000000 
#    z 0.000000 0.000000 1.733900 
# 
# From -- ./inp_files/31656.got.cif
#   From: 2010.03.12/outbox.cif.g09.slc.cpg/sg59_16_cif.got.tgz:31656.got - 2010.04.16 16:29:54.
