data_PCOD8241993
_publ_section_title
;
Structure prediction by ZEFSAII (Michael W. Deem and Ramdas Pophale) SiO2 
 PCOD8241993
Probable space group: P M M N
;
_chemical_formula_sum "Si O2"
_cell_formula_units_Z 48
_cell_length_a 8.927627
_cell_length_b 15.744444
_cell_length_c 16.975262
_cell_angle_alpha 90.000000
_cell_angle_beta 90.000000
_cell_angle_gamma 90.000000
_cell_volume 2386.051711
_symmetry_space_group_name_H-M "P M M N"
_symmetry_group_IT_number 59
_space_group.IT_coordinate_system_code '2'
_symmetry_cell_setting 'orthorhombic'
loop_
_space_group_symop_operation_xyz
x,y,z
1/2-x,1/2-y,z
1/2+x,-y,-z
-x,1/2+y,-z
-x,-y,-z
1/2+x,1/2+y,-z
1/2-x,y,z
x,1/2-y,z
loop_
_atom_site_type_symbol
_atom_site_label
_atom_site_fract_x
_atom_site_fract_y
_atom_site_fract_z
Si Si1 0.572028 0.997804 0.414868
Si Si2 0.573667 0.153155 0.681977
Si Si3 0.927361 0.082522 0.845112
Si Si4 0.576256 0.655163 0.668594
Si Si5 0.585078 0.153760 0.004034
Si Si6 0.423654 0.106949 0.160072
O O1 0.750000 0.993841 0.421319
O O2 0.526802 0.084955 0.371716
O O3 0.500000 0.000000 0.500000
O O4 0.515441 0.912997 0.371736
O O5 0.750000 0.133117 0.673732
O O6 0.537774 0.250000 0.655904
O O7 0.520556 0.141851 0.772706
O O8 0.750000 0.090297 0.853544
O O9 0.982838 0.988144 0.825488
O O10 0.997309 0.107559 0.930199
O O11 0.750000 0.629746 0.655625
O O12 0.543991 0.750000 0.634442
O O13 0.539125 0.659555 0.761530
O O14 0.750000 0.114590 0.018737
O O15 0.598275 0.250000 0.976962
O O16 0.496521 0.149205 0.084741
O O17 0.250000 0.105919 0.141533
#
# Coordination Sequence:
#
# PCOD8241993 Si02
#       6
#     8   8   8   8   8   8
#     4  12  26  44  67  93 126 160 196 246 301 366
#     4  10  20  39  68  95 122 160 205 250 302 365
#     4   9  17  33  57  83 114 155 202 247 295 355
#     4  10  21  40  66  93 123 160 204 253 305 362
#     4  10  20  32  48  77 116 156 202 251 295 345
#     4  10  19  34  57  82 114 156 201 248 299 355
#
# _framework density 20.116916
#
# number of rings (size 3 to 8) (size 9 to 14) (size 15 to 20)
#    0.000    1.833    1.667    3.000    0.000    5.000 
#    0.000    0.833    0.000    2.000    0.000    0.000 
#    0.000    0.000    0.000    0.000    0.000    0.000 
#
# Total GULP energy -595027.857505 kJ/mol
# GULP energy per Si atom -12396.413698 kJ/mol
# Density = 2.007113 g / cm^3
# Si number density = 20.116916 Si / 1000 Ang^3
#
#
#
# Elastic Constant Matrix: (Units=GPa)
#
#
# Indices 1 2 3 4 5 6 
#
# 1 82.5861 50.0883 52.4258 0.0000 0.0000 0.0000
# 2 50.0883 124.2828 48.3654 0.0000 0.0000 0.0000
# 3 52.4258 48.3654 125.9032 0.0000 0.0000 0.0000
# 4 0.0000 0.0000 0.0000 17.4605 0.0000 0.0000
# 5 0.0000 0.0000 0.0000 0.0000 28.7644 0.0000
# 6 0.0000 0.0000 0.0000 0.0000 0.0000 23.1952
#
#
#
# Elastic Compliance Matrix: (Units=1/GPa)
#
#
# Indices 1 2 3 4 5 6 
#
# 1 0.019131 -0.005420 -0.005884 0.000000 0.000000 0.000000
# 2 -0.005420 0.010996 -0.001967 0.000000 0.000000 0.000000
# 3 -0.005884 -0.001967 0.011148 0.000000 0.000000 0.000000
# 4 0.000000 0.000000 0.000000 0.057272 0.000000 0.000000
# 5 0.000000 0.000000 0.000000 0.000000 0.034765 0.000000
# 6 0.000000 0.000000 0.000000 0.000000 0.000000 0.043112
#
#
# Mechanical properties :
#
#
# Convention : Reuss Voigt Hill
#
# Bulk Modulus (GPa) = 67.87597 70.50345 69.18971
# Shear Modulus (GPa) = 24.05241 26.01020 25.03130
#
# Velocity S-wave (km/s) = 3.46154 3.59966 3.53128
# Velocity P-wave (km/s) = 7.05623 7.23876 7.14808
#
# Compressibility (1/GPa) = 0.01473275
#
# Stress axis : x y z
#
# Youngs Moduli (GPa) = 52.27061 90.94035 89.69962
#
# Poissons Ratio (x) = 0.49294 0.52779
# Poissons Ratio (y) = 0.28333 0.17645
# Poissons Ratio (z) = 0.30756 0.17889
#
# Static dielectric constant tensor:
#      x y z
#    x 3.319990 0.000000 0.000000 
#    y 0.000000 3.910240 0.000000 
#    z 0.000000 0.000000 3.742020 
# 
# 
# High freq. dielectric constant tensor:
#      x y z
#    x 1.750850 0.000000 0.000000 
#    y 0.000000 1.799590 0.000000 
#    z 0.000000 0.000000 1.792280 
# 
# From -- ./inp_files/23635.got.cif
#   From: 2010.03.12/outbox.cif.g09.slc.cpg/sg59_12_cif.got.tgz:23635.got - 2010.04.16 16:29:54.
