data_PCOD8241768
_publ_section_title
;
Structure prediction by ZEFSAII (Michael W. Deem and Ramdas Pophale) SiO2 
 PCOD8241768
Probable space group: P M M N
;
_chemical_formula_sum "Si O2"
_cell_formula_units_Z 56
_cell_length_a 8.934550
_cell_length_b 19.406904
_cell_length_c 17.252704
_cell_angle_alpha 90.000000
_cell_angle_beta 90.000000
_cell_angle_gamma 90.000000
_cell_volume 2991.480061
_symmetry_space_group_name_H-M "P M M N"
_symmetry_group_IT_number 59
_space_group.IT_coordinate_system_code '2'
_symmetry_cell_setting 'orthorhombic'
loop_
_space_group_symop_operation_xyz
x,y,z
1/2-x,1/2-y,z
1/2+x,-y,-z
-x,1/2+y,-z
-x,-y,-z
1/2+x,1/2+y,-z
1/2-x,y,z
x,1/2-y,z
loop_
_atom_site_type_symbol
_atom_site_label
_atom_site_fract_x
_atom_site_fract_y
_atom_site_fract_z
Si Si1 0.573092 0.418482 0.809314
Si Si2 0.575791 0.061107 0.219776
Si Si3 0.923591 0.671473 0.320675
Si Si4 0.424085 0.829117 0.044101
Si Si5 0.578527 0.462612 0.394761
Si Si6 0.924107 0.830129 0.885490
Si Si7 0.077827 0.597806 0.446545
O O1 0.750000 0.424144 0.803327
O O2 0.504396 0.494151 0.815009
O O3 0.514219 0.379440 0.734062
O O4 0.522714 0.376140 0.884852
O O5 0.750000 0.054527 0.200890
O O6 0.545928 0.070130 0.311315
O O7 0.510555 0.129034 0.180723
O O8 0.750000 0.653376 0.313780
O O9 0.956051 0.750000 0.297367
O O10 0.978831 0.658542 0.408809
O O11 0.250000 0.839523 0.025297
O O12 0.459091 0.750000 0.066047
O O13 0.517445 0.853036 0.969673
O O14 0.750000 0.489462 0.400650
O O15 0.548986 0.404929 0.460875
O O16 0.466892 0.525611 0.407393
O O17 0.750000 0.847512 0.880650
O O18 0.957909 0.750000 0.871514
O O19 0.250000 0.612515 0.427560
#
# Coordination Sequence:
#
# PCOD8241768 Si02
#       7
#     8   8   8   8   8   8   8
#     4  11  22  36  57  86 116 147 189 236 283 335
#     4  11  22  37  59  85 116 150 185 230 284 341
#     4  11  23  37  53  78 116 157 193 233 283 339
#     4   9  19  37  59  82 111 148 188 230 280 338
#     4   9  19  35  55  81 111 142 182 229 279 333
#     4  10  22  40  61  84 110 143 187 236 284 337
#     4  10  19  33  56  81 106 143 187 232 279 328
#
# _framework density 18.719830999999999
#
# number of rings (size 3 to 8) (size 9 to 14) (size 15 to 20)
#    0.000    1.857    1.429    2.571    0.000    5.429 
#    0.000    2.143    0.000    4.286    0.000    0.000 
#    0.000    0.000    0.000    0.000    0.000    0.000 
#
# Total GULP energy -694581.990561 kJ/mol
# GULP energy per Si atom -12403.249831 kJ/mol
# Density = 1.867722 g / cm^3
# Si number density = 18.719831 Si / 1000 Ang^3
#
#
#
# Elastic Constant Matrix: (Units=GPa)
#
#
# Indices 1 2 3 4 5 6 
#
# 1 84.6056 41.3702 52.2423 0.0000 0.0000 0.0000
# 2 41.3702 74.6720 55.3327 0.0000 0.0000 0.0000
# 3 52.2423 55.3327 126.2787 0.0000 0.0000 0.0000
# 4 0.0000 0.0000 0.0000 30.4145 0.0000 0.0000
# 5 0.0000 0.0000 0.0000 0.0000 29.6888 0.0000
# 6 0.0000 0.0000 0.0000 0.0000 0.0000 30.2015
#
#
#
# Elastic Compliance Matrix: (Units=1/GPa)
#
#
# Indices 1 2 3 4 5 6 
#
# 1 0.017787 -0.006518 -0.004503 0.000000 0.000000 0.000000
# 2 -0.006518 0.022219 -0.007040 0.000000 0.000000 0.000000
# 3 -0.004503 -0.007040 0.012866 0.000000 0.000000 0.000000
# 4 0.000000 0.000000 0.000000 0.032879 0.000000 0.000000
# 5 0.000000 0.000000 0.000000 0.000000 0.033683 0.000000
# 6 0.000000 0.000000 0.000000 0.000000 0.000000 0.033111
#
#
# Mechanical properties :
#
#
# Convention : Reuss Voigt Hill
#
# Bulk Modulus (GPa) = 59.69254 64.82741 62.25997
# Shear Modulus (GPa) = 25.74007 27.16836 26.45422
#
# Velocity S-wave (km/s) = 3.71214 3.81375 3.76329
# Velocity P-wave (km/s) = 7.09436 7.35516 7.22594
#
# Compressibility (1/GPa) = 0.01675251
#
# Stress axis : x y z
#
# Youngs Moduli (GPa) = 56.22113 45.00569 77.72240
#
# Poissons Ratio (x) = 0.29335 0.34995
# Poissons Ratio (y) = 0.36645 0.54713
# Poissons Ratio (z) = 0.25314 0.31682
#
# Static dielectric constant tensor:
#      x y z
#    x 3.518120 0.000000 0.000000 
#    y 0.000000 3.326370 0.000000 
#    z 0.000000 0.000000 3.619560 
# 
# 
# High freq. dielectric constant tensor:
#      x y z
#    x 1.738220 0.000000 0.000000 
#    y 0.000000 1.710780 0.000000 
#    z 0.000000 0.000000 1.734600 
# 
# From -- ./inp_files/26114.got.cif
#   From: 2010.03.12/outbox.cif.g09.slc.cpg/sg59_14_cif.got.tgz:26114.got - 2010.04.16 16:29:54.
