data_PCOD8241279
_publ_section_title
;
Structure prediction by ZEFSAII (Michael W. Deem and Ramdas Pophale) SiO2 
 PCOD8241279
Probable space group: P M M N
;
_chemical_formula_sum "Si O2"
_cell_formula_units_Z 64
_cell_length_a 9.117742
_cell_length_b 27.717930
_cell_length_c 13.969033
_cell_angle_alpha 90.000000
_cell_angle_beta 90.000000
_cell_angle_gamma 90.000000
_cell_volume 3530.322950
_symmetry_space_group_name_H-M "P M M N"
_symmetry_group_IT_number 59
_space_group.IT_coordinate_system_code '2'
_symmetry_cell_setting 'orthorhombic'
loop_
_space_group_symop_operation_xyz
x,y,z
1/2-x,1/2-y,z
1/2+x,-y,-z
-x,1/2+y,-z
-x,-y,-z
1/2+x,1/2+y,-z
1/2-x,y,z
x,1/2-y,z
loop_
_atom_site_type_symbol
_atom_site_label
_atom_site_fract_x
_atom_site_fract_y
_atom_site_fract_z
Si Si1 0.588645 0.693042 0.624804
Si Si2 0.423508 0.989210 0.399981
Si Si3 0.077196 0.099540 0.080623
Si Si4 0.922866 0.802739 0.833022
Si Si5 0.579961 0.573197 0.129487
Si Si6 0.577422 0.195245 0.559413
Si Si7 0.577717 0.471389 0.220442
Si Si8 0.420875 0.888560 0.304296
O O1 0.750000 0.669320 0.613487
O O2 0.601871 0.750000 0.616446
O O3 0.516778 0.680656 0.728334
O O4 0.487116 0.673927 0.539247
O O5 0.250000 0.998669 0.407011
O O6 0.459744 0.934218 0.370957
O O7 0.500000 0.000000 0.500000
O O8 0.493363 0.024824 0.321129
O O9 0.250000 0.089070 0.094586
O O10 0.040083 0.156662 0.088617
O O11 0.986568 0.073521 0.163245
O O12 0.020390 0.082211 0.977407
O O13 0.750000 0.797378 0.819387
O O14 0.987226 0.750000 0.863989
O O15 0.750000 0.585734 0.134863
O O16 0.545768 0.518249 0.156093
O O17 0.500782 0.609107 0.202543
O O18 0.750000 0.192914 0.547640
O O19 0.524789 0.250000 0.581653
O O20 0.524473 0.160347 0.644570
O O21 0.750000 0.464423 0.239860
O O22 0.250000 0.887075 0.282293
#
# Coordination Sequence:
#
# PCOD8241279 Si02
#       8
#     8   8   8   8   8   8   8   8
#     4   8  14  26  44  65  89 119 154 189 227 274
#     4  10  20  35  53  74 102 133 164 199 243 296
#     4  10  19  32  52  76  98 124 164 208 247 290
#     4   8  15  29  48  70  98 129 158 192 239 293
#     4   9  19  34  51  72  98 127 161 204 251 295
#     4   9  17  30  48  70  95 124 159 197 237 281
#     4  10  20  34  51  73 101 131 164 203 247 293
#     4   9  19  34  51  70  95 129 163 196 239 291
#
# _framework density 18.128654000000001
#
# number of rings (size 3 to 8) (size 9 to 14) (size 15 to 20)
#    0.000    2.875    0.000    1.875    0.000    3.000 
#    0.000    3.750    0.000    1.875    0.000    0.000 
#    0.000    0.000    0.000    0.000    0.000    0.000 
#
# Total GULP energy -793384.515125 kJ/mol
# GULP energy per Si atom -12396.633049 kJ/mol
# Density = 1.808739 g / cm^3
# Si number density = 18.128654 Si / 1000 Ang^3
#
#
#
# Elastic Constant Matrix: (Units=GPa)
#
#
# Indices 1 2 3 4 5 6 
#
# 1 50.6899 30.4683 45.9751 0.0000 0.0000 0.0000
# 2 30.4683 77.8721 56.0023 0.0000 0.0000 0.0000
# 3 45.9751 56.0023 132.7026 0.0000 0.0000 0.0000
# 4 0.0000 0.0000 0.0000 27.4809 0.0000 0.0000
# 5 0.0000 0.0000 0.0000 0.0000 26.3423 0.0000
# 6 0.0000 0.0000 0.0000 0.0000 0.0000 18.4616
#
#
#
# Elastic Compliance Matrix: (Units=1/GPa)
#
#
# Indices 1 2 3 4 5 6 
#
# 1 0.030766 -0.006277 -0.008010 0.000000 0.000000 0.000000
# 2 -0.006277 0.019718 -0.006147 0.000000 0.000000 0.000000
# 3 -0.008010 -0.006147 0.012905 0.000000 0.000000 0.000000
# 4 0.000000 0.000000 0.000000 0.036389 0.000000 0.000000
# 5 0.000000 0.000000 0.000000 0.000000 0.037962 0.000000
# 6 0.000000 0.000000 0.000000 0.000000 0.000000 0.054167
#
#
# Mechanical properties :
#
#
# Convention : Reuss Voigt Hill
#
# Bulk Modulus (GPa) = 44.40252 58.46180 51.43216
# Shear Modulus (GPa) = 20.80913 23.04485 21.92699
#
# Velocity S-wave (km/s) = 3.39168 3.56923 3.48159
# Velocity P-wave (km/s) = 6.31539 7.02170 6.67789
#
# Compressibility (1/GPa) = 0.02252124
#
# Stress axis : x y z
#
# Youngs Moduli (GPa) = 32.50392 50.71546 77.49193
#
# Poissons Ratio (x) = 0.31834 0.62069
# Poissons Ratio (y) = 0.20403 0.47630
# Poissons Ratio (z) = 0.26035 0.31172
#
# Static dielectric constant tensor:
#      x y z
#    x 3.257450 0.000000 0.000000 
#    y 0.000000 3.393670 0.000000 
#    z 0.000000 0.000000 3.465620 
# 
# 
# High freq. dielectric constant tensor:
#      x y z
#    x 1.686340 0.000000 0.000000 
#    y 0.000000 1.692570 0.000000 
#    z 0.000000 0.000000 1.701930 
# 
# From -- ./inp_files/14942.got.cif
#   From: 2010.03.12/outbox.cif.g09.slc.cpg/sg59_8_cif.got.tgz:14942.got - 2010.04.16 16:29:54.
