data_PCOD8241683
_publ_section_title
;
Structure prediction by ZEFSAII (Michael W. Deem and Ramdas Pophale) SiO2 
 PCOD8241683
Probable space group: P M M N
;
_chemical_formula_sum "Si O2"
_cell_formula_units_Z 48
_cell_length_a 14.505729
_cell_length_b 8.738112
_cell_length_c 20.268279
_cell_angle_alpha 90.000000
_cell_angle_beta 90.000000
_cell_angle_gamma 90.000000
_cell_volume 2569.058776
_symmetry_space_group_name_H-M "P M M N"
_symmetry_group_IT_number 59
_space_group.IT_coordinate_system_code '2'
_symmetry_cell_setting 'orthorhombic'
loop_
_space_group_symop_operation_xyz
x,y,z
1/2-x,1/2-y,z
1/2+x,-y,-z
-x,1/2+y,-z
-x,-y,-z
1/2+x,1/2+y,-z
1/2-x,y,z
x,1/2-y,z
loop_
_atom_site_type_symbol
_atom_site_label
_atom_site_fract_x
_atom_site_fract_y
_atom_site_fract_z
Si Si1 0.060330 0.427986 0.942479
Si Si2 0.750000 0.069047 0.024956
Si Si3 0.057798 0.071111 0.313202
Si Si4 0.750000 0.430224 0.480476
Si Si5 0.445727 0.931224 0.560762
Si Si6 0.250000 0.426124 0.377971
Si Si7 0.750000 0.570922 0.881424
Si Si8 0.572036 0.426843 0.822705
O O1 0.072608 0.250000 0.958106
O O2 0.160205 0.505070 0.938405
O O3 0.010344 0.458117 0.873464
O O4 0.000000 0.500000 0.000000
O O5 0.750000 0.250000 0.029876
O O6 0.750000 0.023662 0.948613
O O7 0.044538 0.250000 0.298320
O O8 0.161845 0.033281 0.334242
O O9 0.989027 0.013504 0.370399
O O10 0.033567 0.974356 0.248524
O O11 0.750000 0.250000 0.478261
O O12 0.659435 0.491739 0.442783
O O13 0.750000 0.475799 0.556386
O O14 0.453264 0.750000 0.554846
O O15 0.500000 0.000000 0.500000
O O16 0.250000 0.250000 0.399964
O O17 0.750000 0.750000 0.897713
O O18 0.659988 0.530468 0.839434
O O19 0.602031 0.250000 0.823895
#
# Coordination Sequence:
#
# PCOD8241683 Si02
#       8
#     8   4   8   4   8   4   4   8
#     4  11  23  40  63  89 121 159 200 250 302 353
#     4  12  24  39  62  93 124 155 202 249 294 357
#     4  10  21  36  55  81 116 155 194 237 293 355
#     4  10  20  33  54  85 114 143 186 241 290 334
#     4  10  20  35  56  82 113 150 192 238 286 343
#     4  10  19  33  54  82 113 147 188 236 285 342
#     4  12  23  37  62  90 123 159 194 242 301 355
#     4  11  24  40  60  88 122 156 198 246 296 356
#
# _framework density 18.683885
#
# number of rings (size 3 to 8) (size 9 to 14) (size 15 to 20)
#    0.000    1.333    3.333    3.000    0.000    4.000 
#    0.000    0.833    0.000    1.000    0.000    0.000 
#    0.000    0.000    0.000    0.000    0.000    0.000 
#
# Total GULP energy -595413.266379 kJ/mol
# GULP energy per Si atom -12404.443050 kJ/mol
# Density = 1.864136 g / cm^3
# Si number density = 18.683885 Si / 1000 Ang^3
#
#
#
# Elastic Constant Matrix: (Units=GPa)
#
#
# Indices 1 2 3 4 5 6 
#
# 1 155.9312 55.8256 72.0401 0.0000 0.0000 0.0000
# 2 55.8256 77.1633 41.5603 0.0000 0.0000 0.0000
# 3 72.0401 41.5603 132.1056 0.0000 0.0000 0.0000
# 4 0.0000 0.0000 0.0000 34.0896 0.0000 0.0000
# 5 0.0000 0.0000 0.0000 0.0000 28.8938 0.0000
# 6 0.0000 0.0000 0.0000 0.0000 0.0000 19.6207
#
#
#
# Elastic Compliance Matrix: (Units=1/GPa)
#
#
# Indices 1 2 3 4 5 6 
#
# 1 0.010052 -0.005201 -0.003845 0.000000 0.000000 0.000000
# 2 -0.005201 0.018295 -0.002919 0.000000 0.000000 0.000000
# 3 -0.003845 -0.002919 0.010585 0.000000 0.000000 0.000000
# 4 0.000000 0.000000 0.000000 0.029334 0.000000 0.000000
# 5 0.000000 0.000000 0.000000 0.000000 0.034609 0.000000
# 6 0.000000 0.000000 0.000000 0.000000 0.000000 0.050967
#
#
# Mechanical properties :
#
#
# Convention : Reuss Voigt Hill
#
# Bulk Modulus (GPa) = 66.66506 78.22800 72.44653
# Shear Modulus (GPa) = 27.35642 29.57244 28.46443
#
# Velocity S-wave (km/s) = 3.83060 3.98273 3.90741
# Velocity P-wave (km/s) = 7.43792 7.94416 7.69520
#
# Compressibility (1/GPa) = 0.01500036
#
# Stress axis : x y z
#
# Youngs Moduli (GPa) = 99.48693 54.66080 94.47418
#
# Poissons Ratio (x) = 0.28429 0.36326
# Poissons Ratio (y) = 0.51744 0.27579
# Poissons Ratio (z) = 0.38254 0.15957
#
# Static dielectric constant tensor:
#      x y z
#    x 3.632260 0.000000 0.000000 
#    y 0.000000 3.466160 0.000000 
#    z 0.000000 0.000000 3.419270 
# 
# 
# High freq. dielectric constant tensor:
#      x y z
#    x 1.732780 0.000000 0.000000 
#    y 0.000000 1.727930 0.000000 
#    z 0.000000 0.000000 1.723640 
# 
# From -- ./inp_files/27529.got.cif
#   From: 2010.03.12/outbox.cif.g09.slc.cpg/sg59_14_cif.got.tgz:27529.got - 2010.04.16 16:29:54.
