data_PCOD8241132
_publ_section_title
;
Structure prediction by ZEFSAII (Michael W. Deem and Ramdas Pophale) SiO2 
 PCOD8241132
Probable space group: P M M N
;
_chemical_formula_sum "Si O2"
_cell_formula_units_Z 64
_cell_length_a 24.522110
_cell_length_b 14.332285
_cell_length_c 9.408309
_cell_angle_alpha 90.000000
_cell_angle_beta 90.000000
_cell_angle_gamma 90.000000
_cell_volume 3306.624235
_symmetry_space_group_name_H-M "P M M N"
_symmetry_group_IT_number 59
_space_group.IT_coordinate_system_code '2'
_symmetry_cell_setting 'orthorhombic'
loop_
_space_group_symop_operation_xyz
x,y,z
1/2-x,1/2-y,z
1/2+x,-y,-z
-x,1/2+y,-z
-x,-y,-z
1/2+x,1/2+y,-z
1/2-x,y,z
x,1/2-y,z
loop_
_atom_site_type_symbol
_atom_site_label
_atom_site_fract_x
_atom_site_fract_y
_atom_site_fract_z
Si Si1 0.811015 0.969430 0.298718
Si Si2 0.190975 0.644271 0.530343
Si Si3 0.976029 0.642642 0.300148
Si Si4 0.580022 0.856679 0.815684
Si Si5 0.951618 0.356779 0.215296
Si Si6 0.907114 0.968310 0.090423
Si Si7 0.075209 0.641873 0.471829
Si Si8 0.877543 0.855917 0.510309
O O1 0.750000 0.935409 0.260038
O O2 0.850389 0.944669 0.168756
O O3 0.830301 0.919612 0.444243
O O4 0.811372 0.080065 0.329772
O O5 0.250000 0.629643 0.451656
O O6 0.185632 0.750000 0.586746
O O7 0.138674 0.623784 0.427818
O O8 0.981295 0.750000 0.252303
O O9 0.957737 0.585872 0.162349
O O10 0.934178 0.629669 0.428681
O O11 0.034088 0.599490 0.354593
O O12 0.594321 0.750000 0.860285
O O13 0.516004 0.865495 0.792837
O O14 0.612157 0.884379 0.672834
O O15 0.600161 0.930981 0.931788
O O16 0.932384 0.250000 0.191672
O O17 0.922010 0.421591 0.096742
O O18 0.933434 0.398494 0.369089
O O19 0.059094 0.750000 0.481506
O O20 0.857552 0.750000 0.497315
#
# Coordination Sequence:
#
# PCOD8241132 Si02
#       8
#     8   8   8   8   8   8   8   8
#     4  10  21  35  53  79 106 133 173 224 264 304
#     4   9  17  30  49  75 106 137 171 213 259 304
#     4   9  17  30  49  77 107 134 165 210 262 312
#     4  10  20  36  54  75 106 140 172 212 260 317
#     4  10  19  32  50  74 108 144 177 210 252 315
#     4  11  21  32  53  80 107 139 176 217 271 317
#     4   9  15  27  47  72 102 136 171 207 249 303
#     4   9  18  34  54  72  98 137 173 206 256 315
#
# _framework density 19.355087000000001
#
# number of rings (size 3 to 8) (size 9 to 14) (size 15 to 20)
#    0.000    2.375    2.500    0.750    0.000    2.250 
#    0.000    0.625    0.000    1.500    0.000    0.000 
#    0.000    4.000    0.000    0.500    0.000    0.000 
#
# Total GULP energy -793283.555704 kJ/mol
# GULP energy per Si atom -12395.055558 kJ/mol
# Density = 1.931103 g / cm^3
# Si number density = 19.355087 Si / 1000 Ang^3
#
#
#
# Elastic Constant Matrix: (Units=GPa)
#
#
# Indices 1 2 3 4 5 6 
#
# 1 127.8541 27.3184 30.6878 0.0000 0.0000 0.0000
# 2 27.3184 77.8359 36.2433 0.0000 0.0000 0.0000
# 3 30.6878 36.2433 73.9529 0.0000 0.0000 0.0000
# 4 0.0000 0.0000 0.0000 19.3206 0.0000 0.0000
# 5 0.0000 0.0000 0.0000 0.0000 12.6241 0.0000
# 6 0.0000 0.0000 0.0000 0.0000 0.0000 20.6795
#
#
#
# Elastic Compliance Matrix: (Units=1/GPa)
#
#
# Indices 1 2 3 4 5 6 
#
# 1 0.008880 -0.001815 -0.002795 0.000000 0.000000 0.000000
# 2 -0.001815 0.017017 -0.007587 0.000000 0.000000 0.000000
# 3 -0.002795 -0.007587 0.018400 0.000000 0.000000 0.000000
# 4 0.000000 0.000000 0.000000 0.051758 0.000000 0.000000
# 5 0.000000 0.000000 0.000000 0.000000 0.079214 0.000000
# 6 0.000000 0.000000 0.000000 0.000000 0.000000 0.048357
#
#
# Mechanical properties :
#
#
# Convention : Reuss Voigt Hill
#
# Bulk Modulus (GPa) = 50.24297 52.01575 51.12936
# Shear Modulus (GPa) = 19.63437 22.88440 21.25939
#
# Velocity S-wave (km/s) = 3.18847 3.44226 3.31779
# Velocity P-wave (km/s) = 6.29047 6.53694 6.41489
#
# Compressibility (1/GPa) = 0.01990328
#
# Stress axis : x y z
#
# Youngs Moduli (GPa) = 112.61002 58.76393 54.34703
#
# Poissons Ratio (x) = 0.10666 0.15192
# Poissons Ratio (y) = 0.20439 0.41232
# Poissons Ratio (z) = 0.31479 0.44583
#
# Static dielectric constant tensor:
#      x y z
#    x 3.677010 0.000000 0.000000 
#    y 0.000000 3.692710 0.000000 
#    z 0.000000 0.000000 3.179070 
# 
# 
# High freq. dielectric constant tensor:
#      x y z
#    x 1.748040 0.000000 0.000000 
#    y 0.000000 1.763390 0.000000 
#    z 0.000000 0.000000 1.707390 
# 
# From -- ./inp_files/12234.got.cif
#   From: 2010.03.12/outbox.cif.g09.slc.cpg/sg59_7_cif.got.tgz:12234.got - 2010.04.16 16:29:54.
