data_PCOD8241803
_publ_section_title
;
Structure prediction by ZEFSAII (Michael W. Deem and Ramdas Pophale) SiO2 
 PCOD8241803
Probable space group: P M M N
;
_chemical_formula_sum "Si O2"
_cell_formula_units_Z 40
_cell_length_a 22.886874
_cell_length_b 8.942051
_cell_length_c 10.137722
_cell_angle_alpha 90.000000
_cell_angle_beta 90.000000
_cell_angle_gamma 90.000000
_cell_volume 2074.741523
_symmetry_space_group_name_H-M "P M M N"
_symmetry_group_IT_number 59
_space_group.IT_coordinate_system_code '2'
_symmetry_cell_setting 'orthorhombic'
loop_
_space_group_symop_operation_xyz
x,y,z
1/2-x,1/2-y,z
1/2+x,-y,-z
-x,1/2+y,-z
-x,-y,-z
1/2+x,1/2+y,-z
1/2-x,y,z
x,1/2-y,z
loop_
_atom_site_type_symbol
_atom_site_label
_atom_site_fract_x
_atom_site_fract_y
_atom_site_fract_z
Si Si1 0.316342 0.427890 0.482306
Si Si2 0.817319 0.579370 0.982381
Si Si3 0.626921 0.575092 0.252650
Si Si4 0.993746 0.575214 0.141229
Si Si5 0.118135 0.922858 0.244480
O O1 0.250000 0.489082 0.471582
O O2 0.315280 0.250000 0.485884
O O3 0.346672 0.496019 0.613771
O O4 0.353988 0.478209 0.358176
O O5 0.750000 0.557182 0.947975
O O6 0.837043 0.750000 0.953214
O O7 0.828141 0.539698 0.134886
O O8 0.854233 0.465971 0.895251
O O9 0.620590 0.750000 0.276697
O O10 0.562947 0.509167 0.217147
O O11 0.985727 0.750000 0.113073
O O12 0.049098 0.543923 0.235110
O O13 0.000000 0.500000 0.000000
O O14 0.130840 0.750000 0.273589
#
# Coordination Sequence:
#
# PCOD8241803 Si02
#       5
#     8   8   8   8   8
#     4  10  21  38  59  82 109 145 189 232 276 327
#     4  10  19  33  57  84 106 139 189 235 276 324
#     4   9  18  35  59  83 108 139 183 238 280 314
#     4  10  20  36  58  83 112 145 183 228 279 330
#     4  11  23  36  53  81 116 150 182 221 276 337
#
# _framework density 19.279510999999999
#
# number of rings (size 3 to 8) (size 9 to 14) (size 15 to 20)
#    0.000    2.000    2.000    1.800    0.000    7.200 
#    0.000    2.000    0.000    2.400    0.000    0.000 
#    0.000    0.000    0.000    0.000    0.000    0.000 
#
# Total GULP energy -496019.275699 kJ/mol
# GULP energy per Si atom -12400.481892 kJ/mol
# Density = 1.923563 g / cm^3
# Si number density = 19.279511 Si / 1000 Ang^3
#
#
#
# Elastic Constant Matrix: (Units=GPa)
#
#
# Indices 1 2 3 4 5 6 
#
# 1 120.4696 29.0322 40.9213 0.0000 0.0000 0.0000
# 2 29.0322 24.1759 17.7250 0.0000 0.0000 0.0000
# 3 40.9213 17.7250 98.8282 0.0000 0.0000 0.0000
# 4 0.0000 0.0000 0.0000 16.6898 0.0000 0.0000
# 5 0.0000 0.0000 0.0000 0.0000 37.9605 0.0000
# 6 0.0000 0.0000 0.0000 0.0000 0.0000 22.9646
#
#
#
# Elastic Compliance Matrix: (Units=1/GPa)
#
#
# Indices 1 2 3 4 5 6 
#
# 1 0.012328 -0.012737 -0.002820 0.000000 0.000000 0.000000
# 2 -0.012737 0.060785 -0.005628 0.000000 0.000000 0.000000
# 3 -0.002820 -0.005628 0.012296 0.000000 0.000000 0.000000
# 4 0.000000 0.000000 0.000000 0.059917 0.000000 0.000000
# 5 0.000000 0.000000 0.000000 0.000000 0.026343 0.000000
# 6 0.000000 0.000000 0.000000 0.000000 0.000000 0.043545
#
#
# Mechanical properties :
#
#
# Convention : Reuss Voigt Hill
#
# Bulk Modulus (GPa) = 23.23490 46.53673 34.88582
# Shear Modulus (GPa) = 18.38697 25.90932 22.14815
#
# Velocity S-wave (km/s) = 3.09156 3.66987 3.39306
# Velocity P-wave (km/s) = 4.98211 6.49212 5.78658
#
# Compressibility (1/GPa) = 0.04303871
#
# Stress axis : x y z
#
# Youngs Moduli (GPa) = 81.11366 16.45137 81.32891
#
# Poissons Ratio (x) = 0.20954 0.22938
# Poissons Ratio (y) = 1.03315 0.45772
# Poissons Ratio (z) = 0.22877 0.09259
#
# Static dielectric constant tensor:
#      x y z
#    x 3.933270 0.000000 0.000000 
#    y 0.000000 3.244390 0.000000 
#    z 0.000000 0.000000 3.557620 
# 
# 
# High freq. dielectric constant tensor:
#      x y z
#    x 1.769370 0.000000 0.000000 
#    y 0.000000 1.716480 0.000000 
#    z 0.000000 0.000000 1.753540 
# 
# From -- ./inp_files/5644.got.cif
#   From: 2010.03.12/outbox.cif.g09.slc.cpg/sg59_3_cif.got.tgz:5644.got - 2010.04.16 16:29:54.
