data_PCOD8241311
_publ_section_title
;
Structure prediction by ZEFSAII (Michael W. Deem and Ramdas Pophale) SiO2 
 PCOD8241311
Probable space group: P M M N
;
_chemical_formula_sum "Si O2"
_cell_formula_units_Z 56
_cell_length_a 18.441748
_cell_length_b 8.707108
_cell_length_c 18.909445
_cell_angle_alpha 90.000000
_cell_angle_beta 90.000000
_cell_angle_gamma 90.000000
_cell_volume 3036.370734
_symmetry_space_group_name_H-M "P M M N"
_symmetry_group_IT_number 59
_space_group.IT_coordinate_system_code '2'
_symmetry_cell_setting 'orthorhombic'
loop_
_space_group_symop_operation_xyz
x,y,z
1/2-x,1/2-y,z
1/2+x,-y,-z
-x,1/2+y,-z
-x,-y,-z
1/2+x,1/2+y,-z
1/2-x,y,z
x,1/2-y,z
loop_
_atom_site_type_symbol
_atom_site_label
_atom_site_fract_x
_atom_site_fract_y
_atom_site_fract_z
Si Si1 0.919582 0.431679 0.091616
Si Si2 0.478998 0.067040 0.574693
Si Si3 0.172870 0.070854 0.626962
Si Si4 0.567587 0.431387 0.851920
Si Si5 0.333509 0.069412 0.037676
Si Si6 0.131098 0.918253 0.760538
Si Si7 0.032667 0.421319 0.289056
O O1 0.924555 0.250000 0.077253
O O2 0.866172 0.468570 0.157675
O O3 0.000059 0.492795 0.106979
O O4 0.884939 0.517570 0.025919
O O5 0.481099 0.250000 0.573689
O O6 0.397681 0.999775 0.589182
O O7 0.500000 0.000000 0.500000
O O8 0.534114 0.008245 0.635260
O O9 0.250000 0.008055 0.595792
O O10 0.169534 0.250000 0.615917
O O11 0.172846 0.037673 0.711053
O O12 0.557097 0.250000 0.852685
O O13 0.640760 0.481503 0.891824
O O14 0.577180 0.486447 0.770556
O O15 0.250000 0.024584 0.022573
O O16 0.342350 0.250000 0.049422
O O17 0.166451 0.750000 0.750565
O O18 0.047992 0.911034 0.738927
O O19 0.065320 0.250000 0.298900
#
# Coordination Sequence:
#
# PCOD8241311 Si02
#       7
#     8   8   8   8   8   8   8
#     4  10  20  35  54  76 104 137 175 217 261 312
#     4  10  19  32  52  78 107 137 170 210 255 303
#     4   9  18  31  47  69  99 135 170 202 242 297
#     4  11  21  35  57  80 103 133 173 219 264 313
#     4  11  24  39  53  72 101 137 177 222 273 323
#     4   8  16  29  46  70  98 128 160 197 242 293
#     4   9  17  32  53  77 103 129 163 205 249 301
#
# _framework density 18.443069999999999
#
# number of rings (size 3 to 8) (size 9 to 14) (size 15 to 20)
#    0.000    2.286    0.000    4.286    0.000    6.571 
#    0.000    2.857    0.000    0.857    0.000    2.000 
#    0.000    0.000    0.000    0.000    0.000    0.000 
#
# Total GULP energy -694059.997565 kJ/mol
# GULP energy per Si atom -12393.928528 kJ/mol
# Density = 1.840109 g / cm^3
# Si number density = 18.443070 Si / 1000 Ang^3
#
#
#
# Elastic Constant Matrix: (Units=GPa)
#
#
# Indices 1 2 3 4 5 6 
#
# 1 53.8864 19.8035 31.3589 0.0000 0.0000 0.0000
# 2 19.8035 66.6327 31.4306 0.0000 0.0000 0.0000
# 3 31.3589 31.4306 130.1905 0.0000 0.0000 0.0000
# 4 0.0000 0.0000 0.0000 35.2360 0.0000 0.0000
# 5 0.0000 0.0000 0.0000 0.0000 10.4085 0.0000
# 6 0.0000 0.0000 0.0000 0.0000 0.0000 19.2927
#
#
#
# Elastic Compliance Matrix: (Units=1/GPa)
#
#
# Indices 1 2 3 4 5 6 
#
# 1 0.022832 -0.004730 -0.004358 0.000000 0.000000 0.000000
# 2 -0.004730 0.017916 -0.003186 0.000000 0.000000 0.000000
# 3 -0.004358 -0.003186 0.009500 0.000000 0.000000 0.000000
# 4 0.000000 0.000000 0.000000 0.028380 0.000000 0.000000
# 5 0.000000 0.000000 0.000000 0.000000 0.096075 0.000000
# 6 0.000000 0.000000 0.000000 0.000000 0.000000 0.051833
#
#
# Mechanical properties :
#
#
# Convention : Reuss Voigt Hill
#
# Bulk Modulus (GPa) = 38.90988 46.21064 42.56026
# Shear Modulus (GPa) = 19.25667 24.19521 21.72594
#
# Velocity S-wave (km/s) = 3.23478 3.62593 3.43592
# Velocity P-wave (km/s) = 5.92409 6.52993 6.23437
#
# Compressibility (1/GPa) = 0.02570042
#
# Stress axis : x y z
#
# Youngs Moduli (GPa) = 43.79856 55.81503 105.26533
#
# Poissons Ratio (x) = 0.26402 0.45869
# Poissons Ratio (y) = 0.20718 0.33537
# Poissons Ratio (z) = 0.19085 0.17783
#
# Static dielectric constant tensor:
#      x y z
#    x 3.487490 0.000000 0.000000 
#    y 0.000000 3.552620 0.000000 
#    z 0.000000 0.000000 3.558030 
# 
# 
# High freq. dielectric constant tensor:
#      x y z
#    x 1.687410 0.000000 0.000000 
#    y 0.000000 1.722330 0.000000 
#    z 0.000000 0.000000 1.711020 
# 
# From -- ./inp_files/28029.got.cif
#   From: 2010.03.12/outbox.cif.g09.slc.cpg/sg59_15_cif.got.tgz:28029.got - 2010.04.16 16:29:54.
