data_PCOD8241673
_publ_section_title
;
Structure prediction by ZEFSAII (Michael W. Deem and Ramdas Pophale) SiO2 
 PCOD8241673
Probable space group: P M M N
;
_chemical_formula_sum "Si O2"
_cell_formula_units_Z 64
_cell_length_a 23.821356
_cell_length_b 9.270588
_cell_length_c 15.372247
_cell_angle_alpha 90.000000
_cell_angle_beta 90.000000
_cell_angle_gamma 90.000000
_cell_volume 3394.775931
_symmetry_space_group_name_H-M "P M M N"
_symmetry_group_IT_number 59
_space_group.IT_coordinate_system_code '2'
_symmetry_cell_setting 'orthorhombic'
loop_
_space_group_symop_operation_xyz
x,y,z
1/2-x,1/2-y,z
1/2+x,-y,-z
-x,1/2+y,-z
-x,-y,-z
1/2+x,1/2+y,-z
1/2-x,y,z
x,1/2-y,z
loop_
_atom_site_type_symbol
_atom_site_label
_atom_site_fract_x
_atom_site_fract_y
_atom_site_fract_z
Si Si1 0.390182 0.581862 0.346426
Si Si2 0.382951 0.582354 0.666801
Si Si3 0.187249 0.578671 0.503047
Si Si4 0.995984 0.919513 0.591216
Si Si5 0.375662 0.915422 0.151582
Si Si6 0.996710 0.082936 0.911091
Si Si7 0.385158 0.081177 0.838618
Si Si8 0.314429 0.081047 0.003855
O O1 0.406453 0.750000 0.360545
O O2 0.345870 0.526341 0.417672
O O3 0.445891 0.486153 0.352446
O O4 0.361304 0.558812 0.252686
O O5 0.371422 0.750000 0.682270
O O6 0.344904 0.521789 0.588209
O O7 0.447590 0.552444 0.645045
O O8 0.363663 0.499522 0.753114
O O9 0.250000 0.513647 0.501200
O O10 0.189225 0.750000 0.503817
O O11 0.986358 0.750000 0.574665
O O12 0.000000 0.000000 0.500000
O O13 0.366602 0.750000 0.124830
O O14 0.440401 0.961276 0.139009
O O15 0.334499 0.008933 0.092942
O O16 0.998476 0.250000 0.935037
O O17 0.049498 0.042268 0.851070
O O18 0.000000 0.000000 0.000000
O O19 0.374787 0.250000 0.825240
O O20 0.350461 0.024145 0.922069
O O21 0.250000 0.040537 0.986780
O O22 0.323405 0.250000 0.015926
#
# Coordination Sequence:
#
# PCOD8241673 Si02
#       8
#     8   8   8   8   8   8   8   8
#     4  10  20  37  59  85 115 146 185 231 281 338
#     4  10  21  36  55  83 112 144 186 227 274 331
#     4   9  18  35  57  79 108 146 186 228 274 324
#     4  11  21  35  57  85 116 151 186 226 280 338
#     4  10  21  35  57  86 114 144 184 235 283 332
#     4  10  19  33  54  81 109 142 179 219 275 332
#     4  10  21  37  57  82 111 146 184 226 280 333
#     4  10  22  40  59  79 110 152 192 231 279 335
#
# _framework density 18.852495000000001
#
# number of rings (size 3 to 8) (size 9 to 14) (size 15 to 20)
#    0.000    2.000    2.500    1.125    0.000    4.750 
#    0.000    1.250    0.000    1.125    0.000    0.000 
#    0.000    0.000    0.000    0.000    0.000    0.000 
#
# Total GULP energy -793770.331409 kJ/mol
# GULP energy per Si atom -12402.661428 kJ/mol
# Density = 1.880959 g / cm^3
# Si number density = 18.852495 Si / 1000 Ang^3
#
#
#
# Elastic Constant Matrix: (Units=GPa)
#
#
# Indices 1 2 3 4 5 6 
#
# 1 109.2732 36.7916 48.7509 0.0000 0.0000 0.0000
# 2 36.7916 47.8761 44.3917 0.0000 0.0000 0.0000
# 3 48.7509 44.3917 143.7224 0.0000 0.0000 0.0000
# 4 0.0000 0.0000 0.0000 34.0479 0.0000 0.0000
# 5 0.0000 0.0000 0.0000 0.0000 15.3072 0.0000
# 6 0.0000 0.0000 0.0000 0.0000 0.0000 24.2868
#
#
#
# Elastic Compliance Matrix: (Units=1/GPa)
#
#
# Indices 1 2 3 4 5 6 
#
# 1 0.012673 -0.008062 -0.001809 0.000000 0.000000 0.000000
# 2 -0.008062 0.034398 -0.007890 0.000000 0.000000 0.000000
# 3 -0.001809 -0.007890 0.010008 0.000000 0.000000 0.000000
# 4 0.000000 0.000000 0.000000 0.029370 0.000000 0.000000
# 5 0.000000 0.000000 0.000000 0.000000 0.065329 0.000000
# 6 0.000000 0.000000 0.000000 0.000000 0.000000 0.041175
#
#
# Mechanical properties :
#
#
# Convention : Reuss Voigt Hill
#
# Bulk Modulus (GPa) = 46.38518 62.30447 54.34482
# Shear Modulus (GPa) = 21.21703 26.12420 23.67062
#
# Velocity S-wave (km/s) = 3.35837 3.72656 3.54725
# Velocity P-wave (km/s) = 6.30047 7.18585 6.75768
#
# Compressibility (1/GPa) = 0.02155861
#
# Stress axis : x y z
#
# Youngs Moduli (GPa) = 78.91086 29.07122 99.91656
#
# Poissons Ratio (x) = 0.23436 0.18070
# Poissons Ratio (y) = 0.63615 0.78835
# Poissons Ratio (z) = 0.14271 0.22938
#
# Static dielectric constant tensor:
#      x y z
#    x 3.609250 0.000000 0.000000 
#    y 0.000000 3.315090 0.000000 
#    z 0.000000 0.000000 3.177450 
# 
# 
# High freq. dielectric constant tensor:
#      x y z
#    x 1.732710 0.000000 0.000000 
#    y 0.000000 1.711350 0.000000 
#    z 0.000000 0.000000 1.743270 
# 
# From -- ./inp_files/21517.got.cif
#   From: 2010.03.12/outbox.cif.g09.slc.cpg/sg59_11_cif.got.tgz:21517.got - 2010.04.16 16:29:54.
