data_PCOD8241631
_publ_section_title
;
Structure prediction by ZEFSAII (Michael W. Deem and Ramdas Pophale) SiO2 
 PCOD8241631
Probable space group: P M M N
;
_chemical_formula_sum "Si O2"
_cell_formula_units_Z 56
_cell_length_a 14.775224
_cell_length_b 9.127326
_cell_length_c 21.749454
_cell_angle_alpha 90.000000
_cell_angle_beta 90.000000
_cell_angle_gamma 90.000000
_cell_volume 2933.094092
_symmetry_space_group_name_H-M "P M M N"
_symmetry_group_IT_number 59
_space_group.IT_coordinate_system_code '2'
_symmetry_cell_setting 'orthorhombic'
loop_
_space_group_symop_operation_xyz
x,y,z
1/2-x,1/2-y,z
1/2+x,-y,-z
-x,1/2+y,-z
-x,-y,-z
1/2+x,1/2+y,-z
1/2-x,y,z
x,1/2-y,z
loop_
_atom_site_type_symbol
_atom_site_label
_atom_site_fract_x
_atom_site_fract_y
_atom_site_fract_z
Si Si1 0.146373 0.914933 0.185031
Si Si2 0.392017 0.914379 0.944337
Si Si3 0.645541 0.422415 0.502276
Si Si4 0.511525 0.921564 0.589212
Si Si5 0.893819 0.914264 0.938371
Si Si6 0.151078 0.577050 0.811313
Si Si7 0.988053 0.576206 0.730009
O O1 0.250000 0.911192 0.204551
O O2 0.107416 0.750000 0.179308
O O3 0.135847 0.994236 0.120237
O O4 0.098238 0.001808 0.239626
O O5 0.353433 0.750000 0.952397
O O6 0.499307 0.910860 0.943307
O O7 0.359433 0.986697 0.880210
O O8 0.353482 0.011157 0.000258
O O9 0.750000 0.476535 0.493355
O O10 0.644708 0.250000 0.513780
O O11 0.583933 0.464367 0.443100
O O12 0.598815 0.498049 0.560842
O O13 0.529763 0.750000 0.582690
O O14 0.503583 0.971619 0.659494
O O15 0.854759 0.750000 0.932643
O O16 0.250000 0.535819 0.785233
O O17 0.137225 0.750000 0.816185
O O18 0.076749 0.513798 0.764803
O O19 0.978565 0.750000 0.736863
#
# Coordination Sequence:
#
# PCOD8241631 Si02
#       7
#     8   8   8   8   8   8   8
#     4  11  24  39  55  76 103 140 184 227 275 328
#     4   9  17  31  51  77 107 137 172 214 268 329
#     4   9  18  34  56  83 115 147 180 218 258 306
#     4   9  19  34  55  82 112 144 180 220 264 310
#     4  10  19  33  54  78 104 135 176 224 274 326
#     4   9  17  31  53  79 105 135 172 216 267 322
#     4  10  20  37  57  80 109 141 179 222 266 317
#
# _framework density 19.092466999999999
#
# number of rings (size 3 to 8) (size 9 to 14) (size 15 to 20)
#    0.000    2.429    1.429    0.857    0.000    4.286 
#    0.000    7.143    0.000    1.286    0.000    2.000 
#    0.000    0.000    0.000    0.000    0.000    0.000 
#
# Total GULP energy -694276.008642 kJ/mol
# GULP energy per Si atom -12397.785869 kJ/mol
# Density = 1.904901 g / cm^3
# Si number density = 19.092467 Si / 1000 Ang^3
#
#
#
# Elastic Constant Matrix: (Units=GPa)
#
#
# Indices 1 2 3 4 5 6 
#
# 1 106.8164 36.9353 67.3073 0.0000 0.0000 0.0000
# 2 36.9353 56.7324 51.2312 0.0000 0.0000 0.0000
# 3 67.3073 51.2312 166.6721 0.0000 0.0000 0.0000
# 4 0.0000 0.0000 0.0000 27.5247 0.0000 0.0000
# 5 0.0000 0.0000 0.0000 0.0000 -11.1971 0.0000
# 6 0.0000 0.0000 0.0000 0.0000 0.0000 18.7164
#
#
#
# Elastic Compliance Matrix: (Units=1/GPa)
#
#
# Indices 1 2 3 4 5 6 
#
# 1 0.013662 -0.005416 -0.003853 0.000000 0.000000 0.000000
# 2 -0.005416 0.026546 -0.005973 0.000000 0.000000 0.000000
# 3 -0.003853 -0.005973 0.009391 0.000000 0.000000 0.000000
# 4 0.000000 0.000000 0.000000 0.036331 0.000000 0.000000
# 5 0.000000 0.000000 0.000000 0.000000 -0.089309 0.000000
# 6 0.000000 0.000000 0.000000 0.000000 0.000000 0.053429
#
#
# Mechanical properties :
#
#
# Convention : Reuss Voigt Hill
#
# Bulk Modulus (GPa) = 52.30722 71.24094 61.77408
# Shear Modulus (GPa) = 57.53447 18.65862 38.09654
#
# Velocity S-wave (km/s) = 5.49546 3.12953 4.47180
# Velocity P-wave (km/s) = 8.22940 7.10305 7.68688
#
# Compressibility (1/GPa) = 0.01911782
#
# Stress axis : x y z
#
# Youngs Moduli (GPa) = 73.19551 37.67068 106.48044
#
# Poissons Ratio (x) = 0.20401 0.41022
# Poissons Ratio (y) = 0.39640 0.63596
# Poissons Ratio (z) = 0.28199 0.22499
#
# Static dielectric constant tensor:
#      x y z
#    x 3.589330 0.000000 0.000000 
#    y 0.000000 3.451710 0.000000 
#    z 0.000000 0.000000 3.570460 
# 
# 
# High freq. dielectric constant tensor:
#      x y z
#    x 1.747070 0.000000 0.000000 
#    y 0.000000 1.722230 0.000000 
#    z 0.000000 0.000000 1.741480 
# 
# From -- ./inp_files/30395.got.cif
#   From: 2010.03.12/outbox.cif.g09.slc.cpg/sg59_16_cif.got.tgz:30395.got - 2010.04.16 16:29:54.
