data_PCOD8241820
_publ_section_title
;
Structure prediction by ZEFSAII (Michael W. Deem and Ramdas Pophale) SiO2 
 PCOD8241820
Probable space group: P M M N
;
_chemical_formula_sum "Si O2"
_cell_formula_units_Z 48
_cell_length_a 20.674832
_cell_length_b 9.104884
_cell_length_c 14.166767
_cell_angle_alpha 90.000000
_cell_angle_beta 90.000000
_cell_angle_gamma 90.000000
_cell_volume 2666.779804
_symmetry_space_group_name_H-M "P M M N"
_symmetry_group_IT_number 59
_space_group.IT_coordinate_system_code '2'
_symmetry_cell_setting 'orthorhombic'
loop_
_space_group_symop_operation_xyz
x,y,z
1/2-x,1/2-y,z
1/2+x,-y,-z
-x,1/2+y,-z
-x,-y,-z
1/2+x,1/2+y,-z
1/2-x,y,z
x,1/2-y,z
loop_
_atom_site_type_symbol
_atom_site_label
_atom_site_fract_x
_atom_site_fract_y
_atom_site_fract_z
Si Si1 0.369772 0.577752 0.705347
Si Si2 0.250000 0.424193 0.396693
Si Si3 0.321412 0.577120 0.901684
Si Si4 0.750000 0.575390 0.390085
Si Si5 0.874335 0.575975 0.714467
Si Si6 0.999633 0.577132 0.600544
Si Si7 0.174546 0.578416 0.109333
O O1 0.355240 0.750000 0.691588
O O2 0.370681 0.536263 0.817137
O O3 0.314080 0.485314 0.657102
O O4 0.437443 0.531411 0.659923
O O5 0.250000 0.250000 0.394927
O O6 0.250000 0.482345 0.502917
O O7 0.313600 0.484882 0.344900
O O8 0.250000 0.512188 0.877747
O O9 0.314190 0.750000 0.911590
O O10 0.345183 0.520622 0.004257
O O11 0.750000 0.750000 0.383400
O O12 0.873251 0.750000 0.724636
O O13 0.871362 0.507928 0.818600
O O14 0.938564 0.522326 0.661021
O O15 0.996381 0.750000 0.582644
O O16 0.000000 0.500000 0.500000
O O17 0.250000 0.542547 0.127868
O O18 0.160871 0.750000 0.121731
#
# Coordination Sequence:
#
# PCOD8241820 Si02
#       7
#     8   4   8   4   8   8   8
#     4  10  19  35  56  77 102 139 180 215 257 316
#     4   9  18  31  48  67  96 136 169 203 258 315
#     4   8  14  28  52  76 101 132 168 211 259 311
#     4  11  21  33  52  79 106 132 169 223 270 309
#     4  10  19  34  52  73 102 139 175 211 263 318
#     4  10  22  37  55  77 105 142 182 220 263 315
#     4   9  17  30  51  79 103 129 170 217 263 308
#
# _framework density 17.999237999999998
#
# number of rings (size 3 to 8) (size 9 to 14) (size 15 to 20)
#    0.000    2.500    1.667    2.250    0.000    2.667 
#    0.000    3.333    0.000    0.000    0.000    0.000 
#    0.000    0.000    0.000    0.000    0.000    0.000 
#
# Total GULP energy -595055.111531 kJ/mol
# GULP energy per Si atom -12396.981490 kJ/mol
# Density = 1.795827 g / cm^3
# Si number density = 17.999238 Si / 1000 Ang^3
#
#
#
# Elastic Constant Matrix: (Units=GPa)
#
#
# Indices 1 2 3 4 5 6 
#
# 1 140.7148 36.7220 91.1266 0.0000 0.0000 0.0000
# 2 36.7220 32.4624 41.7928 0.0000 0.0000 0.0000
# 3 91.1266 41.7928 190.4505 0.0000 0.0000 0.0000
# 4 0.0000 0.0000 0.0000 28.9943 0.0000 0.0000
# 5 0.0000 0.0000 0.0000 0.0000 32.3820 0.0000
# 6 0.0000 0.0000 0.0000 0.0000 0.0000 8.9697
#
#
#
# Elastic Compliance Matrix: (Units=1/GPa)
#
#
# Indices 1 2 3 4 5 6 
#
# 1 0.011751 -0.008438 -0.003771 0.000000 0.000000 0.000000
# 2 -0.008438 0.048994 -0.006714 0.000000 0.000000 0.000000
# 3 -0.003771 -0.006714 0.008528 0.000000 0.000000 0.000000
# 4 0.000000 0.000000 0.000000 0.034490 0.000000 0.000000
# 5 0.000000 0.000000 0.000000 0.000000 0.030881 0.000000
# 6 0.000000 0.000000 0.000000 0.000000 0.000000 0.111486
#
#
# Mechanical properties :
#
#
# Convention : Reuss Voigt Hill
#
# Bulk Modulus (GPa) = 31.81942 78.10117 54.96029
# Shear Modulus (GPa) = 16.98081 27.00163 21.99122
#
# Velocity S-wave (km/s) = 3.07484 3.87738 3.49920
# Velocity P-wave (km/s) = 5.50661 7.97064 6.85032
#
# Compressibility (1/GPa) = 0.03142735
#
# Stress axis : x y z
#
# Youngs Moduli (GPa) = 85.10268 20.41082 117.25725
#
# Poissons Ratio (x) = 0.17222 0.44215
# Poissons Ratio (y) = 0.71808 0.78726
# Poissons Ratio (z) = 0.32090 0.13704
#
# Static dielectric constant tensor:
#      x y z
#    x 3.363590 0.000000 0.000000 
#    y 0.000000 2.995000 0.000000 
#    z 0.000000 0.000000 3.671420 
# 
# 
# High freq. dielectric constant tensor:
#      x y z
#    x 1.683620 0.000000 0.000000 
#    y 0.000000 1.665830 0.000000 
#    z 0.000000 0.000000 1.717160 
# 
# From -- ./inp_files/23719.got.cif
#   From: 2010.03.12/outbox.cif.g09.slc.cpg/sg59_12_cif.got.tgz:23719.got - 2010.04.16 16:29:54.
