data_PCOD8241731
_publ_section_title
;
Structure prediction by ZEFSAII (Michael W. Deem and Ramdas Pophale) SiO2 
 PCOD8241731
Probable space group: P M M N
;
_chemical_formula_sum "Si O2"
_cell_formula_units_Z 48
_cell_length_a 8.727332
_cell_length_b 18.484906
_cell_length_c 16.685889
_cell_angle_alpha 90.000000
_cell_angle_beta 90.000000
_cell_angle_gamma 90.000000
_cell_volume 2691.832883
_symmetry_space_group_name_H-M "P M M N"
_symmetry_group_IT_number 59
_space_group.IT_coordinate_system_code '2'
_symmetry_cell_setting 'orthorhombic'
loop_
_space_group_symop_operation_xyz
x,y,z
1/2-x,1/2-y,z
1/2+x,-y,-z
-x,1/2+y,-z
-x,-y,-z
1/2+x,1/2+y,-z
1/2-x,y,z
x,1/2-y,z
loop_
_atom_site_type_symbol
_atom_site_label
_atom_site_fract_x
_atom_site_fract_y
_atom_site_fract_z
Si Si1 0.569014 0.580944 0.773836
Si Si2 0.575287 0.563942 0.236851
Si Si3 0.930520 0.920860 0.498249
Si Si4 0.573082 0.165881 0.359003
Si Si5 0.423696 0.985294 0.915867
Si Si6 0.930866 0.167099 0.647867
O O1 0.750000 0.587963 0.769605
O O2 0.511151 0.507603 0.728519
O O3 0.490129 0.648653 0.729868
O O4 0.513257 0.578099 0.867019
O O5 0.750000 0.564279 0.268214
O O6 0.570550 0.558420 0.139256
O O7 0.487550 0.635221 0.266905
O O8 0.750000 0.927370 0.492124
O O9 0.973667 0.878335 0.578086
O O10 0.991753 0.877660 0.422224
O O11 0.000000 0.000000 0.500000
O O12 0.750000 0.143270 0.365917
O O13 0.551127 0.250000 0.376756
O O14 0.250000 0.959844 0.929834
O O15 0.500000 0.000000 0.000000
O O16 0.750000 0.160123 0.640675
O O17 0.983900 0.250000 0.642713
#
# Coordination Sequence:
#
# PCOD8241731 Si02
#       6
#     8   8   8   8   8   8
#     4  10  19  33  55  81 111 143 181 225 271 323
#     4   9  19  34  54  80 110 142 182 224 269 322
#     4  12  25  40  59  80 108 144 186 232 275 322
#     4  11  23  39  57  79 111 147 184 228 277 327
#     4   9  18  32  55  85 113 142 180 227 273 322
#     4  11  23  38  56  80 111 146 184 226 275 327
#
# _framework density 17.831716
#
# number of rings (size 3 to 8) (size 9 to 14) (size 15 to 20)
#    1.000    0.667    0.000    6.000    0.000    4.667 
#    0.000    0.000    0.000    1.000    0.000    4.667 
#    0.000    0.000    0.000    0.000    0.000    0.000 
#
# Total GULP energy -594997.197747 kJ/mol
# GULP energy per Si atom -12395.774953 kJ/mol
# Density = 1.779113 g / cm^3
# Si number density = 17.831716 Si / 1000 Ang^3
#
#
#
# Elastic Constant Matrix: (Units=GPa)
#
#
# Indices 1 2 3 4 5 6 
#
# 1 112.9409 48.9252 31.3255 0.0000 0.0000 0.0000
# 2 48.9252 85.9218 37.0238 0.0000 0.0000 0.0000
# 3 31.3255 37.0238 98.2912 0.0000 0.0000 0.0000
# 4 0.0000 0.0000 0.0000 12.6088 0.0000 0.0000
# 5 0.0000 0.0000 0.0000 0.0000 35.4840 0.0000
# 6 0.0000 0.0000 0.0000 0.0000 0.0000 28.3866
#
#
#
# Elastic Compliance Matrix: (Units=1/GPa)
#
#
# Indices 1 2 3 4 5 6 
#
# 1 0.011932 -0.006155 -0.001484 0.000000 0.000000 0.000000
# 2 -0.006155 0.017068 -0.004468 0.000000 0.000000 0.000000
# 3 -0.001484 -0.004468 0.012330 0.000000 0.000000 0.000000
# 4 0.000000 0.000000 0.000000 0.079310 0.000000 0.000000
# 5 0.000000 0.000000 0.000000 0.000000 0.028182 0.000000
# 6 0.000000 0.000000 0.000000 0.000000 0.000000 0.035228
#
#
# Mechanical properties :
#
#
# Convention : Reuss Voigt Hill
#
# Bulk Modulus (GPa) = 58.42314 59.07811 58.75063
# Shear Modulus (GPa) = 23.36792 27.28783 25.32787
#
# Velocity S-wave (km/s) = 3.62397 3.91615 3.77289
# Velocity P-wave (km/s) = 7.09546 7.32469 7.21099
#
# Compressibility (1/GPa) = 0.01711651
#
# Stress axis : x y z
#
# Youngs Moduli (GPa) = 83.80781 58.58870 81.10428
#
# Poissons Ratio (x) = 0.36059 0.12040
# Poissons Ratio (y) = 0.51581 0.36235
# Poissons Ratio (z) = 0.12441 0.26175
#
# Static dielectric constant tensor:
#      x y z
#    x 3.489980 0.000000 0.000000 
#    y 0.000000 3.213210 0.000000 
#    z 0.000000 0.000000 3.286550 
# 
# 
# High freq. dielectric constant tensor:
#      x y z
#    x 1.712960 0.000000 0.000000 
#    y 0.000000 1.668410 0.000000 
#    z 0.000000 0.000000 1.683200 
# 
# From -- ./inp_files/25764.got.cif
#   From: 2010.03.12/outbox.cif.g09.slc.cpg/sg59_13_cif.got.tgz:25764.got - 2010.04.16 16:29:54.
