data_PCOD8241634
_publ_section_title
;
Structure prediction by ZEFSAII (Michael W. Deem and Ramdas Pophale) SiO2 
 PCOD8241634
Probable space group: P M M N
;
_chemical_formula_sum "Si O2"
_cell_formula_units_Z 48
_cell_length_a 22.270872
_cell_length_b 21.596614
_cell_length_c 5.135324
_cell_angle_alpha 90.000000
_cell_angle_beta 90.000000
_cell_angle_gamma 90.000000
_cell_volume 2469.964649
_symmetry_space_group_name_H-M "P M M N"
_symmetry_group_IT_number 59
_space_group.IT_coordinate_system_code '2'
_symmetry_cell_setting 'orthorhombic'
loop_
_space_group_symop_operation_xyz
x,y,z
1/2-x,1/2-y,z
1/2+x,-y,-z
-x,1/2+y,-z
-x,-y,-z
1/2+x,1/2+y,-z
1/2-x,y,z
x,1/2-y,z
loop_
_atom_site_type_symbol
_atom_site_label
_atom_site_fract_x
_atom_site_fract_y
_atom_site_fract_z
Si Si1 0.320970 0.319172 0.236880
Si Si2 0.321195 0.395878 0.737035
Si Si3 0.456372 0.564509 0.270343
Si Si4 0.888701 0.178555 0.854806
Si Si5 0.684178 0.178119 0.342542
Si Si6 0.919463 0.994863 0.238022
O O1 0.250000 0.313005 0.236861
O O2 0.349216 0.250000 0.239486
O O3 0.342492 0.355821 0.983171
O O4 0.342363 0.357094 0.487363
O O5 0.250000 0.409447 0.737851
O O6 0.355286 0.461354 0.739583
O O7 0.446715 0.637156 0.210904
O O8 0.527561 0.554822 0.287732
O O9 0.424102 0.547900 0.542755
O O10 0.425731 0.522859 0.048511
O O11 0.909477 0.250000 0.873424
O O12 0.839499 0.167813 0.632128
O O13 0.860466 0.151707 0.122339
O O14 0.750000 0.146622 0.322293
O O15 0.690523 0.250000 0.277448
#
# Coordination Sequence:
#
# PCOD8241634 Si02
#       6
#     8   8   8   8   8   8
#     4   9  17  30  50  77 109 143 171 200 255 322
#     4  10  19  33  54  79 108 137 172 221 263 299
#     4  10  21  38  57  75 100 140 182 213 253 313
#     4  10  19  33  54  78 105 134 171 222 266 302
#     4   9  17  30  49  74 105 139 168 199 256 324
#     4  10  21  38  58  75 101 143 182 211 251 312
#
# _framework density 19.433475999999999
#
# number of rings (size 3 to 8) (size 9 to 14) (size 15 to 20)
#    0.000    2.333    0.000    3.000    0.000    4.000 
#    0.000    6.667    0.000    2.000    0.000    0.000 
#    0.000    0.000    0.000    0.000    0.000    0.000 
#
# Total GULP energy -595187.234863 kJ/mol
# GULP energy per Si atom -12399.734060 kJ/mol
# Density = 1.938924 g / cm^3
# Si number density = 19.433476 Si / 1000 Ang^3
#
#
#
# Elastic Constant Matrix: (Units=GPa)
#
#
# Indices 1 2 3 4 5 6 
#
# 1 53.3325 32.3551 11.1725 0.0000 0.0000 0.0000
# 2 32.3551 65.1355 11.1184 0.0000 0.0000 0.0000
# 3 11.1725 11.1184 120.4737 0.0000 0.0000 0.0000
# 4 0.0000 0.0000 0.0000 30.1994 0.0000 0.0000
# 5 0.0000 0.0000 0.0000 0.0000 15.6053 0.0000
# 6 0.0000 0.0000 0.0000 0.0000 0.0000 21.7291
#
#
#
# Elastic Compliance Matrix: (Units=1/GPa)
#
#
# Indices 1 2 3 4 5 6 
#
# 1 0.027033 -0.013209 -0.001288 0.000000 0.000000 0.000000
# 2 -0.013209 0.022052 -0.000810 0.000000 0.000000 0.000000
# 3 -0.001288 -0.000810 0.008495 0.000000 0.000000 0.000000
# 4 0.000000 0.000000 0.000000 0.033113 0.000000 0.000000
# 5 0.000000 0.000000 0.000000 0.000000 0.064081 0.000000
# 6 0.000000 0.000000 0.000000 0.000000 0.000000 0.046021
#
#
# Mechanical properties :
#
#
# Convention : Reuss Voigt Hill
#
# Bulk Modulus (GPa) = 37.08290 38.69262 37.88776
# Shear Modulus (GPa) = 20.79885 25.79314 23.29600
#
# Velocity S-wave (km/s) = 3.27503 3.64710 3.46606
# Velocity P-wave (km/s) = 5.78139 6.13911 5.96293
#
# Compressibility (1/GPa) = 0.02696661
#
# Stress axis : x y z
#
# Youngs Moduli (GPa) = 36.99137 45.34720 117.71923
#
# Poissons Ratio (x) = 0.59897 0.15162
# Poissons Ratio (y) = 0.48860 0.09538
# Poissons Ratio (z) = 0.04765 0.03674
#
# Static dielectric constant tensor:
#      x y z
#    x 3.296060 0.000000 0.000000 
#    y 0.000000 3.427380 0.000000 
#    z 0.000000 0.000000 3.817620 
# 
# 
# High freq. dielectric constant tensor:
#      x y z
#    x 1.726600 0.000000 0.000000 
#    y 0.000000 1.742580 0.000000 
#    z 0.000000 0.000000 1.780110 
# 
# From -- ./inp_files/4228.got.cif
#   From: 2010.03.12/outbox.cif.g09.slc.cpg/sg59_3_cif.got.tgz:4228.got - 2010.04.16 16:29:54.
