data_PCOD8241756
_publ_section_title
;
Structure prediction by ZEFSAII (Michael W. Deem and Ramdas Pophale) SiO2 
 PCOD8241756
Probable space group: P M M N
;
_chemical_formula_sum "Si O2"
_cell_formula_units_Z 64
_cell_length_a 23.961907
_cell_length_b 8.648641
_cell_length_c 14.961608
_cell_angle_alpha 90.000000
_cell_angle_beta 90.000000
_cell_angle_gamma 90.000000
_cell_volume 3100.612691
_symmetry_space_group_name_H-M "P M M N"
_symmetry_group_IT_number 59
_space_group.IT_coordinate_system_code '2'
_symmetry_cell_setting 'orthorhombic'
loop_
_space_group_symop_operation_xyz
x,y,z
1/2-x,1/2-y,z
1/2+x,-y,-z
-x,1/2+y,-z
-x,-y,-z
1/2+x,1/2+y,-z
1/2-x,y,z
x,1/2-y,z
loop_
_atom_site_type_symbol
_atom_site_label
_atom_site_fract_x
_atom_site_fract_y
_atom_site_fract_z
Si Si1 0.813720 0.567047 0.648380
Si Si2 0.497878 0.433511 0.223307
Si Si3 0.389262 0.928728 0.860446
Si Si4 0.381054 0.568155 0.191664
Si Si5 0.186498 0.566053 0.019186
Si Si6 0.688751 0.925216 0.272257
Si Si7 0.971416 0.566376 0.412948
Si Si8 0.650267 0.571224 0.457822
O O1 0.750000 0.525497 0.671330
O O2 0.823814 0.750000 0.655375
O O3 0.854621 0.479831 0.714842
O O4 0.828016 0.497499 0.550204
O O5 0.500302 0.250000 0.230882
O O6 0.548718 0.495805 0.159792
O O7 0.440540 0.486217 0.177325
O O8 0.501161 0.501099 0.322990
O O9 0.395476 0.750000 0.881403
O O10 0.353030 0.954336 0.771785
O O11 0.355258 0.005212 0.943426
O O12 0.391109 0.750000 0.188948
O O13 0.338793 0.514139 0.113973
O O14 0.250000 0.500422 0.009657
O O15 0.188673 0.750000 0.010735
O O16 0.750000 0.946857 0.230167
O O17 0.666588 0.750000 0.256601
O O18 0.693991 0.958563 0.378210
O O19 0.976701 0.750000 0.410088
O O20 0.908180 0.505994 0.421306
O O21 0.000000 0.500000 0.500000
O O22 0.643003 0.750000 0.479799
#
# Coordination Sequence:
#
# PCOD8241756 Si02
#       8
#     8   8   8   8   8   8   8   8
#     4  10  20  36  59  86 118 156 196 242 298 358
#     4  11  23  39  58  85 120 156 199 249 302 357
#     4  10  21  38  61  86 116 154 195 240 291 352
#     4  11  23  39  61  86 114 154 201 251 304 358
#     4   9  19  38  63  89 117 151 193 241 301 367
#     4  10  19  33  55  83 115 149 187 232 283 344
#     4  11  21  35  57  83 117 161 204 246 290 345
#     4   9  18  33  53  79 112 151 191 228 280 346
#
# _framework density 20.641081
#
# number of rings (size 3 to 8) (size 9 to 14) (size 15 to 20)
#    0.000    1.875    1.250    3.000    0.000    5.000 
#    0.000    2.500    0.000    4.500    0.000    0.000 
#    0.000    0.000    0.000    0.000    0.000    0.000 
#
# Total GULP energy -793364.012918 kJ/mol
# GULP energy per Si atom -12396.312702 kJ/mol
# Density = 2.059410 g / cm^3
# Si number density = 20.641081 Si / 1000 Ang^3
#
#
#
# Elastic Constant Matrix: (Units=GPa)
#
#
# Indices 1 2 3 4 5 6 
#
# 1 139.3865 23.6516 51.6430 0.0000 0.0000 0.0000
# 2 23.6516 38.0442 13.7314 0.0000 0.0000 0.0000
# 3 51.6430 13.7314 107.8064 0.0000 0.0000 0.0000
# 4 0.0000 0.0000 0.0000 20.3213 0.0000 0.0000
# 5 0.0000 0.0000 0.0000 0.0000 40.7138 0.0000
# 6 0.0000 0.0000 0.0000 0.0000 0.0000 22.7737
#
#
#
# Elastic Compliance Matrix: (Units=1/GPa)
#
#
# Indices 1 2 3 4 5 6 
#
# 1 0.009379 -0.004412 -0.003931 0.000000 0.000000 0.000000
# 2 -0.004412 0.029627 -0.001660 0.000000 0.000000 0.000000
# 3 -0.003931 -0.001660 0.011370 0.000000 0.000000 0.000000
# 4 0.000000 0.000000 0.000000 0.049209 0.000000 0.000000
# 5 0.000000 0.000000 0.000000 0.000000 0.024562 0.000000
# 6 0.000000 0.000000 0.000000 0.000000 0.000000 0.043910
#
#
# Mechanical properties :
#
#
# Convention : Reuss Voigt Hill
#
# Bulk Modulus (GPa) = 32.92660 51.47656 42.20158
# Shear Modulus (GPa) = 25.22841 29.84249 27.53545
#
# Velocity S-wave (km/s) = 3.49985 3.80647 3.65638
# Velocity P-wave (km/s) = 5.68494 6.65672 6.18993
#
# Compressibility (1/GPa) = 0.03037058
#
# Stress axis : x y z
#
# Youngs Moduli (GPa) = 106.61593 33.75247 87.94717
#
# Poissons Ratio (x) = 0.14892 0.34573
# Poissons Ratio (y) = 0.47042 0.14600
# Poissons Ratio (z) = 0.41912 0.05603
#
# Static dielectric constant tensor:
#      x y z
#    x 4.191320 0.000000 0.000000 
#    y 0.000000 3.389990 0.000000 
#    z 0.000000 0.000000 3.827790 
# 
# 
# High freq. dielectric constant tensor:
#      x y z
#    x 1.824700 0.000000 0.000000 
#    y 0.000000 1.771170 0.000000 
#    z 0.000000 0.000000 1.812350 
# 
# From -- ./inp_files/24723.got.cif
#   From: 2010.03.12/outbox.cif.g09.slc.cpg/sg59_13_cif.got.tgz:24723.got - 2010.04.16 16:29:54.
