data_PCOD8241353
_publ_section_title
;
Structure prediction by ZEFSAII (Michael W. Deem and Ramdas Pophale) SiO2 
 PCOD8241353
Probable space group: P M M N
;
_chemical_formula_sum "Si O2"
_cell_formula_units_Z 64
_cell_length_a 9.120991
_cell_length_b 13.670489
_cell_length_c 26.362867
_cell_angle_alpha 90.000000
_cell_angle_beta 90.000000
_cell_angle_gamma 90.000000
_cell_volume 3287.143894
_symmetry_space_group_name_H-M "P M M N"
_symmetry_group_IT_number 59
_space_group.IT_coordinate_system_code '2'
_symmetry_cell_setting 'orthorhombic'
loop_
_space_group_symop_operation_xyz
x,y,z
1/2-x,1/2-y,z
1/2+x,-y,-z
-x,1/2+y,-z
-x,-y,-z
1/2+x,1/2+y,-z
1/2-x,y,z
x,1/2-y,z
loop_
_atom_site_type_symbol
_atom_site_label
_atom_site_fract_x
_atom_site_fract_y
_atom_site_fract_z
Si Si1 0.924067 0.357275 0.577953
Si Si2 0.422931 0.050401 0.374408
Si Si3 0.914247 0.634436 0.919456
Si Si4 0.584239 0.133294 0.983404
Si Si5 0.417879 0.360095 0.883972
Si Si6 0.911412 0.134879 0.467253
Si Si7 0.580056 0.451707 0.174285
Si Si8 0.076422 0.136815 0.268968
O O1 0.750000 0.348513 0.575697
O O2 0.991287 0.250000 0.591240
O O3 0.972204 0.436452 0.620367
O O4 0.975872 0.397596 0.522520
O O5 0.250000 0.061409 0.374853
O O6 0.479790 0.109798 0.422268
O O7 0.484293 0.095821 0.322404
O O8 0.750000 0.591047 0.914087
O O9 0.906331 0.750000 0.924898
O O10 0.010166 0.610927 0.870564
O O11 0.989833 0.589107 0.969930
O O12 0.750000 0.094334 0.987744
O O13 0.579341 0.250000 0.985676
O O14 0.516445 0.098906 0.929937
O O15 0.250000 0.361533 0.902728
O O16 0.463935 0.250000 0.867596
O O17 0.440645 0.432344 0.836397
O O18 0.750000 0.088418 0.457166
O O19 0.894939 0.250000 0.470677
O O20 0.750000 0.422931 0.178370
O O21 0.500111 0.427494 0.226310
O O22 0.250000 0.123680 0.263890
O O23 0.031237 0.250000 0.263618
#
# Coordination Sequence:
#
# PCOD8241353 Si02
#       8
#     8   8   8   8   8   8   8   8
#     4   8  15  29  49  75 108 142 173 208 254 305
#     4  10  19  32  53  77 101 135 178 218 254 300
#     4  10  20  34  53  77 108 144 174 205 254 309
#     4   9  17  30  51  80 110 138 171 210 247 292
#     4   9  19  37  57  76 102 134 166 204 255 310
#     4   9  17  29  47  74 108 142 173 209 257 309
#     4  11  23  37  56  79  99 128 173 218 257 302
#     4  10  22  39  55  74 104 136 165 206 261 311
#
# _framework density 19.46979
#
# number of rings (size 3 to 8) (size 9 to 14) (size 15 to 20)
#    0.000    2.500    0.000    3.000    0.000    6.750 
#    0.000    0.625    0.000    1.875    0.000    0.000 
#    0.000    0.000    0.000    0.000    0.000    0.000 
#
# Total GULP energy -793470.152424 kJ/mol
# GULP energy per Si atom -12397.971132 kJ/mol
# Density = 1.942548 g / cm^3
# Si number density = 19.469790 Si / 1000 Ang^3
#
#
#
# Elastic Constant Matrix: (Units=GPa)
#
#
# Indices 1 2 3 4 5 6 
#
# 1 59.8089 33.3467 44.4282 0.0000 0.0000 0.0000
# 2 33.3467 62.8244 55.9245 0.0000 0.0000 0.0000
# 3 44.4282 55.9245 126.5617 0.0000 0.0000 0.0000
# 4 0.0000 0.0000 0.0000 32.8543 0.0000 0.0000
# 5 0.0000 0.0000 0.0000 0.0000 29.2310 0.0000
# 6 0.0000 0.0000 0.0000 0.0000 0.0000 20.1174
#
#
#
# Elastic Compliance Matrix: (Units=1/GPa)
#
#
# Indices 1 2 3 4 5 6 
#
# 1 0.025460 -0.009162 -0.004889 0.000000 0.000000 0.000000
# 2 -0.009162 0.029535 -0.009835 0.000000 0.000000 0.000000
# 3 -0.004889 -0.009835 0.013963 0.000000 0.000000 0.000000
# 4 0.000000 0.000000 0.000000 0.030437 0.000000 0.000000
# 5 0.000000 0.000000 0.000000 0.000000 0.034210 0.000000
# 6 0.000000 0.000000 0.000000 0.000000 0.000000 0.049708
#
#
# Mechanical properties :
#
#
# Convention : Reuss Voigt Hill
#
# Bulk Modulus (GPa) = 47.19863 57.39931 52.29897
# Shear Modulus (GPa) = 20.99542 24.14024 22.56783
#
# Velocity S-wave (km/s) = 3.28740 3.52502 3.40828
# Velocity P-wave (km/s) = 6.22125 6.79065 6.51217
#
# Compressibility (1/GPa) = 0.02118706
#
# Stress axis : x y z
#
# Youngs Moduli (GPa) = 39.27750 33.85826 71.61691
#
# Poissons Ratio (x) = 0.31020 0.35014
# Poissons Ratio (y) = 0.35985 0.70432
# Poissons Ratio (z) = 0.19203 0.33298
#
# Static dielectric constant tensor:
#      x y z
#    x 3.507960 0.000000 0.000000 
#    y 0.000000 3.718930 0.000000 
#    z 0.000000 0.000000 3.519910 
# 
# 
# High freq. dielectric constant tensor:
#      x y z
#    x 1.745520 0.000000 0.000000 
#    y 0.000000 1.768340 0.000000 
#    z 0.000000 0.000000 1.742460 
# 
# From -- ./inp_files/31546.got.cif
#   From: 2010.03.12/outbox.cif.g09.slc.cpg/sg59_16_cif.got.tgz:31546.got - 2010.04.16 16:29:54.
