data_PCOD8241463
_publ_section_title
;
Structure prediction by ZEFSAII (Michael W. Deem and Ramdas Pophale) SiO2 
 PCOD8241463
Probable space group: P M M N
;
_chemical_formula_sum "Si O2"
_cell_formula_units_Z 56
_cell_length_a 8.778236
_cell_length_b 14.827641
_cell_length_c 21.258018
_cell_angle_alpha 90.000000
_cell_angle_beta 90.000000
_cell_angle_gamma 90.000000
_cell_volume 2766.954933
_symmetry_space_group_name_H-M "P M M N"
_symmetry_group_IT_number 59
_space_group.IT_coordinate_system_code '2'
_symmetry_cell_setting 'orthorhombic'
loop_
_space_group_symop_operation_xyz
x,y,z
1/2-x,1/2-y,z
1/2+x,-y,-z
-x,1/2+y,-z
-x,-y,-z
1/2+x,1/2+y,-z
1/2-x,y,z
x,1/2-y,z
loop_
_atom_site_type_symbol
_atom_site_label
_atom_site_fract_x
_atom_site_fract_y
_atom_site_fract_z
Si Si1 0.575755 0.583198 0.931362
Si Si2 0.069802 0.853654 0.509303
Si Si3 0.571157 0.000585 0.592071
Si Si4 0.424019 0.104167 0.931263
Si Si5 0.421026 0.650078 0.190035
Si Si6 0.577249 0.851028 0.796716
Si Si7 0.926041 0.507028 0.274982
O O1 0.750000 0.546416 0.932172
O O2 0.457930 0.501757 0.925789
O O3 0.547696 0.647175 0.871695
O O4 0.544976 0.636759 0.996809
O O5 0.250000 0.850640 0.515280
O O6 0.007005 0.750000 0.505516
O O7 0.005214 0.906744 0.569791
O O8 0.018089 0.911989 0.448412
O O9 0.750000 0.987200 0.586345
O O10 0.525884 0.020430 0.663142
O O11 0.250000 0.122234 0.911993
O O12 0.531139 0.157307 0.883008
O O13 0.250000 0.610238 0.194718
O O14 0.426445 0.750000 0.219370
O O15 0.536866 0.587255 0.227207
O O16 0.750000 0.882228 0.782098
O O17 0.549205 0.750000 0.772995
O O18 0.461543 0.912905 0.758624
O O19 0.750000 0.510139 0.293502
#
# Coordination Sequence:
#
# PCOD8241463 Si02
#       7
#     8   8   8   8   8   8   8
#     4   9  18  33  55  81 113 149 188 237 297 360
#     4   9  19  38  64  94 126 157 193 237 281 330
#     4  10  21  38  62  91 123 161 198 234 285 342
#     4  10  19  32  55  85 113 145 187 240 299 359
#     4  11  24  41  60  82 112 153 198 245 300 361
#     4  10  21  38  60  84 112 152 199 244 295 356
#     4  12  25  41  61  86 119 157 199 248 296 343
#
# _framework density 20.238856999999999
#
# number of rings (size 3 to 8) (size 9 to 14) (size 15 to 20)
#    0.000    1.857    1.429    2.571    0.000    4.571 
#    0.000    2.857    0.000    0.000    0.000    0.000 
#    0.000    0.000    0.000    0.000    0.000    0.000 
#
# Total GULP energy -694363.339462 kJ/mol
# GULP energy per Si atom -12399.345348 kJ/mol
# Density = 2.019279 g / cm^3
# Si number density = 20.238857 Si / 1000 Ang^3
#
#
#
# Elastic Constant Matrix: (Units=GPa)
#
#
# Indices 1 2 3 4 5 6 
#
# 1 45.0047 25.4250 14.0549 0.0000 0.0000 0.0000
# 2 25.4250 110.5106 28.3425 0.0000 0.0000 0.0000
# 3 14.0549 28.3425 91.0594 0.0000 0.0000 0.0000
# 4 0.0000 0.0000 0.0000 -4.1305 0.0000 0.0000
# 5 0.0000 0.0000 0.0000 0.0000 30.5078 0.0000
# 6 0.0000 0.0000 0.0000 0.0000 0.0000 14.7095
#
#
#
# Elastic Compliance Matrix: (Units=1/GPa)
#
#
# Indices 1 2 3 4 5 6 
#
# 1 0.025989 -0.005380 -0.002337 0.000000 0.000000 0.000000
# 2 -0.005380 0.010948 -0.002577 0.000000 0.000000 0.000000
# 3 -0.002337 -0.002577 0.012145 0.000000 0.000000 0.000000
# 4 0.000000 0.000000 0.000000 -0.242104 0.000000 0.000000
# 5 0.000000 0.000000 0.000000 0.000000 0.032778 0.000000
# 6 0.000000 0.000000 0.000000 0.000000 0.000000 0.067983
#
#
# Mechanical properties :
#
#
# Convention : Reuss Voigt Hill
#
# Bulk Modulus (GPa) = 35.09565 42.46883 38.78224
# Shear Modulus (GPa) = -80.41753 20.13419 -30.14167
#
# Velocity S-wave (km/s) = -6.31035 3.15751 -3.86333
# Velocity P-wave (km/s) = 5.97625 5.85854 0.83459
#
# Compressibility (1/GPa) = 0.02849356
#
# Stress axis : x y z
#
# Youngs Moduli (GPa) = 38.47776 91.34422 82.34076
#
# Poissons Ratio (x) = 0.49143 0.19242
# Poissons Ratio (y) = 0.20701 0.21220
# Poissons Ratio (z) = 0.08992 0.23540
#
# Static dielectric constant tensor:
#      x y z
#    x 3.609100 0.000000 0.000000 
#    y 0.000000 3.582980 0.000000 
#    z 0.000000 0.000000 3.721720 
# 
# 
# High freq. dielectric constant tensor:
#      x y z
#    x 1.786610 0.000000 0.000000 
#    y 0.000000 1.782790 0.000000 
#    z 0.000000 0.000000 1.789990 
# 
# From -- ./inp_files/29032.got.cif
#   From: 2010.03.12/outbox.cif.g09.slc.cpg/sg59_15_cif.got.tgz:29032.got - 2010.04.16 16:29:54.
