data_PCOD8241828
_publ_section_title
;
Structure prediction by ZEFSAII (Michael W. Deem and Ramdas Pophale) SiO2 
 PCOD8241828
Probable space group: P M M N
;
_chemical_formula_sum "Si O2"
_cell_formula_units_Z 64
_cell_length_a 13.893491
_cell_length_b 22.908075
_cell_length_c 10.586867
_cell_angle_alpha 90.000000
_cell_angle_beta 90.000000
_cell_angle_gamma 90.000000
_cell_volume 3369.515338
_symmetry_space_group_name_H-M "P M M N"
_symmetry_group_IT_number 59
_space_group.IT_coordinate_system_code '2'
_symmetry_cell_setting 'orthorhombic'
loop_
_space_group_symop_operation_xyz
x,y,z
1/2-x,1/2-y,z
1/2+x,-y,-z
-x,1/2+y,-z
-x,-y,-z
1/2+x,1/2+y,-z
1/2-x,y,z
x,1/2-y,z
loop_
_atom_site_type_symbol
_atom_site_label
_atom_site_fract_x
_atom_site_fract_y
_atom_site_fract_z
Si Si1 0.989559 0.315226 0.142662
Si Si2 0.641921 0.906832 0.224972
Si Si3 0.858102 0.317361 0.382239
Si Si4 0.989525 0.315729 0.854776
Si Si5 0.006489 0.524870 0.364376
Si Si6 0.467443 0.438589 0.150447
Si Si7 0.863740 0.127586 0.642110
Si Si8 0.355585 0.989174 0.970893
O O1 0.035057 0.250000 0.166094
O O2 0.063091 0.370034 0.161370
O O3 0.909329 0.328651 0.248371
O O4 0.949405 0.318119 0.999111
O O5 0.750000 0.887054 0.263689
O O6 0.586771 0.853906 0.156530
O O7 0.581232 0.929047 0.345447
O O8 0.645586 0.962126 0.135332
O O9 0.750000 0.339751 0.360664
O O10 0.861619 0.250000 0.419177
O O11 0.902384 0.350581 0.504419
O O12 0.019157 0.250000 0.819914
O O13 0.907414 0.335900 0.758178
O O14 0.000319 0.466698 0.281105
O O15 0.105696 0.560103 0.342172
O O16 0.000000 0.500000 0.500000
O O17 0.560791 0.441659 0.055493
O O18 0.378933 0.476931 0.100421
O O19 0.750000 0.134296 0.650888
O O20 0.250000 0.959254 0.982422
#
# Coordination Sequence:
#
# PCOD8241828 Si02
#       8
#     8   8   8   8   8   8   8   8
#     4  10  20  34  53  78 109 143 180 227 276 325
#     4   9  18  35  55  77 106 140 183 229 272 324
#     4   9  18  33  52  74 104 147 191 223 263 330
#     4  10  20  34  54  82 112 144 184 232 283 326
#     4  10  21  35  53  80 109 142 182 231 281 330
#     4  10  19  34  53  75 106 138 175 220 268 326
#     4  10  21  36  54  79 112 149 187 226 277 343
#     4   9  18  32  53  76  99 135 176 214 263 319
#
# _framework density 18.993829000000002
#
# number of rings (size 3 to 8) (size 9 to 14) (size 15 to 20)
#    0.000    2.375    1.250    1.125    1.750    3.000 
#    0.000    3.750    0.000    0.375    0.000    0.000 
#    0.000    4.500    0.000    0.000    0.000    0.000 
#
# Total GULP energy -792916.977061 kJ/mol
# GULP energy per Si atom -12389.327767 kJ/mol
# Density = 1.895060 g / cm^3
# Si number density = 18.993829 Si / 1000 Ang^3
#
#
#
# Elastic Constant Matrix: (Units=GPa)
#
#
# Indices 1 2 3 4 5 6 
#
# 1 77.8450 14.5229 27.3835 0.0000 0.0000 0.0000
# 2 14.5229 105.0436 31.8269 0.0000 0.0000 0.0000
# 3 27.3835 31.8269 109.0249 0.0000 0.0000 0.0000
# 4 0.0000 0.0000 0.0000 25.4438 0.0000 0.0000
# 5 0.0000 0.0000 0.0000 0.0000 18.9825 0.0000
# 6 0.0000 0.0000 0.0000 0.0000 0.0000 16.4081
#
#
#
# Elastic Compliance Matrix: (Units=1/GPa)
#
#
# Indices 1 2 3 4 5 6 
#
# 1 0.014180 -0.000967 -0.003279 0.000000 0.000000 0.000000
# 2 -0.000967 0.010510 -0.002825 0.000000 0.000000 0.000000
# 3 -0.003279 -0.002825 0.010821 0.000000 0.000000 0.000000
# 4 0.000000 0.000000 0.000000 0.039302 0.000000 0.000000
# 5 0.000000 0.000000 0.000000 0.000000 0.052680 0.000000
# 6 0.000000 0.000000 0.000000 0.000000 0.000000 0.060946
#
#
# Mechanical properties :
#
#
# Convention : Reuss Voigt Hill
#
# Bulk Modulus (GPa) = 46.80006 48.82000 47.81003
# Shear Modulus (GPa) = 23.84322 26.71222 25.27772
#
# Velocity S-wave (km/s) = 3.54689 3.75422 3.65202
# Velocity P-wave (km/s) = 6.43948 6.67466 6.55813
#
# Compressibility (1/GPa) = 0.02136749
#
# Stress axis : x y z
#
# Youngs Moduli (GPa) = 70.52197 95.15187 92.41641
#
# Poissons Ratio (x) = 0.09200 0.30306
# Poissons Ratio (y) = 0.06819 0.26109
# Poissons Ratio (z) = 0.23126 0.26882
#
# Static dielectric constant tensor:
#      x y z
#    x 3.395700 0.000000 0.000000 
#    y 0.000000 3.621540 0.000000 
#    z 0.000000 0.000000 3.580460 
# 
# 
# High freq. dielectric constant tensor:
#      x y z
#    x 1.702300 0.000000 0.000000 
#    y 0.000000 1.746390 0.000000 
#    z 0.000000 0.000000 1.744580 
# 
# From -- ./inp_files/9562.got.cif
#   From: 2010.03.12/outbox.cif.g09.slc.cpg/sg59_5_cif.got.tgz:9562.got - 2010.04.16 16:29:54.
