data_PCOD8241025
_publ_section_title
;
Structure prediction by ZEFSAII (Michael W. Deem and Ramdas Pophale) SiO2 
 PCOD8241025
Probable space group: P M M N
;
_chemical_formula_sum "Si O2"
_cell_formula_units_Z 64
_cell_length_a 8.784348
_cell_length_b 16.105362
_cell_length_c 23.332951
_cell_angle_alpha 90.000000
_cell_angle_beta 90.000000
_cell_angle_gamma 90.000000
_cell_volume 3301.031680
_symmetry_space_group_name_H-M "P M M N"
_symmetry_group_IT_number 59
_space_group.IT_coordinate_system_code '2'
_symmetry_cell_setting 'orthorhombic'
loop_
_space_group_symop_operation_xyz
x,y,z
1/2-x,1/2-y,z
1/2+x,-y,-z
-x,1/2+y,-z
-x,-y,-z
1/2+x,1/2+y,-z
1/2-x,y,z
x,1/2-y,z
loop_
_atom_site_type_symbol
_atom_site_label
_atom_site_fract_x
_atom_site_fract_y
_atom_site_fract_z
Si Si1 0.425381 0.924670 0.571547
Si Si2 0.569368 0.158113 0.071575
Si Si3 0.571550 0.155984 0.940684
Si Si4 0.068954 0.494606 0.738874
Si Si5 0.077388 0.343274 0.534024
Si Si6 0.430244 0.491707 0.868736
Si Si7 0.074219 0.838721 0.684888
Si Si8 0.428771 0.921702 0.367491
O O1 0.250000 0.953310 0.567953
O O2 0.481908 0.900077 0.509027
O O3 0.444139 0.849562 0.616508
O O4 0.528115 0.998610 0.594956
O O5 0.750000 0.158764 0.075450
O O6 0.510487 0.250000 0.092740
O O7 0.503359 0.080414 0.108320
O O8 0.518084 0.144507 0.006113
O O9 0.750000 0.140176 0.934602
O O10 0.530875 0.250000 0.920155
O O11 0.485985 0.087489 0.903690
O O12 0.250000 0.491383 0.731587
O O13 0.015821 0.478203 0.803540
O O14 0.002049 0.584825 0.720141
O O15 0.996993 0.425794 0.696835
O O16 0.250000 0.376132 0.536673
O O17 0.071413 0.250000 0.511220
O O18 0.002744 0.345465 0.597505
O O19 0.250000 0.494959 0.873079
O O20 0.250000 0.835116 0.702059
O O21 0.997349 0.750000 0.701487
O O22 0.250000 0.910065 0.362538
#
# Coordination Sequence:
#
# PCOD8241025 Si02
#       8
#     8   8   8   8   8   8   8   8
#     4  10  19  33  54  79 107 134 165 205 249 304
#     4   8  15  29  50  79 113 143 171 207 255 312
#     4   9  18  33  52  74 104 142 179 216 262 313
#     4   9  19  34  50  72 102 133 169 213 260 308
#     4  11  23  37  54  78 106 131 159 204 261 312
#     4  10  19  31  52  80 106 136 176 221 265 309
#     4   8  14  26  46  71  98 129 163 200 243 294
#     4  11  22  37  56  74  97 133 174 210 249 301
#
# _framework density 19.387879000000002
#
# number of rings (size 3 to 8) (size 9 to 14) (size 15 to 20)
#    0.000    2.500    0.000    4.500    0.000    2.750 
#    0.000    3.125    0.000    5.250    0.000    3.500 
#    0.000    0.000    0.000    0.000    0.000    0.000 
#
# Total GULP energy -793153.924616 kJ/mol
# GULP energy per Si atom -12393.030072 kJ/mol
# Density = 1.934375 g / cm^3
# Si number density = 19.387879 Si / 1000 Ang^3
#
#
#
# Elastic Constant Matrix: (Units=GPa)
#
#
# Indices 1 2 3 4 5 6 
#
# 1 43.2127 12.0100 23.9146 0.0000 0.0000 0.0000
# 2 12.0100 83.3589 42.7230 0.0000 0.0000 0.0000
# 3 23.9146 42.7230 120.2532 0.0000 0.0000 0.0000
# 4 0.0000 0.0000 0.0000 17.8022 0.0000 0.0000
# 5 0.0000 0.0000 0.0000 0.0000 25.7312 0.0000
# 6 0.0000 0.0000 0.0000 0.0000 0.0000 22.2338
#
#
#
# Elastic Compliance Matrix: (Units=1/GPa)
#
#
# Indices 1 2 3 4 5 6 
#
# 1 0.026126 -0.001346 -0.004717 0.000000 0.000000 0.000000
# 2 -0.001346 0.014736 -0.004968 0.000000 0.000000 0.000000
# 3 -0.004717 -0.004968 0.011019 0.000000 0.000000 0.000000
# 4 0.000000 0.000000 0.000000 0.056173 0.000000 0.000000
# 5 0.000000 0.000000 0.000000 0.000000 0.038863 0.000000
# 6 0.000000 0.000000 0.000000 0.000000 0.000000 0.044977
#
#
# Mechanical properties :
#
#
# Convention : Reuss Voigt Hill
#
# Bulk Modulus (GPa) = 33.53627 44.90221 39.21924
# Shear Modulus (GPa) = 22.33174 24.36525 23.34849
#
# Velocity S-wave (km/s) = 3.39756 3.54888 3.47404
# Velocity P-wave (km/s) = 5.72069 6.32479 6.03031
#
# Compressibility (1/GPa) = 0.02981846
#
# Stress axis : x y z
#
# Youngs Moduli (GPa) = 38.27573 67.85940 90.75383
#
# Poissons Ratio (x) = 0.09137 0.42811
# Poissons Ratio (y) = 0.05154 0.45084
# Poissons Ratio (z) = 0.18056 0.33711
#
# Static dielectric constant tensor:
#      x y z
#    x 3.201000 0.000000 0.000000 
#    y 0.000000 3.819000 0.000000 
#    z 0.000000 0.000000 3.649740 
# 
# 
# High freq. dielectric constant tensor:
#      x y z
#    x 1.722340 0.000000 0.000000 
#    y 0.000000 1.757560 0.000000 
#    z 0.000000 0.000000 1.749510 
# 
# From -- ./inp_files/31489.got.cif
#   From: 2010.03.12/outbox.cif.g09.slc.cpg/sg59_16_cif.got.tgz:31489.got - 2010.04.16 16:29:54.
