data_PCOD8241956
_publ_section_title
;
Structure prediction by ZEFSAII (Michael W. Deem and Ramdas Pophale) SiO2 
 PCOD8241956
Probable space group: P M M N
;
_chemical_formula_sum "Si O2"
_cell_formula_units_Z 56
_cell_length_a 8.996827
_cell_length_b 19.040971
_cell_length_c 17.364619
_cell_angle_alpha 90.000000
_cell_angle_beta 90.000000
_cell_angle_gamma 90.000000
_cell_volume 2974.703743
_symmetry_space_group_name_H-M "P M M N"
_symmetry_group_IT_number 59
_space_group.IT_coordinate_system_code '2'
_symmetry_cell_setting 'orthorhombic'
loop_
_space_group_symop_operation_xyz
x,y,z
1/2-x,1/2-y,z
1/2+x,-y,-z
-x,1/2+y,-z
-x,-y,-z
1/2+x,1/2+y,-z
1/2-x,y,z
x,1/2-y,z
loop_
_atom_site_type_symbol
_atom_site_label
_atom_site_fract_x
_atom_site_fract_y
_atom_site_fract_z
Si Si1 0.920147 0.169068 0.677611
Si Si2 0.577348 0.669026 0.890364
Si Si3 0.421528 0.568303 0.775899
Si Si4 0.078237 0.102346 0.543945
Si Si5 0.078736 0.553792 0.599943
Si Si6 0.422765 0.090790 0.814060
Si Si7 0.574997 0.169283 0.952397
O O1 0.750000 0.143168 0.679966
O O2 0.930790 0.250000 0.701785
O O3 0.985679 0.159519 0.592001
O O4 0.016986 0.123903 0.735955
O O5 0.750000 0.655611 0.905272
O O6 0.543245 0.750000 0.871841
O O7 0.523855 0.624423 0.818026
O O8 0.490004 0.644302 0.966220
O O9 0.250000 0.590000 0.784792
O O10 0.469600 0.569503 0.686866
O O11 0.449309 0.492220 0.812458
O O12 0.250000 0.123731 0.544050
O O13 0.020331 0.101678 0.456256
O O14 0.049259 0.027764 0.583985
O O15 0.250000 0.572429 0.585151
O O16 0.250000 0.109761 0.820634
O O17 0.508684 0.120732 0.886768
O O18 0.750000 0.158673 0.954241
O O19 0.531382 0.250000 0.935619
#
# Coordination Sequence:
#
# PCOD8241956 Si02
#       7
#     8   8   8   8   8   8   8
#     4  11  23  37  54  80 116 156 195 235 283 339
#     4  10  22  40  61  85 111 143 187 236 286 338
#     4  10  21  38  59  85 116 148 186 231 282 341
#     4  10  19  34  56  82 109 144 189 233 278 329
#     4   9  18  35  56  81 112 144 183 229 277 334
#     4  11  22  37  57  85 117 149 189 235 282 335
#     4  10  21  38  59  83 113 152 194 231 277 339
#
# _framework density 18.825405
#
# number of rings (size 3 to 8) (size 9 to 14) (size 15 to 20)
#    0.000    1.857    1.429    2.571    0.000    7.429 
#    0.000    0.714    0.000    0.857    0.000    0.000 
#    0.000    0.000    0.000    0.000    0.000    0.000 
#
# Total GULP energy -694682.192121 kJ/mol
# GULP energy per Si atom -12405.039145 kJ/mol
# Density = 1.878256 g / cm^3
# Si number density = 18.825405 Si / 1000 Ang^3
#
#
#
# Elastic Constant Matrix: (Units=GPa)
#
#
# Indices 1 2 3 4 5 6 
#
# 1 85.0934 36.0112 52.9520 0.0000 0.0000 0.0000
# 2 36.0112 53.5513 43.7125 0.0000 0.0000 0.0000
# 3 52.9520 43.7125 132.6304 0.0000 0.0000 0.0000
# 4 0.0000 0.0000 0.0000 21.9925 0.0000 0.0000
# 5 0.0000 0.0000 0.0000 0.0000 42.5777 0.0000
# 6 0.0000 0.0000 0.0000 0.0000 0.0000 29.7838
#
#
#
# Elastic Compliance Matrix: (Units=1/GPa)
#
#
# Indices 1 2 3 4 5 6 
#
# 1 0.018131 -0.008596 -0.004406 0.000000 0.000000 0.000000
# 2 -0.008596 0.029622 -0.006331 0.000000 0.000000 0.000000
# 3 -0.004406 -0.006331 0.011385 0.000000 0.000000 0.000000
# 4 0.000000 0.000000 0.000000 0.045470 0.000000 0.000000
# 5 0.000000 0.000000 0.000000 0.000000 0.023486 0.000000
# 6 0.000000 0.000000 0.000000 0.000000 0.000000 0.033575
#
#
# Mechanical properties :
#
#
# Convention : Reuss Voigt Hill
#
# Bulk Modulus (GPa) = 48.84507 59.62520 54.23514
# Shear Modulus (GPa) = 24.13588 28.11075 26.12331
#
# Velocity S-wave (km/s) = 3.58451 3.86843 3.72918
# Velocity P-wave (km/s) = 6.56767 7.18989 6.88581
#
# Compressibility (1/GPa) = 0.02047289
#
# Stress axis : x y z
#
# Youngs Moduli (GPa) = 55.15328 33.75855 87.83341
#
# Poissons Ratio (x) = 0.29020 0.38696
# Poissons Ratio (y) = 0.47412 0.55606
# Poissons Ratio (z) = 0.24298 0.21372
#
# Static dielectric constant tensor:
#      x y z
#    x 3.550850 0.000000 0.000000 
#    y 0.000000 3.283810 0.000000 
#    z 0.000000 0.000000 3.551530 
# 
# 
# High freq. dielectric constant tensor:
#      x y z
#    x 1.742960 0.000000 0.000000 
#    y 0.000000 1.714160 0.000000 
#    z 0.000000 0.000000 1.740640 
# 
# From -- ./inp_files/21007.got.cif
#   From: 2010.03.12/outbox.cif.g09.slc.cpg/sg59_11_cif.got.tgz:21007.got - 2010.04.16 16:29:54.
