data_PCOD8241945
_publ_section_title
;
Structure prediction by ZEFSAII (Michael W. Deem and Ramdas Pophale) SiO2 
 PCOD8241945
Probable space group: P M M N
;
_chemical_formula_sum "Si O2"
_cell_formula_units_Z 48
_cell_length_a 15.543337
_cell_length_b 8.779990
_cell_length_c 19.488082
_cell_angle_alpha 90.000000
_cell_angle_beta 90.000000
_cell_angle_gamma 90.000000
_cell_volume 2659.545243
_symmetry_space_group_name_H-M "P M M N"
_symmetry_group_IT_number 59
_space_group.IT_coordinate_system_code '2'
_symmetry_cell_setting 'orthorhombic'
loop_
_space_group_symop_operation_xyz
x,y,z
1/2-x,1/2-y,z
1/2+x,-y,-z
-x,1/2+y,-z
-x,-y,-z
1/2+x,1/2+y,-z
1/2-x,y,z
x,1/2-y,z
loop_
_atom_site_type_symbol
_atom_site_label
_atom_site_fract_x
_atom_site_fract_y
_atom_site_fract_z
Si Si1 0.750000 0.075943 0.948759
Si Si2 0.997462 0.429703 0.665348
Si Si3 0.651105 0.573139 0.579752
Si Si4 0.750000 0.579901 0.812184
Si Si5 0.065165 0.567819 0.053498
Si Si6 0.655171 0.930876 0.423966
Si Si7 0.561219 0.924441 0.797890
O O1 0.750000 0.250000 0.968686
O O2 0.841037 0.007643 0.974457
O O3 0.750000 0.054938 0.866998
O O4 0.003047 0.250000 0.671154
O O5 0.910096 0.473503 0.627152
O O6 0.999572 0.498250 0.741689
O O7 0.080837 0.496666 0.625425
O O8 0.750000 0.545729 0.601578
O O9 0.626745 0.750000 0.588562
O O10 0.636415 0.517399 0.501758
O O11 0.750000 0.750000 0.846753
O O12 0.839254 0.562817 0.770171
O O13 0.060452 0.750000 0.055643
O O14 0.046892 0.505936 0.129407
O O15 0.000000 0.500000 0.000000
O O16 0.750000 0.990834 0.400847
O O17 0.655386 0.750000 0.421859
O O18 0.533432 0.750000 0.806532
#
# Coordination Sequence:
#
# PCOD8241945 Si02
#       7
#     4   8   8   4   8   8   8
#     4   8  16  30  50  76 104 132 161 198 247 294
#     4  11  21  31  49  77 105 131 167 216 265 306
#     4   9  18  33  52  73 100 136 173 206 251 313
#     4   8  16  30  48  68  94 130 167 198 235 296
#     4  10  19  34  56  81 108 138 172 212 256 303
#     4   8  16  33  54  72  94 131 176 217 257 306
#     4  10  20  34  51  74 104 139 175 208 250 308
#
# _framework density 18.048196999999998
#
# number of rings (size 3 to 8) (size 9 to 14) (size 15 to 20)
#    0.000    2.667    0.000    3.000    1.167    1.667 
#    0.000    0.833    1.833    4.000    0.000    0.000 
#    0.000    0.000    0.000    0.000    0.000    0.000 
#
# Total GULP energy -594732.856024 kJ/mol
# GULP energy per Si atom -12390.267834 kJ/mol
# Density = 1.800712 g / cm^3
# Si number density = 18.048197 Si / 1000 Ang^3
#
#
#
# Elastic Constant Matrix: (Units=GPa)
#
#
# Indices 1 2 3 4 5 6 
#
# 1 114.0142 34.3623 67.9131 0.0000 0.0000 0.0000
# 2 34.3623 60.3650 35.7538 0.0000 0.0000 0.0000
# 3 67.9131 35.7538 100.8055 0.0000 0.0000 0.0000
# 4 0.0000 0.0000 0.0000 29.8134 0.0000 0.0000
# 5 0.0000 0.0000 0.0000 0.0000 29.1074 0.0000
# 6 0.0000 0.0000 0.0000 0.0000 0.0000 21.6848
#
#
#
# Elastic Compliance Matrix: (Units=1/GPa)
#
#
# Indices 1 2 3 4 5 6 
#
# 1 0.015141 -0.003263 -0.009043 0.000000 0.000000 0.000000
# 2 -0.003263 0.021675 -0.005490 0.000000 0.000000 0.000000
# 3 -0.009043 -0.005490 0.017960 0.000000 0.000000 0.000000
# 4 0.000000 0.000000 0.000000 0.033542 0.000000 0.000000
# 5 0.000000 0.000000 0.000000 0.000000 0.034356 0.000000
# 6 0.000000 0.000000 0.000000 0.000000 0.000000 0.046115
#
#
# Mechanical properties :
#
#
# Convention : Reuss Voigt Hill
#
# Bulk Modulus (GPa) = 52.12616 61.24925 56.68771
# Shear Modulus (GPa) = 23.72221 25.26482 24.49351
#
# Velocity S-wave (km/s) = 3.62937 3.74552 3.68790
# Velocity P-wave (km/s) = 6.81964 7.26054 7.04354
#
# Compressibility (1/GPa) = 0.01918422
#
# Stress axis : x y z
#
# Youngs Moduli (GPa) = 66.04685 46.13715 55.68050
#
# Poissons Ratio (x) = 0.15052 0.50353
# Poissons Ratio (y) = 0.21548 0.30566
# Poissons Ratio (z) = 0.59728 0.25327
#
# Static dielectric constant tensor:
#      x y z
#    x 3.765860 0.000000 0.000000 
#    y 0.000000 3.215420 0.000000 
#    z 0.000000 0.000000 3.153160 
# 
# 
# High freq. dielectric constant tensor:
#      x y z
#    x 1.702770 0.000000 0.000000 
#    y 0.000000 1.687280 0.000000 
#    z 0.000000 0.000000 1.677660 
# 
# From -- ./inp_files/27447.got.cif
#   From: 2010.03.12/outbox.cif.g09.slc.cpg/sg59_14_cif.got.tgz:27447.got - 2010.04.16 16:29:54.
