data_PCOD8241245
_publ_section_title
;
Structure prediction by ZEFSAII (Michael W. Deem and Ramdas Pophale) SiO2 
 PCOD8241245
Probable space group: P M M N
;
_chemical_formula_sum "Si O2"
_cell_formula_units_Z 48
_cell_length_a 14.782019
_cell_length_b 9.119700
_cell_length_c 18.578595
_cell_angle_alpha 90.000000
_cell_angle_beta 90.000000
_cell_angle_gamma 90.000000
_cell_volume 2504.535407
_symmetry_space_group_name_H-M "P M M N"
_symmetry_group_IT_number 59
_space_group.IT_coordinate_system_code '2'
_symmetry_cell_setting 'orthorhombic'
loop_
_space_group_symop_operation_xyz
x,y,z
1/2-x,1/2-y,z
1/2+x,-y,-z
-x,1/2+y,-z
-x,-y,-z
1/2+x,1/2+y,-z
1/2-x,y,z
x,1/2-y,z
loop_
_atom_site_type_symbol
_atom_site_label
_atom_site_fract_x
_atom_site_fract_y
_atom_site_fract_z
Si Si1 0.028793 0.908883 0.613994
Si Si2 0.856007 0.580027 0.993278
Si Si3 0.750000 0.420931 0.579402
Si Si4 0.750000 0.074548 0.740869
Si Si5 0.111252 0.408190 0.507866
Si Si6 0.932136 0.923263 0.759929
Si Si7 0.006346 0.920914 0.108305
O O1 0.072062 0.750000 0.635600
O O2 0.979095 0.884525 0.537921
O O3 0.966229 0.963537 0.679633
O O4 0.100194 0.034452 0.590944
O O5 0.750000 0.534366 0.002497
O O6 0.863065 0.750000 0.969864
O O7 0.905545 0.481320 0.933808
O O8 0.911213 0.554334 0.067324
O O9 0.750000 0.250000 0.585873
O O10 0.750000 0.486020 0.659350
O O11 0.663672 0.471374 0.536553
O O12 0.750000 0.250000 0.748524
O O13 0.838436 0.005958 0.777606
O O14 0.160864 0.250000 0.513525
O O15 0.919254 0.750000 0.769502
O O16 0.003415 0.988164 0.817402
O O17 0.022866 0.750000 0.123816
#
# Coordination Sequence:
#
# PCOD8241245 Si02
#       7
#     8   8   4   4   8   8   8
#     4   9  19  34  51  73 100 136 177 218 268 325
#     4   9  19  38  62  85 113 152 191 229 278 332
#     4  11  21  33  51  75 105 136 173 226 281 333
#     4  11  23  35  51  79 111 144 183 228 281 333
#     4  10  19  32  52  74  99 133 178 223 267 321
#     4  11  22  37  56  78 112 150 182 222 279 341
#     4  10  21  36  57  88 119 147 188 236 278 331
#
# _framework density 19.165232
#
# number of rings (size 3 to 8) (size 9 to 14) (size 15 to 20)
#    0.000    2.000    1.667    2.000    1.167    3.667 
#    0.000    0.000    1.833    0.000    0.000    0.000 
#    0.000    0.000    0.000    0.000    0.000    0.000 
#
# Total GULP energy -594742.832539 kJ/mol
# GULP energy per Si atom -12390.475678 kJ/mol
# Density = 1.912161 g / cm^3
# Si number density = 19.165232 Si / 1000 Ang^3
#
#
#
# Elastic Constant Matrix: (Units=GPa)
#
#
# Indices 1 2 3 4 5 6 
#
# 1 74.8865 28.9960 26.6124 0.0000 0.0000 0.0000
# 2 28.9960 85.9287 46.0652 0.0000 0.0000 0.0000
# 3 26.6124 46.0652 88.7452 0.0000 0.0000 0.0000
# 4 0.0000 0.0000 0.0000 30.7455 0.0000 0.0000
# 5 0.0000 0.0000 0.0000 0.0000 22.0417 0.0000
# 6 0.0000 0.0000 0.0000 0.0000 0.0000 25.8072
#
#
#
# Elastic Compliance Matrix: (Units=1/GPa)
#
#
# Indices 1 2 3 4 5 6 
#
# 1 0.015825 -0.003874 -0.002735 0.000000 0.000000 0.000000
# 2 -0.003874 0.017073 -0.007700 0.000000 0.000000 0.000000
# 3 -0.002735 -0.007700 0.016085 0.000000 0.000000 0.000000
# 4 0.000000 0.000000 0.000000 0.032525 0.000000 0.000000
# 5 0.000000 0.000000 0.000000 0.000000 0.045369 0.000000
# 6 0.000000 0.000000 0.000000 0.000000 0.000000 0.038749
#
#
# Mechanical properties :
#
#
# Convention : Reuss Voigt Hill
#
# Bulk Modulus (GPa) = 49.10304 50.32308 49.71306
# Shear Modulus (GPa) = 24.87156 25.57800 25.22478
#
# Velocity S-wave (km/s) = 3.60633 3.65719 3.63185
# Velocity P-wave (km/s) = 6.55876 6.64438 6.60171
#
# Compressibility (1/GPa) = 0.02036534
#
# Stress axis : x y z
#
# Youngs Moduli (GPa) = 63.18944 58.57246 62.16861
#
# Poissons Ratio (x) = 0.22692 0.17001
# Poissons Ratio (y) = 0.24481 0.47872
# Poissons Ratio (z) = 0.17280 0.45103
#
# Static dielectric constant tensor:
#      x y z
#    x 3.268460 0.000000 0.000000 
#    y 0.000000 3.904560 0.000000 
#    z 0.000000 0.000000 3.476680 
# 
# 
# High freq. dielectric constant tensor:
#      x y z
#    x 1.717510 0.000000 0.000000 
#    y 0.000000 1.761580 0.000000 
#    z 0.000000 0.000000 1.736950 
# 
# From -- ./inp_files/27438.got.cif
#   From: 2010.03.12/outbox.cif.g09.slc.cpg/sg59_14_cif.got.tgz:27438.got - 2010.04.16 16:29:54.
