data_PCOD8241430
_publ_section_title
;
Structure prediction by ZEFSAII (Michael W. Deem and Ramdas Pophale) SiO2 
 PCOD8241430
Probable space group: P M M N
;
_chemical_formula_sum "Si O2"
_cell_formula_units_Z 64
_cell_length_a 14.527842
_cell_length_b 8.682410
_cell_length_c 25.121341
_cell_angle_alpha 90.000000
_cell_angle_beta 90.000000
_cell_angle_gamma 90.000000
_cell_volume 3168.722567
_symmetry_space_group_name_H-M "P M M N"
_symmetry_group_IT_number 59
_space_group.IT_coordinate_system_code '2'
_symmetry_cell_setting 'orthorhombic'
loop_
_space_group_symop_operation_xyz
x,y,z
1/2-x,1/2-y,z
1/2+x,-y,-z
-x,1/2+y,-z
-x,-y,-z
1/2+x,1/2+y,-z
1/2-x,y,z
x,1/2-y,z
loop_
_atom_site_type_symbol
_atom_site_label
_atom_site_fract_x
_atom_site_fract_y
_atom_site_fract_z
Si Si1 0.854341 0.569572 0.366857
Si Si2 0.469297 0.429383 0.324742
Si Si3 0.598315 0.932558 0.486189
Si Si4 0.649483 0.075547 0.588491
Si Si5 0.356223 0.424711 0.033118
Si Si6 0.038974 0.930927 0.127742
Si Si7 0.354498 0.932834 0.229497
Si Si8 0.649457 0.566506 0.086726
O O1 0.750000 0.528388 0.349880
O O2 0.873488 0.750000 0.360956
O O3 0.869734 0.516404 0.427628
O O4 0.924041 0.481093 0.327341
O O5 0.463428 0.250000 0.312486
O O6 0.422663 0.468277 0.381083
O O7 0.413395 0.520575 0.280331
O O8 0.600918 0.750000 0.491886
O O9 0.500000 0.000000 0.500000
O O10 0.665377 0.009577 0.529338
O O11 0.750000 0.073793 0.616563
O O12 0.610041 0.250000 0.587096
O O13 0.250000 0.433171 0.049393
O O14 0.392525 0.250000 0.038246
O O15 0.412224 0.532927 0.072450
O O16 0.370392 0.489748 0.973482
O O17 0.036930 0.750000 0.135526
O O18 0.094101 0.003814 0.177538
O O19 0.932828 0.992800 0.125184
O O20 0.250000 0.998829 0.232257
O O21 0.350589 0.750000 0.226703
O O22 0.750000 0.504458 0.106209
O O23 0.652621 0.750000 0.085287
#
# Coordination Sequence:
#
# PCOD8241430 Si02
#       8
#     8   8   8   8   8   8   8   8
#     4  10  22  41  64  87 116 154 191 228 273 330
#     4  12  25  40  61  85 110 143 186 238 287 336
#     4  11  21  35  58  88 121 156 190 226 273 328
#     4  11  23  38  58  84 116 153 189 229 280 335
#     4   9  17  29  47  74 111 151 184 220 273 335
#     4  10  19  32  54  81 107 141 187 236 279 324
#     4  10  22  40  59  80 110 144 179 229 290 345
#     4   8  15  29  49  76 111 148 184 222 269 327
#
# _framework density 20.197414999999999
#
# number of rings (size 3 to 8) (size 9 to 14) (size 15 to 20)
#    0.000    1.875    1.250    4.125    0.000    5.250 
#    0.000    0.625    0.000    3.375    0.000    0.000 
#    0.000    0.000    0.000    0.000    0.000    0.000 
#
# Total GULP energy -793418.456846 kJ/mol
# GULP energy per Si atom -12397.163388 kJ/mol
# Density = 2.015144 g / cm^3
# Si number density = 20.197415 Si / 1000 Ang^3
#
#
#
# Elastic Constant Matrix: (Units=GPa)
#
#
# Indices 1 2 3 4 5 6 
#
# 1 150.1263 19.9520 64.3490 0.0000 0.0000 0.0000
# 2 19.9520 28.0694 10.2407 0.0000 0.0000 0.0000
# 3 64.3490 10.2407 83.8519 0.0000 0.0000 0.0000
# 4 0.0000 0.0000 0.0000 23.1950 0.0000 0.0000
# 5 0.0000 0.0000 0.0000 0.0000 33.4752 0.0000
# 6 0.0000 0.0000 0.0000 0.0000 0.0000 19.4612
#
#
#
# Elastic Compliance Matrix: (Units=1/GPa)
#
#
# Indices 1 2 3 4 5 6 
#
# 1 0.010494 -0.004732 -0.007475 0.000000 0.000000 0.000000
# 2 -0.004732 0.039421 -0.001183 0.000000 0.000000 0.000000
# 3 -0.007475 -0.001183 0.017807 0.000000 0.000000 0.000000
# 4 0.000000 0.000000 0.000000 0.043113 0.000000 0.000000
# 5 0.000000 0.000000 0.000000 0.000000 0.029873 0.000000
# 6 0.000000 0.000000 0.000000 0.000000 0.000000 0.051384
#
#
# Mechanical properties :
#
#
# Convention : Reuss Voigt Hill
#
# Bulk Modulus (GPa) = 24.42516 50.12567 37.27542
# Shear Modulus (GPa) = 21.50349 26.39335 23.94842
#
# Velocity S-wave (km/s) = 3.26646 3.61885 3.44716
# Velocity P-wave (km/s) = 5.13282 6.50639 5.85999
#
# Compressibility (1/GPa) = 0.04094139
#
# Stress axis : x y z
#
# Youngs Moduli (GPa) = 95.29099 25.36704 56.15762
#
# Poissons Ratio (x) = 0.12004 0.41980
# Poissons Ratio (y) = 0.45092 0.06644
# Poissons Ratio (z) = 0.71234 0.03001
#
# Static dielectric constant tensor:
#      x y z
#    x 4.095210 0.000000 0.000000 
#    y 0.000000 3.394600 0.000000 
#    z 0.000000 0.000000 3.628590 
# 
# 
# High freq. dielectric constant tensor:
#      x y z
#    x 1.809220 0.000000 0.000000 
#    y 0.000000 1.761860 0.000000 
#    z 0.000000 0.000000 1.769200 
# 
# From -- ./inp_files/32109.got.cif
#   From: 2010.03.12/outbox.cif.g09.slc.cpg/sg59_17_cif.got.tgz:32109.got - 2010.04.16 16:29:54.
