data_PCOD8241688
_publ_section_title
;
Structure prediction by ZEFSAII (Michael W. Deem and Ramdas Pophale) SiO2 
 PCOD8241688
Probable space group: P M M N
;
_chemical_formula_sum "Si O2"
_cell_formula_units_Z 56
_cell_length_a 15.843429
_cell_length_b 14.942907
_cell_length_c 11.703018
_cell_angle_alpha 90.000000
_cell_angle_beta 90.000000
_cell_angle_gamma 90.000000
_cell_volume 2770.653070
_symmetry_space_group_name_H-M "P M M N"
_symmetry_group_IT_number 59
_space_group.IT_coordinate_system_code '2'
_symmetry_cell_setting 'orthorhombic'
loop_
_space_group_symop_operation_xyz
x,y,z
1/2-x,1/2-y,z
1/2+x,-y,-z
-x,1/2+y,-z
-x,-y,-z
1/2+x,1/2+y,-z
1/2-x,y,z
x,1/2-y,z
loop_
_atom_site_type_symbol
_atom_site_label
_atom_site_fract_x
_atom_site_fract_y
_atom_site_fract_z
Si Si1 0.652094 0.474054 0.423282
Si Si2 0.010755 0.854254 0.690299
Si Si3 0.872468 0.651354 0.047100
Si Si4 0.347546 0.037337 0.332043
Si Si5 0.549916 0.348148 0.050208
Si Si6 0.845975 0.651607 0.305777
Si Si7 0.658780 0.018102 0.911552
O O1 0.750000 0.457893 0.382313
O O2 0.589005 0.399781 0.375104
O O3 0.647959 0.470505 0.560576
O O4 0.616487 0.571520 0.382667
O O5 0.017388 0.750000 0.663761
O O6 0.019488 0.875801 0.824297
O O7 0.917461 0.885157 0.649845
O O8 0.833783 0.750000 0.023365
O O9 0.851086 0.620414 0.174704
O O10 0.833525 0.583615 0.955819
O O11 0.972542 0.654983 0.036057
O O12 0.250000 0.074416 0.319816
O O13 0.375355 0.982314 0.218544
O O14 0.594341 0.250000 0.052397
O O15 0.607793 0.425533 0.002606
O O16 0.750000 0.662562 0.343780
O O17 0.890466 0.750000 0.323835
O O18 0.750000 0.063157 0.908787
#
# Coordination Sequence:
#
# PCOD8241688 Si02
#       7
#     8   8   8   8   8   8   8
#     4  10  22  41  62  87 122 160 202 255 304 352
#     4  11  23  40  63  91 121 160 205 248 300 360
#     4  10  19  33  54  83 116 148 185 236 293 352
#     4  10  23  41  61  87 120 160 204 250 304 360
#     4  10  22  38  57  84 119 154 193 241 295 357
#     4   9  18  32  54  85 115 149 196 246 299 354
#     4  11  22  36  59  86 115 158 198 238 302 362
#
# _framework density 20.211841
#
# number of rings (size 3 to 8) (size 9 to 14) (size 15 to 20)
#    0.000    1.857    1.429    2.143    2.000    4.000 
#    0.000    5.000    0.000    2.571    0.000    0.000 
#    0.000    0.000    0.000    0.000    0.000    0.000 
#
# Total GULP energy -693969.607672 kJ/mol
# GULP energy per Si atom -12392.314423 kJ/mol
# Density = 2.016584 g / cm^3
# Si number density = 20.211841 Si / 1000 Ang^3
#
#
#
# Elastic Constant Matrix: (Units=GPa)
#
#
# Indices 1 2 3 4 5 6 
#
# 1 101.0554 53.9535 25.7422 0.0000 0.0000 0.0000
# 2 53.9535 93.2606 39.9161 0.0000 0.0000 0.0000
# 3 25.7422 39.9161 77.8494 0.0000 0.0000 0.0000
# 4 0.0000 0.0000 0.0000 21.3386 0.0000 0.0000
# 5 0.0000 0.0000 0.0000 0.0000 35.7155 0.0000
# 6 0.0000 0.0000 0.0000 0.0000 0.0000 0.2712
#
#
#
# Elastic Compliance Matrix: (Units=1/GPa)
#
#
# Indices 1 2 3 4 5 6 
#
# 1 0.014342 -0.008029 -0.000625 0.000000 0.000000 0.000000
# 2 -0.008029 0.018233 -0.006693 0.000000 0.000000 0.000000
# 3 -0.000625 -0.006693 0.016484 0.000000 0.000000 0.000000
# 4 0.000000 0.000000 0.000000 0.046863 0.000000 0.000000
# 5 0.000000 0.000000 0.000000 0.000000 0.027999 0.000000
# 6 0.000000 0.000000 0.000000 0.000000 0.000000 3.687877
#
#
# Mechanical properties :
#
#
# Convention : Reuss Voigt Hill
#
# Bulk Modulus (GPa) = 54.46027 56.82101 55.64064
# Shear Modulus (GPa) = 1.29917 21.63530 11.46723
#
# Velocity S-wave (km/s) = 0.80260 3.27529 2.38450
# Velocity P-wave (km/s) = 5.27846 6.51745 5.93040
#
# Compressibility (1/GPa) = 0.01836201
#
# Stress axis : x y z
#
# Youngs Moduli (GPa) = 69.72649 54.84656 60.66455
#
# Poissons Ratio (x) = 0.44038 0.03794
# Poissons Ratio (y) = 0.55986 0.40606
# Poissons Ratio (z) = 0.04361 0.36711
#
# Static dielectric constant tensor:
#      x y z
#    x 3.665250 0.000000 0.000000 
#    y 0.000000 3.737810 0.000000 
#    z 0.000000 0.000000 3.699500 
# 
# 
# High freq. dielectric constant tensor:
#      x y z
#    x 1.783450 0.000000 0.000000 
#    y 0.000000 1.773980 0.000000 
#    z 0.000000 0.000000 1.795930 
# 
# From -- ./inp_files/16963.got.cif
#   From: 2010.03.12/outbox.cif.g09.slc.cpg/sg59_9_cif.got.tgz:16963.got - 2010.04.16 16:29:54.
