data_PCOD8241910
_publ_section_title
;
Structure prediction by ZEFSAII (Michael W. Deem and Ramdas Pophale) SiO2 
 PCOD8241910
Probable space group: P M M N
;
_chemical_formula_sum "Si O2"
_cell_formula_units_Z 56
_cell_length_a 14.044439
_cell_length_b 9.157326
_cell_length_c 22.109556
_cell_angle_alpha 90.000000
_cell_angle_beta 90.000000
_cell_angle_gamma 90.000000
_cell_volume 2843.499084
_symmetry_space_group_name_H-M "P M M N"
_symmetry_group_IT_number 59
_space_group.IT_coordinate_system_code '2'
_symmetry_cell_setting 'orthorhombic'
loop_
_space_group_symop_operation_xyz
x,y,z
1/2-x,1/2-y,z
1/2+x,-y,-z
-x,1/2+y,-z
-x,-y,-z
1/2+x,1/2+y,-z
1/2-x,y,z
x,1/2-y,z
loop_
_atom_site_type_symbol
_atom_site_label
_atom_site_fract_x
_atom_site_fract_y
_atom_site_fract_z
Si Si1 0.553467 0.583392 0.795035
Si Si2 0.357268 0.411840 0.634435
Si Si3 0.448899 0.920504 0.086356
Si Si4 0.141563 0.080904 0.976212
Si Si5 0.142514 0.423461 0.331181
Si Si6 0.503496 0.921555 0.563678
Si Si7 0.353337 0.911988 0.752028
O O1 0.588024 0.750000 0.803609
O O2 0.589519 0.487941 0.850854
O O3 0.591973 0.521184 0.730676
O O4 0.438816 0.570689 0.798963
O O5 0.250000 0.403677 0.611197
O O6 0.404119 0.250000 0.628198
O O7 0.405252 0.536184 0.594700
O O8 0.362785 0.460406 0.703557
O O9 0.430176 0.750000 0.089270
O O10 0.561499 0.955260 0.074713
O O11 0.381868 0.985366 0.034645
O O12 0.250000 0.045770 0.953588
O O13 0.133050 0.250000 0.994841
O O14 0.250000 0.484410 0.333562
O O15 0.140557 0.250000 0.331068
O O16 0.087434 0.478758 0.391336
O O17 0.511495 0.750000 0.552805
O O18 0.500000 0.000000 0.500000
O O19 0.250000 0.926549 0.784777
O O20 0.361753 0.750000 0.721409
#
# Coordination Sequence:
#
# PCOD8241910 Si02
#       7
#     8   8   8   8   8   8   8
#     4  10  19  34  55  81 112 150 191 226 275 341
#     4  10  20  34  54  80 108 140 179 224 278 337
#     4  10  21  35  54  85 117 146 185 237 286 328
#     4   9  19  38  60  79 107 151 195 232 276 335
#     4   9  19  37  59  81 108 146 190 231 272 328
#     4  11  22  38  59  84 111 145 187 236 289 342
#     4   9  17  31  52  78 107 139 179 227 276 329
#
# _framework density 19.694046
#
# number of rings (size 3 to 8) (size 9 to 14) (size 15 to 20)
#    0.000    2.286    1.429    1.286    0.000    4.000 
#    0.000    2.857    0.000    3.000    0.000    0.000 
#    0.000    0.000    0.000    0.000    0.000    0.000 
#
# Total GULP energy -693982.095720 kJ/mol
# GULP energy per Si atom -12392.537424 kJ/mol
# Density = 1.964922 g / cm^3
# Si number density = 19.694046 Si / 1000 Ang^3
#
#
#
# Elastic Constant Matrix: (Units=GPa)
#
#
# Indices 1 2 3 4 5 6 
#
# 1 82.8282 29.7992 28.2513 0.0000 0.0000 0.0000
# 2 29.7992 65.2518 41.5107 0.0000 0.0000 0.0000
# 3 28.2513 41.5107 112.2301 0.0000 0.0000 0.0000
# 4 0.0000 0.0000 0.0000 30.3742 0.0000 0.0000
# 5 0.0000 0.0000 0.0000 0.0000 14.3088 0.0000
# 6 0.0000 0.0000 0.0000 0.0000 0.0000 22.9309
#
#
#
# Elastic Compliance Matrix: (Units=1/GPa)
#
#
# Indices 1 2 3 4 5 6 
#
# 1 0.014660 -0.005685 -0.001588 0.000000 0.000000 0.000000
# 2 -0.005685 0.022245 -0.006797 0.000000 0.000000 0.000000
# 3 -0.001588 -0.006797 0.011824 0.000000 0.000000 0.000000
# 4 0.000000 0.000000 0.000000 0.032923 0.000000 0.000000
# 5 0.000000 0.000000 0.000000 0.000000 0.069887 0.000000
# 6 0.000000 0.000000 0.000000 0.000000 0.000000 0.043609
#
#
# Mechanical properties :
#
#
# Convention : Reuss Voigt Hill
#
# Bulk Modulus (GPa) = 48.56642 51.04807 49.80725
# Shear Modulus (GPa) = 21.72490 24.23936 22.98213
#
# Velocity S-wave (km/s) = 3.32493 3.51208 3.41978
# Velocity P-wave (km/s) = 6.28126 6.51330 6.39833
#
# Compressibility (1/GPa) = 0.02059036
#
# Stress axis : x y z
#
# Youngs Moduli (GPa) = 68.21290 44.95326 84.57474
#
# Poissons Ratio (x) = 0.25556 0.13427
# Poissons Ratio (y) = 0.38779 0.57484
# Poissons Ratio (z) = 0.10830 0.30554
#
# Static dielectric constant tensor:
#      x y z
#    x 4.171130 0.000000 0.000000 
#    y 0.000000 3.522230 0.000000 
#    z 0.000000 0.000000 5.288540 
# 
# 
# High freq. dielectric constant tensor:
#      x y z
#    x 1.770080 0.000000 0.000000 
#    y 0.000000 1.755350 0.000000 
#    z 0.000000 0.000000 1.750450 
# 
# From -- ./inp_files/30289.got.cif
#   From: 2010.03.12/outbox.cif.g09.slc.cpg/sg59_16_cif.got.tgz:30289.got - 2010.04.16 16:29:54.
