data_PCOD8241395
_publ_section_title
;
Structure prediction by ZEFSAII (Michael W. Deem and Ramdas Pophale) SiO2 
 PCOD8241395
Probable space group: P M M N
;
_chemical_formula_sum "Si O2"
_cell_formula_units_Z 64
_cell_length_a 27.992709
_cell_length_b 9.262241
_cell_length_c 12.991564
_cell_angle_alpha 90.000000
_cell_angle_beta 90.000000
_cell_angle_gamma 90.000000
_cell_volume 3368.390575
_symmetry_space_group_name_H-M "P M M N"
_symmetry_group_IT_number 59
_space_group.IT_coordinate_system_code '2'
_symmetry_cell_setting 'orthorhombic'
loop_
_space_group_symop_operation_xyz
x,y,z
1/2-x,1/2-y,z
1/2+x,-y,-z
-x,1/2+y,-z
-x,-y,-z
1/2+x,1/2+y,-z
1/2-x,y,z
x,1/2-y,z
loop_
_atom_site_type_symbol
_atom_site_label
_atom_site_fract_x
_atom_site_fract_y
_atom_site_fract_z
Si Si1 0.361391 0.581619 0.862321
Si Si2 0.864231 0.079863 0.910247
Si Si3 0.351470 0.081509 0.474572
Si Si4 0.305612 0.917668 0.661867
Si Si5 0.954804 0.583108 0.458753
Si Si6 0.054311 0.085507 0.769887
Si Si7 0.971167 0.415132 0.914896
Si Si8 0.805511 0.079631 0.716849
O O1 0.372375 0.750000 0.859099
O O2 0.322292 0.538732 0.776964
O O3 0.411734 0.505269 0.843847
O O4 0.343284 0.537385 0.976961
O O5 0.864720 0.250000 0.895877
O O6 0.918232 0.019182 0.898394
O O7 0.830612 0.017164 0.820051
O O8 0.338031 0.250000 0.470793
O O9 0.408690 0.059155 0.468938
O O10 0.332832 0.017249 0.581477
O O11 0.327596 0.999906 0.380500
O O12 0.250000 0.950573 0.653649
O O13 0.316747 0.750000 0.638524
O O14 0.969129 0.750000 0.451462
O O15 0.942563 0.523329 0.345281
O O16 0.000000 0.500000 0.500000
O O17 0.072420 0.250000 0.773277
O O18 0.999650 0.072459 0.807618
O O19 0.967185 0.250000 0.952176
O O20 0.000000 0.500000 0.000000
O O21 0.750000 0.041385 0.724772
O O22 0.813516 0.250000 0.702105
#
# Coordination Sequence:
#
# PCOD8241395 Si02
#       8
#     8   8   8   8   8   8   8   8
#     4  10  19  34  57  83 112 148 185 228 281 339
#     4   9  19  35  56  83 114 147 187 232 283 334
#     4  11  23  40  60  84 114 149 189 233 285 344
#     4  10  21  36  57  86 113 141 184 235 285 337
#     4  10  23  39  56  82 114 148 186 228 280 341
#     4  10  20  35  54  78 112 148 184 227 278 338
#     4  10  19  32  53  80 109 144 182 223 269 328
#     4  10  22  40  62  85 111 150 198 244 289 339
#
# _framework density 19.000173
#
# number of rings (size 3 to 8) (size 9 to 14) (size 15 to 20)
#    0.000    2.000    2.500    0.750    1.750    4.000 
#    0.000    3.750    0.000    0.000    0.000    1.750 
#    0.000    0.000    0.000    0.000    0.000    0.000 
#
# Total GULP energy -793581.703149 kJ/mol
# GULP energy per Si atom -12399.714112 kJ/mol
# Density = 1.895693 g / cm^3
# Si number density = 19.000173 Si / 1000 Ang^3
#
#
#
# Elastic Constant Matrix: (Units=GPa)
#
#
# Indices 1 2 3 4 5 6 
#
# 1 119.4543 44.3957 60.9778 0.0000 0.0000 0.0000
# 2 44.3957 51.6999 44.1668 0.0000 0.0000 0.0000
# 3 60.9778 44.1668 130.9938 0.0000 0.0000 0.0000
# 4 0.0000 0.0000 0.0000 15.6830 0.0000 0.0000
# 5 0.0000 0.0000 0.0000 0.0000 33.9702 0.0000
# 6 0.0000 0.0000 0.0000 0.0000 0.0000 26.8274
#
#
#
# Elastic Compliance Matrix: (Units=1/GPa)
#
#
# Indices 1 2 3 4 5 6 
#
# 1 0.013222 -0.008562 -0.003268 0.000000 0.000000 0.000000
# 2 -0.008562 0.032712 -0.007044 0.000000 0.000000 0.000000
# 3 -0.003268 -0.007044 0.011530 0.000000 0.000000 0.000000
# 4 0.000000 0.000000 0.000000 0.063763 0.000000 0.000000
# 5 0.000000 0.000000 0.000000 0.000000 0.029438 0.000000
# 6 0.000000 0.000000 0.000000 0.000000 0.000000 0.037275
#
#
# Mechanical properties :
#
#
# Convention : Reuss Voigt Hill
#
# Bulk Modulus (GPa) = 50.71881 66.80320 58.76101
# Shear Modulus (GPa) = 21.52762 25.46997 23.49880
#
# Velocity S-wave (km/s) = 3.36969 3.66527 3.52059
# Velocity P-wave (km/s) = 6.47237 7.29026 6.89346
#
# Compressibility (1/GPa) = 0.01971655
#
# Stress axis : x y z
#
# Youngs Moduli (GPa) = 75.63361 30.56960 86.72931
#
# Poissons Ratio (x) = 0.26173 0.28342
# Poissons Ratio (y) = 0.64757 0.61091
# Poissons Ratio (z) = 0.24716 0.21533
#
# Static dielectric constant tensor:
#      x y z
#    x 3.603260 0.000000 0.000000 
#    y 0.000000 3.315420 0.000000 
#    z 0.000000 0.000000 3.753860 
# 
# 
# High freq. dielectric constant tensor:
#      x y z
#    x 1.742400 0.000000 0.000000 
#    y 0.000000 1.716930 0.000000 
#    z 0.000000 0.000000 1.749300 
# 
# From -- ./inp_files/19275.got.cif
#   From: 2010.03.12/outbox.cif.g09.slc.cpg/sg59_10_cif.got.tgz:19275.got - 2010.04.16 16:29:54.
