data_PCOD8241906
_publ_section_title
;
Structure prediction by ZEFSAII (Michael W. Deem and Ramdas Pophale) SiO2 
 PCOD8241906
Probable space group: P M M N
;
_chemical_formula_sum "Si O2"
_cell_formula_units_Z 48
_cell_length_a 27.800448
_cell_length_b 10.187194
_cell_length_c 9.005330
_cell_angle_alpha 90.000000
_cell_angle_beta 90.000000
_cell_angle_gamma 90.000000
_cell_volume 2550.386515
_symmetry_space_group_name_H-M "P M M N"
_symmetry_group_IT_number 59
_space_group.IT_coordinate_system_code '2'
_symmetry_cell_setting 'orthorhombic'
loop_
_space_group_symop_operation_xyz
x,y,z
1/2-x,1/2-y,z
1/2+x,-y,-z
-x,1/2+y,-z
-x,-y,-z
1/2+x,1/2+y,-z
1/2-x,y,z
x,1/2-y,z
loop_
_atom_site_type_symbol
_atom_site_label
_atom_site_fract_x
_atom_site_fract_y
_atom_site_fract_z
Si Si1 0.750000 0.594813 0.384369
Si Si2 0.250000 0.406938 0.948345
Si Si3 0.438009 0.105359 0.992946
Si Si4 0.842085 0.906202 0.882572
Si Si5 0.001131 0.977849 0.745704
Si Si6 0.433511 0.897140 0.486222
Si Si7 0.152026 0.406566 0.457228
O O1 0.750000 0.750000 0.386154
O O2 0.750000 0.538141 0.218349
O O3 0.701027 0.547443 0.462881
O O4 0.250000 0.250000 0.949500
O O5 0.203841 0.464187 0.032980
O O6 0.421411 0.250000 0.954798
O O7 0.389171 0.029378 0.039740
O O8 0.473824 0.111086 0.133712
O O9 0.459856 0.056051 0.840315
O O10 0.842491 0.750000 0.891487
O O11 0.840569 0.947813 0.712166
O O12 0.029000 0.893234 0.623157
O O13 0.962657 0.072041 0.664774
O O14 0.411588 0.750000 0.471738
O O15 0.392692 0.007209 0.518084
O O16 0.141231 0.250000 0.478336
#
# Coordination Sequence:
#
# PCOD8241906 Si02
#       7
#     4   4   8   8   8   8   8
#     4   9  19  33  54  85 114 140 181 234 284 331
#     4   9  17  29  49  81 112 136 173 232 288 331
#     4  10  19  34  55  81 108 143 189 236 283 330
#     4   9  17  30  51  78 110 140 173 222 282 333
#     4  10  22  36  54  77 112 152 195 233 276 335
#     4  11  23  38  56  83 117 155 191 232 284 338
#     4  10  20  36  58  84 113 147 186 231 280 337
#
# _framework density 18.820675999999999
#
# number of rings (size 3 to 8) (size 9 to 14) (size 15 to 20)
#    0.000    2.167    1.667    1.500    2.333    5.333 
#    0.000    0.417    0.000    0.000    0.000    0.000 
#    0.000    0.000    0.000    0.000    0.000    0.000 
#
# Total GULP energy -594836.390233 kJ/mol
# GULP energy per Si atom -12392.424797 kJ/mol
# Density = 1.877784 g / cm^3
# Si number density = 18.820676 Si / 1000 Ang^3
#
#
#
# Elastic Constant Matrix: (Units=GPa)
#
#
# Indices 1 2 3 4 5 6 
#
# 1 123.6511 24.3323 34.0245 0.0000 0.0000 0.0000
# 2 24.3323 59.9003 12.6417 0.0000 0.0000 0.0000
# 3 34.0245 12.6417 80.6701 0.0000 0.0000 0.0000
# 4 0.0000 0.0000 0.0000 5.7784 0.0000 0.0000
# 5 0.0000 0.0000 0.0000 0.0000 33.0855 0.0000
# 6 0.0000 0.0000 0.0000 0.0000 0.0000 19.8102
#
#
#
# Elastic Compliance Matrix: (Units=1/GPa)
#
#
# Indices 1 2 3 4 5 6 
#
# 1 0.009702 -0.003183 -0.003593 0.000000 0.000000 0.000000
# 2 -0.003183 0.018310 -0.001527 0.000000 0.000000 0.000000
# 3 -0.003593 -0.001527 0.014151 0.000000 0.000000 0.000000
# 4 0.000000 0.000000 0.000000 0.173059 0.000000 0.000000
# 5 0.000000 0.000000 0.000000 0.000000 0.030225 0.000000
# 6 0.000000 0.000000 0.000000 0.000000 0.000000 0.050479
#
#
# Mechanical properties :
#
#
# Convention : Reuss Voigt Hill
#
# Bulk Modulus (GPa) = 39.12859 45.13540 42.13199
# Shear Modulus (GPa) = 15.57385 24.61636 20.09510
#
# Velocity S-wave (km/s) = 2.87973 3.62047 3.27113
# Velocity P-wave (km/s) = 5.64734 6.44290 6.05819
#
# Compressibility (1/GPa) = 0.02555676
#
# Stress axis : x y z
#
# Youngs Moduli (GPa) = 103.06740 54.61628 70.66621
#
# Poissons Ratio (x) = 0.17384 0.25393
# Poissons Ratio (y) = 0.32805 0.10789
# Poissons Ratio (z) = 0.37036 0.08339
#
# Static dielectric constant tensor:
#      x y z
#    x 3.772140 0.000000 0.000000 
#    y 0.000000 2.918950 0.000000 
#    z 0.000000 0.000000 3.643030 
# 
# 
# High freq. dielectric constant tensor:
#      x y z
#    x 1.744160 0.000000 0.000000 
#    y 0.000000 1.671040 0.000000 
#    z 0.000000 0.000000 1.746550 
# 
# From -- ./inp_files/13064.got.cif
#   From: 2010.03.12/outbox.cif.g09.slc.cpg/sg59_7_cif.got.tgz:13064.got - 2010.04.16 16:29:54.
