data_PCOD8241489
_publ_section_title
;
Structure prediction by ZEFSAII (Michael W. Deem and Ramdas Pophale) SiO2 
 PCOD8241489
Probable space group: P M M N
;
_chemical_formula_sum "Si O2"
_cell_formula_units_Z 64
_cell_length_a 23.326317
_cell_length_b 9.244792
_cell_length_c 17.772690
_cell_angle_alpha 90.000000
_cell_angle_beta 90.000000
_cell_angle_gamma 90.000000
_cell_volume 3832.626370
_symmetry_space_group_name_H-M "P M M N"
_symmetry_group_IT_number 59
_space_group.IT_coordinate_system_code '2'
_symmetry_cell_setting 'orthorhombic'
loop_
_space_group_symop_operation_xyz
x,y,z
1/2-x,1/2-y,z
1/2+x,-y,-z
-x,1/2+y,-z
-x,-y,-z
1/2+x,1/2+y,-z
1/2-x,y,z
x,1/2-y,z
loop_
_atom_site_type_symbol
_atom_site_label
_atom_site_fract_x
_atom_site_fract_y
_atom_site_fract_z
Si Si1 0.608053 0.583556 0.372602
Si Si2 0.602386 0.412989 0.626436
Si Si3 0.934655 0.412089 0.785874
Si Si4 0.066529 0.412638 0.785529
Si Si5 0.568319 0.087584 0.070852
Si Si6 0.068156 0.087632 0.071034
Si Si7 0.999176 0.080796 0.422973
Si Si8 0.816072 0.083063 0.489703
O O1 0.598290 0.750000 0.399067
O O2 0.613932 0.577962 0.281916
O O3 0.553670 0.481678 0.378620
O O4 0.659009 0.516310 0.422547
O O5 0.579096 0.250000 0.607065
O O6 0.611274 0.421154 0.716624
O O7 0.558374 0.543037 0.615954
O O8 0.656355 0.446357 0.572262
O O9 0.934658 0.250000 0.818851
O O10 0.911415 0.516855 0.850825
O O11 0.000497 0.451440 0.760567
O O12 0.066101 0.250000 0.817634
O O13 0.089057 0.516751 0.851210
O O14 0.592392 0.250000 0.067520
O O15 0.500080 0.085218 0.067835
O O16 0.593607 0.000023 0.999835
O O17 0.092255 0.250000 0.067706
O O18 0.991823 0.250000 0.433646
O O19 0.000000 0.000000 0.500000
O O20 0.750000 0.041992 0.498090
O O21 0.824903 0.250000 0.466466
#
# Coordination Sequence:
#
# PCOD8241489 Si02
#       8
#     8   8   8   8   8   8   8   8
#     4  11  21  34  51  72  96 126 161 200 245 290
#     4  10  19  33  50  69  95 126 159 200 244 289
#     4   9  16  27  42  62  90 122 155 191 233 279
#     4   9  17  28  42  63  92 121 153 192 234 280
#     4   9  16  25  38  57  84 122 161 189 221 269
#     4   9  16  25  37  56  85 122 159 191 224 266
#     4  12  22  31  47  71  97 123 154 195 242 292
#     4  10  22  38  54  71  93 126 165 204 246 291
#
# _framework density 16.698730999999999
#
# number of rings (size 3 to 8) (size 9 to 14) (size 15 to 20)
#    0.000    2.125    2.500    2.250    0.000    4.750 
#    0.000    0.000    0.000    0.000    0.000    0.000 
#    0.000    1.000    0.000    5.250    0.000    2.625 
#
# Total GULP energy -792848.439078 kJ/mol
# GULP energy per Si atom -12388.256861 kJ/mol
# Density = 1.666072 g / cm^3
# Si number density = 16.698731 Si / 1000 Ang^3
#
#
#
# Elastic Constant Matrix: (Units=GPa)
#
#
# Indices 1 2 3 4 5 6 
#
# 1 56.1821 35.3439 33.1526 0.0000 0.0000 0.0000
# 2 35.3439 134.5019 71.4163 0.0000 0.0000 0.0000
# 3 33.1526 71.4163 125.6884 0.0000 0.0000 0.0000
# 4 0.0000 0.0000 0.0000 29.9362 0.0000 0.0000
# 5 0.0000 0.0000 0.0000 0.0000 6.6350 0.0000
# 6 0.0000 0.0000 0.0000 0.0000 0.0000 14.4134
#
#
#
# Elastic Compliance Matrix: (Units=1/GPa)
#
#
# Indices 1 2 3 4 5 6 
#
# 1 0.022453 -0.003946 -0.003680 0.000000 0.000000 0.000000
# 2 -0.003946 0.011341 -0.005403 0.000000 0.000000 0.000000
# 3 -0.003680 -0.005403 0.011997 0.000000 0.000000 0.000000
# 4 0.000000 0.000000 0.000000 0.033404 0.000000 0.000000
# 5 0.000000 0.000000 0.000000 0.000000 0.150716 0.000000
# 6 0.000000 0.000000 0.000000 0.000000 0.000000 0.069380
#
#
# Mechanical properties :
#
#
# Convention : Reuss Voigt Hill
#
# Bulk Modulus (GPa) = 50.67838 66.24423 58.46130
# Shear Modulus (GPa) = 15.06354 21.96089 18.51222
#
# Velocity S-wave (km/s) = 3.00672 3.63040 3.33318
# Velocity P-wave (km/s) = 6.51677 7.57162 7.06391
#
# Compressibility (1/GPa) = 0.01973228
#
# Stress axis : x y z
#
# Youngs Moduli (GPa) = 44.53654 88.17942 83.35534
#
# Poissons Ratio (x) = 0.34797 0.30678
# Poissons Ratio (y) = 0.17575 0.45035
# Poissons Ratio (z) = 0.16391 0.47642
#
# Static dielectric constant tensor:
#      x y z
#    x 2.605240 0.000000 0.000000 
#    y 0.000000 3.180970 0.000000 
#    z 0.000000 0.000000 3.300110 
# 
# 
# High freq. dielectric constant tensor:
#      x y z
#    x 1.562180 0.000000 0.000000 
#    y 0.000000 1.656850 0.000000 
#    z 0.000000 0.000000 1.655920 
# 
# From -- ./inp_files/26467.got.cif
#   From: 2010.03.12/outbox.cif.g09.slc.cpg/sg59_14_cif.got.tgz:26467.got - 2010.04.16 16:29:54.
