data_PCOD8241301
_publ_section_title
;
Structure prediction by ZEFSAII (Michael W. Deem and Ramdas Pophale) SiO2 
 PCOD8241301
Probable space group: P M M N
;
_chemical_formula_sum "Si O2"
_cell_formula_units_Z 64
_cell_length_a 24.145161
_cell_length_b 8.945362
_cell_length_c 14.924931
_cell_angle_alpha 90.000000
_cell_angle_beta 90.000000
_cell_angle_gamma 90.000000
_cell_volume 3223.594142
_symmetry_space_group_name_H-M "P M M N"
_symmetry_group_IT_number 59
_space_group.IT_coordinate_system_code '2'
_symmetry_cell_setting 'orthorhombic'
loop_
_space_group_symop_operation_xyz
x,y,z
1/2-x,1/2-y,z
1/2+x,-y,-z
-x,1/2+y,-z
-x,-y,-z
1/2+x,1/2+y,-z
1/2-x,y,z
x,1/2-y,z
loop_
_atom_site_type_symbol
_atom_site_label
_atom_site_fract_x
_atom_site_fract_y
_atom_site_fract_z
Si Si1 0.184555 0.922582 0.871599
Si Si2 0.812044 0.422798 0.620023
Si Si3 0.357495 0.085879 0.537714
Si Si4 0.881093 0.071951 0.790553
Si Si5 0.606643 0.571797 0.266227
Si Si6 0.991031 0.928255 0.761961
Si Si7 0.184385 0.420943 0.053705
Si Si8 0.465955 0.088395 0.430664
O O1 0.250000 0.935188 0.859972
O O2 0.165186 0.750000 0.870532
O O3 0.158562 0.014070 0.789677
O O4 0.163989 0.999903 0.962683
O O5 0.750000 0.453827 0.656425
O O6 0.824267 0.250000 0.608048
O O7 0.814055 0.487083 0.517726
O O8 0.856051 0.484068 0.694176
O O9 0.332264 0.250000 0.558862
O O10 0.381706 0.018366 0.630812
O O11 0.403950 0.100557 0.462536
O O12 0.885512 0.250000 0.793853
O O13 0.940900 0.000519 0.819040
O O14 0.838411 0.015945 0.864447
O O15 0.600298 0.750000 0.261380
O O16 0.551785 0.497152 0.222660
O O17 0.992545 0.750000 0.776648
O O18 0.971208 0.987708 0.665154
O O19 0.250000 0.425353 0.059638
O O20 0.162646 0.250000 0.055624
O O21 0.494145 0.250000 0.422028
O O22 0.500000 0.000000 0.500000
#
# Coordination Sequence:
#
# PCOD8241301 Si02
#       8
#     8   8   8   8   8   8   8   8
#     4  10  22  42  67  92 118 150 191 240 293 349
#     4  10  22  37  53  78 114 155 198 244 293 347
#     4  10  21  36  53  78 111 150 195 241 288 340
#     4  11  22  37  59  86 120 158 196 240 294 352
#     4  11  23  39  60  87 120 156 198 244 295 350
#     4  11  22  36  56  84 119 156 199 244 291 348
#     4  10  21  39  65  94 120 150 192 241 293 350
#     4  10  19  32  52  77 108 146 194 242 285 334
#
# _framework density 19.853615000000001
#
# number of rings (size 3 to 8) (size 9 to 14) (size 15 to 20)
#    0.000    1.625    2.500    2.250    0.000    5.250 
#    0.000    3.125    0.000    0.000    0.000    0.000 
#    0.000    0.000    0.000    0.000    0.000    0.000 
#
# Total GULP energy -793101.419001 kJ/mol
# GULP energy per Si atom -12392.209672 kJ/mol
# Density = 1.980843 g / cm^3
# Si number density = 19.853615 Si / 1000 Ang^3
#
#
#
# Elastic Constant Matrix: (Units=GPa)
#
#
# Indices 1 2 3 4 5 6 
#
# 1 62.0999 35.0971 24.2713 0.0000 0.0000 0.0000
# 2 35.0971 93.4454 36.4384 0.0000 0.0000 0.0000
# 3 24.2713 36.4384 80.5917 0.0000 0.0000 0.0000
# 4 0.0000 0.0000 0.0000 32.3246 0.0000 0.0000
# 5 0.0000 0.0000 0.0000 0.0000 25.5040 0.0000
# 6 0.0000 0.0000 0.0000 0.0000 0.0000 34.6055
#
#
#
# Elastic Compliance Matrix: (Units=1/GPa)
#
#
# Indices 1 2 3 4 5 6 
#
# 1 0.021173 -0.006636 -0.003376 0.000000 0.000000 0.000000
# 2 -0.006636 0.015072 -0.004816 0.000000 0.000000 0.000000
# 3 -0.003376 -0.004816 0.015603 0.000000 0.000000 0.000000
# 4 0.000000 0.000000 0.000000 0.030936 0.000000 0.000000
# 5 0.000000 0.000000 0.000000 0.000000 0.039210 0.000000
# 6 0.000000 0.000000 0.000000 0.000000 0.000000 0.028897
#
#
# Mechanical properties :
#
#
# Convention : Reuss Voigt Hill
#
# Bulk Modulus (GPa) = 45.06304 47.52785 46.29544
# Shear Modulus (GPa) = 26.60374 27.84216 27.22295
#
# Velocity S-wave (km/s) = 3.66457 3.74889 3.70697
# Velocity P-wave (km/s) = 6.37592 6.53682 6.45687
#
# Compressibility (1/GPa) = 0.02219113
#
# Stress axis : x y z
#
# Youngs Moduli (GPa) = 47.22985 66.34933 64.09212
#
# Poissons Ratio (x) = 0.44028 0.21639
# Poissons Ratio (y) = 0.31341 0.30867
# Poissons Ratio (z) = 0.15946 0.31954
#
# Static dielectric constant tensor:
#      x y z
#    x 3.549010 0.000000 0.000000 
#    y 0.000000 3.777620 0.000000 
#    z 0.000000 0.000000 3.533120 
# 
# 
# High freq. dielectric constant tensor:
#      x y z
#    x 1.770660 0.000000 0.000000 
#    y 0.000000 1.779600 0.000000 
#    z 0.000000 0.000000 1.764690 
# 
# From -- ./inp_files/21489.got.cif
#   From: 2010.03.12/outbox.cif.g09.slc.cpg/sg59_11_cif.got.tgz:21489.got - 2010.04.16 16:29:54.
