data_PCOD8241595
_publ_section_title
;
Structure prediction by ZEFSAII (Michael W. Deem and Ramdas Pophale) SiO2 
 PCOD8241595
Probable space group: P M M N
;
_chemical_formula_sum "Si O2"
_cell_formula_units_Z 64
_cell_length_a 18.417849
_cell_length_b 13.818365
_cell_length_c 12.496839
_cell_angle_alpha 90.000000
_cell_angle_beta 90.000000
_cell_angle_gamma 90.000000
_cell_volume 3180.502511
_symmetry_space_group_name_H-M "P M M N"
_symmetry_group_IT_number 59
_space_group.IT_coordinate_system_code '2'
_symmetry_cell_setting 'orthorhombic'
loop_
_space_group_symop_operation_xyz
x,y,z
1/2-x,1/2-y,z
1/2+x,-y,-z
-x,1/2+y,-z
-x,-y,-z
1/2+x,1/2+y,-z
1/2-x,y,z
x,1/2-y,z
loop_
_atom_site_type_symbol
_atom_site_label
_atom_site_fract_x
_atom_site_fract_y
_atom_site_fract_z
Si Si1 0.402059 0.864509 0.023952
Si Si2 0.665378 0.033227 0.411295
Si Si3 0.333015 0.860870 0.808179
Si Si4 0.555945 0.864858 0.104523
Si Si5 0.166494 0.140191 0.074359
Si Si6 0.088655 0.861260 0.398212
Si Si7 0.668254 0.464272 0.788901
Si Si8 0.924925 0.639284 0.347135
O O1 0.399996 0.750000 0.028371
O O2 0.479872 0.906770 0.060408
O O3 0.340202 0.902089 0.103575
O O4 0.384731 0.899527 0.903410
O O5 0.750000 0.028082 0.441436
O O6 0.651108 0.075931 0.295021
O O7 0.624653 0.103210 0.493079
O O8 0.632237 0.925283 0.413341
O O9 0.250000 0.871550 0.846008
O O10 0.350800 0.750000 0.779594
O O11 0.551443 0.750000 0.105490
O O12 0.570226 0.899930 0.225287
O O13 0.619776 0.900288 0.025445
O O14 0.250000 0.132874 0.038035
O O15 0.144464 0.250000 0.103478
O O16 0.151897 0.076281 0.180294
O O17 0.111607 0.750000 0.375817
O O18 0.113684 0.929109 0.301455
O O19 0.002131 0.869864 0.406094
O O20 0.750000 0.452375 0.745688
O O21 0.897215 0.750000 0.349892
#
# Coordination Sequence:
#
# PCOD8241595 Si02
#       8
#     8   8   8   8   8   8   8   8
#     4  10  19  33  53  83 119 149 186 240 300 357
#     4  11  24  40  62  89 118 157 206 249 298 359
#     4   9  19  35  54  81 120 160 196 244 304 358
#     4   9  18  35  58  84 115 157 200 237 289 351
#     4   9  20  37  54  78 117 160 200 241 288 351
#     4  11  23  43  66  89 119 156 201 250 299 360
#     4  11  22  34  57  89 117 152 199 243 298 357
#     4  10  22  41  63  88 121 157 198 249 301 352
#
# _framework density 20.122606000000001
#
# number of rings (size 3 to 8) (size 9 to 14) (size 15 to 20)
#    0.000    2.000    1.250    1.875    1.750    5.000 
#    0.000    1.875    0.000    2.250    0.000    0.000 
#    0.000    0.000    0.000    0.000    0.000    0.000 
#
# Total GULP energy -793717.554439 kJ/mol
# GULP energy per Si atom -12401.836788 kJ/mol
# Density = 2.007681 g / cm^3
# Si number density = 20.122606 Si / 1000 Ang^3
#
#
#
# Elastic Constant Matrix: (Units=GPa)
#
#
# Indices 1 2 3 4 5 6 
#
# 1 73.0790 39.0882 31.1978 0.0000 0.0000 0.0000
# 2 39.0882 67.9064 29.4106 0.0000 0.0000 0.0000
# 3 31.1978 29.4106 67.1529 0.0000 0.0000 0.0000
# 4 0.0000 0.0000 0.0000 33.2104 0.0000 0.0000
# 5 0.0000 0.0000 0.0000 0.0000 30.9480 0.0000
# 6 0.0000 0.0000 0.0000 0.0000 0.0000 27.9872
#
#
#
# Elastic Compliance Matrix: (Units=1/GPa)
#
#
# Indices 1 2 3 4 5 6 
#
# 1 0.021350 -0.009865 -0.005598 0.000000 0.000000 0.000000
# 2 -0.009865 0.022731 -0.005373 0.000000 0.000000 0.000000
# 3 -0.005598 -0.005373 0.019845 0.000000 0.000000 0.000000
# 4 0.000000 0.000000 0.000000 0.030111 0.000000 0.000000
# 5 0.000000 0.000000 0.000000 0.000000 0.032312 0.000000
# 6 0.000000 0.000000 0.000000 0.000000 0.000000 0.035731
#
#
# Mechanical properties :
#
#
# Convention : Reuss Voigt Hill
#
# Bulk Modulus (GPa) = 44.93313 45.28126 45.10720
# Shear Modulus (GPa) = 23.67746 25.65856 24.66801
#
# Velocity S-wave (km/s) = 3.43397 3.57474 3.50506
# Velocity P-wave (km/s) = 6.17260 6.29205 6.23261
#
# Compressibility (1/GPa) = 0.02225529
#
# Stress axis : x y z
#
# Youngs Moduli (GPa) = 46.83768 43.99186 50.38981
#
# Poissons Ratio (x) = 0.43398 0.28210
# Poissons Ratio (y) = 0.46205 0.27072
# Poissons Ratio (z) = 0.26222 0.23635
#
# Static dielectric constant tensor:
#      x y z
#    x 3.707750 0.000000 0.000000 
#    y 0.000000 3.691560 0.000000 
#    z 0.000000 0.000000 3.600940 
# 
# 
# High freq. dielectric constant tensor:
#      x y z
#    x 1.785780 0.000000 0.000000 
#    y 0.000000 1.792020 0.000000 
#    z 0.000000 0.000000 1.773620 
# 
# From -- ./inp_files/17832.got.cif
#   From: 2010.03.12/outbox.cif.g09.slc.cpg/sg59_9_cif.got.tgz:17832.got - 2010.04.16 16:29:54.
