data_PCOD8241725
_publ_section_title
;
Structure prediction by ZEFSAII (Michael W. Deem and Ramdas Pophale) SiO2 
 PCOD8241725
Probable space group: P M M N
;
_chemical_formula_sum "Si O2"
_cell_formula_units_Z 56
_cell_length_a 8.836112
_cell_length_b 19.495012
_cell_length_c 17.303691
_cell_angle_alpha 90.000000
_cell_angle_beta 90.000000
_cell_angle_gamma 90.000000
_cell_volume 2980.735706
_symmetry_space_group_name_H-M "P M M N"
_symmetry_group_IT_number 59
_space_group.IT_coordinate_system_code '2'
_symmetry_cell_setting 'orthorhombic'
loop_
_space_group_symop_operation_xyz
x,y,z
1/2-x,1/2-y,z
1/2+x,-y,-z
-x,1/2+y,-z
-x,-y,-z
1/2+x,1/2+y,-z
1/2-x,y,z
x,1/2-y,z
loop_
_atom_site_type_symbol
_atom_site_label
_atom_site_fract_x
_atom_site_fract_y
_atom_site_fract_z
Si Si1 0.423927 0.173143 0.310685
Si Si2 0.074444 0.329771 0.881768
Si Si3 0.078522 0.416353 0.448821
Si Si4 0.076136 0.047249 0.613749
Si Si5 0.573597 0.328640 0.042071
Si Si6 0.072054 0.938607 0.225704
Si Si7 0.071755 0.919734 0.814076
O O1 0.250000 0.167066 0.283790
O O2 0.485305 0.250000 0.299294
O O3 0.439690 0.154167 0.401384
O O4 0.523717 0.121105 0.261857
O O5 0.250000 0.348123 0.873738
O O6 0.042261 0.250000 0.866386
O O7 0.980324 0.371200 0.818932
O O8 0.020736 0.350449 0.967228
O O9 0.250000 0.445300 0.440031
O O10 0.045305 0.403047 0.539831
O O11 0.962808 0.470568 0.412847
O O12 0.250000 0.049400 0.640696
O O13 0.974605 0.070504 0.685225
O O14 0.750000 0.338931 0.023819
O O15 0.539746 0.250000 0.066026
O O16 0.517756 0.377566 0.110967
O O17 0.250000 0.946144 0.220699
O O18 0.001034 0.005376 0.185503
O O19 0.250000 0.928713 0.813307
#
# Coordination Sequence:
#
# PCOD8241725 Si02
#       7
#     8   8   8   8   8   8   8
#     4  10  20  34  53  80 116 154 190 231 282 341
#     4  10  22  41  64  87 110 141 185 234 285 342
#     4   9  18  33  53  78 109 147 188 229 281 337
#     4  10  19  33  55  81 109 144 188 235 280 331
#     4   9  19  37  59  83 114 151 188 228 280 339
#     4  12  24  38  58  84 116 151 188 234 289 342
#     4  11  22  36  56  84 116 151 193 237 281 331
#
# _framework density 18.787309
#
# number of rings (size 3 to 8) (size 9 to 14) (size 15 to 20)
#    0.000    1.857    1.429    3.000    0.000    4.000 
#    0.000    2.143    0.000    2.571    0.000    0.000 
#    0.000    0.000    0.000    0.000    0.000    0.000 
#
# Total GULP energy -694485.895533 kJ/mol
# GULP energy per Si atom -12401.533849 kJ/mol
# Density = 1.874455 g / cm^3
# Si number density = 18.787309 Si / 1000 Ang^3
#
#
#
# Elastic Constant Matrix: (Units=GPa)
#
#
# Indices 1 2 3 4 5 6 
#
# 1 85.1782 36.3314 45.0246 0.0000 0.0000 0.0000
# 2 36.3314 77.6797 54.4072 0.0000 0.0000 0.0000
# 3 45.0246 54.4072 123.7484 0.0000 0.0000 0.0000
# 4 0.0000 0.0000 0.0000 27.1211 0.0000 0.0000
# 5 0.0000 0.0000 0.0000 0.0000 32.7975 0.0000
# 6 0.0000 0.0000 0.0000 0.0000 0.0000 24.9455
#
#
#
# Elastic Compliance Matrix: (Units=1/GPa)
#
#
# Indices 1 2 3 4 5 6 
#
# 1 0.015696 -0.004828 -0.003588 0.000000 0.000000 0.000000
# 2 -0.004828 0.020087 -0.007075 0.000000 0.000000 0.000000
# 3 -0.003588 -0.007075 0.012497 0.000000 0.000000 0.000000
# 4 0.000000 0.000000 0.000000 0.036872 0.000000 0.000000
# 5 0.000000 0.000000 0.000000 0.000000 0.030490 0.000000
# 6 0.000000 0.000000 0.000000 0.000000 0.000000 0.040087
#
#
# Mechanical properties :
#
#
# Convention : Reuss Voigt Hill
#
# Bulk Modulus (GPa) = 57.81056 62.01475 59.91266
# Shear Modulus (GPa) = 25.97722 27.02902 26.50312
#
# Velocity S-wave (km/s) = 3.72250 3.79712 3.75999
# Velocity P-wave (km/s) = 7.02239 7.23219 7.12806
#
# Compressibility (1/GPa) = 0.01729788
#
# Stress axis : x y z
#
# Youngs Moduli (GPa) = 63.71011 49.78449 80.02005
#
# Poissons Ratio (x) = 0.24036 0.28713
# Poissons Ratio (y) = 0.30759 0.56611
# Poissons Ratio (z) = 0.22860 0.35221
#
# Static dielectric constant tensor:
#      x y z
#    x 3.491640 0.000000 0.000000 
#    y 0.000000 3.346120 0.000000 
#    z 0.000000 0.000000 3.647240 
# 
# 
# High freq. dielectric constant tensor:
#      x y z
#    x 1.735970 0.000000 0.000000 
#    y 0.000000 1.712360 0.000000 
#    z 0.000000 0.000000 1.738860 
# 
# From -- ./inp_files/20995.got.cif
#   From: 2010.03.12/outbox.cif.g09.slc.cpg/sg59_11_cif.got.tgz:20995.got - 2010.04.16 16:29:54.
