data_PCOD8241538
_publ_section_title
;
Structure prediction by ZEFSAII (Michael W. Deem and Ramdas Pophale) SiO2 
 PCOD8241538
Probable space group: P M M N
;
_chemical_formula_sum "Si O2"
_cell_formula_units_Z 64
_cell_length_a 19.996559
_cell_length_b 8.977953
_cell_length_c 20.071290
_cell_angle_alpha 90.000000
_cell_angle_beta 90.000000
_cell_angle_gamma 90.000000
_cell_volume 3603.361900
_symmetry_space_group_name_H-M "P M M N"
_symmetry_group_IT_number 59
_space_group.IT_coordinate_system_code '2'
_symmetry_cell_setting 'orthorhombic'
loop_
_space_group_symop_operation_xyz
x,y,z
1/2-x,1/2-y,z
1/2+x,-y,-z
-x,1/2+y,-z
-x,-y,-z
1/2+x,1/2+y,-z
1/2-x,y,z
x,1/2-y,z
loop_
_atom_site_type_symbol
_atom_site_label
_atom_site_fract_x
_atom_site_fract_y
_atom_site_fract_z
Si Si1 0.549397 0.578544 0.329081
Si Si2 0.676050 0.073147 0.090905
Si Si3 0.324132 0.926908 0.432805
Si Si4 0.394649 0.579386 0.302228
Si Si5 0.826458 0.075723 0.940681
Si Si6 0.585635 0.575559 0.830926
Si Si7 0.563870 0.072664 0.466000
Si Si8 0.934062 0.073889 0.193917
O O1 0.571462 0.750000 0.335000
O O2 0.470002 0.562387 0.327303
O O3 0.576231 0.487054 0.391961
O O4 0.581730 0.507819 0.263133
O O5 0.750000 0.016186 0.112671
O O6 0.675489 0.250000 0.091535
O O7 0.619880 0.011666 0.141053
O O8 0.660317 0.019345 0.015961
O O9 0.250000 0.989045 0.446893
O O10 0.325234 0.750000 0.429373
O O11 0.348788 0.986941 0.361080
O O12 0.371942 0.980519 0.491985
O O13 0.377350 0.750000 0.285805
O O14 0.380204 0.486427 0.235896
O O15 0.750000 0.040087 0.919967
O O16 0.840816 0.250000 0.934005
O O17 0.878356 0.989871 0.894955
O O18 0.595457 0.750000 0.831305
O O19 0.507486 0.530635 0.833071
O O20 0.554942 0.250000 0.465459
O O21 0.500000 0.000000 0.500000
O O22 0.927939 0.250000 0.205332
#
# Coordination Sequence:
#
# PCOD8241538 Si02
#       8
#     8   8   8   8   8   8   8   8
#     4  10  19  33  52  77 103 132 171 209 248 300
#     4   8  15  31  55  77  97 128 175 220 253 297
#     4   9  18  33  52  75 101 129 168 214 251 290
#     4   9  17  32  51  71  96 130 171 207 243 293
#     4   9  18  33  52  72  95 131 177 216 249 296
#     4  10  20  31  46  74 108 135 161 203 258 308
#     4  11  20  33  55  80 102 132 171 211 255 302
#     4   9  18  33  52  77 105 132 164 211 261 301
#
# _framework density 17.761192000000001
#
# number of rings (size 3 to 8) (size 9 to 14) (size 15 to 20)
#    0.000    2.625    1.250    1.875    0.000    2.250 
#    0.000    2.500    0.000    7.875    0.000    0.000 
#    0.000    0.000    0.000    0.000    0.000    0.000 
#
# Total GULP energy -793549.778810 kJ/mol
# GULP energy per Si atom -12399.215294 kJ/mol
# Density = 1.772077 g / cm^3
# Si number density = 17.761192 Si / 1000 Ang^3
#
#
#
# Elastic Constant Matrix: (Units=GPa)
#
#
# Indices 1 2 3 4 5 6 
#
# 1 112.2427 39.7093 92.2083 0.0000 0.0000 0.0000
# 2 39.7093 57.4590 51.8866 0.0000 0.0000 0.0000
# 3 92.2083 51.8866 161.8528 0.0000 0.0000 0.0000
# 4 0.0000 0.0000 0.0000 28.0149 0.0000 0.0000
# 5 0.0000 0.0000 0.0000 0.0000 32.4667 0.0000
# 6 0.0000 0.0000 0.0000 0.0000 0.0000 19.7557
#
#
#
# Elastic Compliance Matrix: (Units=1/GPa)
#
#
# Indices 1 2 3 4 5 6 
#
# 1 0.017486 -0.004347 -0.008568 0.000000 0.000000 0.000000
# 2 -0.004347 0.025575 -0.005722 0.000000 0.000000 0.000000
# 3 -0.008568 -0.005722 0.012894 0.000000 0.000000 0.000000
# 4 0.000000 0.000000 0.000000 0.035695 0.000000 0.000000
# 5 0.000000 0.000000 0.000000 0.000000 0.030801 0.000000
# 6 0.000000 0.000000 0.000000 0.000000 0.000000 0.050618
#
#
# Mechanical properties :
#
#
# Convention : Reuss Voigt Hill
#
# Bulk Modulus (GPa) = 53.53249 77.68475 65.60862
# Shear Modulus (GPa) = 23.08694 25.89747 24.49221
#
# Velocity S-wave (km/s) = 3.60926 3.82264 3.71748
# Velocity P-wave (km/s) = 6.89743 7.95719 7.44619
#
# Compressibility (1/GPa) = 0.01868024
#
# Stress axis : x y z
#
# Youngs Moduli (GPa) = 57.18806 39.10016 77.55328
#
# Poissons Ratio (x) = 0.16997 0.66451
# Poissons Ratio (y) = 0.24860 0.44379
# Poissons Ratio (z) = 0.49001 0.22374
#
# Static dielectric constant tensor:
#      x y z
#    x 3.401820 0.000000 0.000000 
#    y 0.000000 3.092690 0.000000 
#    z 0.000000 0.000000 3.487830 
# 
# 
# High freq. dielectric constant tensor:
#      x y z
#    x 1.676570 0.000000 0.000000 
#    y 0.000000 1.665750 0.000000 
#    z 0.000000 0.000000 1.697440 
# 
# From -- ./inp_files/29368.got.cif
#   From: 2010.03.12/outbox.cif.g09.slc.cpg/sg59_15_cif.got.tgz:29368.got - 2010.04.16 16:29:54.
