data_PCOD8241375
_publ_section_title
;
Structure prediction by ZEFSAII (Michael W. Deem and Ramdas Pophale) SiO2 
 PCOD8241375
Probable space group: P M M N
;
_chemical_formula_sum "Si O2"
_cell_formula_units_Z 64
_cell_length_a 18.623417
_cell_length_b 9.330528
_cell_length_c 19.760805
_cell_angle_alpha 90.000000
_cell_angle_beta 90.000000
_cell_angle_gamma 90.000000
_cell_volume 3433.762242
_symmetry_space_group_name_H-M "P M M N"
_symmetry_group_IT_number 59
_space_group.IT_coordinate_system_code '2'
_symmetry_cell_setting 'orthorhombic'
loop_
_space_group_symop_operation_xyz
x,y,z
1/2-x,1/2-y,z
1/2+x,-y,-z
-x,1/2+y,-z
-x,-y,-z
1/2+x,1/2+y,-z
1/2-x,y,z
x,1/2-y,z
loop_
_atom_site_type_symbol
_atom_site_label
_atom_site_fract_x
_atom_site_fract_y
_atom_site_fract_z
Si Si1 0.444489 0.919304 0.781842
Si Si2 0.333028 0.418579 0.026017
Si Si3 0.332843 0.086604 0.294981
Si Si4 0.411027 0.583633 0.407689
Si Si5 0.832352 0.083567 0.106173
Si Si6 0.935011 0.913169 0.355856
Si Si7 0.406963 0.082704 0.159669
Si Si8 0.667452 0.916387 0.474916
O O1 0.450919 0.750000 0.771744
O O2 0.377551 0.962940 0.828469
O O3 0.516576 0.982058 0.816932
O O4 0.433235 0.984711 0.708328
O O5 0.250000 0.455315 0.039898
O O6 0.344320 0.250000 0.016584
O O7 0.379136 0.482355 0.088727
O O8 0.360569 0.496165 0.958449
O O9 0.250000 0.064016 0.311694
O O10 0.356514 0.250000 0.311237
O O11 0.347280 0.051169 0.216600
O O12 0.378042 0.977485 0.339065
O O13 0.391522 0.750000 0.413367
O O14 0.496337 0.557445 0.403861
O O15 0.378604 0.504968 0.471983
O O16 0.750000 0.046065 0.122501
O O17 0.843273 0.250000 0.089589
O O18 0.936493 0.750000 0.329616
O O19 0.864229 0.943749 0.400291
O O20 0.416551 0.250000 0.147868
O O21 0.750000 0.967627 0.475600
O O22 0.661416 0.750000 0.495043
#
# Coordination Sequence:
#
# PCOD8241375 Si02
#       8
#     8   8   8   8   8   8   8   8
#     4  10  20  35  56  78 103 140 180 217 262 317
#     4   9  17  31  52  76 102 135 176 220 264 310
#     4  10  19  32  53  78 105 142 182 217 257 308
#     4  11  22  36  55  81 112 142 171 213 265 316
#     4   9  19  35  52  74 106 140 175 217 267 321
#     4  10  22  39  57  80 110 141 175 219 269 315
#     4   9  17  31  51  76 104 134 176 222 258 304
#     4  10  22  40  60  81 106 139 180 222 263 311
#
# _framework density 18.638449000000001
#
# number of rings (size 3 to 8) (size 9 to 14) (size 15 to 20)
#    0.000    2.250    1.250    1.500    0.000    6.000 
#    0.000    1.250    0.000    1.500    0.000    0.000 
#    0.000    0.000    0.000    0.000    0.000    0.000 
#
# Total GULP energy -793670.656223 kJ/mol
# GULP energy per Si atom -12401.104003 kJ/mol
# Density = 1.859603 g / cm^3
# Si number density = 18.638449 Si / 1000 Ang^3
#
#
#
# Elastic Constant Matrix: (Units=GPa)
#
#
# Indices 1 2 3 4 5 6 
#
# 1 80.6537 34.8629 56.4077 0.0000 0.0000 0.0000
# 2 34.8629 54.5109 52.1298 0.0000 0.0000 0.0000
# 3 56.4077 52.1298 124.6748 0.0000 0.0000 0.0000
# 4 0.0000 0.0000 0.0000 34.9145 0.0000 0.0000
# 5 0.0000 0.0000 0.0000 0.0000 35.1316 0.0000
# 6 0.0000 0.0000 0.0000 0.0000 0.0000 20.9939
#
#
#
# Elastic Compliance Matrix: (Units=1/GPa)
#
#
# Indices 1 2 3 4 5 6 
#
# 1 0.019514 -0.006727 -0.006016 0.000000 0.000000 0.000000
# 2 -0.006727 0.032887 -0.010707 0.000000 0.000000 0.000000
# 3 -0.006016 -0.010707 0.015220 0.000000 0.000000 0.000000
# 4 0.000000 0.000000 0.000000 0.028641 0.000000 0.000000
# 5 0.000000 0.000000 0.000000 0.000000 0.028464 0.000000
# 6 0.000000 0.000000 0.000000 0.000000 0.000000 0.047633
#
#
# Mechanical properties :
#
#
# Convention : Reuss Voigt Hill
#
# Bulk Modulus (GPa) = 48.26305 60.73780 54.50043
# Shear Modulus (GPa) = 22.10756 25.97060 24.03908
#
# Velocity S-wave (km/s) = 3.44776 3.73686 3.59522
# Velocity P-wave (km/s) = 6.46529 7.16079 6.82191
#
# Compressibility (1/GPa) = 0.02071978
#
# Stress axis : x y z
#
# Youngs Moduli (GPa) = 51.24505 30.40729 65.70367
#
# Poissons Ratio (x) = 0.20455 0.39529
# Poissons Ratio (y) = 0.34472 0.70351
# Poissons Ratio (z) = 0.30830 0.32558
#
# Static dielectric constant tensor:
#      x y z
#    x 3.612160 0.000000 0.000000 
#    y 0.000000 3.260350 0.000000 
#    z 0.000000 0.000000 3.416350 
# 
# 
# High freq. dielectric constant tensor:
#      x y z
#    x 1.730130 0.000000 0.000000 
#    y 0.000000 1.702780 0.000000 
#    z 0.000000 0.000000 1.728860 
# 
# From -- ./inp_files/28216.got.cif
#   From: 2010.03.12/outbox.cif.g09.slc.cpg/sg59_15_cif.got.tgz:28216.got - 2010.04.16 16:29:54.
