data_PCOD8241453
_publ_section_title
;
Structure prediction by ZEFSAII (Michael W. Deem and Ramdas Pophale) SiO2 
 PCOD8241453
Probable space group: P M M N
;
_chemical_formula_sum "Si O2"
_cell_formula_units_Z 52
_cell_length_a 7.680624
_cell_length_b 21.689445
_cell_length_c 16.060712
_cell_angle_alpha 90.000000
_cell_angle_beta 90.000000
_cell_angle_gamma 90.000000
_cell_volume 2675.529468
_symmetry_space_group_name_H-M "P M M N"
_symmetry_group_IT_number 59
_space_group.IT_coordinate_system_code '2'
_symmetry_cell_setting 'orthorhombic'
loop_
_space_group_symop_operation_xyz
x,y,z
1/2-x,1/2-y,z
1/2+x,-y,-z
-x,1/2+y,-z
-x,-y,-z
1/2+x,1/2+y,-z
1/2-x,y,z
x,1/2-y,z
loop_
_atom_site_type_symbol
_atom_site_label
_atom_site_fract_x
_atom_site_fract_y
_atom_site_fract_z
Si Si1 0.445148 0.530543 0.758992
Si Si2 0.448281 0.865568 0.888922
Si Si3 0.447801 0.820300 0.384658
Si Si4 0.046806 0.819116 0.065331
Si Si5 0.250000 0.083810 0.336098
Si Si6 0.250000 0.314005 0.202531
Si Si7 0.044376 0.893860 0.221267
Si Si8 0.250000 0.321275 0.486297
O O1 0.250000 0.546674 0.728065
O O2 0.488261 0.569078 0.843544
O O3 0.575409 0.543474 0.680512
O O4 0.453925 0.459780 0.784838
O O5 0.250000 0.844616 0.872645
O O6 0.575718 0.814336 0.852297
O O7 0.488585 0.865410 0.987725
O O8 0.250000 0.835147 0.413485
O O9 0.462541 0.750000 0.353790
O O10 0.506118 0.862968 0.308630
O O11 0.575642 0.832473 0.461301
O O12 0.250000 0.811052 0.079798
O O13 0.966417 0.750000 0.052858
O O14 0.967133 0.851595 0.147189
O O15 0.250000 0.131498 0.263936
O O16 0.250000 0.122832 0.420438
O O17 0.250000 0.250000 0.252753
O O18 0.250000 0.902594 0.212649
O O19 0.250000 0.250000 0.451374
#
# Coordination Sequence:
#
# PCOD8241453 Si02
#       8
#     8   8   8   8   4   4   8   4
#     4  10  21  37  57  78 109 153 190 228 269 322
#     4   9  19  35  52  76 111 149 185 226 274 318
#     4   9  19  36  58  84 115 145 177 221 278 337
#     4   9  17  31  54  82 111 145 186 233 279 326
#     4  10  21  40  58  80 111 140 183 229 269 330
#     4  10  19  32  55  80 105 142 181 224 279 327
#     4  10  19  34  58  81 110 149 189 227 273 326
#     4  10  21  38  63  90 113 140 174 223 282 335
#
# _framework density 19.435404999999999
#
# number of rings (size 3 to 8) (size 9 to 14) (size 15 to 20)
#    0.000    2.462    0.769    1.154    1.077    4.000 
#    1.385    0.769    0.000    2.769    0.000    0.000 
#    0.000    0.000    0.000    0.000    0.000    0.000 
#
# Total GULP energy -644326.536029 kJ/mol
# GULP energy per Si atom -12390.894924 kJ/mol
# Density = 1.939117 g / cm^3
# Si number density = 19.435405 Si / 1000 Ang^3
#
#
#
# Elastic Constant Matrix: (Units=GPa)
#
#
# Indices 1 2 3 4 5 6 
#
# 1 88.8584 36.6353 44.9439 0.0000 0.0000 0.0000
# 2 36.6353 117.3845 55.5319 0.0000 0.0000 0.0000
# 3 44.9439 55.5319 105.2984 0.0000 0.0000 0.0000
# 4 0.0000 0.0000 0.0000 34.4500 0.0000 0.0000
# 5 0.0000 0.0000 0.0000 0.0000 18.5371 0.0000
# 6 0.0000 0.0000 0.0000 0.0000 0.0000 -10.4392
#
#
#
# Elastic Compliance Matrix: (Units=1/GPa)
#
#
# Indices 1 2 3 4 5 6 
#
# 1 0.014754 -0.002166 -0.005155 0.000000 0.000000 0.000000
# 2 -0.002166 0.011669 -0.005229 0.000000 0.000000 0.000000
# 3 -0.005155 -0.005229 0.014455 0.000000 0.000000 0.000000
# 4 0.000000 0.000000 0.000000 0.029028 0.000000 0.000000
# 5 0.000000 0.000000 0.000000 0.000000 0.053946 0.000000
# 6 0.000000 0.000000 0.000000 0.000000 0.000000 -0.095792
#
#
# Mechanical properties :
#
#
# Convention : Reuss Voigt Hill
#
# Bulk Modulus (GPa) = 63.38302 65.08483 64.23393
# Shear Modulus (GPa) = 85.58774 20.13826 52.86300
#
# Velocity S-wave (km/s) = 6.64324 3.22244 5.22096
# Velocity P-wave (km/s) = 9.56695 6.88520 8.33464
#
# Compressibility (1/GPa) = 0.01577710
#
# Stress axis : x y z
#
# Youngs Moduli (GPa) = 67.77665 85.69776 69.17985
#
# Poissons Ratio (x) = 0.18562 0.35664
# Poissons Ratio (y) = 0.14680 0.36177
# Poissons Ratio (z) = 0.34940 0.44815
#
# Static dielectric constant tensor:
#      x y z
#    x 3.298780 0.000000 0.000000 
#    y 0.000000 3.504290 0.000000 
#    z 0.000000 0.000000 3.499260 
# 
# 
# High freq. dielectric constant tensor:
#      x y z
#    x 1.760530 0.000000 0.000000 
#    y 0.000000 1.756990 0.000000 
#    z 0.000000 0.000000 1.735280 
# 
# From -- ./inp_files/20877.got.cif
#   From: 2010.03.12/outbox.cif.g09.slc.cpg/sg59_11_cif.got.tgz:20877.got - 2010.04.16 16:29:54.
