data_PCOD8241557
_publ_section_title
;
Structure prediction by ZEFSAII (Michael W. Deem and Ramdas Pophale) SiO2 
 PCOD8241557
Probable space group: P M M N
;
_chemical_formula_sum "Si O2"
_cell_formula_units_Z 64
_cell_length_a 19.600693
_cell_length_b 8.965549
_cell_length_c 20.015812
_cell_angle_alpha 90.000000
_cell_angle_beta 90.000000
_cell_angle_gamma 90.000000
_cell_volume 3517.398129
_symmetry_space_group_name_H-M "P M M N"
_symmetry_group_IT_number 59
_space_group.IT_coordinate_system_code '2'
_symmetry_cell_setting 'orthorhombic'
loop_
_space_group_symop_operation_xyz
x,y,z
1/2-x,1/2-y,z
1/2+x,-y,-z
-x,1/2+y,-z
-x,-y,-z
1/2+x,1/2+y,-z
1/2-x,y,z
x,1/2-y,z
loop_
_atom_site_type_symbol
_atom_site_label
_atom_site_fract_x
_atom_site_fract_y
_atom_site_fract_z
Si Si1 0.828110 0.925670 0.551650
Si Si2 0.433836 0.575072 0.970674
Si Si3 0.928403 0.924036 0.310834
Si Si4 0.328523 0.923529 0.587243
Si Si5 0.893161 0.920795 0.800347
Si Si6 0.949899 0.078938 0.177143
Si Si7 0.585101 0.424549 0.665802
Si Si8 0.327925 0.919879 0.079799
O O1 0.750000 0.967776 0.569862
O O2 0.838979 0.750000 0.550156
O O3 0.848116 0.989465 0.479728
O O4 0.879612 0.995674 0.604102
O O5 0.447197 0.750000 0.972213
O O6 0.419524 0.526478 0.894053
O O7 0.500000 0.500000 0.000000
O O8 0.369765 0.525669 0.015228
O O9 0.912150 0.750000 0.317091
O O10 0.004678 0.961888 0.335777
O O11 0.875120 0.016909 0.353586
O O12 0.918945 0.973312 0.234065
O O13 0.250000 0.952425 0.606900
O O14 0.343146 0.750000 0.575452
O O15 0.876423 0.750000 0.783531
O O16 0.969027 0.941744 0.828051
O O17 0.881130 0.015254 0.733492
O O18 0.841645 0.977687 0.856451
O O19 0.931049 0.250000 0.194052
O O20 0.599010 0.250000 0.661193
O O21 0.250000 0.935222 0.058770
O O22 0.347443 0.750000 0.098476
#
# Coordination Sequence:
#
# PCOD8241557 Si02
#       8
#     8   8   8   8   8   8   8   8
#     4  10  21  37  57  81 109 143 184 228 273 323
#     4  10  19  33  55  79 104 138 181 225 269 321
#     4  10  21  36  56  83 112 143 180 226 274 322
#     4  10  21  38  60  83 108 143 184 224 272 329
#     4  10  19  33  53  76 104 139 178 221 268 317
#     4   9  18  33  53  79 107 135 175 224 270 319
#     4  10  21  36  55  81 112 146 183 223 270 323
#     4  10  21  35  51  75 108 143 178 220 270 325
#
# _framework density 18.195267999999999
#
# number of rings (size 3 to 8) (size 9 to 14) (size 15 to 20)
#    0.000    2.125    1.250    1.875    0.000    5.250 
#    0.000    0.625    0.000    2.250    0.000    0.000 
#    0.000    0.000    0.000    0.000    0.000    0.000 
#
# Total GULP energy -793809.441138 kJ/mol
# GULP energy per Si atom -12403.272518 kJ/mol
# Density = 1.815385 g / cm^3
# Si number density = 18.195268 Si / 1000 Ang^3
#
#
#
# Elastic Constant Matrix: (Units=GPa)
#
#
# Indices 1 2 3 4 5 6 
#
# 1 79.6232 42.1921 67.2617 0.0000 0.0000 0.0000
# 2 42.1921 80.7353 55.6272 0.0000 0.0000 0.0000
# 3 67.2617 55.6272 136.0574 0.0000 0.0000 0.0000
# 4 0.0000 0.0000 0.0000 34.4886 0.0000 0.0000
# 5 0.0000 0.0000 0.0000 0.0000 30.5139 0.0000
# 6 0.0000 0.0000 0.0000 0.0000 0.0000 27.6979
#
#
#
# Elastic Compliance Matrix: (Units=1/GPa)
#
#
# Indices 1 2 3 4 5 6 
#
# 1 0.023447 -0.005940 -0.009163 0.000000 0.000000 0.000000
# 2 -0.005940 0.018749 -0.004729 0.000000 0.000000 0.000000
# 3 -0.009163 -0.004729 0.013813 0.000000 0.000000 0.000000
# 4 0.000000 0.000000 0.000000 0.028995 0.000000 0.000000
# 5 0.000000 0.000000 0.000000 0.000000 0.032772 0.000000
# 6 0.000000 0.000000 0.000000 0.000000 0.000000 0.036104
#
#
# Mechanical properties :
#
#
# Convention : Reuss Voigt Hill
#
# Bulk Modulus (GPa) = 61.17994 69.61978 65.39986
# Shear Modulus (GPa) = 25.12671 27.29572 26.21122
#
# Velocity S-wave (km/s) = 3.72014 3.87738 3.79958
# Velocity P-wave (km/s) = 7.22147 7.64141 7.43441
#
# Compressibility (1/GPa) = 0.01634523
#
# Stress axis : x y z
#
# Youngs Moduli (GPa) = 42.64930 53.33707 72.39607
#
# Poissons Ratio (x) = 0.31683 0.66334
# Poissons Ratio (y) = 0.25335 0.34235
# Poissons Ratio (z) = 0.39078 0.25222
#
# Static dielectric constant tensor:
#      x y z
#    x 3.330020 0.000000 0.000000 
#    y 0.000000 3.477140 0.000000 
#    z 0.000000 0.000000 3.487640 
# 
# 
# High freq. dielectric constant tensor:
#      x y z
#    x 1.689800 0.000000 0.000000 
#    y 0.000000 1.713730 0.000000 
#    z 0.000000 0.000000 1.713850 
# 
# From -- ./inp_files/26227.got.cif
#   From: 2010.03.12/outbox.cif.g09.slc.cpg/sg59_14_cif.got.tgz:26227.got - 2010.04.16 16:29:54.
