data_PCOD8241613
_publ_section_title
;
Structure prediction by ZEFSAII (Michael W. Deem and Ramdas Pophale) SiO2 
 PCOD8241613
Probable space group: P M M N
;
_chemical_formula_sum "Si O2"
_cell_formula_units_Z 48
_cell_length_a 9.615634
_cell_length_b 18.798185
_cell_length_c 14.825507
_cell_angle_alpha 90.000000
_cell_angle_beta 90.000000
_cell_angle_gamma 90.000000
_cell_volume 2679.806264
_symmetry_space_group_name_H-M "P M M N"
_symmetry_group_IT_number 59
_space_group.IT_coordinate_system_code '2'
_symmetry_cell_setting 'orthorhombic'
loop_
_space_group_symop_operation_xyz
x,y,z
1/2-x,1/2-y,z
1/2+x,-y,-z
-x,1/2+y,-z
-x,-y,-z
1/2+x,1/2+y,-z
1/2-x,y,z
x,1/2-y,z
loop_
_atom_site_type_symbol
_atom_site_label
_atom_site_fract_x
_atom_site_fract_y
_atom_site_fract_z
Si Si1 0.414647 0.420414 0.878577
Si Si2 0.586147 0.425082 0.177319
Si Si3 0.587056 0.666997 0.948407
Si Si4 0.906851 0.440134 0.384749
Si Si5 0.907948 0.901983 0.459599
Si Si6 0.084506 0.329165 0.715577
O O1 0.250000 0.413815 0.873632
O O2 0.459313 0.503048 0.875996
O O3 0.479515 0.381207 0.791153
O O4 0.468161 0.379957 0.967553
O O5 0.750000 0.410917 0.166024
O O6 0.499992 0.358852 0.138060
O O7 0.544336 0.432846 0.281759
O O8 0.750000 0.654266 0.930388
O O9 0.556862 0.750000 0.967021
O O10 0.750000 0.412365 0.395478
O O11 0.919649 0.521187 0.414385
O O12 0.003435 0.392737 0.449434
O O13 0.750000 0.883970 0.485960
O O14 0.969260 0.848424 0.384480
O O15 0.250000 0.336988 0.714801
O O16 0.036441 0.250000 0.740188
#
# Coordination Sequence:
#
# PCOD8241613 Si02
#       6
#     8   8   8   8   8   8
#     4   9  16  30  51  75 101 129 163 205 251 299
#     4  10  19  33  54  76  99 131 171 209 243 293
#     4  10  21  35  51  74 103 132 164 206 255 300
#     4   9  17  30  48  70  96 127 163 202 242 286
#     4   9  16  28  47  72  99 126 160 201 242 288
#     4   9  15  25  46  75 103 129 160 202 251 299
#
# _framework density 17.911742
#
# number of rings (size 3 to 8) (size 9 to 14) (size 15 to 20)
#    0.000    2.667    1.667    1.000    0.000    3.000 
#    0.000    0.833    0.000    4.500    0.000    0.000 
#    0.000    0.000    0.000    0.000    0.000    0.000 
#
# Total GULP energy -595055.273345 kJ/mol
# GULP energy per Si atom -12396.984861 kJ/mol
# Density = 1.787097 g / cm^3
# Si number density = 17.911742 Si / 1000 Ang^3
#
#
#
# Elastic Constant Matrix: (Units=GPa)
#
#
# Indices 1 2 3 4 5 6 
#
# 1 41.4636 23.6808 45.2337 0.0000 0.0000 0.0000
# 2 23.6808 61.7192 37.6467 0.0000 0.0000 0.0000
# 3 45.2337 37.6467 123.7669 0.0000 0.0000 0.0000
# 4 0.0000 0.0000 0.0000 27.2324 0.0000 0.0000
# 5 0.0000 0.0000 0.0000 0.0000 26.9200 0.0000
# 6 0.0000 0.0000 0.0000 0.0000 0.0000 19.1718
#
#
#
# Elastic Compliance Matrix: (Units=1/GPa)
#
#
# Indices 1 2 3 4 5 6 
#
# 1 0.043528 -0.008592 -0.013295 0.000000 0.000000 0.000000
# 2 -0.008592 0.021589 -0.003427 0.000000 0.000000 0.000000
# 3 -0.013295 -0.003427 0.013981 0.000000 0.000000 0.000000
# 4 0.000000 0.000000 0.000000 0.036721 0.000000 0.000000
# 5 0.000000 0.000000 0.000000 0.000000 0.037147 0.000000
# 6 0.000000 0.000000 0.000000 0.000000 0.000000 0.052160
#
#
# Mechanical properties :
#
#
# Convention : Reuss Voigt Hill
#
# Bulk Modulus (GPa) = 35.12296 48.89690 42.00993
# Shear Modulus (GPa) = 18.85052 22.69073 20.77063
#
# Velocity S-wave (km/s) = 3.24761 3.56309 3.40900
# Velocity P-wave (km/s) = 5.80638 6.65474 6.24498
#
# Compressibility (1/GPa) = 0.02847140
#
# Stress axis : x y z
#
# Youngs Moduli (GPa) = 22.97346 46.31953 71.52499
#
# Poissons Ratio (x) = 0.39796 0.95094
# Poissons Ratio (y) = 0.19738 0.24511
# Poissons Ratio (z) = 0.30544 0.15873
#
# Static dielectric constant tensor:
#      x y z
#    x 2.997720 0.000000 0.000000 
#    y 0.000000 3.240220 0.000000 
#    z 0.000000 0.000000 3.464390 
# 
# 
# High freq. dielectric constant tensor:
#      x y z
#    x 1.649140 0.000000 0.000000 
#    y 0.000000 1.682880 0.000000 
#    z 0.000000 0.000000 1.704580 
# 
# From -- ./inp_files/15801.got.cif
#   From: 2010.03.12/outbox.cif.g09.slc.cpg/sg59_8_cif.got.tgz:15801.got - 2010.04.16 16:29:54.
