data_PCOD8241861
_publ_section_title
;
Structure prediction by ZEFSAII (Michael W. Deem and Ramdas Pophale) SiO2 
 PCOD8241861
Probable space group: P M M N
;
_chemical_formula_sum "Si O2"
_cell_formula_units_Z 64
_cell_length_a 9.354798
_cell_length_b 26.934552
_cell_length_c 13.351334
_cell_angle_alpha 90.000000
_cell_angle_beta 90.000000
_cell_angle_gamma 90.000000
_cell_volume 3364.099488
_symmetry_space_group_name_H-M "P M M N"
_symmetry_group_IT_number 59
_space_group.IT_coordinate_system_code '2'
_symmetry_cell_setting 'orthorhombic'
loop_
_space_group_symop_operation_xyz
x,y,z
1/2-x,1/2-y,z
1/2+x,-y,-z
-x,1/2+y,-z
-x,-y,-z
1/2+x,1/2+y,-z
1/2-x,y,z
x,1/2-y,z
loop_
_atom_site_type_symbol
_atom_site_label
_atom_site_fract_x
_atom_site_fract_y
_atom_site_fract_z
Si Si1 0.091652 0.533328 0.071097
Si Si2 0.920131 0.633708 0.092985
Si Si3 0.579228 0.632073 0.704511
Si Si4 0.419643 0.306244 0.105236
Si Si5 0.087311 0.144633 0.515555
Si Si6 0.587993 0.968466 0.422928
Si Si7 0.093319 0.480056 0.273842
Si Si8 0.420032 0.305626 0.712434
O O1 0.250000 0.547024 0.028289
O O2 0.115995 0.496394 0.161991
O O3 0.004741 0.582669 0.095700
O O4 0.000000 0.500000 0.000000
O O5 0.750000 0.623841 0.092531
O O6 0.971083 0.662246 0.192975
O O7 0.967217 0.665156 0.995315
O O8 0.750000 0.633015 0.704619
O O9 0.519512 0.665955 0.795421
O O10 0.519543 0.651755 0.596070
O O11 0.527439 0.575404 0.720119
O O12 0.250000 0.304833 0.110485
O O13 0.480468 0.250000 0.102724
O O14 0.250000 0.162264 0.507290
O O15 0.076159 0.088169 0.548297
O O16 0.013401 0.175877 0.605646
O O17 0.750000 0.986780 0.419172
O O18 0.500000 0.000000 0.500000
O O19 0.515551 0.979177 0.316801
O O20 0.250000 0.480507 0.328808
O O21 0.250000 0.308864 0.706284
O O22 0.473914 0.250000 0.730806
#
# Coordination Sequence:
#
# PCOD8241861 Si02
#       8
#     8   8   8   8   8   8   8   8
#     4  11  23  37  56  81 112 146 181 222 270 330
#     4  10  19  34  54  77 108 139 175 224 272 323
#     4   9  16  28  45  67 100 134 167 213 266 315
#     4   9  17  29  49  75  99 132 177 222 271 320
#     4   9  17  28  44  69 103 137 169 213 268 317
#     4  11  20  32  51  76 106 141 180 220 264 320
#     4  10  20  35  52  74 106 142 177 217 266 318
#     4   9  17  29  48  75 105 138 177 225 278 323
#
# _framework density 19.024408000000001
#
# number of rings (size 3 to 8) (size 9 to 14) (size 15 to 20)
#    0.000    2.250    1.250    2.625    0.000    6.000 
#    0.000    2.500    0.000    1.500    0.000    0.000 
#    0.000    1.000    0.000    0.000    0.000    0.000 
#
# Total GULP energy -793076.402375 kJ/mol
# GULP energy per Si atom -12391.818787 kJ/mol
# Density = 1.898111 g / cm^3
# Si number density = 19.024408 Si / 1000 Ang^3
#
#
#
# Elastic Constant Matrix: (Units=GPa)
#
#
# Indices 1 2 3 4 5 6 
#
# 1 53.0450 29.8115 26.9019 0.0000 0.0000 0.0000
# 2 29.8115 110.9190 71.6887 0.0000 0.0000 0.0000
# 3 26.9019 71.6887 156.6572 0.0000 0.0000 0.0000
# 4 0.0000 0.0000 0.0000 38.7543 0.0000 0.0000
# 5 0.0000 0.0000 0.0000 0.0000 15.6194 0.0000
# 6 0.0000 0.0000 0.0000 0.0000 0.0000 18.5924
#
#
#
# Elastic Compliance Matrix: (Units=1/GPa)
#
#
# Indices 1 2 3 4 5 6 
#
# 1 0.022470 -0.005034 -0.001555 0.000000 0.000000 0.000000
# 2 -0.005034 0.013930 -0.005510 0.000000 0.000000 0.000000
# 3 -0.001555 -0.005510 0.009172 0.000000 0.000000 0.000000
# 4 0.000000 0.000000 0.000000 0.025804 0.000000 0.000000
# 5 0.000000 0.000000 0.000000 0.000000 0.064023 0.000000
# 6 0.000000 0.000000 0.000000 0.000000 0.000000 0.053785
#
#
# Mechanical properties :
#
#
# Convention : Reuss Voigt Hill
#
# Bulk Modulus (GPa) = 46.78757 64.15839 55.47298
# Shear Modulus (GPa) = 22.67515 27.40783 25.04149
#
# Velocity S-wave (km/s) = 3.45613 3.79973 3.63200
# Velocity P-wave (km/s) = 6.36972 7.28341 6.84183
#
# Compressibility (1/GPa) = 0.02137320
#
# Stress axis : x y z
#
# Youngs Moduli (GPa) = 44.50435 71.78842 109.02950
#
# Poissons Ratio (x) = 0.36140 0.16953
# Poissons Ratio (y) = 0.22404 0.60075
# Poissons Ratio (z) = 0.06920 0.39555
#
# Static dielectric constant tensor:
#      x y z
#    x 2.796720 0.000000 0.000000 
#    y 0.000000 3.540250 0.000000 
#    z 0.000000 0.000000 4.209890 
# 
# 
# High freq. dielectric constant tensor:
#      x y z
#    x 1.678770 0.000000 0.000000 
#    y 0.000000 1.743380 0.000000 
#    z 0.000000 0.000000 1.760570 
# 
# From -- ./inp_files/15037.got.cif
#   From: 2010.03.12/outbox.cif.g09.slc.cpg/sg59_8_cif.got.tgz:15037.got - 2010.04.16 16:29:54.
