data_PCOD8241376
_publ_section_title
;
Structure prediction by ZEFSAII (Michael W. Deem and Ramdas Pophale) SiO2 
 PCOD8241376
Probable space group: P M M N
;
_chemical_formula_sum "Si O2"
_cell_formula_units_Z 64
_cell_length_a 19.838543
_cell_length_b 8.911611
_cell_length_c 18.676512
_cell_angle_alpha 90.000000
_cell_angle_beta 90.000000
_cell_angle_gamma 90.000000
_cell_volume 3301.883646
_symmetry_space_group_name_H-M "P M M N"
_symmetry_group_IT_number 59
_space_group.IT_coordinate_system_code '2'
_symmetry_cell_setting 'orthorhombic'
loop_
_space_group_symop_operation_xyz
x,y,z
1/2-x,1/2-y,z
1/2+x,-y,-z
-x,1/2+y,-z
-x,-y,-z
1/2+x,1/2+y,-z
1/2-x,y,z
x,1/2-y,z
loop_
_atom_site_type_symbol
_atom_site_label
_atom_site_fract_x
_atom_site_fract_y
_atom_site_fract_z
Si Si1 0.326894 0.423880 0.910362
Si Si2 0.066683 0.425581 0.025993
Si Si3 0.827361 0.072901 0.239915
Si Si4 0.820470 0.917319 0.739490
Si Si5 0.448509 0.427820 0.187994
Si Si6 0.955079 0.927824 0.293044
Si Si7 0.175660 0.082975 0.428410
Si Si8 0.962945 0.073411 0.565729
O O1 0.250000 0.449391 0.933442
O O2 0.341315 0.250000 0.892480
O O3 0.345014 0.519091 0.840212
O O4 0.370816 0.482157 0.977746
O O5 0.059426 0.250000 0.017861
O O6 0.072827 0.472651 0.108333
O O7 0.000000 0.500000 0.000000
O O8 0.750000 0.028085 0.259601
O O9 0.837437 0.250000 0.243870
O O10 0.878996 0.995444 0.296454
O O11 0.750000 0.996243 0.764236
O O12 0.822243 0.750000 0.773059
O O13 0.886846 0.000172 0.766667
O O14 0.820769 0.905100 0.655597
O O15 0.460271 0.250000 0.198152
O O16 0.514076 0.512198 0.218062
O O17 0.949903 0.750000 0.291547
O O18 0.001288 0.982782 0.360333
O O19 0.250000 0.028083 0.456968
O O20 0.160138 0.250000 0.459752
O O21 0.115482 0.969109 0.445223
O O22 0.969313 0.250000 0.560881
O O23 0.000000 0.000000 0.500000
#
# Coordination Sequence:
#
# PCOD8241376 Si02
#       8
#     8   8   8   8   8   8   8   8
#     4   9  18  34  54  76 107 146 185 228 278 328
#     4  10  21  33  47  72 103 140 183 226 273 324
#     4  10  21  37  59  85 108 137 182 231 279 335
#     4   8  14  26  48  78 107 136 173 218 265 312
#     4  10  19  32  53  78 106 143 187 232 275 322
#     4  11  23  38  57  83 112 142 179 225 279 334
#     4   9  17  33  59  87 115 149 186 222 266 323
#     4  11  24  40  60  87 118 153 190 230 278 333
#
# _framework density 19.382876
#
# number of rings (size 3 to 8) (size 9 to 14) (size 15 to 20)
#    0.000    2.250    1.250    2.625    0.000    6.000 
#    0.000    3.125    0.000    1.125    0.000    1.750 
#    0.000    0.000    0.000    0.000    0.000    0.000 
#
# Total GULP energy -793007.555145 kJ/mol
# GULP energy per Si atom -12390.743049 kJ/mol
# Density = 1.933876 g / cm^3
# Si number density = 19.382876 Si / 1000 Ang^3
#
#
#
# Elastic Constant Matrix: (Units=GPa)
#
#
# Indices 1 2 3 4 5 6 
#
# 1 149.2676 42.9310 46.9339 0.0000 0.0000 0.0000
# 2 42.9310 55.3231 31.8555 0.0000 0.0000 0.0000
# 3 46.9339 31.8555 65.9469 0.0000 0.0000 0.0000
# 4 0.0000 0.0000 0.0000 24.1593 0.0000 0.0000
# 5 0.0000 0.0000 0.0000 0.0000 21.3835 0.0000
# 6 0.0000 0.0000 0.0000 0.0000 0.0000 26.6742
#
#
#
# Elastic Compliance Matrix: (Units=1/GPa)
#
#
# Indices 1 2 3 4 5 6 
#
# 1 0.009471 -0.004805 -0.004419 0.000000 0.000000 0.000000
# 2 -0.004805 0.027478 -0.009854 0.000000 0.000000 0.000000
# 3 -0.004419 -0.009854 0.023069 0.000000 0.000000 0.000000
# 4 0.000000 0.000000 0.000000 0.041392 0.000000 0.000000
# 5 0.000000 0.000000 0.000000 0.000000 0.046765 0.000000
# 6 0.000000 0.000000 0.000000 0.000000 0.000000 0.037489
#
#
# Mechanical properties :
#
#
# Convention : Reuss Voigt Hill
#
# Bulk Modulus (GPa) = 45.74161 57.10873 51.42517
# Shear Modulus (GPa) = 21.63499 24.36453 22.99976
#
# Velocity S-wave (km/s) = 3.34457 3.54928 3.44845
# Velocity P-wave (km/s) = 6.21008 6.80617 6.51495
#
# Compressibility (1/GPa) = 0.02186193
#
# Stress axis : x y z
#
# Youngs Moduli (GPa) = 105.58706 36.39282 43.34855
#
# Poissons Ratio (x) = 0.17486 0.19158
# Poissons Ratio (y) = 0.50731 0.42714
# Poissons Ratio (z) = 0.46664 0.35860
#
# Static dielectric constant tensor:
#      x y z
#    x 3.262450 0.000000 0.000000 
#    y 0.000000 3.447430 0.000000 
#    z 0.000000 0.000000 3.391120 
# 
# 
# High freq. dielectric constant tensor:
#      x y z
#    x 1.778220 0.000000 0.000000 
#    y 0.000000 1.731630 0.000000 
#    z 0.000000 0.000000 1.734180 
# 
# From -- ./inp_files/28208.got.cif
#   From: 2010.03.12/outbox.cif.g09.slc.cpg/sg59_15_cif.got.tgz:28208.got - 2010.04.16 16:29:54.
