data_PCOD8241267
_publ_section_title
;
Structure prediction by ZEFSAII (Michael W. Deem and Ramdas Pophale) SiO2 
 PCOD8241267
Probable space group: P M M N
;
_chemical_formula_sum "Si O2"
_cell_formula_units_Z 48
_cell_length_a 9.008353
_cell_length_b 15.505585
_cell_length_c 19.493191
_cell_angle_alpha 90.000000
_cell_angle_beta 90.000000
_cell_angle_gamma 90.000000
_cell_volume 2722.804692
_symmetry_space_group_name_H-M "P M M N"
_symmetry_group_IT_number 59
_space_group.IT_coordinate_system_code '2'
_symmetry_cell_setting 'orthorhombic'
loop_
_space_group_symop_operation_xyz
x,y,z
1/2-x,1/2-y,z
1/2+x,-y,-z
-x,1/2+y,-z
-x,-y,-z
1/2+x,1/2+y,-z
1/2-x,y,z
x,1/2-y,z
loop_
_atom_site_type_symbol
_atom_site_label
_atom_site_fract_x
_atom_site_fract_y
_atom_site_fract_z
Si Si1 0.575090 0.499446 0.835199
Si Si2 0.423195 0.580446 0.300448
Si Si3 0.426540 0.574789 0.456564
Si Si4 0.582452 0.750000 0.459051
Si Si5 0.585336 0.750000 0.296513
Si Si6 0.425245 0.153053 0.073745
Si Si7 0.574754 0.152729 0.930991
O O1 0.750000 0.499569 0.843344
O O2 0.533399 0.494654 0.753994
O O3 0.512665 0.587913 0.867801
O O4 0.513856 0.414879 0.874763
O O5 0.250000 0.600858 0.299825
O O6 0.472637 0.556225 0.377418
O O7 0.500736 0.665683 0.271234
O O8 0.500000 0.500000 0.500000
O O9 0.250000 0.575769 0.466558
O O10 0.493174 0.665280 0.483454
O O11 0.750000 0.750000 0.490027
O O12 0.589665 0.750000 0.378079
O O13 0.750000 0.750000 0.265388
O O14 0.250000 0.143961 0.063855
O O15 0.468870 0.250000 0.096357
O O16 0.500657 0.127442 0.002703
O O17 0.750000 0.145701 0.940804
O O18 0.528949 0.250000 0.908665
#
# Coordination Sequence:
#
# PCOD8241267 Si02
#       7
#     8   8   8   4   4   8   8
#     4   9  17  29  47  68  91 120 159 198 232 276
#     4   9  18  31  49  70  95 127 166 200 233 285
#     4  10  19  32  52  76 102 134 169 207 251 298
#     4   9  17  31  51  75 101 129 162 201 244 297
#     4   9  17  29  45  69 101 127 150 185 240 297
#     4   9  17  30  47  65  88 120 155 196 241 277
#     4   9  17  28  44  67  91 118 153 191 234 283
#
# _framework density 17.628881
#
# number of rings (size 3 to 8) (size 9 to 14) (size 15 to 20)
#    0.000    2.833    0.000    1.500    1.167    2.667 
#    0.000    1.667    1.833    0.000    0.000    0.000 
#    0.000    0.000    0.000    0.000    0.000    0.000 
#
# Total GULP energy -594938.766674 kJ/mol
# GULP energy per Si atom -12394.557639 kJ/mol
# Density = 1.758876 g / cm^3
# Si number density = 17.628881 Si / 1000 Ang^3
#
#
#
# Elastic Constant Matrix: (Units=GPa)
#
#
# Indices 1 2 3 4 5 6 
#
# 1 47.6054 33.2610 29.3218 0.0000 0.0000 0.0000
# 2 33.2610 130.1122 71.5700 0.0000 0.0000 0.0000
# 3 29.3218 71.5700 94.2467 0.0000 0.0000 0.0000
# 4 0.0000 0.0000 0.0000 29.1036 0.0000 0.0000
# 5 0.0000 0.0000 0.0000 0.0000 19.9809 0.0000
# 6 0.0000 0.0000 0.0000 0.0000 0.0000 23.6039
#
#
#
# Elastic Compliance Matrix: (Units=1/GPa)
#
#
# Indices 1 2 3 4 5 6 
#
# 1 0.027110 -0.003934 -0.005447 0.000000 0.000000 0.000000
# 2 -0.003934 0.013770 -0.009233 0.000000 0.000000 0.000000
# 3 -0.005447 -0.009233 0.019316 0.000000 0.000000 0.000000
# 4 0.000000 0.000000 0.000000 0.034360 0.000000 0.000000
# 5 0.000000 0.000000 0.000000 0.000000 0.050048 0.000000
# 6 0.000000 0.000000 0.000000 0.000000 0.000000 0.042366
#
#
# Mechanical properties :
#
#
# Convention : Reuss Voigt Hill
#
# Bulk Modulus (GPa) = 43.53775 60.02997 51.78386
# Shear Modulus (GPa) = 21.56536 23.72510 22.64523
#
# Velocity S-wave (km/s) = 3.50136 3.67251 3.58795
# Velocity P-wave (km/s) = 6.41065 7.21866 6.82662
#
# Compressibility (1/GPa) = 0.02296857
#
# Stress axis : x y z
#
# Youngs Moduli (GPa) = 36.88741 72.62168 51.76949
#
# Poissons Ratio (x) = 0.28569 0.28198
# Poissons Ratio (y) = 0.14511 0.47798
# Poissons Ratio (z) = 0.20092 0.67051
#
# Static dielectric constant tensor:
#      x y z
#    x 3.201690 0.000000 0.000000 
#    y 0.000000 3.541260 0.000000 
#    z 0.000000 0.000000 3.269270 
# 
# 
# High freq. dielectric constant tensor:
#      x y z
#    x 1.667510 0.000000 0.000000 
#    y 0.000000 1.680550 0.000000 
#    z 0.000000 0.000000 1.663920 
# 
# From -- ./inp_files/25583.got.cif
#   From: 2010.03.12/outbox.cif.g09.slc.cpg/sg59_13_cif.got.tgz:25583.got - 2010.04.16 16:29:54.
