data_PCOD8241853
_publ_section_title
;
Structure prediction by ZEFSAII (Michael W. Deem and Ramdas Pophale) SiO2 
 PCOD8241853
Probable space group: P M M N
;
_chemical_formula_sum "Si O2"
_cell_formula_units_Z 48
_cell_length_a 20.745316
_cell_length_b 8.660838
_cell_length_c 15.026963
_cell_angle_alpha 90.000000
_cell_angle_beta 90.000000
_cell_angle_gamma 90.000000
_cell_volume 2699.921808
_symmetry_space_group_name_H-M "P M M N"
_symmetry_group_IT_number 59
_space_group.IT_coordinate_system_code '2'
_symmetry_cell_setting 'orthorhombic'
loop_
_space_group_symop_operation_xyz
x,y,z
1/2-x,1/2-y,z
1/2+x,-y,-z
-x,1/2+y,-z
-x,-y,-z
1/2+x,1/2+y,-z
1/2-x,y,z
x,1/2-y,z
loop_
_atom_site_type_symbol
_atom_site_label
_atom_site_fract_x
_atom_site_fract_y
_atom_site_fract_z
Si Si1 0.345928 0.078153 0.803634
Si Si2 0.680478 0.932990 0.006994
Si Si3 0.489820 0.423738 0.760345
Si Si4 0.454020 0.932154 0.574488
Si Si5 0.548884 0.566818 0.927395
Si Si6 0.178542 0.067328 0.611122
O O1 0.317113 0.250000 0.800371
O O2 0.320705 0.994170 0.892874
O O3 0.422640 0.080995 0.811789
O O4 0.323111 0.997723 0.711858
O O5 0.750000 0.976188 0.963353
O O6 0.672286 0.750000 0.016438
O O7 0.621075 0.994941 0.949094
O O8 0.514130 0.250000 0.739871
O O9 0.482734 0.515491 0.668676
O O10 0.538268 0.508881 0.827022
O O11 0.454695 0.750000 0.568672
O O12 0.500000 0.000000 0.500000
O O13 0.380142 0.989243 0.557282
O O14 0.542990 0.750000 0.929910
O O15 0.500000 0.500000 0.000000
O O16 0.250000 0.031845 0.570204
O O17 0.164433 0.250000 0.612344
#
# Coordination Sequence:
#
# PCOD8241853 Si02
#       6
#     8   8   8   8   8   8
#     4   8  13  24  44  71 100 132 169 206 247 303
#     4   9  16  26  43  69 100 136 178 218 255 302
#     4  10  19  34  54  77 102 135 176 220 266 319
#     4  11  22  37  57  82 110 140 176 224 274 326
#     4  11  20  31  49  75 104 138 179 221 261 309
#     4   9  17  30  51  79 111 145 177 211 259 323
#
# _framework density 17.778292
#
# number of rings (size 3 to 8) (size 9 to 14) (size 15 to 20)
#    0.000    2.333    1.667    4.000    0.000    2.333 
#    0.000    0.000    0.000    3.000    0.000    2.333 
#    0.000    0.000    0.000    0.000    0.000    0.000 
#
# Total GULP energy -594731.815213 kJ/mol
# GULP energy per Si atom -12390.246150 kJ/mol
# Density = 1.773783 g / cm^3
# Si number density = 17.778292 Si / 1000 Ang^3
#
#
#
# Elastic Constant Matrix: (Units=GPa)
#
#
# Indices 1 2 3 4 5 6 
#
# 1 155.3895 47.8166 67.0127 0.0000 0.0000 0.0000
# 2 47.8166 88.7771 34.8805 0.0000 0.0000 0.0000
# 3 67.0127 34.8805 79.7081 0.0000 0.0000 0.0000
# 4 0.0000 0.0000 0.0000 24.7207 0.0000 0.0000
# 5 0.0000 0.0000 0.0000 0.0000 24.7476 0.0000
# 6 0.0000 0.0000 0.0000 0.0000 0.0000 20.8439
#
#
#
# Elastic Compliance Matrix: (Units=1/GPa)
#
#
# Indices 1 2 3 4 5 6 
#
# 1 0.010593 -0.002665 -0.007740 0.000000 0.000000 0.000000
# 2 -0.002665 0.014273 -0.004006 0.000000 0.000000 0.000000
# 3 -0.007740 -0.004006 0.020806 0.000000 0.000000 0.000000
# 4 0.000000 0.000000 0.000000 0.040452 0.000000 0.000000
# 5 0.000000 0.000000 0.000000 0.000000 0.040408 0.000000
# 6 0.000000 0.000000 0.000000 0.000000 0.000000 0.047976
#
#
# Mechanical properties :
#
#
# Convention : Reuss Voigt Hill
#
# Bulk Modulus (GPa) = 59.34142 69.25493 64.29818
# Shear Modulus (GPa) = 23.92958 25.67342 24.80150
#
# Velocity S-wave (km/s) = 3.67277 3.80424 3.73908
# Velocity P-wave (km/s) = 7.17194 7.63778 7.40852
#
# Compressibility (1/GPa) = 0.01685163
#
# Stress axis : x y z
#
# Youngs Moduli (GPa) = 94.39866 70.06114 48.06308
#
# Poissons Ratio (x) = 0.18669 0.37201
# Poissons Ratio (y) = 0.25154 0.19253
# Poissons Ratio (z) = 0.73065 0.28065
#
# Static dielectric constant tensor:
#      x y z
#    x 3.489150 0.000000 0.000000 
#    y 0.000000 3.070770 0.000000 
#    z 0.000000 0.000000 3.148590 
# 
# 
# High freq. dielectric constant tensor:
#      x y z
#    x 1.692780 0.000000 0.000000 
#    y 0.000000 1.660790 0.000000 
#    z 0.000000 0.000000 1.661080 
# 
# From -- ./inp_files/24502.got.cif
#   From: 2010.03.12/outbox.cif.g09.slc.cpg/sg59_13_cif.got.tgz:24502.got - 2010.04.16 16:29:54.
