data_PCOD8241502
_publ_section_title
;
Structure prediction by ZEFSAII (Michael W. Deem and Ramdas Pophale) SiO2 
 PCOD8241502
Probable space group: P M M N
;
_chemical_formula_sum "Si O2"
_cell_formula_units_Z 64
_cell_length_a 31.373343
_cell_length_b 9.091730
_cell_length_c 12.079996
_cell_angle_alpha 90.000000
_cell_angle_beta 90.000000
_cell_angle_gamma 90.000000
_cell_volume 3445.673461
_symmetry_space_group_name_H-M "P M M N"
_symmetry_group_IT_number 59
_space_group.IT_coordinate_system_code '2'
_symmetry_cell_setting 'orthorhombic'
loop_
_space_group_symop_operation_xyz
x,y,z
1/2-x,1/2-y,z
1/2+x,-y,-z
-x,1/2+y,-z
-x,-y,-z
1/2+x,1/2+y,-z
1/2-x,y,z
x,1/2-y,z
loop_
_atom_site_type_symbol
_atom_site_label
_atom_site_fract_x
_atom_site_fract_y
_atom_site_fract_z
Si Si1 0.625312 0.075696 0.877450
Si Si2 0.938422 0.579526 0.242885
Si Si3 0.700588 0.416010 0.270898
Si Si4 0.484309 0.918526 0.393395
Si Si5 0.865233 0.922712 0.412440
Si Si6 0.111144 0.923371 0.367125
Si Si7 0.202853 0.574952 0.979036
Si Si8 0.045566 0.575132 0.979161
O O1 0.626893 0.250000 0.887031
O O2 0.630776 0.025793 0.750225
O O3 0.665774 0.007624 0.943329
O O4 0.579669 0.025227 0.927327
O O5 0.930834 0.750000 0.210879
O O6 0.905355 0.527883 0.337426
O O7 0.933542 0.477290 0.136044
O O8 0.985872 0.553407 0.288092
O O9 0.750000 0.419167 0.300943
O O10 0.682727 0.250000 0.285043
O O11 0.677705 0.526887 0.353455
O O12 0.692766 0.473491 0.146358
O O13 0.484245 0.750000 0.427391
O O14 0.437774 0.973667 0.361054
O O15 0.500000 0.000000 0.500000
O O16 0.865064 0.750000 0.430103
O O17 0.865700 0.996047 0.532731
O O18 0.116107 0.750000 0.384834
O O19 0.250000 0.516292 0.014777
O O20 0.203463 0.750000 0.984712
O O21 0.038921 0.750000 0.977964
O O22 0.000000 0.500000 0.000000
#
# Coordination Sequence:
#
# PCOD8241502 Si02
#       8
#     8   8   8   8   8   8   8   8
#     4   9  18  33  52  75 106 143 178 219 272 321
#     4  10  21  36  53  77 109 139 175 225 274 321
#     4   9  18  34  57  83 109 136 171 218 266 320
#     4  10  19  33  51  71 101 140 182 228 268 312
#     4  11  22  35  53  78 109 141 174 220 270 317
#     4  10  20  34  53  74 103 144 184 222 263 315
#     4   8  14  28  54  85 109 130 166 217 266 315
#     4  11  22  36  55  78 108 144 182 225 274 329
#
# _framework density 18.574017999999999
#
# number of rings (size 3 to 8) (size 9 to 14) (size 15 to 20)
#    0.000    2.250    1.250    3.000    0.000    4.750 
#    0.000    3.125    0.000    3.000    0.000    0.000 
#    0.000    0.000    0.000    0.000    0.000    0.000 
#
# Total GULP energy -793521.993328 kJ/mol
# GULP energy per Si atom -12398.781146 kJ/mol
# Density = 1.853174 g / cm^3
# Si number density = 18.574018 Si / 1000 Ang^3
#
#
#
# Elastic Constant Matrix: (Units=GPa)
#
#
# Indices 1 2 3 4 5 6 
#
# 1 114.0239 29.0903 70.4868 0.0000 0.0000 0.0000
# 2 29.0903 39.8401 40.5859 0.0000 0.0000 0.0000
# 3 70.4868 40.5859 144.6237 0.0000 0.0000 0.0000
# 4 0.0000 0.0000 0.0000 24.2279 0.0000 0.0000
# 5 0.0000 0.0000 0.0000 0.0000 29.4178 0.0000
# 6 0.0000 0.0000 0.0000 0.0000 0.0000 23.8179
#
#
#
# Elastic Compliance Matrix: (Units=1/GPa)
#
#
# Indices 1 2 3 4 5 6 
#
# 1 0.013051 -0.004270 -0.005162 0.000000 0.000000 0.000000
# 2 -0.004270 0.036546 -0.008175 0.000000 0.000000 0.000000
# 3 -0.005162 -0.008175 0.011725 0.000000 0.000000 0.000000
# 4 0.000000 0.000000 0.000000 0.041275 0.000000 0.000000
# 5 0.000000 0.000000 0.000000 0.000000 0.033993 0.000000
# 6 0.000000 0.000000 0.000000 0.000000 0.000000 0.041985
#
#
# Mechanical properties :
#
#
# Convention : Reuss Voigt Hill
#
# Bulk Modulus (GPa) = 38.30426 64.31262 51.30844
# Shear Modulus (GPa) = 22.47276 26.04769 24.26023
#
# Velocity S-wave (km/s) = 3.48214 3.74889 3.61797
# Velocity P-wave (km/s) = 6.06913 7.31021 6.71839
#
# Compressibility (1/GPa) = 0.02610675
#
# Stress axis : x y z
#
# Youngs Moduli (GPa) = 76.62367 27.36263 85.29107
#
# Poissons Ratio (x) = 0.11685 0.44030
# Poissons Ratio (y) = 0.32722 0.69722
# Poissons Ratio (z) = 0.39555 0.22368
#
# Static dielectric constant tensor:
#      x y z
#    x 3.613320 0.000000 0.000000 
#    y 0.000000 3.146950 0.000000 
#    z 0.000000 0.000000 3.409400 
# 
# 
# High freq. dielectric constant tensor:
#      x y z
#    x 1.723200 0.000000 0.000000 
#    y 0.000000 1.690290 0.000000 
#    z 0.000000 0.000000 1.725020 
# 
# From -- ./inp_files/19306.got.cif
#   From: 2010.03.12/outbox.cif.g09.slc.cpg/sg59_10_cif.got.tgz:19306.got - 2010.04.16 16:29:54.
