data_PCOD8241978
_publ_section_title
;
Structure prediction by ZEFSAII (Michael W. Deem and Ramdas Pophale) SiO2 
 PCOD8241978
Probable space group: P M M N
;
_chemical_formula_sum "Si O2"
_cell_formula_units_Z 64
_cell_length_a 15.197530
_cell_length_b 8.678078
_cell_length_c 23.694787
_cell_angle_alpha 90.000000
_cell_angle_beta 90.000000
_cell_angle_gamma 90.000000
_cell_volume 3124.995294
_symmetry_space_group_name_H-M "P M M N"
_symmetry_group_IT_number 59
_space_group.IT_coordinate_system_code '2'
_symmetry_cell_setting 'orthorhombic'
loop_
_space_group_symop_operation_xyz
x,y,z
1/2-x,1/2-y,z
1/2+x,-y,-z
-x,1/2+y,-z
-x,-y,-z
1/2+x,1/2+y,-z
1/2-x,y,z
x,1/2-y,z
loop_
_atom_site_type_symbol
_atom_site_label
_atom_site_fract_x
_atom_site_fract_y
_atom_site_fract_z
Si Si1 0.421010 0.427386 0.881206
Si Si2 0.652390 0.075671 0.773363
Si Si3 0.847243 0.933037 0.001779
Si Si4 0.147767 0.567659 0.505170
Si Si5 0.497404 0.069671 0.580321
Si Si6 0.504783 0.927917 0.700540
Si Si7 0.902317 0.570722 0.880668
Si Si8 0.348027 0.074728 0.764056
O O1 0.451268 0.250000 0.888358
O O2 0.500018 0.533937 0.859567
O O3 0.348461 0.442442 0.832233
O O4 0.389655 0.497979 0.940908
O O5 0.750000 0.068564 0.746662
O O6 0.615307 0.250000 0.771323
O O7 0.588482 0.963899 0.739333
O O8 0.661474 0.019955 0.838291
O O9 0.750000 0.000920 0.998059
O O10 0.845659 0.750000 0.005391
O O11 0.895870 0.990450 0.945194
O O12 0.250000 0.503559 0.501917
O O13 0.153592 0.750000 0.508097
O O14 0.094010 0.508866 0.559907
O O15 0.086428 0.513470 0.452327
O O16 0.485262 0.250000 0.571364
O O17 0.511524 0.031708 0.645287
O O18 0.506967 0.750000 0.683276
O O19 0.414864 0.960852 0.733608
O O20 0.878866 0.750000 0.877374
O O21 0.250000 0.033528 0.743394
O O22 0.372872 0.250000 0.747629
#
# Coordination Sequence:
#
# PCOD8241978 Si02
#       8
#     8   8   8   8   8   8   8   8
#     4  10  19  34  57  80 108 147 192 240 294 359
#     4  11  24  42  63  85 113 153 201 251 303 362
#     4   9  18  32  51  78 109 143 187 238 293 357
#     4   9  19  38  64  94 128 165 204 247 296 344
#     4  10  21  38  62  92 127 166 207 249 294 347
#     4  12  25  41  62  89 124 162 202 252 304 355
#     4  11  21  34  55  82 114 149 186 236 300 365
#     4  10  21  38  61  86 114 154 203 251 301 360
#
# _framework density 20.480028999999998
#
# number of rings (size 3 to 8) (size 9 to 14) (size 15 to 20)
#    0.000    1.750    1.250    3.375    0.000    5.000 
#    0.000    1.875    0.000    2.625    0.000    0.000 
#    0.000    0.000    0.000    0.000    0.000    0.000 
#
# Total GULP energy -793401.993837 kJ/mol
# GULP energy per Si atom -12396.906154 kJ/mol
# Density = 2.043342 g / cm^3
# Si number density = 20.480029 Si / 1000 Ang^3
#
#
#
# Elastic Constant Matrix: (Units=GPa)
#
#
# Indices 1 2 3 4 5 6 
#
# 1 126.3441 25.0824 29.5558 0.0000 0.0000 0.0000
# 2 25.0824 40.1482 10.8578 0.0000 0.0000 0.0000
# 3 29.5558 10.8578 100.2835 0.0000 0.0000 0.0000
# 4 0.0000 0.0000 0.0000 22.6631 0.0000 0.0000
# 5 0.0000 0.0000 0.0000 0.0000 14.2756 0.0000
# 6 0.0000 0.0000 0.0000 0.0000 0.0000 16.6373
#
#
#
# Elastic Compliance Matrix: (Units=1/GPa)
#
#
# Indices 1 2 3 4 5 6 
#
# 1 0.009492 -0.005330 -0.002221 0.000000 0.000000 0.000000
# 2 -0.005330 0.028652 -0.001531 0.000000 0.000000 0.000000
# 3 -0.002221 -0.001531 0.010792 0.000000 0.000000 0.000000
# 4 0.000000 0.000000 0.000000 0.044125 0.000000 0.000000
# 5 0.000000 0.000000 0.000000 0.000000 0.070049 0.000000
# 6 0.000000 0.000000 0.000000 0.000000 0.000000 0.060106
#
#
# Mechanical properties :
#
#
# Convention : Reuss Voigt Hill
#
# Bulk Modulus (GPa) = 32.49643 44.19645 38.34644
# Shear Modulus (GPa) = 19.86990 24.13386 22.00188
#
# Velocity S-wave (km/s) = 3.11820 3.43652 3.28122
# Velocity P-wave (km/s) = 5.37271 6.11337 5.75497
#
# Compressibility (1/GPa) = 0.03077262
#
# Stress axis : x y z
#
# Youngs Moduli (GPa) = 105.34679 34.90199 92.66138
#
# Poissons Ratio (x) = 0.18602 0.20576
# Poissons Ratio (y) = 0.56148 0.14190
# Poissons Ratio (z) = 0.23393 0.05345
#
# Static dielectric constant tensor:
#      x y z
#    x 3.815590 0.000000 0.000000 
#    y 0.000000 3.455870 0.000000 
#    z 0.000000 0.000000 3.736560 
# 
# 
# High freq. dielectric constant tensor:
#      x y z
#    x 1.806630 0.000000 0.000000 
#    y 0.000000 1.780210 0.000000 
#    z 0.000000 0.000000 1.800550 
# 
# From -- ./inp_files/31472.got.cif
#   From: 2010.03.12/outbox.cif.g09.slc.cpg/sg59_16_cif.got.tgz:31472.got - 2010.04.16 16:29:54.
