data_PCOD8241320
_publ_section_title
;
Structure prediction by ZEFSAII (Michael W. Deem and Ramdas Pophale) SiO2 
 PCOD8241320
Probable space group: P M M N
;
_chemical_formula_sum "Si O2"
_cell_formula_units_Z 64
_cell_length_a 26.712990
_cell_length_b 9.054298
_cell_length_c 13.290571
_cell_angle_alpha 90.000000
_cell_angle_beta 90.000000
_cell_angle_gamma 90.000000
_cell_volume 3214.555479
_symmetry_space_group_name_H-M "P M M N"
_symmetry_group_IT_number 59
_space_group.IT_coordinate_system_code '2'
_symmetry_cell_setting 'orthorhombic'
loop_
_space_group_symop_operation_xyz
x,y,z
1/2-x,1/2-y,z
1/2+x,-y,-z
-x,1/2+y,-z
-x,-y,-z
1/2+x,1/2+y,-z
1/2-x,y,z
x,1/2-y,z
loop_
_atom_site_type_symbol
_atom_site_label
_atom_site_fract_x
_atom_site_fract_y
_atom_site_fract_z
Si Si1 0.461434 0.410876 0.562141
Si Si2 0.025523 0.922472 0.909512
Si Si3 0.147102 0.424184 0.526586
Si Si4 0.191830 0.076139 0.103086
Si Si5 0.468955 0.915083 0.256397
Si Si6 0.359931 0.925140 0.911882
Si Si7 0.807713 0.918431 0.271128
Si Si8 0.367675 0.075377 0.304558
O O1 0.500000 0.500000 0.500000
O O2 0.455725 0.250000 0.511543
O O3 0.407251 0.488022 0.559097
O O4 0.483470 0.397098 0.672254
O O5 0.023985 0.750000 0.924725
O O6 0.082660 0.976525 0.901111
O O7 0.988989 0.965776 0.820352
O O8 0.000000 0.000000 0.000000
O O9 0.148375 0.250000 0.533309
O O10 0.184356 0.481804 0.614514
O O11 0.160051 0.469036 0.410596
O O12 0.250000 0.028836 0.106283
O O13 0.186489 0.250000 0.084848
O O14 0.166855 0.030216 0.209842
O O15 0.164161 0.994746 0.011973
O O16 0.456585 0.750000 0.212936
O O17 0.419106 0.983211 0.305422
O O18 0.354218 0.750000 0.920421
O O19 0.334006 0.979119 0.810389
O O20 0.750000 0.923390 0.245033
O O21 0.828079 0.750000 0.261618
O O22 0.379424 0.250000 0.302150
#
# Coordination Sequence:
#
# PCOD8241320 Si02
#       8
#     8   8   8   8   8   8   8   8
#     4  10  19  32  52  78 110 147 187 229 273 328
#     4  11  24  40  59  85 117 153 191 234 287 347
#     4   9  18  34  56  84 117 152 191 235 285 338
#     4  10  22  39  60  86 112 144 190 240 288 340
#     4  11  22  35  55  85 119 154 192 234 280 337
#     4  11  24  41  61  86 115 149 191 240 293 349
#     4  10  21  38  62  89 117 153 197 245 296 350
#     4  10  20  36  59  84 117 157 194 235 286 344
#
# _framework density 19.90944
#
# number of rings (size 3 to 8) (size 9 to 14) (size 15 to 20)
#    0.000    1.750    1.250    3.000    0.000    8.500 
#    0.000    3.750    0.000    0.000    0.000    1.750 
#    0.000    0.000    0.000    0.000    0.000    0.000 
#
# Total GULP energy -793055.322188 kJ/mol
# GULP energy per Si atom -12391.489409 kJ/mol
# Density = 1.986413 g / cm^3
# Si number density = 19.909440 Si / 1000 Ang^3
#
#
#
# Elastic Constant Matrix: (Units=GPa)
#
#
# Indices 1 2 3 4 5 6 
#
# 1 67.8220 27.7563 44.9255 0.0000 0.0000 0.0000
# 2 27.7563 52.9414 35.3381 0.0000 0.0000 0.0000
# 3 44.9255 35.3381 150.9562 0.0000 0.0000 0.0000
# 4 0.0000 0.0000 0.0000 22.0120 0.0000 0.0000
# 5 0.0000 0.0000 0.0000 0.0000 36.3734 0.0000
# 6 0.0000 0.0000 0.0000 0.0000 0.0000 27.1601
#
#
#
# Elastic Compliance Matrix: (Units=1/GPa)
#
#
# Indices 1 2 3 4 5 6 
#
# 1 0.020921 -0.008074 -0.004336 0.000000 0.000000 0.000000
# 2 -0.008074 0.025503 -0.003567 0.000000 0.000000 0.000000
# 3 -0.004336 -0.003567 0.008750 0.000000 0.000000 0.000000
# 4 0.000000 0.000000 0.000000 0.045430 0.000000 0.000000
# 5 0.000000 0.000000 0.000000 0.000000 0.027493 0.000000
# 6 0.000000 0.000000 0.000000 0.000000 0.000000 0.036819
#
#
# Mechanical properties :
#
#
# Convention : Reuss Voigt Hill
#
# Bulk Modulus (GPa) = 43.06809 54.19549 48.63179
# Shear Modulus (GPa) = 24.43674 28.02243 26.22958
#
# Velocity S-wave (km/s) = 3.50722 3.75573 3.63360
# Velocity P-wave (km/s) = 6.17088 6.78877 6.48719
#
# Compressibility (1/GPa) = 0.02321904
#
# Stress axis : x y z
#
# Youngs Moduli (GPa) = 47.79858 39.21089 114.28620
#
# Poissons Ratio (x) = 0.31660 0.49556
# Poissons Ratio (y) = 0.38594 0.40768
# Poissons Ratio (z) = 0.20726 0.13987
#
# Static dielectric constant tensor:
#      x y z
#    x 3.676030 0.000000 0.000000 
#    y 0.000000 3.789310 0.000000 
#    z 0.000000 0.000000 3.811160 
# 
# 
# High freq. dielectric constant tensor:
#      x y z
#    x 1.780270 0.000000 0.000000 
#    y 0.000000 1.758300 0.000000 
#    z 0.000000 0.000000 1.792660 
# 
# From -- ./inp_files/19357.got.cif
#   From: 2010.03.12/outbox.cif.g09.slc.cpg/sg59_10_cif.got.tgz:19357.got - 2010.04.16 16:29:54.
