data_PCOD8241168
_publ_section_title
;
Structure prediction by ZEFSAII (Michael W. Deem and Ramdas Pophale) SiO2 
 PCOD8241168
Probable space group: P M M N
;
_chemical_formula_sum "Si O2"
_cell_formula_units_Z 48
_cell_length_a 9.311280
_cell_length_b 18.914914
_cell_length_c 14.869340
_cell_angle_alpha 90.000000
_cell_angle_beta 90.000000
_cell_angle_gamma 90.000000
_cell_volume 2618.818798
_symmetry_space_group_name_H-M "P M M N"
_symmetry_group_IT_number 59
_space_group.IT_coordinate_system_code '2'
_symmetry_cell_setting 'orthorhombic'
loop_
_space_group_symop_operation_xyz
x,y,z
1/2-x,1/2-y,z
1/2+x,-y,-z
-x,1/2+y,-z
-x,-y,-z
1/2+x,1/2+y,-z
1/2-x,y,z
x,1/2-y,z
loop_
_atom_site_type_symbol
_atom_site_label
_atom_site_fract_x
_atom_site_fract_y
_atom_site_fract_z
Si Si1 0.579623 0.418806 0.133885
Si Si2 0.087029 0.830320 0.694303
Si Si3 0.581549 0.057459 0.822470
Si Si4 0.584992 0.054247 0.617696
Si Si5 0.415502 0.101566 0.455052
Si Si6 0.080861 0.671138 0.034406
O O1 0.750000 0.429782 0.128166
O O2 0.532765 0.379632 0.225060
O O3 0.503834 0.494431 0.129920
O O4 0.520949 0.372185 0.050930
O O5 0.250000 0.850100 0.667793
O O6 0.076606 0.750000 0.728123
O O7 0.988221 0.839451 0.607013
O O8 0.750000 0.039465 0.828458
O O9 0.533247 0.067304 0.719364
O O10 0.542427 0.129719 0.874047
O O11 0.750000 0.076279 0.604206
O O12 0.488792 0.102680 0.552930
O O13 0.560237 0.972713 0.594184
O O14 0.250000 0.120499 0.468026
O O15 0.250000 0.678180 0.023192
O O16 0.012424 0.750000 0.038190
#
# Coordination Sequence:
#
# PCOD8241168 Si02
#       6
#     8   8   8   8   8   8
#     4  10  19  32  53  79 105 135 174 217 259 308
#     4  10  20  33  50  74 106 141 175 214 261 314
#     4  10  19  33  54  79 106 136 174 219 260 305
#     4   9  18  32  50  74 103 133 169 213 258 307
#     4  10  19  32  51  74 102 135 170 214 261 309
#     4   9  18  33  53  77 105 138 174 212 257 310
#
# _framework density 18.328873999999999
#
# number of rings (size 3 to 8) (size 9 to 14) (size 15 to 20)
#    0.000    2.333    1.667    1.500    0.000    3.667 
#    0.000    0.833    0.000    6.000    0.000    0.000 
#    0.000    0.000    0.000    0.000    0.000    0.000 
#
# Total GULP energy -595293.284666 kJ/mol
# GULP energy per Si atom -12401.943431 kJ/mol
# Density = 1.828716 g / cm^3
# Si number density = 18.328874 Si / 1000 Ang^3
#
#
#
# Elastic Constant Matrix: (Units=GPa)
#
#
# Indices 1 2 3 4 5 6 
#
# 1 51.8569 29.7977 41.0165 0.0000 0.0000 0.0000
# 2 29.7977 92.7772 58.6369 0.0000 0.0000 0.0000
# 3 41.0165 58.6369 142.8450 0.0000 0.0000 0.0000
# 4 0.0000 0.0000 0.0000 25.9934 0.0000 0.0000
# 5 0.0000 0.0000 0.0000 0.0000 20.7807 0.0000
# 6 0.0000 0.0000 0.0000 0.0000 0.0000 23.7939
#
#
#
# Elastic Compliance Matrix: (Units=1/GPa)
#
#
# Indices 1 2 3 4 5 6 
#
# 1 0.026571 -0.005012 -0.005572 0.000000 0.000000 0.000000
# 2 -0.005012 0.015500 -0.004923 0.000000 0.000000 0.000000
# 3 -0.005572 -0.004923 0.010622 0.000000 0.000000 0.000000
# 4 0.000000 0.000000 0.000000 0.038471 0.000000 0.000000
# 5 0.000000 0.000000 0.000000 0.000000 0.048122 0.000000
# 6 0.000000 0.000000 0.000000 0.000000 0.000000 0.042028
#
#
# Mechanical properties :
#
#
# Convention : Reuss Voigt Hill
#
# Bulk Modulus (GPa) = 46.13154 60.70902 53.42028
# Shear Modulus (GPa) = 22.77335 24.64881 23.71108
#
# Velocity S-wave (km/s) = 3.52871 3.67114 3.60063
# Velocity P-wave (km/s) = 6.46729 7.15288 6.81871
#
# Compressibility (1/GPa) = 0.02167714
#
# Stress axis : x y z
#
# Youngs Moduli (GPa) = 37.63456 64.51592 94.14769
#
# Poissons Ratio (x) = 0.32338 0.52460
# Poissons Ratio (y) = 0.18864 0.46353
# Poissons Ratio (z) = 0.20971 0.31764
#
# Static dielectric constant tensor:
#      x y z
#    x 3.158220 0.000000 0.000000 
#    y 0.000000 3.272130 0.000000 
#    z 0.000000 0.000000 3.486420 
# 
# 
# High freq. dielectric constant tensor:
#      x y z
#    x 1.687670 0.000000 0.000000 
#    y 0.000000 1.696390 0.000000 
#    z 0.000000 0.000000 1.721160 
# 
# From -- ./inp_files/20374.got.cif
#   From: 2010.03.12/outbox.cif.g09.slc.cpg/sg59_11_cif.got.tgz:20374.got - 2010.04.16 16:29:54.
