data_PCOD8241669
_publ_section_title
;
Structure prediction by ZEFSAII (Michael W. Deem and Ramdas Pophale) SiO2 
 PCOD8241669
Probable space group: P M M N
;
_chemical_formula_sum "Si O2"
_cell_formula_units_Z 56
_cell_length_a 19.236292
_cell_length_b 9.670607
_cell_length_c 17.351790
_cell_angle_alpha 90.000000
_cell_angle_beta 90.000000
_cell_angle_gamma 90.000000
_cell_volume 3227.894846
_symmetry_space_group_name_H-M "P M M N"
_symmetry_group_IT_number 59
_space_group.IT_coordinate_system_code '2'
_symmetry_cell_setting 'orthorhombic'
loop_
_space_group_symop_operation_xyz
x,y,z
1/2-x,1/2-y,z
1/2+x,-y,-z
-x,1/2+y,-z
-x,-y,-z
1/2+x,1/2+y,-z
1/2-x,y,z
x,1/2-y,z
loop_
_atom_site_type_symbol
_atom_site_label
_atom_site_fract_x
_atom_site_fract_y
_atom_site_fract_z
Si Si1 0.428298 0.908516 0.691727
Si Si2 0.048786 0.408662 0.100866
Si Si3 0.915055 0.910018 0.731768
Si Si4 0.671484 0.909927 0.204808
Si Si5 0.330043 0.910745 0.382483
Si Si6 0.066239 0.591991 0.516094
Si Si7 0.920560 0.907316 0.066912
O O1 0.418564 0.750000 0.718054
O O2 0.507892 0.954407 0.704877
O O3 0.407577 0.929539 0.602932
O O4 0.377419 0.003298 0.740063
O O5 0.024243 0.250000 0.102007
O O6 0.094383 0.439115 0.176782
O O7 0.979361 0.497990 0.104072
O O8 0.092729 0.443451 0.023369
O O9 0.901427 0.750000 0.711415
O O10 0.858325 0.002123 0.689186
O O11 0.750000 0.963442 0.213217
O O12 0.664992 0.750000 0.228752
O O13 0.649673 0.930545 0.115313
O O14 0.250000 0.948963 0.396450
O O15 0.339537 0.750000 0.362364
O O16 0.371037 0.951491 0.460045
O O17 0.043652 0.750000 0.502171
O O18 0.000000 0.500000 0.500000
O O19 0.946832 0.750000 0.074497
#
# Coordination Sequence:
#
# PCOD8241669 Si02
#       7
#     8   8   8   8   8   8   8
#     4  10  20  34  54  80 106 135 174 218 261 312
#     4   9  17  30  50  76 103 130 169 217 257 303
#     4  10  19  33  54  81 109 134 171 219 263 308
#     4  10  21  35  50  73 107 142 177 217 262 313
#     4  10  22  38  55  77 106 140 175 212 259 314
#     4  10  20  35  56  80 105 136 174 215 257 308
#     4   9  17  30  49  73 101 135 172 211 258 305
#
# _framework density 17.348769999999998
#
# number of rings (size 3 to 8) (size 9 to 14) (size 15 to 20)
#    0.000    2.286    2.857    0.000    0.000    2.857 
#    0.000    2.143    0.000    2.571    0.000    0.000 
#    0.000    0.000    0.000    0.000    0.000    0.000 
#
# Total GULP energy -694374.139854 kJ/mol
# GULP energy per Si atom -12399.538212 kJ/mol
# Density = 1.730928 g / cm^3
# Si number density = 17.348770 Si / 1000 Ang^3
#
#
#
# Elastic Constant Matrix: (Units=GPa)
#
#
# Indices 1 2 3 4 5 6 
#
# 1 121.6514 56.8120 62.4937 0.0000 0.0000 0.0000
# 2 56.8120 61.6980 48.4660 0.0000 0.0000 0.0000
# 3 62.4937 48.4660 117.3196 0.0000 0.0000 0.0000
# 4 0.0000 0.0000 0.0000 28.6644 0.0000 0.0000
# 5 0.0000 0.0000 0.0000 0.0000 25.5940 0.0000
# 6 0.0000 0.0000 0.0000 0.0000 0.0000 26.1985
#
#
#
# Elastic Compliance Matrix: (Units=1/GPa)
#
#
# Indices 1 2 3 4 5 6 
#
# 1 0.015311 -0.011387 -0.003452 0.000000 0.000000 0.000000
# 2 -0.011387 0.032463 -0.007345 0.000000 0.000000 0.000000
# 3 -0.003452 -0.007345 0.013397 0.000000 0.000000 0.000000
# 4 0.000000 0.000000 0.000000 0.034886 0.000000 0.000000
# 5 0.000000 0.000000 0.000000 0.000000 0.039072 0.000000
# 6 0.000000 0.000000 0.000000 0.000000 0.000000 0.038170
#
#
# Mechanical properties :
#
#
# Convention : Reuss Voigt Hill
#
# Bulk Modulus (GPa) = 59.51341 70.69027 65.10184
# Shear Modulus (GPa) = 22.39443 24.95119 23.67281
#
# Velocity S-wave (km/s) = 3.59672 3.79649 3.69795
# Velocity P-wave (km/s) = 7.18520 7.74937 7.47261
#
# Compressibility (1/GPa) = 0.01680294
#
# Stress axis : x y z
#
# Youngs Moduli (GPa) = 65.31073 30.80388 74.64450
#
# Poissons Ratio (x) = 0.35077 0.25766
# Poissons Ratio (y) = 0.74371 0.54828
# Poissons Ratio (z) = 0.22544 0.22626
#
# Static dielectric constant tensor:
#      x y z
#    x 3.070560 0.000000 0.000000 
#    y 0.000000 3.263230 0.000000 
#    z 0.000000 0.000000 3.518280 
# 
# 
# High freq. dielectric constant tensor:
#      x y z
#    x 1.644800 0.000000 0.000000 
#    y 0.000000 1.671020 0.000000 
#    z 0.000000 0.000000 1.686080 
# 
# From -- ./inp_files/28112.got.cif
#   From: 2010.03.12/outbox.cif.g09.slc.cpg/sg59_15_cif.got.tgz:28112.got - 2010.04.16 16:29:54.
