data_PCOD8241332
_publ_section_title
;
Structure prediction by ZEFSAII (Michael W. Deem and Ramdas Pophale) SiO2 
 PCOD8241332
Probable space group: P M M N
;
_chemical_formula_sum "Si O2"
_cell_formula_units_Z 64
_cell_length_a 24.147945
_cell_length_b 14.708179
_cell_length_c 9.447180
_cell_angle_alpha 90.000000
_cell_angle_beta 90.000000
_cell_angle_gamma 90.000000
_cell_volume 3355.376626
_symmetry_space_group_name_H-M "P M M N"
_symmetry_group_IT_number 59
_space_group.IT_coordinate_system_code '2'
_symmetry_cell_setting 'orthorhombic'
loop_
_space_group_symop_operation_xyz
x,y,z
1/2-x,1/2-y,z
1/2+x,-y,-z
-x,1/2+y,-z
-x,-y,-z
1/2+x,1/2+y,-z
1/2-x,y,z
x,1/2-y,z
loop_
_atom_site_type_symbol
_atom_site_label
_atom_site_fract_x
_atom_site_fract_y
_atom_site_fract_z
Si Si1 0.052127 0.855923 0.945091
Si Si2 0.923093 0.644492 0.915556
Si Si3 0.613150 0.647695 0.604491
Si Si4 0.312769 0.475477 0.588797
Si Si5 0.188306 0.645674 0.411847
Si Si6 0.583593 0.146770 0.750970
Si Si7 0.900266 0.973721 0.180079
Si Si8 0.017654 0.412191 0.584221
O O1 0.068382 0.750000 0.924135
O O2 0.988391 0.872521 0.909807
O O3 0.089003 0.918825 0.843017
O O4 0.063271 0.897284 0.102367
O O5 0.910529 0.750000 0.948947
O O6 0.898019 0.614469 0.764553
O O7 0.895006 0.583223 0.035836
O O8 0.636608 0.750000 0.603895
O O9 0.658004 0.581713 0.535252
O O10 0.555474 0.648675 0.517939
O O11 0.250000 0.440904 0.603739
O O12 0.315345 0.582269 0.550049
O O13 0.342482 0.461549 0.738457
O O14 0.250000 0.638148 0.344317
O O15 0.175393 0.750000 0.457042
O O16 0.143006 0.608304 0.299936
O O17 0.592629 0.250000 0.790473
O O18 0.538598 0.138828 0.626207
O O19 0.950135 0.933876 0.272136
O O20 0.000000 0.500000 0.500000
#
# Coordination Sequence:
#
# PCOD8241332 Si02
#       8
#     8   8   8   8   8   8   8   8
#     4  10  21  34  53  84 121 157 188 224 276 348
#     4  10  21  37  57  85 120 155 188 229 287 350
#     4  10  22  38  59  85 117 154 193 239 294 349
#     4  10  23  42  61  84 110 148 199 249 300 351
#     4   9  19  36  57  80 109 146 190 241 291 343
#     4  10  19  32  52  79 113 149 190 231 280 341
#     4  11  22  35  58  81 116 153 191 238 291 347
#     4  11  21  32  53  85 116 152 194 234 286 345
#
# _framework density 19.073864
#
# number of rings (size 3 to 8) (size 9 to 14) (size 15 to 20)
#    0.000    1.875    1.250    3.000    3.500    2.750 
#    0.000    4.375    0.000    1.500    0.000    0.000 
#    0.000    0.000    0.000    0.000    0.000    0.000 
#
# Total GULP energy -793471.206077 kJ/mol
# GULP energy per Si atom -12397.987595 kJ/mol
# Density = 1.903045 g / cm^3
# Si number density = 19.073864 Si / 1000 Ang^3
#
#
#
# Elastic Constant Matrix: (Units=GPa)
#
#
# Indices 1 2 3 4 5 6 
#
# 1 135.3794 42.6813 62.4659 0.0000 0.0000 0.0000
# 2 42.6813 77.6061 54.0095 0.0000 0.0000 0.0000
# 3 62.4659 54.0095 127.9929 0.0000 0.0000 0.0000
# 4 0.0000 0.0000 0.0000 27.5026 0.0000 0.0000
# 5 0.0000 0.0000 0.0000 0.0000 21.0635 0.0000
# 6 0.0000 0.0000 0.0000 0.0000 0.0000 24.7875
#
#
#
# Elastic Compliance Matrix: (Units=1/GPa)
#
#
# Indices 1 2 3 4 5 6 
#
# 1 0.009997 -0.002977 -0.003623 0.000000 0.000000 0.000000
# 2 -0.002977 0.019129 -0.006619 0.000000 0.000000 0.000000
# 3 -0.003623 -0.006619 0.012374 0.000000 0.000000 0.000000
# 4 0.000000 0.000000 0.000000 0.036360 0.000000 0.000000
# 5 0.000000 0.000000 0.000000 0.000000 0.047475 0.000000
# 6 0.000000 0.000000 0.000000 0.000000 0.000000 0.040343
#
#
# Mechanical properties :
#
#
# Convention : Reuss Voigt Hill
#
# Bulk Modulus (GPa) = 66.38902 73.25463 69.82182
# Shear Modulus (GPa) = 25.36306 26.79217 26.07762
#
# Velocity S-wave (km/s) = 3.65050 3.75194 3.70157
# Velocity P-wave (km/s) = 7.25603 7.56694 7.41312
#
# Compressibility (1/GPa) = 0.01506273
#
# Stress axis : x y z
#
# Youngs Moduli (GPa) = 100.03310 52.27564 80.81364
#
# Poissons Ratio (x) = 0.15561 0.29277
# Poissons Ratio (y) = 0.29777 0.53493
# Poissons Ratio (z) = 0.36239 0.34603
#
# Static dielectric constant tensor:
#      x y z
#    x 3.390050 0.000000 0.000000 
#    y 0.000000 3.478190 0.000000 
#    z 0.000000 0.000000 3.578830 
# 
# 
# High freq. dielectric constant tensor:
#      x y z
#    x 1.725980 0.000000 0.000000 
#    y 0.000000 1.749590 0.000000 
#    z 0.000000 0.000000 1.738560 
# 
# From -- ./inp_files/12228.got.cif
#   From: 2010.03.12/outbox.cif.g09.slc.cpg/sg59_7_cif.got.tgz:12228.got - 2010.04.16 16:29:54.
