data_PCOD8241412
_publ_section_title
;
Structure prediction by ZEFSAII (Michael W. Deem and Ramdas Pophale) SiO2 
 PCOD8241412
Probable space group: P M M N
;
_chemical_formula_sum "Si O2"
_cell_formula_units_Z 48
_cell_length_a 15.568187
_cell_length_b 9.226476
_cell_length_c 17.026492
_cell_angle_alpha 90.000000
_cell_angle_beta 90.000000
_cell_angle_gamma 90.000000
_cell_volume 2445.676861
_symmetry_space_group_name_H-M "P M M N"
_symmetry_group_IT_number 59
_space_group.IT_coordinate_system_code '2'
_symmetry_cell_setting 'orthorhombic'
loop_
_space_group_symop_operation_xyz
x,y,z
1/2-x,1/2-y,z
1/2+x,-y,-z
-x,1/2+y,-z
-x,-y,-z
1/2+x,1/2+y,-z
1/2-x,y,z
x,1/2-y,z
loop_
_atom_site_type_symbol
_atom_site_label
_atom_site_fract_x
_atom_site_fract_y
_atom_site_fract_z
Si Si1 0.589112 0.580984 0.991381
Si Si2 0.402147 0.086050 0.836005
Si Si3 0.499218 0.579150 0.582110
Si Si4 0.396843 0.580499 0.156907
Si Si5 0.154462 0.582179 0.690244
Si Si6 0.345819 0.414883 0.307109
O O1 0.574163 0.750000 0.971683
O O2 0.640200 0.503326 0.920206
O O3 0.500000 0.500000 0.000000
O O4 0.636401 0.565011 0.075872
O O5 0.388872 0.250000 0.807925
O O6 0.502630 0.046614 0.834156
O O7 0.350988 0.986620 0.776179
O O8 0.500000 0.500000 0.500000
O O9 0.493129 0.750000 0.567421
O O10 0.416913 0.519751 0.630728
O O11 0.585944 0.535050 0.627690
O O12 0.377243 0.750000 0.147555
O O13 0.348778 0.519636 0.232554
O O14 0.250000 0.553543 0.655836
O O15 0.136081 0.750000 0.702620
O O16 0.250000 0.426010 0.343482
O O17 0.366431 0.250000 0.280657
#
# Coordination Sequence:
#
# PCOD8241412 Si02
#       6
#     8   8   8   8   8   8
#     4   9  17  29  48  78 113 151 196 241 284 331
#     4   9  18  32  52  80 112 148 190 233 277 328
#     4  10  22  40  61  86 114 145 180 226 278 337
#     4  10  19  32  53  82 114 150 193 237 286 338
#     4  10  21  37  58  84 113 147 186 226 275 332
#     4  10  21  38  60  85 113 149 190 230 280 339
#
# _framework density 19.626470000000001
#
# number of rings (size 3 to 8) (size 9 to 14) (size 15 to 20)
#    0.000    2.333    1.667    2.000    0.000    6.000 
#    0.000    0.833    0.000    1.000    0.000    0.000 
#    0.000    0.000    0.000    0.000    0.000    0.000 
#
# Total GULP energy -595070.528723 kJ/mol
# GULP energy per Si atom -12397.302682 kJ/mol
# Density = 1.958180 g / cm^3
# Si number density = 19.626470 Si / 1000 Ang^3
#
#
#
# Elastic Constant Matrix: (Units=GPa)
#
#
# Indices 1 2 3 4 5 6 
#
# 1 104.7142 37.6919 60.5023 0.0000 0.0000 0.0000
# 2 37.6919 83.9730 62.1402 0.0000 0.0000 0.0000
# 3 60.5023 62.1402 150.5410 0.0000 0.0000 0.0000
# 4 0.0000 0.0000 0.0000 41.9691 0.0000 0.0000
# 5 0.0000 0.0000 0.0000 0.0000 6.7180 0.0000
# 6 0.0000 0.0000 0.0000 0.0000 0.0000 16.9808
#
#
#
# Elastic Compliance Matrix: (Units=1/GPa)
#
#
# Indices 1 2 3 4 5 6 
#
# 1 0.012882 -0.002809 -0.004018 0.000000 0.000000 0.000000
# 2 -0.002809 0.017759 -0.006201 0.000000 0.000000 0.000000
# 3 -0.004018 -0.006201 0.010817 0.000000 0.000000 0.000000
# 4 0.000000 0.000000 0.000000 0.023827 0.000000 0.000000
# 5 0.000000 0.000000 0.000000 0.000000 0.148853 0.000000
# 6 0.000000 0.000000 0.000000 0.000000 0.000000 0.058890
#
#
# Mechanical properties :
#
#
# Convention : Reuss Voigt Hill
#
# Bulk Modulus (GPa) = 64.92886 73.32188 69.12537
# Shear Modulus (GPa) = 16.43554 25.05983 20.74768
#
# Velocity S-wave (km/s) = 2.89695 3.57716 3.25488
# Velocity P-wave (km/s) = 6.65912 7.38250 7.03012
#
# Compressibility (1/GPa) = 0.01540147
#
# Stress axis : x y z
#
# Youngs Moduli (GPa) = 77.62514 56.31103 92.44468
#
# Poissons Ratio (x) = 0.15819 0.37143
# Poissons Ratio (y) = 0.21806 0.57328
# Poissons Ratio (z) = 0.31189 0.34920
#
# Static dielectric constant tensor:
#      x y z
#    x 3.546610 0.000000 0.000000 
#    y 0.000000 3.566270 0.000000 
#    z 0.000000 0.000000 3.797840 
# 
# 
# High freq. dielectric constant tensor:
#      x y z
#    x 1.750570 0.000000 0.000000 
#    y 0.000000 1.763270 0.000000 
#    z 0.000000 0.000000 1.761750 
# 
# From -- ./inp_files/27393.got.cif
#   From: 2010.03.12/outbox.cif.g09.slc.cpg/sg59_14_cif.got.tgz:27393.got - 2010.04.16 16:29:54.
