data_PCOD8241096
_publ_section_title
;
Structure prediction by ZEFSAII (Michael W. Deem and Ramdas Pophale) SiO2 
 PCOD8241096
Probable space group: P M M N
;
_chemical_formula_sum "Si O2"
_cell_formula_units_Z 64
_cell_length_a 9.083286
_cell_length_b 22.560075
_cell_length_c 17.754635
_cell_angle_alpha 90.000000
_cell_angle_beta 90.000000
_cell_angle_gamma 90.000000
_cell_volume 3638.272940
_symmetry_space_group_name_H-M "P M M N"
_symmetry_group_IT_number 59
_space_group.IT_coordinate_system_code '2'
_symmetry_cell_setting 'orthorhombic'
loop_
_space_group_symop_operation_xyz
x,y,z
1/2-x,1/2-y,z
1/2+x,-y,-z
-x,1/2+y,-z
-x,-y,-z
1/2+x,1/2+y,-z
1/2-x,y,z
x,1/2-y,z
loop_
_atom_site_type_symbol
_atom_site_label
_atom_site_fract_x
_atom_site_fract_y
_atom_site_fract_z
Si Si1 0.923877 0.913044 0.652480
Si Si2 0.918792 0.560564 0.492717
Si Si3 0.082023 0.350868 0.094737
Si Si4 0.075062 0.315367 0.930400
Si Si5 0.921649 0.919766 0.173177
Si Si6 0.579331 0.317377 0.242638
Si Si7 0.917388 0.988223 0.923053
Si Si8 0.920029 0.961438 0.332498
O O1 0.750000 0.912018 0.669006
O O2 0.962076 0.897427 0.563777
O O3 0.997280 0.862351 0.702103
O O4 0.982806 0.978875 0.671756
O O5 0.750000 0.545279 0.503134
O O6 0.952247 0.580650 0.406374
O O7 0.000000 0.500000 0.500000
O O8 0.250000 0.328501 0.103632
O O9 0.073262 0.420949 0.102765
O O10 0.983820 0.320906 0.158448
O O11 0.016962 0.332610 0.013279
O O12 0.250000 0.317656 0.931556
O O13 0.017445 0.250000 0.908894
O O14 0.015323 0.360758 0.867158
O O15 0.750000 0.927538 0.154092
O O16 0.952177 0.917858 0.262458
O O17 0.006916 0.976484 0.143619
O O18 0.750000 0.334933 0.240427
O O19 0.557545 0.250000 0.271873
O O20 0.750000 0.008825 0.933941
O O21 0.000000 0.000000 0.000000
O O22 0.750000 0.982347 0.332006
#
# Coordination Sequence:
#
# PCOD8241096 Si02
#       8
#     8   8   8   8   8   8   8   8
#     4  10  19  32  52  75 102 132 167 205 246 302
#     4   8  15  28  47  74 102 129 157 190 236 291
#     4  10  20  35  54  73  95 126 166 207 248 297
#     4   9  17  31  50  69  91 123 164 203 236 279
#     4  10  19  32  49  73 101 130 163 199 245 294
#     4  11  24  38  51  71 100 133 172 215 257 302
#     4  11  21  33  50  73 100 128 161 202 248 299
#     4   9  17  30  51  77 107 134 159 200 254 304
#
# _framework density 17.590764
#
# number of rings (size 3 to 8) (size 9 to 14) (size 15 to 20)
#    0.000    2.250    1.250    2.250    0.000    5.500 
#    0.000    0.000    0.000    1.125    0.000    3.500 
#    0.000    0.000    0.000    0.000    0.000    0.000 
#
# Total GULP energy -793060.783846 kJ/mol
# GULP energy per Si atom -12391.574748 kJ/mol
# Density = 1.755073 g / cm^3
# Si number density = 17.590764 Si / 1000 Ang^3
#
#
#
# Elastic Constant Matrix: (Units=GPa)
#
#
# Indices 1 2 3 4 5 6 
#
# 1 66.3601 30.0282 45.6123 0.0000 0.0000 0.0000
# 2 30.0282 85.2552 58.1422 0.0000 0.0000 0.0000
# 3 45.6123 58.1422 157.0482 0.0000 0.0000 0.0000
# 4 0.0000 0.0000 0.0000 15.5454 0.0000 0.0000
# 5 0.0000 0.0000 0.0000 0.0000 20.6317 0.0000
# 6 0.0000 0.0000 0.0000 0.0000 0.0000 17.0892
#
#
#
# Elastic Compliance Matrix: (Units=1/GPa)
#
#
# Indices 1 2 3 4 5 6 
#
# 1 0.019840 -0.004091 -0.004248 0.000000 0.000000 0.000000
# 2 -0.004091 0.016535 -0.004933 0.000000 0.000000 0.000000
# 3 -0.004248 -0.004933 0.009428 0.000000 0.000000 0.000000
# 4 0.000000 0.000000 0.000000 0.064328 0.000000 0.000000
# 5 0.000000 0.000000 0.000000 0.000000 0.048469 0.000000
# 6 0.000000 0.000000 0.000000 0.000000 0.000000 0.058516
#
#
# Mechanical properties :
#
#
# Convention : Reuss Voigt Hill
#
# Bulk Modulus (GPa) = 51.92571 64.02545 57.97558
# Shear Modulus (GPa) = 19.99364 22.31198 21.15281
#
# Velocity S-wave (km/s) = 3.37501 3.56531 3.47146
# Velocity P-wave (km/s) = 6.69107 7.30923 7.00697
#
# Compressibility (1/GPa) = 0.01925828
#
# Stress axis : x y z
#
# Youngs Moduli (GPa) = 50.40278 60.47816 106.07229
#
# Poissons Ratio (x) = 0.24743 0.45056
# Poissons Ratio (y) = 0.20621 0.52329
# Poissons Ratio (z) = 0.21409 0.29836
#
# Static dielectric constant tensor:
#      x y z
#    x 3.129890 0.000000 0.000000 
#    y 0.000000 3.091090 0.000000 
#    z 0.000000 0.000000 4.683360 
# 
# 
# High freq. dielectric constant tensor:
#      x y z
#    x 1.672880 0.000000 0.000000 
#    y 0.000000 1.652350 0.000000 
#    z 0.000000 0.000000 1.695350 
# 
# From -- ./inp_files/26165.got.cif
#   From: 2010.03.12/outbox.cif.g09.slc.cpg/sg59_14_cif.got.tgz:26165.got - 2010.04.16 16:29:54.
