data_PCOD8241817
_publ_section_title
;
Structure prediction by ZEFSAII (Michael W. Deem and Ramdas Pophale) SiO2 
 PCOD8241817
Probable space group: P M M N
;
_chemical_formula_sum "Si O2"
_cell_formula_units_Z 56
_cell_length_a 13.404036
_cell_length_b 27.397664
_cell_length_c 9.415482
_cell_angle_alpha 90.000000
_cell_angle_beta 90.000000
_cell_angle_gamma 90.000000
_cell_volume 3457.734779
_symmetry_space_group_name_H-M "P M M N"
_symmetry_group_IT_number 59
_space_group.IT_coordinate_system_code '2'
_symmetry_cell_setting 'orthorhombic'
loop_
_space_group_symop_operation_xyz
x,y,z
1/2-x,1/2-y,z
1/2+x,-y,-z
-x,1/2+y,-z
-x,-y,-z
1/2+x,1/2+y,-z
1/2-x,y,z
x,1/2-y,z
loop_
_atom_site_type_symbol
_atom_site_label
_atom_site_fract_x
_atom_site_fract_y
_atom_site_fract_z
Si Si1 0.865224 0.306216 0.267773
Si Si2 0.631213 0.391810 0.754207
Si Si3 0.362277 0.989566 0.639914
Si Si4 0.451828 0.609429 0.558006
Si Si5 0.868363 0.196316 0.948938
Si Si6 0.136865 0.446104 0.369037
Si Si7 0.466951 0.511645 0.158038
O O1 0.750000 0.321400 0.282273
O O2 0.879881 0.250000 0.310953
O O3 0.929614 0.338298 0.374918
O O4 0.905204 0.315567 0.108280
O O5 0.750000 0.392340 0.731421
O O6 0.575386 0.389573 0.605971
O O7 0.593412 0.344659 0.841212
O O8 0.598581 0.439357 0.841863
O O9 0.250000 0.996541 0.695776
O O10 0.389030 0.932424 0.638490
O O11 0.374696 0.009451 0.480267
O O12 0.434410 0.018794 0.745748
O O13 0.569602 0.598997 0.578288
O O14 0.750000 0.197408 0.952305
O O15 0.907965 0.250000 0.901516
O O16 0.250000 0.427346 0.357120
O O17 0.099944 0.467092 0.218083
O O18 0.500000 0.500000 0.000000
#
# Coordination Sequence:
#
# PCOD8241817 Si02
#       7
#     8   8   8   8   8   8   8
#     4   9  18  32  50  75 104 131 163 205 251 303
#     4  11  20  31  49  73 104 135 166 205 247 293
#     4  10  19  34  52  70  98 137 169 201 246 295
#     4  11  19  32  52  77  97 127 171 205 249 299
#     4   8  17  32  47  67  99 135 163 193 243 299
#     4  10  20  37  54  69 101 138 170 209 252 294
#     4  11  22  33  47  74 105 133 169 208 247 301
#
# _framework density 16.195574000000001
#
# number of rings (size 3 to 8) (size 9 to 14) (size 15 to 20)
#    0.000    2.000    2.857    3.429    4.000    1.714 
#    0.000    1.429    0.000    0.429    0.000    0.000 
#    0.000    0.571    0.000    0.000    0.000    0.000 
#
# Total GULP energy -694417.235760 kJ/mol
# GULP energy per Si atom -12400.307781 kJ/mol
# Density = 1.615871 g / cm^3
# Si number density = 16.195574 Si / 1000 Ang^3
#
#
#
# Elastic Constant Matrix: (Units=GPa)
#
#
# Indices 1 2 3 4 5 6 
#
# 1 102.3444 38.1471 39.6372 0.0000 0.0000 0.0000
# 2 38.1471 92.1120 45.5702 0.0000 0.0000 0.0000
# 3 39.6372 45.5702 96.1948 0.0000 0.0000 0.0000
# 4 0.0000 0.0000 0.0000 29.1992 0.0000 0.0000
# 5 0.0000 0.0000 0.0000 0.0000 20.3137 0.0000
# 6 0.0000 0.0000 0.0000 0.0000 0.0000 22.4823
#
#
#
# Elastic Compliance Matrix: (Units=1/GPa)
#
#
# Indices 1 2 3 4 5 6 
#
# 1 0.012393 -0.003404 -0.003494 0.000000 0.000000 0.000000
# 2 -0.003404 0.015114 -0.005758 0.000000 0.000000 0.000000
# 3 -0.003494 -0.005758 0.014563 0.000000 0.000000 0.000000
# 4 0.000000 0.000000 0.000000 0.034248 0.000000 0.000000
# 5 0.000000 0.000000 0.000000 0.000000 0.049228 0.000000
# 6 0.000000 0.000000 0.000000 0.000000 0.000000 0.044479
#
#
# Mechanical properties :
#
#
# Convention : Reuss Voigt Hill
#
# Bulk Modulus (GPa) = 59.66837 59.70669 59.68753
# Shear Modulus (GPa) = 24.88528 25.55216 25.21872
#
# Velocity S-wave (km/s) = 3.92414 3.97637 3.95034
# Velocity P-wave (km/s) = 7.57985 7.61762 7.59876
#
# Compressibility (1/GPa) = 0.01675930
#
# Stress axis : x y z
#
# Youngs Moduli (GPa) = 80.69188 66.16208 68.66799
#
# Poissons Ratio (x) = 0.22520 0.23993
# Poissons Ratio (y) = 0.27465 0.39536
# Poissons Ratio (z) = 0.28194 0.38093
#
# Static dielectric constant tensor:
#      x y z
#    x 3.014270 0.000000 0.000000 
#    y 0.000000 3.144120 0.000000 
#    z 0.000000 0.000000 3.066240 
# 
# 
# High freq. dielectric constant tensor:
#      x y z
#    x 1.601650 0.000000 0.000000 
#    y 0.000000 1.612800 0.000000 
#    z 0.000000 0.000000 1.624420 
# 
# From -- ./inp_files/9717.got.cif
#   From: 2010.03.12/outbox.cif.g09.slc.cpg/sg59_5_cif.got.tgz:9717.got - 2010.04.16 16:29:54.
