data_PCOD8241052
_publ_section_title
;
Structure prediction by ZEFSAII (Michael W. Deem and Ramdas Pophale) SiO2 
 PCOD8241052
Probable space group: P M M N
;
_chemical_formula_sum "Si O2"
_cell_formula_units_Z 64
_cell_length_a 9.052919
_cell_length_b 25.300826
_cell_length_c 18.370079
_cell_angle_alpha 90.000000
_cell_angle_beta 90.000000
_cell_angle_gamma 90.000000
_cell_volume 4207.599148
_symmetry_space_group_name_H-M "P M M N"
_symmetry_group_IT_number 59
_space_group.IT_coordinate_system_code '2'
_symmetry_cell_setting 'orthorhombic'
loop_
_space_group_symop_operation_xyz
x,y,z
1/2-x,1/2-y,z
1/2+x,-y,-z
-x,1/2+y,-z
-x,-y,-z
1/2+x,1/2+y,-z
1/2-x,y,z
x,1/2-y,z
loop_
_atom_site_type_symbol
_atom_site_label
_atom_site_fract_x
_atom_site_fract_y
_atom_site_fract_z
Si Si1 0.917471 0.010042 0.574337
Si Si2 0.423536 0.999266 0.922250
Si Si3 0.079653 0.810734 0.069016
Si Si4 0.924486 0.397275 0.170820
Si Si5 0.918786 0.546679 0.713903
Si Si6 0.578865 0.688427 0.920717
Si Si7 0.580627 0.606664 0.159309
Si Si8 0.420174 0.053193 0.698328
O O1 0.750000 0.026449 0.557370
O O2 0.993860 0.058220 0.620606
O O3 0.925095 0.956709 0.624890
O O4 0.000000 0.000000 0.500000
O O5 0.250000 0.996483 0.934677
O O6 0.468028 0.052332 0.879334
O O7 0.475101 0.946875 0.878711
O O8 0.500000 0.000000 0.000000
O O9 0.250000 0.822463 0.051077
O O10 0.054993 0.750000 0.090869
O O11 0.025947 0.845996 0.136103
O O12 0.983065 0.826818 0.999624
O O13 0.750000 0.392977 0.179296
O O14 0.998772 0.402929 0.251240
O O15 0.986995 0.343085 0.139004
O O16 0.750000 0.544786 0.740933
O O17 0.009675 0.495845 0.743470
O O18 0.750000 0.672389 0.917805
O O19 0.554688 0.750000 0.904417
O O20 0.750000 0.620159 0.139742
O O21 0.562678 0.602766 0.247401
O O22 0.250000 0.041068 0.681303
#
# Coordination Sequence:
#
# PCOD8241052 Si02
#       8
#     8   8   8   8   8   8   8   8
#     4   9  17  27  43  66  94 129 160 186 217 262
#     4  10  20  30  39  59  85 111 143 179 221 269
#     4  10  21  35  49  66  87 114 154 201 243 281
#     4  11  20  32  48  65  89 119 150 188 232 275
#     4   9  18  29  43  65  91 122 153 180 218 267
#     4  10  21  36  51  66  86 115 154 199 242 283
#     4  10  19  32  47  63  88 120 152 186 230 278
#     4   9  16  29  45  63  90 121 151 185 221 264
#
# _framework density 15.210575
#
# number of rings (size 3 to 8) (size 9 to 14) (size 15 to 20)
#    0.750    1.500    1.250    2.625    0.000    6.000 
#    0.000    0.000    0.000    0.000    0.000    0.000 
#    0.000    1.000    0.000    5.500    0.000    4.125 
#
# Total GULP energy -793075.540813 kJ/mol
# GULP energy per Si atom -12391.805325 kJ/mol
# Density = 1.517595 g / cm^3
# Si number density = 15.210575 Si / 1000 Ang^3
#
#
#
# Elastic Constant Matrix: (Units=GPa)
#
#
# Indices 1 2 3 4 5 6 
#
# 1 108.1327 35.7130 50.3018 0.0000 0.0000 0.0000
# 2 35.7130 50.6923 30.6469 0.0000 0.0000 0.0000
# 3 50.3018 30.6469 88.2063 0.0000 0.0000 0.0000
# 4 0.0000 0.0000 0.0000 15.7937 0.0000 0.0000
# 5 0.0000 0.0000 0.0000 0.0000 27.7996 0.0000
# 6 0.0000 0.0000 0.0000 0.0000 0.0000 24.5028
#
#
#
# Elastic Compliance Matrix: (Units=1/GPa)
#
#
# Indices 1 2 3 4 5 6 
#
# 1 0.014056 -0.006401 -0.005792 0.000000 0.000000 0.000000
# 2 -0.006401 0.027887 -0.006039 0.000000 0.000000 0.000000
# 3 -0.005792 -0.006039 0.016738 0.000000 0.000000 0.000000
# 4 0.000000 0.000000 0.000000 0.063316 0.000000 0.000000
# 5 0.000000 0.000000 0.000000 0.000000 0.035972 0.000000
# 6 0.000000 0.000000 0.000000 0.000000 0.000000 0.040812
#
#
# Mechanical properties :
#
#
# Convention : Reuss Voigt Hill
#
# Bulk Modulus (GPa) = 45.00857 53.37272 49.19065
# Shear Modulus (GPa) = 20.60566 22.31053 21.45810
#
# Velocity S-wave (km/s) = 3.68461 3.83401 3.76005
# Velocity P-wave (km/s) = 6.91060 7.40033 7.15965
#
# Compressibility (1/GPa) = 0.02221799
#
# Stress axis : x y z
#
# Youngs Moduli (GPa) = 71.14244 35.85841 59.74348
#
# Poissons Ratio (x) = 0.22954 0.34603
# Poissons Ratio (y) = 0.45539 0.36079
# Poissons Ratio (z) = 0.41205 0.21655
#
# Static dielectric constant tensor:
#      x y z
#    x 3.044290 0.000000 0.000000 
#    y 0.000000 2.694860 0.000000 
#    z 0.000000 0.000000 2.800630 
# 
# 
# High freq. dielectric constant tensor:
#      x y z
#    x 1.602290 0.000000 0.000000 
#    y 0.000000 1.546220 0.000000 
#    z 0.000000 0.000000 1.567850 
# 
# From -- ./inp_files/26630.got.cif
#   From: 2010.03.12/outbox.cif.g09.slc.cpg/sg59_14_cif.got.tgz:26630.got - 2010.04.16 16:29:54.
