data_PCOD8241339
_publ_section_title
;
Structure prediction by ZEFSAII (Michael W. Deem and Ramdas Pophale) SiO2 
 PCOD8241339
Probable space group: P M M N
;
_chemical_formula_sum "Si O2"
_cell_formula_units_Z 48
_cell_length_a 15.326958
_cell_length_b 9.190629
_cell_length_c 17.071829
_cell_angle_alpha 90.000000
_cell_angle_beta 90.000000
_cell_angle_gamma 90.000000
_cell_volume 2404.812687
_symmetry_space_group_name_H-M "P M M N"
_symmetry_group_IT_number 59
_space_group.IT_coordinate_system_code '2'
_symmetry_cell_setting 'orthorhombic'
loop_
_space_group_symop_operation_xyz
x,y,z
1/2-x,1/2-y,z
1/2+x,-y,-z
-x,1/2+y,-z
-x,-y,-z
1/2+x,1/2+y,-z
1/2-x,y,z
x,1/2-y,z
loop_
_atom_site_type_symbol
_atom_site_label
_atom_site_fract_x
_atom_site_fract_y
_atom_site_fract_z
Si Si1 0.648469 0.916492 0.644047
Si Si2 0.853932 0.085691 0.494351
Si Si3 0.399270 0.084032 0.183918
Si Si4 0.750000 0.422999 0.905651
Si Si5 0.352444 0.080893 0.658266
Si Si6 0.094348 0.917926 0.809665
Si Si7 0.250000 0.922130 0.918087
O O1 0.750000 0.948063 0.657971
O O2 0.632382 0.750000 0.619962
O O3 0.600051 0.957693 0.724320
O O4 0.609480 0.014700 0.574237
O O5 0.750000 0.078674 0.496204
O O6 0.888475 0.250000 0.488244
O O7 0.888739 0.996189 0.419893
O O8 0.366044 0.250000 0.173818
O O9 0.498088 0.065712 0.152930
O O10 0.337086 0.978285 0.136051
O O11 0.750000 0.250000 0.902671
O O12 0.750000 0.485048 0.994141
O O13 0.250000 0.052394 0.668462
O O14 0.374720 0.250000 0.652353
O O15 0.401300 0.012912 0.731852
O O16 0.114097 0.750000 0.787793
O O17 0.163758 0.977487 0.872932
O O18 0.250000 0.750000 0.922727
#
# Coordination Sequence:
#
# PCOD8241339 Si02
#       7
#     8   8   8   4   8   8   4
#     4   9  16  30  51  74 107 144 182 233 287 332
#     4   9  17  28  47  77 109 145 193 235 276 333
#     4  10  21  38  60  87 115 150 193 236 286 342
#     4  11  23  39  61  86 117 152 185 229 288 347
#     4  10  19  32  52  80 115 151 190 236 288 336
#     4  10  20  37  62  85 113 152 193 236 284 342
#     4   9  20  39  61  88 117 148 185 231 288 343
#
# _framework density 19.959973000000002
#
# number of rings (size 3 to 8) (size 9 to 14) (size 15 to 20)
#    0.000    2.333    1.667    1.250    0.000    4.667 
#    0.000    2.500    0.000    0.000    0.000    0.000 
#    0.000    0.000    0.000    0.000    0.000    0.000 
#
# Total GULP energy -595300.010829 kJ/mol
# GULP energy per Si atom -12402.083559 kJ/mol
# Density = 1.991454 g / cm^3
# Si number density = 19.959973 Si / 1000 Ang^3
#
#
#
# Elastic Constant Matrix: (Units=GPa)
#
#
# Indices 1 2 3 4 5 6 
#
# 1 85.8546 41.3119 51.2373 0.0000 0.0000 0.0000
# 2 41.3119 100.8290 62.4057 0.0000 0.0000 0.0000
# 3 51.2373 62.4057 134.4245 0.0000 0.0000 0.0000
# 4 0.0000 0.0000 0.0000 26.0256 0.0000 0.0000
# 5 0.0000 0.0000 0.0000 0.0000 3.3663 0.0000
# 6 0.0000 0.0000 0.0000 0.0000 0.0000 17.0960
#
#
#
# Elastic Compliance Matrix: (Units=1/GPa)
#
#
# Indices 1 2 3 4 5 6 
#
# 1 0.016116 -0.003930 -0.004318 0.000000 0.000000 0.000000
# 2 -0.003930 0.014875 -0.005407 0.000000 0.000000 0.000000
# 3 -0.004318 -0.005407 0.011595 0.000000 0.000000 0.000000
# 4 0.000000 0.000000 0.000000 0.038424 0.000000 0.000000
# 5 0.000000 0.000000 0.000000 0.000000 0.297063 0.000000
# 6 0.000000 0.000000 0.000000 0.000000 0.000000 0.058493
#
#
# Mechanical properties :
#
#
# Convention : Reuss Voigt Hill
#
# Bulk Modulus (GPa) = 65.46964 70.11309 67.79136
# Shear Modulus (GPa) = 10.66167 20.37445 15.51806
#
# Velocity S-wave (km/s) = 2.31368 3.19841 2.79132
# Velocity P-wave (km/s) = 6.32528 6.98877 6.66528
#
# Compressibility (1/GPa) = 0.01527425
#
# Stress axis : x y z
#
# Youngs Moduli (GPa) = 62.05074 67.22677 86.24136
#
# Poissons Ratio (x) = 0.26423 0.37239
# Poissons Ratio (y) = 0.24389 0.46635
# Poissons Ratio (z) = 0.26794 0.36353
#
# Static dielectric constant tensor:
#      x y z
#    x 3.445840 0.000000 0.000000 
#    y 0.000000 3.517980 0.000000 
#    z 0.000000 0.000000 3.690070 
# 
# 
# High freq. dielectric constant tensor:
#      x y z
#    x 1.768410 0.000000 0.000000 
#    y 0.000000 1.767200 0.000000 
#    z 0.000000 0.000000 1.776270 
# 
# From -- ./inp_files/27476.got.cif
#   From: 2010.03.12/outbox.cif.g09.slc.cpg/sg59_14_cif.got.tgz:27476.got - 2010.04.16 16:29:54.
