data_PCOD8241333
_publ_section_title
;
Structure prediction by ZEFSAII (Michael W. Deem and Ramdas Pophale) SiO2 
 PCOD8241333
Probable space group: P M M N
;
_chemical_formula_sum "Si O2"
_cell_formula_units_Z 48
_cell_length_a 22.946573
_cell_length_b 8.965834
_cell_length_c 12.592756
_cell_angle_alpha 90.000000
_cell_angle_beta 90.000000
_cell_angle_gamma 90.000000
_cell_volume 2590.772726
_symmetry_space_group_name_H-M "P M M N"
_symmetry_group_IT_number 59
_space_group.IT_coordinate_system_code '2'
_symmetry_cell_setting 'orthorhombic'
loop_
_space_group_symop_operation_xyz
x,y,z
1/2-x,1/2-y,z
1/2+x,-y,-z
-x,1/2+y,-z
-x,-y,-z
1/2+x,1/2+y,-z
1/2-x,y,z
x,1/2-y,z
loop_
_atom_site_type_symbol
_atom_site_label
_atom_site_fract_x
_atom_site_fract_y
_atom_site_fract_z
Si Si1 0.433277 0.075373 0.882418
Si Si2 0.510125 0.585747 0.605831
Si Si3 0.682668 0.925133 0.501257
Si Si4 0.616634 0.078614 0.686464
Si Si5 0.066105 0.578413 0.097983
Si Si6 0.116375 0.585051 0.691075
O O1 0.424464 0.250000 0.871955
O O2 0.501111 0.029927 0.861079
O O3 0.385654 0.003731 0.801868
O O4 0.414881 0.023057 0.999755
O O5 0.500000 0.500000 0.500000
O O6 0.538357 0.750000 0.586197
O O7 0.551818 0.478440 0.669851
O O8 0.450499 0.606433 0.665211
O O9 0.750000 0.965488 0.488316
O O10 0.671247 0.750000 0.497938
O O11 0.662436 0.985044 0.616903
O O12 0.648692 0.998537 0.403471
O O13 0.623247 0.250000 0.651159
O O14 0.618481 0.060299 0.814603
O O15 0.062132 0.750000 0.060859
O O16 0.144951 0.750000 0.704734
#
# Coordination Sequence:
#
# PCOD8241333 Si02
#       6
#     8   8   8   8   8   8
#     4  10  19  32  52  79 115 152 184 221 268 323
#     4  11  21  31  49  79 113 146 180 220 272 333
#     4  11  25  42  59  80 107 142 186 235 283 331
#     4  11  21  35  56  81 112 148 183 225 275 329
#     4   9  19  33  50  78 115 150 184 220 266 325
#     4  11  22  35  55  81 112 148 184 224 273 330
#
# _framework density 18.527291000000002
#
# number of rings (size 3 to 8) (size 9 to 14) (size 15 to 20)
#    0.000    1.500    3.333    2.500    0.000    4.667 
#    0.000    0.000    0.000    1.000    0.000    4.667 
#    0.000    0.000    0.000    0.000    0.000    0.000 
#
# Total GULP energy -594740.558633 kJ/mol
# GULP energy per Si atom -12390.428305 kJ/mol
# Density = 1.848512 g / cm^3
# Si number density = 18.527291 Si / 1000 Ang^3
#
#
#
# Elastic Constant Matrix: (Units=GPa)
#
#
# Indices 1 2 3 4 5 6 
#
# 1 59.6869 27.0551 29.0479 0.0000 0.0000 0.0000
# 2 27.0551 92.1604 57.2295 0.0000 0.0000 0.0000
# 3 29.0479 57.2295 107.1152 0.0000 0.0000 0.0000
# 4 0.0000 0.0000 0.0000 32.5888 0.0000 0.0000
# 5 0.0000 0.0000 0.0000 0.0000 7.2112 0.0000
# 6 0.0000 0.0000 0.0000 0.0000 0.0000 21.2117
#
#
#
# Elastic Compliance Matrix: (Units=1/GPa)
#
#
# Indices 1 2 3 4 5 6 
#
# 1 0.020141 -0.003773 -0.003446 0.000000 0.000000 0.000000
# 2 -0.003773 0.016945 -0.008030 0.000000 0.000000 0.000000
# 3 -0.003446 -0.008030 0.014561 0.000000 0.000000 0.000000
# 4 0.000000 0.000000 0.000000 0.030685 0.000000 0.000000
# 5 0.000000 0.000000 0.000000 0.000000 0.138674 0.000000
# 6 0.000000 0.000000 0.000000 0.000000 0.000000 0.047144
#
#
# Mechanical properties :
#
#
# Convention : Reuss Voigt Hill
#
# Bulk Modulus (GPa) = 47.28480 53.95861 50.62171
# Shear Modulus (GPa) = 16.35602 21.91100 19.13351
#
# Velocity S-wave (km/s) = 2.97443 3.44267 3.21708
# Velocity P-wave (km/s) = 6.11338 6.70744 6.41729
#
# Compressibility (1/GPa) = 0.02114844
#
# Stress axis : x y z
#
# Youngs Moduli (GPa) = 49.64892 59.01541 68.67820
#
# Poissons Ratio (x) = 0.22265 0.23669
# Poissons Ratio (y) = 0.18731 0.55149
# Poissons Ratio (z) = 0.17111 0.47390
#
# Static dielectric constant tensor:
#      x y z
#    x 3.097690 0.000000 0.000000 
#    y 0.000000 3.688140 0.000000 
#    z 0.000000 0.000000 3.481600 
# 
# 
# High freq. dielectric constant tensor:
#      x y z
#    x 1.669380 0.000000 0.000000 
#    y 0.000000 1.738460 0.000000 
#    z 0.000000 0.000000 1.727730 
# 
# From -- ./inp_files/14385.got.cif
#   From: 2010.03.12/outbox.cif.g09.slc.cpg/sg59_8_cif.got.tgz:14385.got - 2010.04.16 16:29:54.
