data_PCOD8241319
_publ_section_title
;
Structure prediction by ZEFSAII (Michael W. Deem and Ramdas Pophale) SiO2 
 PCOD8241319
Probable space group: P M M N
;
_chemical_formula_sum "Si O2"
_cell_formula_units_Z 64
_cell_length_a 24.050010
_cell_length_b 8.828919
_cell_length_c 16.359649
_cell_angle_alpha 90.000000
_cell_angle_beta 90.000000
_cell_angle_gamma 90.000000
_cell_volume 3473.735727
_symmetry_space_group_name_H-M "P M M N"
_symmetry_group_IT_number 59
_space_group.IT_coordinate_system_code '2'
_symmetry_cell_setting 'orthorhombic'
loop_
_space_group_symop_operation_xyz
x,y,z
1/2-x,1/2-y,z
1/2+x,-y,-z
-x,1/2+y,-z
-x,-y,-z
1/2+x,1/2+y,-z
1/2-x,y,z
x,1/2-y,z
loop_
_atom_site_type_symbol
_atom_site_label
_atom_site_fract_x
_atom_site_fract_y
_atom_site_fract_z
Si Si1 0.622114 0.427727 0.120048
Si Si2 0.813393 0.572189 0.975522
Si Si3 0.391108 0.577953 0.629565
Si Si4 0.089017 0.430124 0.295190
Si Si5 0.186480 0.572409 0.197612
Si Si6 0.025777 0.928210 0.767367
Si Si7 0.314642 0.079623 0.740162
Si Si8 0.445851 0.924301 0.462867
O O1 0.622188 0.250000 0.100605
O O2 0.561380 0.485651 0.153540
O O3 0.666340 0.462613 0.190645
O O4 0.640537 0.516709 0.039491
O O5 0.750000 0.531232 0.003341
O O6 0.819807 0.750000 0.964033
O O7 0.828072 0.494141 0.890527
O O8 0.376820 0.750000 0.654776
O O9 0.444999 0.523456 0.682042
O O10 0.340478 0.468491 0.653350
O O11 0.399497 0.565033 0.533192
O O12 0.093412 0.250000 0.295180
O O13 0.146650 0.499560 0.264957
O O14 0.077696 0.484513 0.386625
O O15 0.037970 0.487195 0.236440
O O16 0.250000 0.533587 0.221743
O O17 0.176087 0.750000 0.194865
O O18 0.024473 0.750000 0.773294
O O19 0.250000 0.067982 0.729291
O O20 0.332894 0.250000 0.764316
O O21 0.458028 0.750000 0.439221
O O22 0.500000 0.000000 0.500000
#
# Coordination Sequence:
#
# PCOD8241319 Si02
#       8
#     8   8   8   8   8   8   8   8
#     4  10  19  32  52  78 110 146 184 222 267 324
#     4  10  20  35  56  82 110 141 183 233 279 323
#     4   9  18  34  52  73 105 141 180 221 265 318
#     4  11  21  37  60  85 113 144 182 228 280 333
#     4  10  22  41  62  84 110 141 182 230 279 333
#     4   8  16  32  51  76 110 144 176 218 266 317
#     4  10  20  32  47  72 107 143 181 225 271 320
#     4  11  21  35  56  84 113 142 182 228 274 326
#
# _framework density 18.423971000000002
#
# number of rings (size 3 to 8) (size 9 to 14) (size 15 to 20)
#    0.000    2.125    1.250    3.375    0.000    5.000 
#    0.000    3.125    0.000    0.750    0.000    0.000 
#    0.000    0.000    0.000    0.000    0.000    0.000 
#
# Total GULP energy -793362.284479 kJ/mol
# GULP energy per Si atom -12396.285695 kJ/mol
# Density = 1.838204 g / cm^3
# Si number density = 18.423971 Si / 1000 Ang^3
#
#
#
# Elastic Constant Matrix: (Units=GPa)
#
#
# Indices 1 2 3 4 5 6 
#
# 1 97.7903 50.3811 65.8561 0.0000 0.0000 0.0000
# 2 50.3811 74.9881 40.6063 0.0000 0.0000 0.0000
# 3 65.8561 40.6063 107.2110 0.0000 0.0000 0.0000
# 4 0.0000 0.0000 0.0000 31.9936 0.0000 0.0000
# 5 0.0000 0.0000 0.0000 0.0000 28.5172 0.0000
# 6 0.0000 0.0000 0.0000 0.0000 0.0000 29.0673
#
#
#
# Elastic Compliance Matrix: (Units=1/GPa)
#
#
# Indices 1 2 3 4 5 6 
#
# 1 0.021514 -0.009181 -0.009738 0.000000 0.000000 0.000000
# 2 -0.009181 0.020694 -0.002198 0.000000 0.000000 0.000000
# 3 -0.009738 -0.002198 0.016142 0.000000 0.000000 0.000000
# 4 0.000000 0.000000 0.000000 0.031256 0.000000 0.000000
# 5 0.000000 0.000000 0.000000 0.000000 0.035067 0.000000
# 6 0.000000 0.000000 0.000000 0.000000 0.000000 0.034403
#
#
# Mechanical properties :
#
#
# Convention : Reuss Voigt Hill
#
# Bulk Modulus (GPa) = 62.05343 65.96403 64.00873
# Shear Modulus (GPa) = 24.19175 26.12536 25.15856
#
# Velocity S-wave (km/s) = 3.62755 3.76973 3.69932
# Velocity P-wave (km/s) = 7.16236 7.40466 7.28452
#
# Compressibility (1/GPa) = 0.01611515
#
# Stress axis : x y z
#
# Youngs Moduli (GPa) = 46.48147 48.32266 61.95140
#
# Poissons Ratio (x) = 0.44366 0.60328
# Poissons Ratio (y) = 0.42675 0.13619
# Poissons Ratio (z) = 0.45263 0.10623
#
# Static dielectric constant tensor:
#      x y z
#    x 3.551150 0.000000 0.000000 
#    y 0.000000 3.499920 0.000000 
#    z 0.000000 0.000000 3.330790 
# 
# 
# High freq. dielectric constant tensor:
#      x y z
#    x 1.707030 0.000000 0.000000 
#    y 0.000000 1.718200 0.000000 
#    z 0.000000 0.000000 1.704790 
# 
# From -- ./inp_files/24776.got.cif
#   From: 2010.03.12/outbox.cif.g09.slc.cpg/sg59_13_cif.got.tgz:24776.got - 2010.04.16 16:29:54.
