data_PCOD8241415
_publ_section_title
;
Structure prediction by ZEFSAII (Michael W. Deem and Ramdas Pophale) SiO2 
 PCOD8241415
Probable space group: P M M N
;
_chemical_formula_sum "Si O2"
_cell_formula_units_Z 64
_cell_length_a 14.801697
_cell_length_b 23.810279
_cell_length_c 9.363547
_cell_angle_alpha 90.000000
_cell_angle_beta 90.000000
_cell_angle_gamma 90.000000
_cell_volume 3300.018608
_symmetry_space_group_name_H-M "P M M N"
_symmetry_group_IT_number 59
_space_group.IT_coordinate_system_code '2'
_symmetry_cell_setting 'orthorhombic'
loop_
_space_group_symop_operation_xyz
x,y,z
1/2-x,1/2-y,z
1/2+x,-y,-z
-x,1/2+y,-z
-x,-y,-z
1/2+x,1/2+y,-z
1/2-x,y,z
x,1/2-y,z
loop_
_atom_site_type_symbol
_atom_site_label
_atom_site_fract_x
_atom_site_fract_y
_atom_site_fract_z
Si Si1 0.850466 0.928367 0.289822
Si Si2 0.031949 0.813037 0.549160
Si Si3 0.527105 0.014143 0.780614
Si Si4 0.147678 0.909409 0.051099
Si Si5 0.850247 0.811496 0.403553
Si Si6 0.355178 0.814550 0.273371
Si Si7 0.921228 0.089558 0.255158
Si Si8 0.350274 0.983022 0.488913
O O1 0.750000 0.943179 0.228050
O O2 0.864359 0.861153 0.289211
O O3 0.929989 0.955639 0.197318
O O4 0.858003 0.953010 0.452276
O O5 0.063779 0.750000 0.584403
O O6 0.086011 0.834495 0.409125
O O7 0.051481 0.850103 0.686434
O O8 0.924588 0.816537 0.526411
O O9 0.589534 0.035436 0.908767
O O10 0.574321 0.029712 0.629633
O O11 0.510203 0.947194 0.787041
O O12 0.250000 0.924074 0.087883
O O13 0.117088 0.854528 0.141307
O O14 0.138297 0.897664 0.883733
O O15 0.750000 0.817165 0.472335
O O16 0.860630 0.750000 0.327895
O O17 0.250000 0.821106 0.313235
O O18 0.377893 0.750000 0.232027
O O19 0.863945 0.056644 0.373928
O O20 0.250000 0.971943 0.424997
#
# Coordination Sequence:
#
# PCOD8241415 Si02
#       8
#     8   8   8   8   8   8   8   8
#     4   9  17  29  48  75 102 132 170 215 264 308
#     4  10  20  35  57  82 107 138 177 220 266 315
#     4  11  21  36  54  75 104 141 180 221 265 316
#     4  11  23  37  55  78 109 145 179 217 265 321
#     4   9  16  27  46  74 105 132 164 212 265 313
#     4   9  19  36  57  81 109 143 181 218 259 315
#     4  11  22  36  52  77 111 142 176 224 273 317
#     4  10  19  32  54  78 102 134 175 219 264 316
#
# _framework density 19.393829
#
# number of rings (size 3 to 8) (size 9 to 14) (size 15 to 20)
#    0.000    2.000    0.000    5.625    0.000    3.000 
#    0.000    0.625    0.000    0.750    0.000    0.000 
#    0.000    4.000    0.000    0.000    0.000    0.000 
#
# Total GULP energy -793305.532226 kJ/mol
# GULP energy per Si atom -12395.398941 kJ/mol
# Density = 1.934969 g / cm^3
# Si number density = 19.393829 Si / 1000 Ang^3
#
#
#
# Elastic Constant Matrix: (Units=GPa)
#
#
# Indices 1 2 3 4 5 6 
#
# 1 100.6424 34.7270 30.3721 0.0000 0.0000 0.0000
# 2 34.7270 105.1767 38.3085 0.0000 0.0000 0.0000
# 3 30.3721 38.3085 80.4983 0.0000 0.0000 0.0000
# 4 0.0000 0.0000 0.0000 21.6785 0.0000 0.0000
# 5 0.0000 0.0000 0.0000 0.0000 20.6369 0.0000
# 6 0.0000 0.0000 0.0000 0.0000 0.0000 22.7045
#
#
#
# Elastic Compliance Matrix: (Units=1/GPa)
#
#
# Indices 1 2 3 4 5 6 
#
# 1 0.011841 -0.002761 -0.003154 0.000000 0.000000 0.000000
# 2 -0.002761 0.012145 -0.004738 0.000000 0.000000 0.000000
# 3 -0.003154 -0.004738 0.015867 0.000000 0.000000 0.000000
# 4 0.000000 0.000000 0.000000 0.046129 0.000000 0.000000
# 5 0.000000 0.000000 0.000000 0.000000 0.048457 0.000000
# 6 0.000000 0.000000 0.000000 0.000000 0.000000 0.044044
#
#
# Mechanical properties :
#
#
# Convention : Reuss Voigt Hill
#
# Bulk Modulus (GPa) = 53.91448 54.79252 54.35350
# Shear Modulus (GPa) = 24.27536 25.19797 24.73667
#
# Velocity S-wave (km/s) = 3.54178 3.60846 3.57528
# Velocity P-wave (km/s) = 6.67726 6.75834 6.71792
#
# Compressibility (1/GPa) = 0.01854789
#
# Stress axis : x y z
#
# Youngs Moduli (GPa) = 84.45588 82.33745 63.02271
#
# Poissons Ratio (x) = 0.22732 0.19875
# Poissons Ratio (y) = 0.23317 0.29861
# Poissons Ratio (z) = 0.26634 0.39012
#
# Static dielectric constant tensor:
#      x y z
#    x 3.755330 0.000000 0.000000 
#    y 0.000000 3.826390 0.000000 
#    z 0.000000 0.000000 3.141800 
# 
# 
# High freq. dielectric constant tensor:
#      x y z
#    x 1.769250 0.000000 0.000000 
#    y 0.000000 1.764950 0.000000 
#    z 0.000000 0.000000 1.707470 
# 
# From -- ./inp_files/9593.got.cif
#   From: 2010.03.12/outbox.cif.g09.slc.cpg/sg59_5_cif.got.tgz:9593.got - 2010.04.16 16:29:54.
