data_PCOD8241355
_publ_section_title
;
Structure prediction by ZEFSAII (Michael W. Deem and Ramdas Pophale) SiO2 
 PCOD8241355
Probable space group: P M M N
;
_chemical_formula_sum "Si O2"
_cell_formula_units_Z 48
_cell_length_a 14.069804
_cell_length_b 18.342073
_cell_length_c 10.032692
_cell_angle_alpha 90.000000
_cell_angle_beta 90.000000
_cell_angle_gamma 90.000000
_cell_volume 2589.130525
_symmetry_space_group_name_H-M "P M M N"
_symmetry_group_IT_number 59
_space_group.IT_coordinate_system_code '2'
_symmetry_cell_setting 'orthorhombic'
loop_
_space_group_symop_operation_xyz
x,y,z
1/2-x,1/2-y,z
1/2+x,-y,-z
-x,1/2+y,-z
-x,-y,-z
1/2+x,1/2+y,-z
1/2-x,y,z
x,1/2-y,z
loop_
_atom_site_type_symbol
_atom_site_label
_atom_site_fract_x
_atom_site_fract_y
_atom_site_fract_z
Si Si1 0.040804 0.614643 0.979402
Si Si2 0.526580 0.334268 0.312052
Si Si3 0.141788 0.469005 0.039849
Si Si4 0.361781 0.578711 0.474891
Si Si5 0.356737 0.832159 0.227240
Si Si6 0.356873 0.065059 0.340245
O O1 0.052213 0.659374 0.843151
O O2 0.929672 0.595354 0.004840
O O3 0.106670 0.542953 0.970692
O O4 0.075827 0.664926 0.098975
O O5 0.535844 0.250000 0.356612
O O6 0.596211 0.388099 0.390876
O O7 0.420526 0.362658 0.343014
O O8 0.250000 0.450725 0.995182
O O9 0.134720 0.477967 0.199765
O O10 0.250000 0.590615 0.481879
O O11 0.402354 0.621333 0.346633
O O12 0.386670 0.492766 0.455787
O O13 0.250000 0.860099 0.190217
O O14 0.352484 0.750000 0.278685
O O15 0.250000 0.092765 0.363066
#
# Coordination Sequence:
#
# PCOD8241355 Si02
#       6
#     8   8   8   8   8   8
#     4  10  19  32  53  77 106 139 172 215 263 314
#     4  11  23  35  51  81 116 140 165 214 277 324
#     4   9  17  32  54  79 103 133 177 223 259 301
#     4  10  20  36  56  77 104 140 179 219 262 312
#     4  10  19  32  53  77 102 138 179 214 256 314
#     4   9  18  36  60  79  99 137 188 224 250 305
#
# _framework density 18.539041999999998
#
# number of rings (size 3 to 8) (size 9 to 14) (size 15 to 20)
#    0.000    2.167    1.667    2.000    0.000    2.667 
#    0.000    0.000    0.000    1.500    0.000    0.000 
#    0.000    0.000    0.000    0.000    0.000    0.000 
#
# Total GULP energy -595117.070865 kJ/mol
# GULP energy per Si atom -12398.272310 kJ/mol
# Density = 1.849685 g / cm^3
# Si number density = 18.539042 Si / 1000 Ang^3
#
#
#
# Elastic Constant Matrix: (Units=GPa)
#
#
# Indices 1 2 3 4 5 6 
#
# 1 79.1152 11.4926 18.4856 0.0000 0.0000 0.0000
# 2 11.4926 51.7295 9.0799 0.0000 0.0000 0.0000
# 3 18.4856 9.0799 48.4470 0.0000 0.0000 0.0000
# 4 0.0000 0.0000 0.0000 25.0618 0.0000 0.0000
# 5 0.0000 0.0000 0.0000 0.0000 23.1930 0.0000
# 6 0.0000 0.0000 0.0000 0.0000 0.0000 22.8010
#
#
#
# Elastic Compliance Matrix: (Units=1/GPa)
#
#
# Indices 1 2 3 4 5 6 
#
# 1 0.014130 -0.002267 -0.004966 0.000000 0.000000 0.000000
# 2 -0.002267 0.020353 -0.002949 0.000000 0.000000 0.000000
# 3 -0.004966 -0.002949 0.023089 0.000000 0.000000 0.000000
# 4 0.000000 0.000000 0.000000 0.039901 0.000000 0.000000
# 5 0.000000 0.000000 0.000000 0.000000 0.043117 0.000000
# 6 0.000000 0.000000 0.000000 0.000000 0.000000 0.043858
#
#
# Mechanical properties :
#
#
# Convention : Reuss Voigt Hill
#
# Bulk Modulus (GPa) = 26.87811 28.60086 27.73949
# Shear Modulus (GPa) = 23.01869 23.56005 23.28937
#
# Velocity S-wave (km/s) = 3.52750 3.56874 3.54818
# Velocity P-wave (km/s) = 5.57859 5.69580 5.63750
#
# Compressibility (1/GPa) = 0.03720499
#
# Stress axis : x y z
#
# Youngs Moduli (GPa) = 70.77347 49.13338 43.31093
#
# Poissons Ratio (x) = 0.11140 0.21510
# Poissons Ratio (y) = 0.16047 0.12774
# Poissons Ratio (z) = 0.35149 0.14491
#
# Static dielectric constant tensor:
#      x y z
#    x 3.494140 0.000000 0.000000 
#    y 0.000000 3.238820 0.000000 
#    z 0.000000 0.000000 3.295520 
# 
# 
# High freq. dielectric constant tensor:
#      x y z
#    x 1.716710 0.000000 0.000000 
#    y 0.000000 1.710410 0.000000 
#    z 0.000000 0.000000 1.705120 
# 
# From -- ./inp_files/9027.got.cif
#   From: 2010.03.12/outbox.cif.g09.slc.cpg/sg59_5_cif.got.tgz:9027.got - 2010.04.16 16:29:54.
