data_PCOD8241791
_publ_section_title
;
Structure prediction by ZEFSAII (Michael W. Deem and Ramdas Pophale) SiO2 
 PCOD8241791
Probable space group: P M M N
;
_chemical_formula_sum "Si O2"
_cell_formula_units_Z 64
_cell_length_a 9.135380
_cell_length_b 16.105061
_cell_length_c 22.069445
_cell_angle_alpha 90.000000
_cell_angle_beta 90.000000
_cell_angle_gamma 90.000000
_cell_volume 3246.985902
_symmetry_space_group_name_H-M "P M M N"
_symmetry_group_IT_number 59
_space_group.IT_coordinate_system_code '2'
_symmetry_cell_setting 'orthorhombic'
loop_
_space_group_symop_operation_xyz
x,y,z
1/2-x,1/2-y,z
1/2+x,-y,-z
-x,1/2+y,-z
-x,-y,-z
1/2+x,1/2+y,-z
1/2-x,y,z
x,1/2-y,z
loop_
_atom_site_type_symbol
_atom_site_label
_atom_site_fract_x
_atom_site_fract_y
_atom_site_fract_z
Si Si1 0.424982 0.500171 0.935553
Si Si2 0.584156 0.346151 0.618881
Si Si3 0.912966 0.408858 0.265933
Si Si4 0.920626 0.656828 0.624647
Si Si5 0.576642 0.912466 0.495852
Si Si6 0.914206 0.901773 0.266855
Si Si7 0.923956 0.157537 0.141559
Si Si8 0.076412 0.158270 0.860098
O O1 0.250000 0.499539 0.941964
O O2 0.481343 0.584405 0.902308
O O3 0.483761 0.417055 0.901407
O O4 0.500000 0.500000 0.000000
O O5 0.750000 0.377379 0.606856
O O6 0.580885 0.250000 0.634918
O O7 0.485390 0.361640 0.560429
O O8 0.520473 0.394415 0.676178
O O9 0.750000 0.376199 0.280127
O O10 0.909044 0.503660 0.244754
O O11 0.983029 0.357177 0.210094
O O12 0.003794 0.403157 0.327500
O O13 0.750000 0.643627 0.632279
O O14 0.969829 0.750000 0.639330
O O15 0.967250 0.636525 0.556346
O O16 0.750000 0.922938 0.488226
O O17 0.500000 0.000000 0.500000
O O18 0.750000 0.871725 0.284833
O O19 0.976947 0.850742 0.209539
O O20 0.750000 0.151833 0.143705
O O21 0.975014 0.250000 0.119763
O O22 0.250000 0.151920 0.860203
O O23 0.025152 0.250000 0.883741
#
# Coordination Sequence:
#
# PCOD8241791 Si02
#       8
#     8   8   8   8   8   8   8   8
#     4  10  20  36  56  81 113 147 187 228 272 330
#     4  11  24  39  55  80 114 149 188 236 287 340
#     4  10  19  33  56  85 110 137 181 231 276 329
#     4  10  22  38  54  76 108 144 180 222 276 334
#     4  11  23  40  60  80 107 145 189 235 288 349
#     4  10  19  34  58  85 110 141 186 234 283 344
#     4   9  17  32  55  81 111 146 183 227 276 327
#     4   9  17  32  56  83 111 145 186 234 281 331
#
# _framework density 19.710588000000001
#
# number of rings (size 3 to 8) (size 9 to 14) (size 15 to 20)
#    0.000    2.000    1.250    2.625    0.000    6.750 
#    0.000    1.250    0.000    1.500    0.000    0.000 
#    0.000    0.000    0.000    0.000    0.000    0.000 
#
# Total GULP energy -793482.845777 kJ/mol
# GULP energy per Si atom -12398.169465 kJ/mol
# Density = 1.966573 g / cm^3
# Si number density = 19.710588 Si / 1000 Ang^3
#
#
#
# Elastic Constant Matrix: (Units=GPa)
#
#
# Indices 1 2 3 4 5 6 
#
# 1 47.3747 28.6550 39.3914 0.0000 0.0000 0.0000
# 2 28.6550 121.9121 59.2474 0.0000 0.0000 0.0000
# 3 39.3914 59.2474 141.7859 0.0000 0.0000 0.0000
# 4 0.0000 0.0000 0.0000 29.2422 0.0000 0.0000
# 5 0.0000 0.0000 0.0000 0.0000 32.4061 0.0000
# 6 0.0000 0.0000 0.0000 0.0000 0.0000 20.5945
#
#
#
# Elastic Compliance Matrix: (Units=1/GPa)
#
#
# Indices 1 2 3 4 5 6 
#
# 1 0.028653 -0.003597 -0.006458 0.000000 0.000000 0.000000
# 2 -0.003597 0.010744 -0.003490 0.000000 0.000000 0.000000
# 3 -0.006458 -0.003490 0.010306 0.000000 0.000000 0.000000
# 4 0.000000 0.000000 0.000000 0.034197 0.000000 0.000000
# 5 0.000000 0.000000 0.000000 0.000000 0.030858 0.000000
# 6 0.000000 0.000000 0.000000 0.000000 0.000000 0.048557
#
#
# Mechanical properties :
#
#
# Convention : Reuss Voigt Hill
#
# Bulk Modulus (GPa) = 44.22097 62.85116 53.53606
# Shear Modulus (GPa) = 25.25985 28.70046 26.98016
#
# Velocity S-wave (km/s) = 3.58374 3.82002 3.70376
# Velocity P-wave (km/s) = 6.29350 7.17028 6.74615
#
# Compressibility (1/GPa) = 0.02261371
#
# Stress axis : x y z
#
# Youngs Moduli (GPa) = 34.90012 93.07266 97.03525
#
# Poissons Ratio (x) = 0.33474 0.62662
# Poissons Ratio (y) = 0.12552 0.33870
# Poissons Ratio (z) = 0.22537 0.32487
#
# Static dielectric constant tensor:
#      x y z
#    x 3.323820 0.000000 0.000000 
#    y 0.000000 3.890040 0.000000 
#    z 0.000000 0.000000 3.472520 
# 
# 
# High freq. dielectric constant tensor:
#      x y z
#    x 1.732330 0.000000 0.000000 
#    y 0.000000 1.784940 0.000000 
#    z 0.000000 0.000000 1.771030 
# 
# From -- ./inp_files/31666.got.cif
#   From: 2010.03.12/outbox.cif.g09.slc.cpg/sg59_16_cif.got.tgz:31666.got - 2010.04.16 16:29:54.
