data_PCOD8241405
_publ_section_title
;
Structure prediction by ZEFSAII (Michael W. Deem and Ramdas Pophale) SiO2 
 PCOD8241405
Probable space group: P M M N
;
_chemical_formula_sum "Si O2"
_cell_formula_units_Z 48
_cell_length_a 21.605677
_cell_length_b 8.785166
_cell_length_c 12.454375
_cell_angle_alpha 90.000000
_cell_angle_beta 90.000000
_cell_angle_gamma 90.000000
_cell_volume 2363.958181
_symmetry_space_group_name_H-M "P M M N"
_symmetry_group_IT_number 59
_space_group.IT_coordinate_system_code '2'
_symmetry_cell_setting 'orthorhombic'
loop_
_space_group_symop_operation_xyz
x,y,z
1/2-x,1/2-y,z
1/2+x,-y,-z
-x,1/2+y,-z
-x,-y,-z
1/2+x,1/2+y,-z
1/2-x,y,z
x,1/2-y,z
loop_
_atom_site_type_symbol
_atom_site_label
_atom_site_fract_x
_atom_site_fract_y
_atom_site_fract_z
Si Si1 0.178931 0.578994 0.596973
Si Si2 0.349574 0.577028 0.364696
Si Si3 0.009528 0.921233 0.388163
Si Si4 0.905079 0.570715 0.235398
Si Si5 0.318386 0.568885 0.135618
Si Si6 0.568934 0.069765 0.013712
O O1 0.250000 0.591488 0.624070
O O2 0.148895 0.750000 0.600100
O O3 0.168597 0.501211 0.479009
O O4 0.151912 0.469765 0.687902
O O5 0.326328 0.750000 0.374217
O O6 0.422069 0.564162 0.344322
O O7 0.319510 0.502793 0.258202
O O8 0.988511 0.750000 0.408294
O O9 0.966476 0.989280 0.295496
O O10 0.000000 0.000000 0.500000
O O11 0.905853 0.750000 0.209096
O O12 0.901645 0.475321 0.126939
O O13 0.250000 0.523223 0.087328
O O14 0.324491 0.750000 0.139611
O O15 0.378334 0.507484 0.069836
O O16 0.561634 0.250000 0.003149
O O17 0.500000 0.000000 0.000000
#
# Coordination Sequence:
#
# PCOD8241405 Si02
#       6
#     8   8   8   8   8   8
#     4  10  20  34  55  83 114 151 194 235 282 349
#     4   9  16  30  54  83 114 144 181 234 292 349
#     4  10  19  32  53  81 113 146 184 230 284 350
#     4  11  23  38  57  84 117 152 191 238 295 356
#     4   9  18  34  58  87 116 150 197 252 304 352
#     4  11  23  40  63  89 120 157 201 253 304 362
#
# _framework density 20.304928
#
# number of rings (size 3 to 8) (size 9 to 14) (size 15 to 20)
#    0.000    2.000    1.667    2.500    0.000    6.333 
#    0.000    1.667    0.000    2.500    0.000    0.000 
#    0.000    0.000    0.000    0.000    0.000    0.000 
#
# Total GULP energy -594784.287863 kJ/mol
# GULP energy per Si atom -12391.339330 kJ/mol
# Density = 2.025871 g / cm^3
# Si number density = 20.304928 Si / 1000 Ang^3
#
#
#
# Elastic Constant Matrix: (Units=GPa)
#
#
# Indices 1 2 3 4 5 6 
#
# 1 121.6790 20.9764 54.6972 0.0000 0.0000 0.0000
# 2 20.9764 34.6240 20.3452 0.0000 0.0000 0.0000
# 3 54.6972 20.3452 139.7631 0.0000 0.0000 0.0000
# 4 0.0000 0.0000 0.0000 22.5834 0.0000 0.0000
# 5 0.0000 0.0000 0.0000 0.0000 27.9348 0.0000
# 6 0.0000 0.0000 0.0000 0.0000 0.0000 25.6167
#
#
#
# Elastic Compliance Matrix: (Units=1/GPa)
#
#
# Indices 1 2 3 4 5 6 
#
# 1 0.010535 -0.004330 -0.003493 0.000000 0.000000 0.000000
# 2 -0.004330 0.033363 -0.003162 0.000000 0.000000 0.000000
# 3 -0.003493 -0.003162 0.008982 0.000000 0.000000 0.000000
# 4 0.000000 0.000000 0.000000 0.044280 0.000000 0.000000
# 5 0.000000 0.000000 0.000000 0.000000 0.035798 0.000000
# 6 0.000000 0.000000 0.000000 0.000000 0.000000 0.039037
#
#
# Mechanical properties :
#
#
# Convention : Reuss Voigt Hill
#
# Bulk Modulus (GPa) = 32.35132 54.23373 43.29253
# Shear Modulus (GPa) = 24.47767 28.56346 26.52057
#
# Velocity S-wave (km/s) = 3.47580 3.75470 3.61794
# Velocity P-wave (km/s) = 5.66353 6.75016 6.23058
#
# Compressibility (1/GPa) = 0.03091064
#
# Stress axis : x y z
#
# Youngs Moduli (GPa) = 94.92363 29.97326 111.33281
#
# Poissons Ratio (x) = 0.12979 0.38883
# Poissons Ratio (y) = 0.41103 0.35203
# Poissons Ratio (z) = 0.33152 0.09478
#
# Static dielectric constant tensor:
#      x y z
#    x 3.540750 0.000000 0.000000 
#    y 0.000000 2.722160 0.000000 
#    z 0.000000 0.000000 3.783890 
# 
# 
# High freq. dielectric constant tensor:
#      x y z
#    x 1.807570 0.000000 0.000000 
#    y 0.000000 1.743950 0.000000 
#    z 0.000000 0.000000 1.803190 
# 
# From -- ./inp_files/18591.got.cif
#   From: 2010.03.12/outbox.cif.g09.slc.cpg/sg59_10_cif.got.tgz:18591.got - 2010.04.16 16:29:54.
