data_PCOD8241234
_publ_section_title
;
Structure prediction by ZEFSAII (Michael W. Deem and Ramdas Pophale) SiO2 
 PCOD8241234
Probable space group: P M M N
;
_chemical_formula_sum "Si O2"
_cell_formula_units_Z 64
_cell_length_a 9.225414
_cell_length_b 21.027900
_cell_length_c 17.302917
_cell_angle_alpha 90.000000
_cell_angle_beta 90.000000
_cell_angle_gamma 90.000000
_cell_volume 3356.611609
_symmetry_space_group_name_H-M "P M M N"
_symmetry_group_IT_number 59
_space_group.IT_coordinate_system_code '2'
_symmetry_cell_setting 'orthorhombic'
loop_
_space_group_symop_operation_xyz
x,y,z
1/2-x,1/2-y,z
1/2+x,-y,-z
-x,1/2+y,-z
-x,-y,-z
1/2+x,1/2+y,-z
1/2-x,y,z
x,1/2-y,z
loop_
_atom_site_type_symbol
_atom_site_label
_atom_site_fract_x
_atom_site_fract_y
_atom_site_fract_z
Si Si1 0.082137 0.177654 0.802262
Si Si2 0.579938 0.564181 0.910291
Si Si3 0.917665 0.010102 0.580138
Si Si4 0.418783 0.062262 0.911575
Si Si5 0.081030 0.119736 0.355818
Si Si6 0.420994 0.856780 0.352536
Si Si7 0.922793 0.822118 0.801633
Si Si8 0.909146 0.680326 0.493046
O O1 0.250000 0.168948 0.779959
O O2 0.054138 0.250000 0.832227
O O3 0.035578 0.126651 0.867232
O O4 0.985852 0.164519 0.728126
O O5 0.750000 0.554869 0.896192
O O6 0.503505 0.499684 0.879402
O O7 0.522887 0.627292 0.865807
O O8 0.540328 0.574817 0.999531
O O9 0.750000 0.014197 0.557369
O O10 0.970313 0.072290 0.625067
O O11 0.946219 0.955720 0.644465
O O12 0.000000 0.000000 0.500000
O O13 0.250000 0.047636 0.901532
O O14 0.250000 0.137257 0.357999
O O15 0.012721 0.153662 0.280667
O O16 0.012493 0.142467 0.437286
O O17 0.250000 0.847769 0.348291
O O18 0.486933 0.813567 0.419575
O O19 0.750000 0.822319 0.799952
O O20 0.978880 0.750000 0.818972
O O21 0.750000 0.650774 0.471335
O O22 0.884925 0.750000 0.526372
#
# Coordination Sequence:
#
# PCOD8241234 Si02
#       8
#     8   8   8   8   8   8   8   8
#     4  10  22  39  57  77 105 144 186 225 267 319
#     4   9  18  33  57  85 113 142 173 213 263 315
#     4  10  20  34  52  74  99 132 174 218 266 316
#     4   9  19  36  56  81 110 142 178 216 259 313
#     4   9  17  30  48  72 103 133 167 212 257 305
#     4  11  23  35  51  77 106 134 171 223 276 320
#     4   9  17  29  50  82 112 136 170 217 263 306
#     4  10  19  32  52  72  95 136 180 212 252 311
#
# _framework density 19.066848
#
# number of rings (size 3 to 8) (size 9 to 14) (size 15 to 20)
#    0.000    2.375    1.250    1.125    1.750    5.000 
#    0.000    2.500    0.000    1.125    0.000    3.500 
#    0.000    0.000    0.000    0.000    0.000    0.000 
#
# Total GULP energy -793220.179766 kJ/mol
# GULP energy per Si atom -12394.065309 kJ/mol
# Density = 1.902345 g / cm^3
# Si number density = 19.066848 Si / 1000 Ang^3
#
#
#
# Elastic Constant Matrix: (Units=GPa)
#
#
# Indices 1 2 3 4 5 6 
#
# 1 39.8411 36.0359 31.6447 0.0000 0.0000 0.0000
# 2 36.0359 159.6153 65.1151 0.0000 0.0000 0.0000
# 3 31.6447 65.1151 105.7064 0.0000 0.0000 0.0000
# 4 0.0000 0.0000 0.0000 34.1820 0.0000 0.0000
# 5 0.0000 0.0000 0.0000 0.0000 15.1658 0.0000
# 6 0.0000 0.0000 0.0000 0.0000 0.0000 24.3999
#
#
#
# Elastic Compliance Matrix: (Units=1/GPa)
#
#
# Indices 1 2 3 4 5 6 
#
# 1 0.035615 -0.004930 -0.007625 0.000000 0.000000 0.000000
# 2 -0.004930 0.009050 -0.004099 0.000000 0.000000 0.000000
# 3 -0.007625 -0.004099 0.014268 0.000000 0.000000 0.000000
# 4 0.000000 0.000000 0.000000 0.029255 0.000000 0.000000
# 5 0.000000 0.000000 0.000000 0.000000 0.065938 0.000000
# 6 0.000000 0.000000 0.000000 0.000000 0.000000 0.040984
#
#
# Mechanical properties :
#
#
# Convention : Reuss Voigt Hill
#
# Bulk Modulus (GPa) = 39.02436 63.41714 51.22075
# Shear Modulus (GPa) = 21.10059 26.24069 23.67064
#
# Velocity S-wave (km/s) = 3.33026 3.71380 3.52725
# Velocity P-wave (km/s) = 5.94131 7.19183 6.59627
#
# Compressibility (1/GPa) = 0.02562502
#
# Stress axis : x y z
#
# Youngs Moduli (GPa) = 28.07786 110.49288 70.08766
#
# Poissons Ratio (x) = 0.54475 0.53442
# Poissons Ratio (y) = 0.13843 0.28730
# Poissons Ratio (z) = 0.21409 0.45292
#
# Static dielectric constant tensor:
#      x y z
#    x 3.191560 0.000000 0.000000 
#    y 0.000000 3.633120 0.000000 
#    z 0.000000 0.000000 3.490220 
# 
# 
# High freq. dielectric constant tensor:
#      x y z
#    x 1.702650 0.000000 0.000000 
#    y 0.000000 1.761000 0.000000 
#    z 0.000000 0.000000 1.736090 
# 
# From -- ./inp_files/26189.got.cif
#   From: 2010.03.12/outbox.cif.g09.slc.cpg/sg59_14_cif.got.tgz:26189.got - 2010.04.16 16:29:54.
