data_PCOD8241897
_publ_section_title
;
Structure prediction by ZEFSAII (Michael W. Deem and Ramdas Pophale) SiO2 
 PCOD8241897
Probable space group: P M M N
;
_chemical_formula_sum "Si O2"
_cell_formula_units_Z 48
_cell_length_a 9.358987
_cell_length_b 16.173865
_cell_length_c 16.648658
_cell_angle_alpha 90.000000
_cell_angle_beta 90.000000
_cell_angle_gamma 90.000000
_cell_volume 2520.123882
_symmetry_space_group_name_H-M "P M M N"
_symmetry_group_IT_number 59
_space_group.IT_coordinate_system_code '2'
_symmetry_cell_setting 'orthorhombic'
loop_
_space_group_symop_operation_xyz
x,y,z
1/2-x,1/2-y,z
1/2+x,-y,-z
-x,1/2+y,-z
-x,-y,-z
1/2+x,1/2+y,-z
1/2-x,y,z
x,1/2-y,z
loop_
_atom_site_type_symbol
_atom_site_label
_atom_site_fract_x
_atom_site_fract_y
_atom_site_fract_z
Si Si1 0.085585 0.569553 0.226150
Si Si2 0.418816 0.158188 0.472176
Si Si3 0.920295 0.423786 0.957872
Si Si4 0.580378 0.250000 0.216233
Si Si5 0.084127 0.106253 0.301650
Si Si6 0.907015 0.652923 0.356107
Si Si7 0.418161 0.750000 0.968029
O O1 0.250000 0.593217 0.231149
O O2 0.033141 0.573883 0.134881
O O3 0.052072 0.480491 0.261779
O O4 0.004888 0.635690 0.280068
O O5 0.250000 0.164318 0.481451
O O6 0.481679 0.250000 0.455060
O O7 0.460003 0.101333 0.395875
O O8 0.474377 0.121117 0.557999
O O9 0.750000 0.435064 0.969454
O O10 0.975443 0.335012 0.991500
O O11 0.000000 0.500000 0.000000
O O12 0.750000 0.250000 0.225817
O O13 0.516560 0.330453 0.256666
O O14 0.532709 0.250000 0.123763
O O15 0.250000 0.132884 0.292377
O O16 0.750000 0.613683 0.340809
O O17 0.892549 0.750000 0.366347
O O18 0.250000 0.750000 0.977746
#
# Coordination Sequence:
#
# PCOD8241897 Si02
#       7
#     8   8   8   4   8   8   4
#     4  10  22  35  54  84 111 140 182 226 275 325
#     4   8  14  29  53  75 100 144 185 211 257 323
#     4  10  21  39  59  81 111 147 185 229 280 338
#     4  11  21  33  53  82 105 132 182 229 269 325
#     4  10  19  34  55  79 109 145 178 217 272 328
#     4   9  19  35  55  77 104 144 189 222 260 320
#     4   9  20  37  57  76 105 152 184 209 279 353
#
# _framework density 19.046683999999999
#
# number of rings (size 3 to 8) (size 9 to 14) (size 15 to 20)
#    0.000    2.500    0.833    2.250    1.167    2.333 
#    0.000    2.083    0.000    0.000    0.000    0.000 
#    0.000    0.000    0.000    0.000    0.000    0.000 
#
# Total GULP energy -594911.822555 kJ/mol
# GULP energy per Si atom -12393.996303 kJ/mol
# Density = 1.900333 g / cm^3
# Si number density = 19.046684 Si / 1000 Ang^3
#
#
#
# Elastic Constant Matrix: (Units=GPa)
#
#
# Indices 1 2 3 4 5 6 
#
# 1 40.1592 29.5686 46.7953 0.0000 0.0000 0.0000
# 2 29.5686 79.7203 67.0979 0.0000 0.0000 0.0000
# 3 46.7953 67.0979 188.5960 0.0000 0.0000 0.0000
# 4 0.0000 0.0000 0.0000 26.1531 0.0000 0.0000
# 5 0.0000 0.0000 0.0000 0.0000 26.3158 0.0000
# 6 0.0000 0.0000 0.0000 0.0000 0.0000 29.2480
#
#
#
# Elastic Compliance Matrix: (Units=1/GPa)
#
#
# Indices 1 2 3 4 5 6 
#
# 1 0.039125 -0.009051 -0.006488 0.000000 0.000000 0.000000
# 2 -0.009051 0.019999 -0.004870 0.000000 0.000000 0.000000
# 3 -0.006488 -0.004870 0.008645 0.000000 0.000000 0.000000
# 4 0.000000 0.000000 0.000000 0.038236 0.000000 0.000000
# 5 0.000000 0.000000 0.000000 0.000000 0.038000 0.000000
# 6 0.000000 0.000000 0.000000 0.000000 0.000000 0.034190
#
#
# Mechanical properties :
#
#
# Convention : Reuss Voigt Hill
#
# Bulk Modulus (GPa) = 37.10267 66.15546 51.62907
# Shear Modulus (GPa) = 21.93019 27.34429 24.63724
#
# Velocity S-wave (km/s) = 3.39690 3.79310 3.60045
# Velocity P-wave (km/s) = 5.90825 7.34794 6.66707
#
# Compressibility (1/GPa) = 0.02695224
#
# Stress axis : x y z
#
# Youngs Moduli (GPa) = 25.55925 50.00135 115.67983
#
# Poissons Ratio (x) = 0.45257 0.75049
# Poissons Ratio (y) = 0.23134 0.56331
# Poissons Ratio (z) = 0.16582 0.24348
#
# Static dielectric constant tensor:
#      x y z
#    x 3.197810 0.000000 0.000000 
#    y 0.000000 3.285990 0.000000 
#    z 0.000000 0.000000 3.909100 
# 
# 
# High freq. dielectric constant tensor:
#      x y z
#    x 1.707420 0.000000 0.000000 
#    y 0.000000 1.734010 0.000000 
#    z 0.000000 0.000000 1.764890 
# 
# From -- ./inp_files/20529.got.cif
#   From: 2010.03.12/outbox.cif.g09.slc.cpg/sg59_11_cif.got.tgz:20529.got - 2010.04.16 16:29:54.
