data_PCOD8241614
_publ_section_title
;
Structure prediction by ZEFSAII (Michael W. Deem and Ramdas Pophale) SiO2 
 PCOD8241614
Probable space group: P M M N
;
_chemical_formula_sum "Si O2"
_cell_formula_units_Z 64
_cell_length_a 17.579447
_cell_length_b 9.084109
_cell_length_c 22.650540
_cell_angle_alpha 90.000000
_cell_angle_beta 90.000000
_cell_angle_gamma 90.000000
_cell_volume 3617.146562
_symmetry_space_group_name_H-M "P M M N"
_symmetry_group_IT_number 59
_space_group.IT_coordinate_system_code '2'
_symmetry_cell_setting 'orthorhombic'
loop_
_space_group_symop_operation_xyz
x,y,z
1/2-x,1/2-y,z
1/2+x,-y,-z
-x,1/2+y,-z
-x,-y,-z
1/2+x,1/2+y,-z
1/2-x,y,z
x,1/2-y,z
loop_
_atom_site_type_symbol
_atom_site_label
_atom_site_fract_x
_atom_site_fract_y
_atom_site_fract_z
Si Si1 0.069803 0.918862 0.028862
Si Si2 0.908500 0.578195 0.436796
Si Si3 0.031033 0.922039 0.742667
Si Si4 0.336436 0.417468 0.686933
Si Si5 0.522952 0.582119 0.138827
Si Si6 0.839408 0.419763 0.548824
Si Si7 0.663410 0.577721 0.057969
Si Si8 0.046049 0.424686 0.378042
O O1 0.071679 0.750000 0.008849
O O2 0.053438 0.932346 0.098839
O O3 0.146663 0.996456 0.004821
O O4 0.000000 0.000000 0.000000
O O5 0.926356 0.750000 0.448156
O O6 0.852459 0.555265 0.381760
O O7 0.866630 0.509435 0.492232
O O8 0.986183 0.490512 0.424950
O O9 0.033517 0.750000 0.750720
O O10 0.975630 0.968209 0.688911
O O11 0.115571 0.977171 0.728886
O O12 0.002350 0.990231 0.803455
O O13 0.250000 0.456992 0.700048
O O14 0.355799 0.250000 0.704056
O O15 0.536862 0.750000 0.157373
O O16 0.600979 0.525031 0.106637
O O17 0.750000 0.433502 0.555027
O O18 0.865140 0.250000 0.544090
O O19 0.874312 0.496832 0.607189
O O20 0.750000 0.540439 0.078274
O O21 0.653239 0.750000 0.046416
O O22 0.050574 0.250000 0.386446
#
# Coordination Sequence:
#
# PCOD8241614 Si02
#       8
#     8   8   8   8   8   8   8   8
#     4   9  17  30  49  73  99 129 165 201 239 282
#     4  10  19  33  54  77 101 130 165 202 244 299
#     4  10  21  34  50  73  97 126 167 210 248 286
#     4   9  18  32  49  69  96 132 168 199 238 292
#     4   9  18  32  50  72  99 133 169 203 240 287
#     4  11  23  36  52  76 102 127 159 203 255 306
#     4   9  18  32  50  75 107 138 165 197 241 289
#     4  10  21  37  54  73 100 132 166 206 251 297
#
# _framework density 17.693505999999999
#
# number of rings (size 3 to 8) (size 9 to 14) (size 15 to 20)
#    0.000    2.375    0.000    3.375    0.000    7.000 
#    0.000    1.250    0.000    0.750    0.000    0.000 
#    0.000    0.000    0.000    0.000    0.000    0.000 
#
# Total GULP energy -793426.886528 kJ/mol
# GULP energy per Si atom -12397.295102 kJ/mol
# Density = 1.765323 g / cm^3
# Si number density = 17.693506 Si / 1000 Ang^3
#
#
#
# Elastic Constant Matrix: (Units=GPa)
#
#
# Indices 1 2 3 4 5 6 
#
# 1 54.8885 33.2641 35.2434 0.0000 0.0000 0.0000
# 2 33.2641 83.3473 45.5374 0.0000 0.0000 0.0000
# 3 35.2434 45.5374 92.2796 0.0000 0.0000 0.0000
# 4 0.0000 0.0000 0.0000 32.4456 0.0000 0.0000
# 5 0.0000 0.0000 0.0000 0.0000 15.9507 0.0000
# 6 0.0000 0.0000 0.0000 0.0000 0.0000 28.5748
#
#
#
# Elastic Compliance Matrix: (Units=1/GPa)
#
#
# Indices 1 2 3 4 5 6 
#
# 1 0.026817 -0.006992 -0.006792 0.000000 0.000000 0.000000
# 2 -0.006992 0.018250 -0.006335 0.000000 0.000000 0.000000
# 3 -0.006792 -0.006335 0.016557 0.000000 0.000000 0.000000
# 4 0.000000 0.000000 0.000000 0.030821 0.000000 0.000000
# 5 0.000000 0.000000 0.000000 0.000000 0.062693 0.000000
# 6 0.000000 0.000000 0.000000 0.000000 0.000000 0.034996
#
#
# Mechanical properties :
#
#
# Convention : Reuss Voigt Hill
#
# Bulk Modulus (GPa) = 46.76037 50.95612 48.85824
# Shear Modulus (GPa) = 21.05262 23.15892 22.10577
#
# Velocity S-wave (km/s) = 3.45316 3.62179 3.53848
# Velocity P-wave (km/s) = 6.51034 6.80821 6.66094
#
# Compressibility (1/GPa) = 0.02138563
#
# Stress axis : x y z
#
# Youngs Moduli (GPa) = 37.28981 54.79469 60.39818
#
# Poissons Ratio (x) = 0.38313 0.41020
# Poissons Ratio (y) = 0.26073 0.38265
# Poissons Ratio (z) = 0.25325 0.34715
#
# Static dielectric constant tensor:
#      x y z
#    x 3.321730 0.000000 0.000000 
#    y 0.000000 3.451890 0.000000 
#    z 0.000000 0.000000 3.357900 
# 
# 
# High freq. dielectric constant tensor:
#      x y z
#    x 1.667290 0.000000 0.000000 
#    y 0.000000 1.695220 0.000000 
#    z 0.000000 0.000000 1.674990 
# 
# From -- ./inp_files/32300.got.cif
#   From: 2010.03.12/outbox.cif.g09.slc.cpg/sg59_17_cif.got.tgz:32300.got - 2010.04.16 16:29:54.
