data_PCOD8241749
_publ_section_title
;
Structure prediction by ZEFSAII (Michael W. Deem and Ramdas Pophale) SiO2 
 PCOD8241749
Probable space group: P M M N
;
_chemical_formula_sum "Si O2"
_cell_formula_units_Z 56
_cell_length_a 24.181735
_cell_length_b 8.423522
_cell_length_c 14.815520
_cell_angle_alpha 90.000000
_cell_angle_beta 90.000000
_cell_angle_gamma 90.000000
_cell_volume 3017.852928
_symmetry_space_group_name_H-M "P M M N"
_symmetry_group_IT_number 59
_space_group.IT_coordinate_system_code '2'
_symmetry_cell_setting 'orthorhombic'
loop_
_space_group_symop_operation_xyz
x,y,z
1/2-x,1/2-y,z
1/2+x,-y,-z
-x,1/2+y,-z
-x,-y,-z
1/2+x,1/2+y,-z
1/2-x,y,z
x,1/2-y,z
loop_
_atom_site_type_symbol
_atom_site_label
_atom_site_fract_x
_atom_site_fract_y
_atom_site_fract_z
Si Si1 0.431345 0.432238 0.438749
Si Si2 0.750000 0.567098 0.987803
Si Si3 0.433825 0.564546 0.136116
Si Si4 0.645316 0.569372 0.717616
Si Si5 0.959193 0.568895 0.367299
Si Si6 0.448298 0.565299 0.822855
Si Si7 0.750000 0.428497 0.796111
Si Si8 0.870052 0.561477 0.034940
O O1 0.451661 0.250000 0.428615
O O2 0.374309 0.459159 0.385208
O O3 0.421806 0.472292 0.544626
O O4 0.477178 0.545375 0.395144
O O5 0.750000 0.750000 0.011805
O O6 0.750000 0.546335 0.880253
O O7 0.806819 0.494865 0.028692
O O8 0.425851 0.750000 0.154836
O O9 0.405092 0.465240 0.215158
O O10 0.498393 0.522523 0.136285
O O11 0.407367 0.520982 0.040751
O O12 0.664524 0.750000 0.732323
O O13 0.696387 0.454217 0.734871
O O14 0.951294 0.750000 0.336064
O O15 0.942142 0.457225 0.284575
O O16 0.452392 0.750000 0.845980
O O17 0.394053 0.489070 0.868443
O O18 0.750000 0.250000 0.833400
O O19 0.871738 0.750000 0.020828
#
# Coordination Sequence:
#
# PCOD8241749 Si02
#       8
#     8   4   8   8   8   8   4   8
#     4   9  19  34  55  82 112 145 181 225 279 334
#     4  10  22  40  62  81 106 143 188 235 286 336
#     4  12  23  36  55  84 116 150 187 231 282 339
#     4  11  21  36  57  82 115 152 188 229 281 339
#     4  10  19  33  55  83 112 144 184 229 276 332
#     4  12  24  38  55  81 116 155 191 232 283 338
#     4  12  24  36  56  83 114 149 192 235 278 332
#     4  11  23  40  60  82 110 148 189 235 285 339
#
# _framework density 18.556238
#
# number of rings (size 3 to 8) (size 9 to 14) (size 15 to 20)
#    0.000    1.143    2.857    4.929    0.000    1.714 
#    0.000    0.000    0.000    0.857    0.000    3.000 
#    0.000    0.000    0.000    0.000    0.000    0.000 
#
# Total GULP energy -694553.145072 kJ/mol
# GULP energy per Si atom -12402.734733 kJ/mol
# Density = 1.851400 g / cm^3
# Si number density = 18.556238 Si / 1000 Ang^3
#
#
#
# Elastic Constant Matrix: (Units=GPa)
#
#
# Indices 1 2 3 4 5 6 
#
# 1 110.0206 18.1251 59.6026 0.0000 0.0000 0.0000
# 2 18.1251 52.7776 14.0656 0.0000 0.0000 0.0000
# 3 59.6026 14.0656 104.5557 0.0000 0.0000 0.0000
# 4 0.0000 0.0000 0.0000 28.4528 0.0000 0.0000
# 5 0.0000 0.0000 0.0000 0.0000 25.6915 0.0000
# 6 0.0000 0.0000 0.0000 0.0000 0.0000 23.0198
#
#
#
# Elastic Compliance Matrix: (Units=1/GPa)
#
#
# Indices 1 2 3 4 5 6 
#
# 1 0.013507 -0.002683 -0.007339 0.000000 0.000000 0.000000
# 2 -0.002683 0.020185 -0.001186 0.000000 0.000000 0.000000
# 3 -0.007339 -0.001186 0.013907 0.000000 0.000000 0.000000
# 4 0.000000 0.000000 0.000000 0.035146 0.000000 0.000000
# 5 0.000000 0.000000 0.000000 0.000000 0.038923 0.000000
# 6 0.000000 0.000000 0.000000 0.000000 0.000000 0.043441
#
#
# Mechanical properties :
#
#
# Convention : Reuss Voigt Hill
#
# Bulk Modulus (GPa) = 39.70801 50.10451 44.90626
# Shear Modulus (GPa) = 25.52073 27.13686 26.32880
#
# Velocity S-wave (km/s) = 3.71255 3.82830 3.77087
# Velocity P-wave (km/s) = 6.31051 6.82651 6.57358
#
# Compressibility (1/GPa) = 0.02518383
#
# Stress axis : x y z
#
# Youngs Moduli (GPa) = 74.03637 49.54212 71.90447
#
# Poissons Ratio (x) = 0.13291 0.52769
# Poissons Ratio (y) = 0.19862 0.08529
# Poissons Ratio (z) = 0.54334 0.05876
#
# Static dielectric constant tensor:
#      x y z
#    x 3.414480 0.000000 0.000000 
#    y 0.000000 3.427930 0.000000 
#    z 0.000000 0.000000 3.503230 
# 
# 
# High freq. dielectric constant tensor:
#      x y z
#    x 1.699380 0.000000 0.000000 
#    y 0.000000 1.729320 0.000000 
#    z 0.000000 0.000000 1.717510 
# 
# From -- ./inp_files/24322.got.cif
#   From: 2010.03.12/outbox.cif.g09.slc.cpg/sg59_13_cif.got.tgz:24322.got - 2010.04.16 16:29:54.
