data_PCOD8241979
_publ_section_title
;
Structure prediction by ZEFSAII (Michael W. Deem and Ramdas Pophale) SiO2 
 PCOD8241979
Probable space group: P M M N
;
_chemical_formula_sum "Si O2"
_cell_formula_units_Z 64
_cell_length_a 29.944008
_cell_length_b 12.609532
_cell_length_c 8.536210
_cell_angle_alpha 90.000000
_cell_angle_beta 90.000000
_cell_angle_gamma 90.000000
_cell_volume 3223.101549
_symmetry_space_group_name_H-M "P M M N"
_symmetry_group_IT_number 59
_space_group.IT_coordinate_system_code '2'
_symmetry_cell_setting 'orthorhombic'
loop_
_space_group_symop_operation_xyz
x,y,z
1/2-x,1/2-y,z
1/2+x,-y,-z
-x,1/2+y,-z
-x,-y,-z
1/2+x,1/2+y,-z
1/2-x,y,z
x,1/2-y,z
loop_
_atom_site_type_symbol
_atom_site_label
_atom_site_fract_x
_atom_site_fract_y
_atom_site_fract_z
Si Si1 0.397586 0.868409 0.282569
Si Si2 0.415730 0.364553 0.072673
Si Si3 0.134863 0.006061 0.553760
Si Si4 0.020793 0.977482 0.169295
Si Si5 0.667036 0.014022 0.917909
Si Si6 0.200719 0.129484 0.339171
Si Si7 0.698586 0.126132 0.226269
Si Si8 0.940510 0.631778 0.276136
O O1 0.396447 0.750000 0.346582
O O2 0.397372 0.945576 0.432929
O O3 0.352981 0.888051 0.180850
O O4 0.441851 0.884293 0.175197
O O5 0.401141 0.250000 0.139731
O O6 0.449453 0.416187 0.202599
O O7 0.373288 0.436610 0.036880
O O8 0.440651 0.350253 0.909113
O O9 0.165717 0.921375 0.643390
O O10 0.165391 0.091183 0.466405
O O11 0.104014 0.073281 0.669653
O O12 0.983525 0.946838 0.300269
O O13 0.000000 0.000000 0.000000
O O14 0.700996 0.945239 0.813969
O O15 0.692420 0.060632 0.066662
O O16 0.250000 0.123164 0.414315
O O17 0.189154 0.250000 0.290713
O O18 0.750000 0.113498 0.280796
O O19 0.686791 0.250000 0.201218
O O20 0.945731 0.750000 0.353836
#
# Coordination Sequence:
#
# PCOD8241979 Si02
#       8
#     8   8   8   8   8   8   8   8
#     4  10  21  37  59  83 115 156 194 239 291 352
#     4   9  17  32  55  83 115 147 183 230 288 348
#     4  11  22  38  58  83 120 157 199 240 294 361
#     4   9  19  35  56  84 114 146 190 234 285 339
#     4  10  19  36  59  85 113 148 197 247 295 350
#     4  10  21  37  57  83 116 153 195 246 302 361
#     4  11  23  39  59  85 118 155 200 253 303 351
#     4  10  19  34  57  80 113 153 188 232 285 343
#
# _framework density 19.856650999999999
#
# number of rings (size 3 to 8) (size 9 to 14) (size 15 to 20)
#    0.000    2.000    1.250    2.625    0.000    1.000 
#    0.000    1.875    0.000    9.000    0.000    0.000 
#    0.000    0.000    0.000    0.000    0.000    0.000 
#
# Total GULP energy -792934.201526 kJ/mol
# GULP energy per Si atom -12389.596899 kJ/mol
# Density = 1.981146 g / cm^3
# Si number density = 19.856651 Si / 1000 Ang^3
#
#
#
# Elastic Constant Matrix: (Units=GPa)
#
#
# Indices 1 2 3 4 5 6 
#
# 1 112.9911 60.6337 34.3364 0.0000 0.0000 0.0000
# 2 60.6337 139.9886 35.3837 0.0000 0.0000 0.0000
# 3 34.3364 35.3837 61.0598 0.0000 0.0000 0.0000
# 4 0.0000 0.0000 0.0000 18.5114 0.0000 0.0000
# 5 0.0000 0.0000 0.0000 0.0000 21.0070 0.0000
# 6 0.0000 0.0000 0.0000 0.0000 0.0000 21.1062
#
#
#
# Elastic Compliance Matrix: (Units=1/GPa)
#
#
# Indices 1 2 3 4 5 6 
#
# 1 0.012532 -0.004273 -0.004571 0.000000 0.000000 0.000000
# 2 -0.004273 0.009826 -0.003291 0.000000 0.000000 0.000000
# 3 -0.004571 -0.003291 0.020855 0.000000 0.000000 0.000000
# 4 0.000000 0.000000 0.000000 0.054021 0.000000 0.000000
# 5 0.000000 0.000000 0.000000 0.000000 0.047603 0.000000
# 6 0.000000 0.000000 0.000000 0.000000 0.000000 0.047379
#
#
# Mechanical properties :
#
#
# Convention : Reuss Voigt Hill
#
# Bulk Modulus (GPa) = 52.79076 63.86080 58.32578
# Shear Modulus (GPa) = 22.44141 24.37063 23.40602
#
# Velocity S-wave (km/s) = 3.36545 3.50713 3.43702
# Velocity P-wave (km/s) = 6.46106 6.97357 6.72220
#
# Compressibility (1/GPa) = 0.01894271
#
# Stress axis : x y z
#
# Youngs Moduli (GPa) = 79.79414 101.77071 47.94913
#
# Poissons Ratio (x) = 0.43483 0.21920
# Poissons Ratio (y) = 0.34093 0.15782
# Poissons Ratio (z) = 0.36477 0.33497
#
# Static dielectric constant tensor:
#      x y z
#    x 3.734580 0.000000 0.000000 
#    y 0.000000 3.921190 0.000000 
#    z 0.000000 0.000000 3.344320 
# 
# 
# High freq. dielectric constant tensor:
#      x y z
#    x 1.784690 0.000000 0.000000 
#    y 0.000000 1.785220 0.000000 
#    z 0.000000 0.000000 1.746980 
# 
# From -- ./inp_files/13204.got.cif
#   From: 2010.03.12/outbox.cif.g09.slc.cpg/sg59_7_cif.got.tgz:13204.got - 2010.04.16 16:29:54.
