data_PCOD8241806
_publ_section_title
;
Structure prediction by ZEFSAII (Michael W. Deem and Ramdas Pophale) SiO2 
 PCOD8241806
Probable space group: P M M N
;
_chemical_formula_sum "Si O2"
_cell_formula_units_Z 48
_cell_length_a 20.476108
_cell_length_b 8.885820
_cell_length_c 13.937027
_cell_angle_alpha 90.000000
_cell_angle_beta 90.000000
_cell_angle_gamma 90.000000
_cell_volume 2535.800391
_symmetry_space_group_name_H-M "P M M N"
_symmetry_group_IT_number 59
_space_group.IT_coordinate_system_code '2'
_symmetry_cell_setting 'orthorhombic'
loop_
_space_group_symop_operation_xyz
x,y,z
1/2-x,1/2-y,z
1/2+x,-y,-z
-x,1/2+y,-z
-x,-y,-z
1/2+x,1/2+y,-z
1/2-x,y,z
x,1/2-y,z
loop_
_atom_site_type_symbol
_atom_site_label
_atom_site_fract_x
_atom_site_fract_y
_atom_site_fract_z
Si Si1 0.250000 0.075471 0.096272
Si Si2 0.922201 0.074846 0.397589
Si Si3 0.999506 0.425896 0.897591
Si Si4 0.872201 0.927999 0.214581
Si Si5 0.750000 0.071497 0.109451
Si Si6 0.928008 0.577808 0.590776
Si Si7 0.118079 0.422466 0.203850
O O1 0.250000 0.250000 0.065515
O O2 0.311976 0.034994 0.161314
O O3 0.250000 0.975942 0.001381
O O4 0.908078 0.250000 0.383025
O O5 0.998079 0.033766 0.379578
O O6 0.877058 0.982435 0.324270
O O7 0.902193 0.027117 0.505220
O O8 0.001818 0.250000 0.912816
O O9 0.062247 0.481012 0.838742
O O10 0.934386 0.468277 0.842088
O O11 0.000000 0.500000 0.000000
O O12 0.861485 0.750000 0.211521
O O13 0.813075 0.007771 0.161807
O O14 0.750000 0.250000 0.115919
O O15 0.926702 0.750000 0.555073
O O16 0.880825 0.552116 0.681563
O O17 0.099154 0.250000 0.180219
#
# Coordination Sequence:
#
# PCOD8241806 Si02
#       7
#     4   8   8   8   4   8   8
#     4  10  22  40  61  84 115 156 197 236 286 346
#     4  10  19  33  57  87 118 152 192 241 293 346
#     4  11  23  36  56  84 113 146 189 241 292 344
#     4  11  23  40  60  84 115 152 194 239 291 350
#     4  12  26  42  61  84 115 154 195 238 290 350
#     4   9  18  33  55  84 119 156 192 237 293 347
#     4  10  20  37  59  84 115 152 195 240 288 344
#
# _framework density 18.928936
#
# number of rings (size 3 to 8) (size 9 to 14) (size 15 to 20)
#    0.000    1.667    1.667    3.250    0.000    8.000 
#    0.000    0.833    0.000    2.000    0.000    0.000 
#    0.000    0.000    0.000    0.000    0.000    0.000 
#
# Total GULP energy -595414.300604 kJ/mol
# GULP energy per Si atom -12404.464596 kJ/mol
# Density = 1.888585 g / cm^3
# Si number density = 18.928936 Si / 1000 Ang^3
#
#
#
# Elastic Constant Matrix: (Units=GPa)
#
#
# Indices 1 2 3 4 5 6 
#
# 1 121.0238 48.5621 63.5074 0.0000 0.0000 0.0000
# 2 48.5621 78.1257 52.9016 0.0000 0.0000 0.0000
# 3 63.5074 52.9016 138.9599 0.0000 0.0000 0.0000
# 4 0.0000 0.0000 0.0000 37.5507 0.0000 0.0000
# 5 0.0000 0.0000 0.0000 0.0000 36.3706 0.0000
# 6 0.0000 0.0000 0.0000 0.0000 0.0000 25.0235
#
#
#
# Elastic Compliance Matrix: (Units=1/GPa)
#
#
# Indices 1 2 3 4 5 6 
#
# 1 0.012233 -0.005144 -0.003632 0.000000 0.000000 0.000000
# 2 -0.005144 0.019409 -0.005038 0.000000 0.000000 0.000000
# 3 -0.003632 -0.005038 0.010774 0.000000 0.000000 0.000000
# 4 0.000000 0.000000 0.000000 0.026631 0.000000 0.000000
# 5 0.000000 0.000000 0.000000 0.000000 0.027495 0.000000
# 6 0.000000 0.000000 0.000000 0.000000 0.000000 0.039962
#
#
# Mechanical properties :
#
#
# Convention : Reuss Voigt Hill
#
# Bulk Modulus (GPa) = 67.62619 74.22796 70.92708
# Shear Modulus (GPa) = 29.57490 31.33151 30.45320
#
# Velocity S-wave (km/s) = 3.95703 4.07285 4.01536
# Velocity P-wave (km/s) = 7.52870 7.83688 7.68433
#
# Compressibility (1/GPa) = 0.01478717
#
# Stress axis : x y z
#
# Youngs Moduli (GPa) = 81.74501 51.52282 92.81404
#
# Poissons Ratio (x) = 0.26506 0.33713
# Poissons Ratio (y) = 0.42053 0.46758
# Poissons Ratio (z) = 0.29692 0.25956
#
# Static dielectric constant tensor:
#      x y z
#    x 3.344250 0.000000 0.000000 
#    y 0.000000 3.452590 0.000000 
#    z 0.000000 0.000000 3.489820 
# 
# 
# High freq. dielectric constant tensor:
#      x y z
#    x 1.720350 0.000000 0.000000 
#    y 0.000000 1.739770 0.000000 
#    z 0.000000 0.000000 1.750300 
# 
# From -- ./inp_files/23711.got.cif
#   From: 2010.03.12/outbox.cif.g09.slc.cpg/sg59_12_cif.got.tgz:23711.got - 2010.04.16 16:29:54.
