data_PCOD8241581
_publ_section_title
;
Structure prediction by ZEFSAII (Michael W. Deem and Ramdas Pophale) SiO2 
 PCOD8241581
Probable space group: P M M N
;
_chemical_formula_sum "Si O2"
_cell_formula_units_Z 64
_cell_length_a 9.035032
_cell_length_b 23.996891
_cell_length_c 14.962928
_cell_angle_alpha 90.000000
_cell_angle_beta 90.000000
_cell_angle_gamma 90.000000
_cell_volume 3244.152492
_symmetry_space_group_name_H-M "P M M N"
_symmetry_group_IT_number 59
_space_group.IT_coordinate_system_code '2'
_symmetry_cell_setting 'orthorhombic'
loop_
_space_group_symop_operation_xyz
x,y,z
1/2-x,1/2-y,z
1/2+x,-y,-z
-x,1/2+y,-z
-x,-y,-z
1/2+x,1/2+y,-z
1/2-x,y,z
x,1/2-y,z
loop_
_atom_site_type_symbol
_atom_site_label
_atom_site_fract_x
_atom_site_fract_y
_atom_site_fract_z
Si Si1 0.074790 0.874329 0.818515
Si Si2 0.925661 0.497212 0.219855
Si Si3 0.574386 0.814378 0.981830
Si Si4 0.084087 0.811565 0.275941
Si Si5 0.425325 0.811850 0.641591
Si Si6 0.581950 0.361369 0.542517
Si Si7 0.575061 0.971027 0.416297
Si Si8 0.575406 0.887728 0.146326
O O1 0.250000 0.869409 0.832576
O O2 0.020416 0.938736 0.822801
O O3 0.024712 0.850795 0.722795
O O4 0.995136 0.836618 0.891114
O O5 0.750000 0.498615 0.222978
O O6 0.982094 0.502816 0.322270
O O7 0.983291 0.548345 0.156865
O O8 0.750000 0.818422 0.974872
O O9 0.525925 0.750000 0.998590
O O10 0.511614 0.854853 0.060198
O O11 0.250000 0.825432 0.241954
O O12 0.036500 0.750000 0.245059
O O13 0.080710 0.812874 0.383588
O O14 0.970970 0.855397 0.235067
O O15 0.250000 0.807839 0.635852
O O16 0.492497 0.750000 0.654573
O O17 0.485238 0.838326 0.549843
O O18 0.750000 0.384368 0.528399
O O19 0.473014 0.407410 0.581522
O O20 0.750000 0.977015 0.424775
O O21 0.500000 0.000000 0.500000
O O22 0.750000 0.887834 0.140908
#
# Coordination Sequence:
#
# PCOD8241581 Si02
#       8
#     8   8   8   8   8   8   8   8
#     4  10  20  36  59  83 107 141 186 235 281 329
#     4   9  19  36  57  82 112 144 185 232 276 327
#     4  10  22  39  58  82 111 144 183 229 285 343
#     4  10  20  33  52  82 117 147 180 229 281 324
#     4   9  17  31  53  79 108 147 191 228 272 335
#     4  10  19  33  53  79 111 145 184 229 277 328
#     4  11  21  35  55  79 110 149 190 232 273 324
#     4  10  20  38  60  80 109 151 190 224 270 336
#
# _framework density 19.727803999999999
#
# number of rings (size 3 to 8) (size 9 to 14) (size 15 to 20)
#    0.000    2.125    1.250    2.250    0.000    6.000 
#    0.000    3.750    0.000    1.875    0.000    0.000 
#    0.000    0.000    0.000    0.000    0.000    0.000 
#
# Total GULP energy -793369.351348 kJ/mol
# GULP energy per Si atom -12396.396115 kJ/mol
# Density = 1.968290 g / cm^3
# Si number density = 19.727804 Si / 1000 Ang^3
#
#
#
# Elastic Constant Matrix: (Units=GPa)
#
#
# Indices 1 2 3 4 5 6 
#
# 1 18.4873 19.6104 18.2885 0.0000 0.0000 0.0000
# 2 19.6104 136.1430 49.5817 0.0000 0.0000 0.0000
# 3 18.2885 49.5817 112.6470 0.0000 0.0000 0.0000
# 4 0.0000 0.0000 0.0000 39.0226 0.0000 0.0000
# 5 0.0000 0.0000 0.0000 0.0000 27.2545 0.0000
# 6 0.0000 0.0000 0.0000 0.0000 0.0000 22.4995
#
#
#
# Elastic Compliance Matrix: (Units=1/GPa)
#
#
# Indices 1 2 3 4 5 6 
#
# 1 0.069691 -0.007048 -0.008212 0.000000 0.000000 0.000000
# 2 -0.007048 0.009460 -0.003020 0.000000 0.000000 0.000000
# 3 -0.008212 -0.003020 0.011540 0.000000 0.000000 0.000000
# 4 0.000000 0.000000 0.000000 0.025626 0.000000 0.000000
# 5 0.000000 0.000000 0.000000 0.000000 0.036691 0.000000
# 6 0.000000 0.000000 0.000000 0.000000 0.000000 0.044446
#
#
# Mechanical properties :
#
#
# Convention : Reuss Voigt Hill
#
# Bulk Modulus (GPa) = 18.47360 49.13759 33.80559
# Shear Modulus (GPa) = 19.83679 29.74177 24.78928
#
# Velocity S-wave (km/s) = 3.17444 3.88700 3.54865
# Velocity P-wave (km/s) = 4.77710 6.71617 5.82785
#
# Compressibility (1/GPa) = 0.05413129
#
# Stress axis : x y z
#
# Youngs Moduli (GPa) = 14.34907 105.70711 86.65716
#
# Poissons Ratio (x) = 0.74498 0.71167
# Poissons Ratio (y) = 0.10113 0.26168
# Poissons Ratio (z) = 0.11784 0.31920
#
# Static dielectric constant tensor:
#      x y z
#    x 3.279620 0.000000 0.000000 
#    y 0.000000 4.090160 0.000000 
#    z 0.000000 0.000000 3.724810 
# 
# 
# High freq. dielectric constant tensor:
#      x y z
#    x 1.728500 0.000000 0.000000 
#    y 0.000000 1.783700 0.000000 
#    z 0.000000 0.000000 1.774170 
# 
# From -- ./inp_files/21528.got.cif
#   From: 2010.03.12/outbox.cif.g09.slc.cpg/sg59_11_cif.got.tgz:21528.got - 2010.04.16 16:29:54.
