data_PCOD8241527
_publ_section_title
;
Structure prediction by ZEFSAII (Michael W. Deem and Ramdas Pophale) SiO2 
 PCOD8241527
Probable space group: P M M N
;
_chemical_formula_sum "Si O2"
_cell_formula_units_Z 64
_cell_length_a 18.737171
_cell_length_b 9.322762
_cell_length_c 19.947739
_cell_angle_alpha 90.000000
_cell_angle_beta 90.000000
_cell_angle_gamma 90.000000
_cell_volume 3484.514650
_symmetry_space_group_name_H-M "P M M N"
_symmetry_group_IT_number 59
_space_group.IT_coordinate_system_code '2'
_symmetry_cell_setting 'orthorhombic'
loop_
_space_group_symop_operation_xyz
x,y,z
1/2-x,1/2-y,z
1/2+x,-y,-z
-x,1/2+y,-z
-x,-y,-z
1/2+x,1/2+y,-z
1/2-x,y,z
x,1/2-y,z
loop_
_atom_site_type_symbol
_atom_site_label
_atom_site_fract_x
_atom_site_fract_y
_atom_site_fract_z
Si Si1 0.933979 0.916154 0.469038
Si Si2 0.572754 0.580521 0.319212
Si Si3 0.831250 0.915332 0.587250
Si Si4 0.562936 0.915959 0.085284
Si Si5 0.412586 0.581337 0.298553
Si Si6 0.832421 0.085367 0.833977
Si Si7 0.078208 0.416175 0.069125
Si Si8 0.169655 0.420729 0.799578
O O1 0.956935 0.750000 0.464733
O O2 0.915147 0.976348 0.394886
O O3 0.863606 0.937956 0.513402
O O4 0.000000 0.000000 0.500000
O O5 0.579679 0.750000 0.318086
O O6 0.494675 0.533198 0.294092
O O7 0.631513 0.517434 0.267612
O O8 0.750000 0.969624 0.585495
O O9 0.835865 0.750000 0.609046
O O10 0.875910 0.007162 0.638937
O O11 0.543787 0.750000 0.099145
O O12 0.625021 0.970116 0.135076
O O13 0.492061 0.007331 0.098144
O O14 0.589352 0.940185 0.009771
O O15 0.404254 0.750000 0.309616
O O16 0.375449 0.530726 0.230507
O O17 0.750000 0.064280 0.817590
O O18 0.850665 0.250000 0.851144
O O19 0.852948 0.986766 0.896729
O O20 0.073080 0.250000 0.087586
O O21 0.250000 0.483703 0.803896
O O22 0.172561 0.250000 0.797427
#
# Coordination Sequence:
#
# PCOD8241527 Si02
#       8
#     8   8   8   8   8   8   8   8
#     4  10  19  33  52  75 104 136 170 209 255 307
#     4   9  17  29  50  77 101 128 167 213 254 299
#     4  10  21  34  49  74 107 137 165 208 267 317
#     4   9  18  34  55  78 106 138 174 220 265 311
#     4  10  19  34  55  75  98 133 177 217 254 306
#     4  10  21  35  51  74 106 141 174 214 265 315
#     4  10  20  33  53  79 105 138 179 219 263 315
#     4   9  17  30  51  79 106 133 170 217 266 310
#
# _framework density 18.366976000000001
#
# number of rings (size 3 to 8) (size 9 to 14) (size 15 to 20)
#    0.000    2.375    1.250    1.500    0.000    5.000 
#    0.000    3.750    0.000    0.375    0.000    0.000 
#    0.000    0.000    0.000    0.000    0.000    0.000 
#
# Total GULP energy -793647.753541 kJ/mol
# GULP energy per Si atom -12400.746149 kJ/mol
# Density = 1.832517 g / cm^3
# Si number density = 18.366976 Si / 1000 Ang^3
#
#
#
# Elastic Constant Matrix: (Units=GPa)
#
#
# Indices 1 2 3 4 5 6 
#
# 1 120.2485 27.5370 68.3169 0.0000 0.0000 0.0000
# 2 27.5370 40.4690 35.2732 0.0000 0.0000 0.0000
# 3 68.3169 35.2732 127.9949 0.0000 0.0000 0.0000
# 4 0.0000 0.0000 0.0000 25.0652 0.0000 0.0000
# 5 0.0000 0.0000 0.0000 0.0000 24.2671 0.0000
# 6 0.0000 0.0000 0.0000 0.0000 0.0000 21.5613
#
#
#
# Elastic Compliance Matrix: (Units=1/GPa)
#
#
# Indices 1 2 3 4 5 6 
#
# 1 0.012298 -0.003483 -0.005604 0.000000 0.000000 0.000000
# 2 -0.003483 0.033509 -0.007375 0.000000 0.000000 0.000000
# 3 -0.005604 -0.007375 0.012836 0.000000 0.000000 0.000000
# 4 0.000000 0.000000 0.000000 0.039896 0.000000 0.000000
# 5 0.000000 0.000000 0.000000 0.000000 0.041208 0.000000
# 6 0.000000 0.000000 0.000000 0.000000 0.000000 0.046379
#
#
# Mechanical properties :
#
#
# Convention : Reuss Voigt Hill
#
# Bulk Modulus (GPa) = 38.88354 61.21848 50.05101
# Shear Modulus (GPa) = 21.96611 24.68442 23.32526
#
# Velocity S-wave (km/s) = 3.46201 3.66998 3.56751
# Velocity P-wave (km/s) = 6.09894 7.16669 6.65426
#
# Compressibility (1/GPa) = 0.02571782
#
# Stress axis : x y z
#
# Youngs Moduli (GPa) = 81.31731 29.84283 77.90424
#
# Poissons Ratio (x) = 0.10396 0.43656
# Poissons Ratio (y) = 0.28327 0.57456
# Poissons Ratio (z) = 0.45568 0.22010
#
# Static dielectric constant tensor:
#      x y z
#    x 3.511010 0.000000 0.000000 
#    y 0.000000 3.130740 0.000000 
#    z 0.000000 0.000000 3.633250 
# 
# 
# High freq. dielectric constant tensor:
#      x y z
#    x 1.715410 0.000000 0.000000 
#    y 0.000000 1.677770 0.000000 
#    z 0.000000 0.000000 1.725420 
# 
# From -- ./inp_files/30648.got.cif
#   From: 2010.03.12/outbox.cif.g09.slc.cpg/sg59_16_cif.got.tgz:30648.got - 2010.04.16 16:29:54.
