data_PCOD8241045
_publ_section_title
;
Structure prediction by ZEFSAII (Michael W. Deem and Ramdas Pophale) SiO2 
 PCOD8241045
Probable space group: P M M N
;
_chemical_formula_sum "Si O2"
_cell_formula_units_Z 56
_cell_length_a 8.874290
_cell_length_b 19.403043
_cell_length_c 16.332294
_cell_angle_alpha 90.000000
_cell_angle_beta 90.000000
_cell_angle_gamma 90.000000
_cell_volume 2812.228803
_symmetry_space_group_name_H-M "P M M N"
_symmetry_group_IT_number 59
_space_group.IT_coordinate_system_code '2'
_symmetry_cell_setting 'orthorhombic'
loop_
_space_group_symop_operation_xyz
x,y,z
1/2-x,1/2-y,z
1/2+x,-y,-z
-x,1/2+y,-z
-x,-y,-z
1/2+x,1/2+y,-z
1/2-x,y,z
x,1/2-y,z
loop_
_atom_site_type_symbol
_atom_site_label
_atom_site_fract_x
_atom_site_fract_y
_atom_site_fract_z
Si Si1 0.573320 0.047437 0.430626
Si Si2 0.427233 0.325430 0.690466
Si Si3 0.427763 0.172513 0.142065
Si Si4 0.576302 0.829778 0.493975
Si Si5 0.573881 0.946509 0.741438
Si Si6 0.077711 0.426495 0.001673
Si Si7 0.423775 0.432172 0.819946
O O1 0.750000 0.034827 0.432815
O O2 0.531561 0.126870 0.447300
O O3 0.514776 0.031081 0.339896
O O4 0.500000 0.000000 0.500000
O O5 0.250000 0.318866 0.703774
O O6 0.500869 0.250000 0.703508
O O7 0.460475 0.351909 0.598947
O O8 0.495620 0.378456 0.755383
O O9 0.250000 0.179195 0.130594
O O10 0.498300 0.250000 0.146246
O O11 0.464421 0.130761 0.226043
O O12 0.494523 0.129508 0.064284
O O13 0.750000 0.845953 0.515299
O O14 0.540736 0.750000 0.508468
O O15 0.750000 0.954203 0.724093
O O16 0.521789 0.998092 0.813762
O O17 0.250000 0.438703 0.027549
O O18 0.063186 0.397509 0.909292
O O19 0.000000 0.500000 0.000000
O O20 0.250000 0.449832 0.799338
#
# Coordination Sequence:
#
# PCOD8241045 Si02
#       7
#     8   8   8   8   8   8   8
#     4  12  25  40  59  85 117 150 195 249 299 354
#     4   8  15  29  50  78 109 139 175 223 275 327
#     4   9  19  36  57  83 115 153 198 243 285 337
#     4   9  18  35  58  81 111 153 194 232 284 350
#     4  11  22  37  58  82 111 151 192 237 294 351
#     4  10  19  33  55  82 112 149 190 236 286 337
#     4  10  19  31  54  84 113 145 186 234 284 339
#
# _framework density 19.913032000000001
#
# number of rings (size 3 to 8) (size 9 to 14) (size 15 to 20)
#    0.000    2.143    1.429    3.429    0.000    2.571 
#    0.000    4.286    0.000    4.714    0.000    2.000 
#    0.000    0.000    0.000    0.000    0.000    0.000 
#
# Total GULP energy -694222.003624 kJ/mol
# GULP energy per Si atom -12396.821493 kJ/mol
# Density = 1.986771 g / cm^3
# Si number density = 19.913032 Si / 1000 Ang^3
#
#
#
# Elastic Constant Matrix: (Units=GPa)
#
#
# Indices 1 2 3 4 5 6 
#
# 1 71.2033 29.7288 35.0498 0.0000 0.0000 0.0000
# 2 29.7288 95.7019 40.1197 0.0000 0.0000 0.0000
# 3 35.0498 40.1197 98.0228 0.0000 0.0000 0.0000
# 4 0.0000 0.0000 0.0000 34.0296 0.0000 0.0000
# 5 0.0000 0.0000 0.0000 0.0000 23.6424 0.0000
# 6 0.0000 0.0000 0.0000 0.0000 0.0000 25.0331
#
#
#
# Elastic Compliance Matrix: (Units=1/GPa)
#
#
# Indices 1 2 3 4 5 6 
#
# 1 0.017958 -0.003484 -0.004995 0.000000 0.000000 0.000000
# 2 -0.003484 0.013289 -0.004193 0.000000 0.000000 0.000000
# 3 -0.004995 -0.004193 0.013704 0.000000 0.000000 0.000000
# 4 0.000000 0.000000 0.000000 0.029386 0.000000 0.000000
# 5 0.000000 0.000000 0.000000 0.000000 0.042297 0.000000
# 6 0.000000 0.000000 0.000000 0.000000 0.000000 0.039947
#
#
# Mechanical properties :
#
#
# Convention : Reuss Voigt Hill
#
# Bulk Modulus (GPa) = 51.00521 52.74717 51.87619
# Shear Modulus (GPa) = 26.53049 27.20966 26.87008
#
# Velocity S-wave (km/s) = 3.65405 3.70053 3.67736
# Velocity P-wave (km/s) = 6.59336 6.69364 6.64369
#
# Compressibility (1/GPa) = 0.01960584
#
# Stress axis : x y z
#
# Youngs Moduli (GPa) = 55.68580 75.24780 72.97116
#
# Poissons Ratio (x) = 0.26220 0.36449
# Poissons Ratio (y) = 0.19403 0.30599
# Poissons Ratio (z) = 0.27815 0.31554
#
# Static dielectric constant tensor:
#      x y z
#    x 3.256630 0.000000 0.000000 
#    y 0.000000 4.017380 0.000000 
#    z 0.000000 0.000000 3.850390 
# 
# 
# High freq. dielectric constant tensor:
#      x y z
#    x 1.735640 0.000000 0.000000 
#    y 0.000000 1.780700 0.000000 
#    z 0.000000 0.000000 1.787460 
# 
# From -- ./inp_files/20933.got.cif
#   From: 2010.03.12/outbox.cif.g09.slc.cpg/sg59_11_cif.got.tgz:20933.got - 2010.04.16 16:29:54.
