data_PCOD8241596
_publ_section_title
;
Structure prediction by ZEFSAII (Michael W. Deem and Ramdas Pophale) SiO2 
 PCOD8241596
Probable space group: P M M N
;
_chemical_formula_sum "Si O2"
_cell_formula_units_Z 64
_cell_length_a 17.653337
_cell_length_b 8.867926
_cell_length_c 22.698280
_cell_angle_alpha 90.000000
_cell_angle_beta 90.000000
_cell_angle_gamma 90.000000
_cell_volume 3553.381373
_symmetry_space_group_name_H-M "P M M N"
_symmetry_group_IT_number 59
_space_group.IT_coordinate_system_code '2'
_symmetry_cell_setting 'orthorhombic'
loop_
_space_group_symop_operation_xyz
x,y,z
1/2-x,1/2-y,z
1/2+x,-y,-z
-x,1/2+y,-z
-x,-y,-z
1/2+x,1/2+y,-z
1/2-x,y,z
x,1/2-y,z
loop_
_atom_site_type_symbol
_atom_site_label
_atom_site_fract_x
_atom_site_fract_y
_atom_site_fract_z
Si Si1 0.833738 0.926850 0.058256
Si Si2 0.958453 0.577928 0.370211
Si Si3 0.939188 0.573136 0.957921
Si Si4 0.982348 0.927594 0.744337
Si Si5 0.835118 0.073916 0.703159
Si Si6 0.333957 0.428216 0.542005
Si Si7 0.117349 0.919272 0.424545
Si Si8 0.473205 0.070773 0.862569
O O1 0.750000 0.999639 0.068662
O O2 0.828422 0.750000 0.068805
O O3 0.896697 0.988850 0.104441
O O4 0.858499 0.958163 0.990009
O O5 0.945259 0.750000 0.348404
O O6 0.887223 0.509599 0.405785
O O7 0.973427 0.471642 0.314755
O O8 0.027632 0.573124 0.415698
O O9 0.954048 0.750000 0.950815
O O10 0.950584 0.493251 0.894676
O O11 0.000000 0.500000 0.000000
O O12 0.983957 0.750000 0.753471
O O13 0.894820 0.981878 0.742479
O O14 0.027505 0.007485 0.796887
O O15 0.750000 0.041372 0.726031
O O16 0.856594 0.250000 0.708182
O O17 0.841073 0.024397 0.634920
O O18 0.250000 0.490837 0.554084
O O19 0.336848 0.250000 0.543858
O O20 0.360710 0.473647 0.477495
O O21 0.143720 0.750000 0.439918
O O22 0.477456 0.250000 0.862429
#
# Coordination Sequence:
#
# PCOD8241596 Si02
#       8
#     8   8   8   8   8   8   8   8
#     4   8  15  29  51  79 105 130 165 208 250 289
#     4   9  19  36  52  67  94 131 169 206 249 305
#     4   9  16  28  49  75 103 132 161 198 243 293
#     4  11  22  35  53  75  99 130 172 215 251 294
#     4   9  18  34  54  75 101 131 162 200 250 306
#     4  10  20  32  48  72  99 126 160 206 256 304
#     4   9  17  30  50  73  96 125 158 194 245 309
#     4  10  19  33  54  75 100 136 174 210 249 299
#
# _framework density 18.011013999999999
#
# number of rings (size 3 to 8) (size 9 to 14) (size 15 to 20)
#    0.000    2.625    0.000    4.125    0.000    3.500 
#    0.000    1.250    0.000   19.500    0.000    0.000 
#    0.000    0.000    0.000    0.000    0.000    0.000 
#
# Total GULP energy -793257.589016 kJ/mol
# GULP energy per Si atom -12394.649828 kJ/mol
# Density = 1.797002 g / cm^3
# Si number density = 18.011014 Si / 1000 Ang^3
#
#
#
# Elastic Constant Matrix: (Units=GPa)
#
#
# Indices 1 2 3 4 5 6 
#
# 1 111.6654 31.8134 57.8907 0.0000 0.0000 0.0000
# 2 31.8134 65.0216 30.7793 0.0000 0.0000 0.0000
# 3 57.8907 30.7793 76.7783 0.0000 0.0000 0.0000
# 4 0.0000 0.0000 0.0000 32.8355 0.0000 0.0000
# 5 0.0000 0.0000 0.0000 0.0000 19.3065 0.0000
# 6 0.0000 0.0000 0.0000 0.0000 0.0000 18.5368
#
#
#
# Elastic Compliance Matrix: (Units=1/GPa)
#
#
# Indices 1 2 3 4 5 6 
#
# 1 0.015013 -0.002452 -0.010336 0.000000 0.000000 0.000000
# 2 -0.002452 0.019382 -0.005921 0.000000 0.000000 0.000000
# 3 -0.010336 -0.005921 0.023192 0.000000 0.000000 0.000000
# 4 0.000000 0.000000 0.000000 0.030455 0.000000 0.000000
# 5 0.000000 0.000000 0.000000 0.000000 0.051796 0.000000
# 6 0.000000 0.000000 0.000000 0.000000 0.000000 0.053947
#
#
# Mechanical properties :
#
#
# Convention : Reuss Voigt Hill
#
# Bulk Modulus (GPa) = 49.58553 54.93690 52.26122
# Shear Modulus (GPa) = 21.01493 23.00123 22.00808
#
# Velocity S-wave (km/s) = 3.41952 3.57748 3.49939
# Velocity P-wave (km/s) = 6.57125 6.90163 6.73847
#
# Compressibility (1/GPa) = 0.02016717
#
# Stress axis : x y z
#
# Youngs Moduli (GPa) = 66.61014 51.59380 43.11871
#
# Poissons Ratio (x) = 0.12653 0.44569
# Poissons Ratio (y) = 0.16335 0.25530
# Poissons Ratio (z) = 0.68851 0.30548
#
# Static dielectric constant tensor:
#      x y z
#    x 3.680030 0.000000 0.000000 
#    y 0.000000 3.258440 0.000000 
#    z 0.000000 0.000000 3.342380 
# 
# 
# High freq. dielectric constant tensor:
#      x y z
#    x 1.692390 0.000000 0.000000 
#    y 0.000000 1.683310 0.000000 
#    z 0.000000 0.000000 1.687040 
# 
# From -- ./inp_files/30647.got.cif
#   From: 2010.03.12/outbox.cif.g09.slc.cpg/sg59_16_cif.got.tgz:30647.got - 2010.04.16 16:29:54.
