data_PCOD8241440
_publ_section_title
;
Structure prediction by ZEFSAII (Michael W. Deem and Ramdas Pophale) SiO2 
 PCOD8241440
Probable space group: P M M N
;
_chemical_formula_sum "Si O2"
_cell_formula_units_Z 64
_cell_length_a 8.563049
_cell_length_b 18.107113
_cell_length_c 21.549084
_cell_angle_alpha 90.000000
_cell_angle_beta 90.000000
_cell_angle_gamma 90.000000
_cell_volume 3341.230638
_symmetry_space_group_name_H-M "P M M N"
_symmetry_group_IT_number 59
_space_group.IT_coordinate_system_code '2'
_symmetry_cell_setting 'orthorhombic'
loop_
_space_group_symop_operation_xyz
x,y,z
1/2-x,1/2-y,z
1/2+x,-y,-z
-x,1/2+y,-z
-x,-y,-z
1/2+x,1/2+y,-z
1/2-x,y,z
x,1/2-y,z
loop_
_atom_site_type_symbol
_atom_site_label
_atom_site_fract_x
_atom_site_fract_y
_atom_site_fract_z
Si Si1 0.568479 0.548221 0.178247
Si Si2 0.429805 0.413703 0.242641
Si Si3 0.564734 0.832265 0.506143
Si Si4 0.430843 0.068989 0.381205
Si Si5 0.932548 0.165658 0.738351
Si Si6 0.432553 0.410195 0.619122
Si Si7 0.066985 0.666422 0.868470
Si Si8 0.567112 0.529623 0.936375
O O1 0.750000 0.545851 0.161963
O O2 0.528639 0.487919 0.230821
O O3 0.522412 0.628279 0.204133
O O4 0.472535 0.530141 0.116292
O O5 0.250000 0.430903 0.226599
O O6 0.450844 0.391236 0.314408
O O7 0.488831 0.347947 0.198562
O O8 0.750000 0.828508 0.507505
O O9 0.493110 0.750000 0.506955
O O10 0.504506 0.875361 0.566830
O O11 0.507398 0.873612 0.444505
O O12 0.250000 0.047657 0.392659
O O13 0.535876 0.996682 0.384793
O O14 0.750000 0.158803 0.751245
O O15 0.988519 0.250000 0.734856
O O16 0.970534 0.126080 0.674117
O O17 0.250000 0.395709 0.630708
O O18 0.250000 0.653826 0.861029
O O19 0.027450 0.750000 0.889296
O O20 0.004197 0.609780 0.920042
O O21 0.750000 0.539334 0.942703
O O22 0.500000 0.500000 0.000000
#
# Coordination Sequence:
#
# PCOD8241440 Si02
#       8
#     8   8   8   8   8   8   8   8
#     4  11  21  36  59  85 116 149 186 231 279 336
#     4  10  19  32  54  82 112 147 189 233 281 340
#     4   9  19  35  52  74 105 142 187 238 290 344
#     4  10  20  34  55  79 107 143 185 235 287 346
#     4  11  23  38  57  82 113 147 186 235 290 345
#     4  11  21  34  56  80 106 143 187 237 288 347
#     4  10  21  37  58  86 121 157 195 241 289 334
#     4  11  22  39  64  91 122 159 200 239 279 333
#
# _framework density 19.154620000000001
#
# number of rings (size 3 to 8) (size 9 to 14) (size 15 to 20)
#    0.000    1.625    1.250    6.000    0.000    3.500 
#    0.000    2.500    0.000    5.625    0.000    0.000 
#    0.000    0.000    0.000    0.000    0.000    0.000 
#
# Total GULP energy -793794.163572 kJ/mol
# GULP energy per Si atom -12403.033806 kJ/mol
# Density = 1.911102 g / cm^3
# Si number density = 19.154620 Si / 1000 Ang^3
#
#
#
# Elastic Constant Matrix: (Units=GPa)
#
#
# Indices 1 2 3 4 5 6 
#
# 1 59.6888 30.1329 16.9622 0.0000 0.0000 0.0000
# 2 30.1329 128.1399 66.6668 0.0000 0.0000 0.0000
# 3 16.9622 66.6668 127.1321 0.0000 0.0000 0.0000
# 4 0.0000 0.0000 0.0000 25.0808 0.0000 0.0000
# 5 0.0000 0.0000 0.0000 0.0000 27.4753 0.0000
# 6 0.0000 0.0000 0.0000 0.0000 0.0000 26.3033
#
#
#
# Elastic Compliance Matrix: (Units=1/GPa)
#
#
# Indices 1 2 3 4 5 6 
#
# 1 0.019017 -0.004334 -0.000264 0.000000 0.000000 0.000000
# 2 -0.004334 0.011720 -0.005567 0.000000 0.000000 0.000000
# 3 -0.000264 -0.005567 0.010821 0.000000 0.000000 0.000000
# 4 0.000000 0.000000 0.000000 0.039871 0.000000 0.000000
# 5 0.000000 0.000000 0.000000 0.000000 0.036396 0.000000
# 6 0.000000 0.000000 0.000000 0.000000 0.000000 0.038018
#
#
# Mechanical properties :
#
#
# Convention : Reuss Voigt Hill
#
# Bulk Modulus (GPa) = 47.11455 60.27607 53.69531
# Shear Modulus (GPa) = 27.28511 29.18513 28.23512
#
# Velocity S-wave (km/s) = 3.77830 3.90764 3.84352
# Velocity P-wave (km/s) = 6.60942 7.20389 6.91305
#
# Compressibility (1/GPa) = 0.02122487
#
# Stress axis : x y z
#
# Youngs Moduli (GPa) = 52.58499 85.32583 92.41624
#
# Poissons Ratio (x) = 0.36984 0.02443
# Poissons Ratio (y) = 0.22792 0.51452
# Poissons Ratio (z) = 0.01390 0.47505
#
# Static dielectric constant tensor:
#      x y z
#    x 3.478170 0.000000 0.000000 
#    y 0.000000 3.623100 0.000000 
#    z 0.000000 0.000000 3.572880 
# 
# 
# High freq. dielectric constant tensor:
#      x y z
#    x 1.745340 0.000000 0.000000 
#    y 0.000000 1.740880 0.000000 
#    z 0.000000 0.000000 1.746330 
# 
# From -- ./inp_files/29602.got.cif
#   From: 2010.03.12/outbox.cif.g09.slc.cpg/sg59_15_cif.got.tgz:29602.got - 2010.04.16 16:29:54.
