data_PCOD8241537
_publ_section_title
;
Structure prediction by ZEFSAII (Michael W. Deem and Ramdas Pophale) SiO2 
 PCOD8241537
Probable space group: P M M N
;
_chemical_formula_sum "Si O2"
_cell_formula_units_Z 64
_cell_length_a 19.858892
_cell_length_b 9.069601
_cell_length_c 20.136708
_cell_angle_alpha 90.000000
_cell_angle_beta 90.000000
_cell_angle_gamma 90.000000
_cell_volume 3626.867317
_symmetry_space_group_name_H-M "P M M N"
_symmetry_group_IT_number 59
_space_group.IT_coordinate_system_code '2'
_symmetry_cell_setting 'orthorhombic'
loop_
_space_group_symop_operation_xyz
x,y,z
1/2-x,1/2-y,z
1/2+x,-y,-z
-x,1/2+y,-z
-x,-y,-z
1/2+x,1/2+y,-z
1/2-x,y,z
x,1/2-y,z
loop_
_atom_site_type_symbol
_atom_site_label
_atom_site_fract_x
_atom_site_fract_y
_atom_site_fract_z
Si Si1 0.551352 0.580654 0.329676
Si Si2 0.673223 0.077698 0.085203
Si Si3 0.324553 0.924985 0.432522
Si Si4 0.395361 0.581846 0.302813
Si Si5 0.826878 0.923417 0.950004
Si Si6 0.583970 0.577119 0.828579
Si Si7 0.563465 0.074284 0.465450
Si Si8 0.931815 0.076650 0.196214
O O1 0.574671 0.750000 0.336358
O O2 0.471454 0.567904 0.327285
O O3 0.576778 0.486983 0.392106
O O4 0.583595 0.511130 0.263589
O O5 0.750000 0.036539 0.104313
O O6 0.664994 0.250000 0.072315
O O7 0.624525 0.025088 0.144112
O O8 0.650187 0.996947 0.018473
O O9 0.250000 0.986825 0.446284
O O10 0.325540 0.750000 0.427671
O O11 0.350269 0.986777 0.361708
O O12 0.371688 0.975577 0.492573
O O13 0.376266 0.750000 0.287448
O O14 0.381624 0.491273 0.236304
O O15 0.750000 0.966892 0.932133
O O16 0.834603 0.750000 0.958946
O O17 0.876621 0.983842 0.892868
O O18 0.593884 0.750000 0.822915
O O19 0.505192 0.533919 0.833098
O O20 0.553236 0.250000 0.463821
O O21 0.500000 0.000000 0.500000
O O22 0.927759 0.250000 0.211499
#
# Coordination Sequence:
#
# PCOD8241537 Si02
#       8
#     8   8   8   8   8   8   8   8
#     4  10  19  33  52  77 102 128 166 208 248 297
#     4   9  18  33  52  72  95 125 166 211 250 295
#     4   9  18  33  51  73 102 133 167 207 249 296
#     4   9  17  31  49  71  97 127 164 202 242 290
#     4   9  18  32  48  67  96 132 165 197 241 299
#     4   9  18  31  47  70  99 130 161 197 243 294
#     4  11  20  33  55  79 101 133 172 210 252 299
#     4   9  18  33  51  73  99 128 161 204 252 296
#
# _framework density 17.646083000000001
#
# number of rings (size 3 to 8) (size 9 to 14) (size 15 to 20)
#    0.000    2.625    1.250    0.750    0.000    2.500 
#    0.000    0.625    0.000    6.750    0.000    0.000 
#    0.000    0.000    0.000    0.000    0.000    0.000 
#
# Total GULP energy -793612.841948 kJ/mol
# GULP energy per Si atom -12400.200655 kJ/mol
# Density = 1.760592 g / cm^3
# Si number density = 17.646083 Si / 1000 Ang^3
#
#
#
# Elastic Constant Matrix: (Units=GPa)
#
#
# Indices 1 2 3 4 5 6 
#
# 1 100.9517 35.2892 90.4741 0.0000 0.0000 0.0000
# 2 35.2892 49.6855 55.1639 0.0000 0.0000 0.0000
# 3 90.4741 55.1639 177.1989 0.0000 0.0000 0.0000
# 4 0.0000 0.0000 0.0000 35.5492 0.0000 0.0000
# 5 0.0000 0.0000 0.0000 0.0000 33.3432 0.0000
# 6 0.0000 0.0000 0.0000 0.0000 0.0000 17.5261
#
#
#
# Elastic Compliance Matrix: (Units=1/GPa)
#
#
# Indices 1 2 3 4 5 6 
#
# 1 0.018798 -0.004119 -0.008316 0.000000 0.000000 0.000000
# 2 -0.004119 0.031660 -0.007753 0.000000 0.000000 0.000000
# 3 -0.008316 -0.007753 0.012303 0.000000 0.000000 0.000000
# 4 0.000000 0.000000 0.000000 0.028130 0.000000 0.000000
# 5 0.000000 0.000000 0.000000 0.000000 0.029991 0.000000
# 6 0.000000 0.000000 0.000000 0.000000 0.000000 0.057058
#
#
# Mechanical properties :
#
#
# Convention : Reuss Voigt Hill
#
# Bulk Modulus (GPa) = 44.67136 76.63229 60.65182
# Shear Modulus (GPa) = 22.14575 27.07762 24.61168
#
# Velocity S-wave (km/s) = 3.54643 3.92150 3.73867
# Velocity P-wave (km/s) = 6.49151 8.00161 7.28579
#
# Compressibility (1/GPa) = 0.02238571
#
# Stress axis : x y z
#
# Youngs Moduli (GPa) = 53.19664 31.58566 81.28187
#
# Poissons Ratio (x) = 0.13009 0.67592
# Poissons Ratio (y) = 0.21910 0.63019
# Poissons Ratio (z) = 0.44237 0.24489
#
# Static dielectric constant tensor:
#      x y z
#    x 3.336980 0.000000 0.000000 
#    y 0.000000 3.169880 0.000000 
#    z 0.000000 0.000000 3.420490 
# 
# 
# High freq. dielectric constant tensor:
#      x y z
#    x 1.670460 0.000000 0.000000 
#    y 0.000000 1.669300 0.000000 
#    z 0.000000 0.000000 1.691390 
# 
# From -- ./inp_files/26202.got.cif
#   From: 2010.03.12/outbox.cif.g09.slc.cpg/sg59_14_cif.got.tgz:26202.got - 2010.04.16 16:29:54.
