data_PCOD8241947
_publ_section_title
;
Structure prediction by ZEFSAII (Michael W. Deem and Ramdas Pophale) SiO2 
 PCOD8241947
Probable space group: P M M N
;
_chemical_formula_sum "Si O2"
_cell_formula_units_Z 64
_cell_length_a 19.244710
_cell_length_b 9.181362
_cell_length_c 18.599824
_cell_angle_alpha 90.000000
_cell_angle_beta 90.000000
_cell_angle_gamma 90.000000
_cell_volume 3286.452175
_symmetry_space_group_name_H-M "P M M N"
_symmetry_group_IT_number 59
_space_group.IT_coordinate_system_code '2'
_symmetry_cell_setting 'orthorhombic'
loop_
_space_group_symop_operation_xyz
x,y,z
1/2-x,1/2-y,z
1/2+x,-y,-z
-x,1/2+y,-z
-x,-y,-z
1/2+x,1/2+y,-z
1/2-x,y,z
x,1/2-y,z
loop_
_atom_site_type_symbol
_atom_site_label
_atom_site_fract_x
_atom_site_fract_y
_atom_site_fract_z
Si Si1 0.544409 0.578335 0.768711
Si Si2 0.066941 0.414690 0.851794
Si Si3 0.596079 0.919070 0.500200
Si Si4 0.329356 0.907871 0.600247
Si Si5 0.571566 0.915570 0.989526
Si Si6 0.021832 0.921807 0.381938
Si Si7 0.670804 0.921177 0.864163
Si Si8 0.330267 0.415965 0.731291
O O1 0.533199 0.750000 0.756262
O O2 0.497414 0.523864 0.836138
O O3 0.519776 0.491652 0.697502
O O4 0.624876 0.545821 0.792047
O O5 0.040585 0.250000 0.836070
O O6 0.130984 0.460738 0.802819
O O7 0.101946 0.424093 0.930150
O O8 0.603024 0.750000 0.516705
O O9 0.543419 0.955170 0.434195
O O10 0.666573 0.990394 0.470354
O O11 0.583858 0.000494 0.575242
O O12 0.250000 0.884644 0.619046
O O13 0.365581 0.750000 0.588010
O O14 0.364055 0.987180 0.668461
O O15 0.555140 0.750000 0.965479
O O16 0.627843 0.984017 0.933529
O O17 0.500000 0.000000 0.000000
O O18 0.034188 0.750000 0.373789
O O19 0.750000 0.987575 0.858436
O O20 0.678471 0.750000 0.874901
O O21 0.250000 0.446234 0.744551
O O22 0.344304 0.250000 0.708000
#
# Coordination Sequence:
#
# PCOD8241947 Si02
#       8
#     8   8   8   8   8   8   8   8
#     4  11  21  34  55  81 107 141 184 225 271 327
#     4  10  20  32  52  80 109 140 175 222 272 322
#     4  10  20  35  55  79 105 137 179 222 270 324
#     4  10  20  33  50  73 103 140 178 216 263 318
#     4  10  19  34  56  81 108 140 178 223 273 324
#     4  10  21  36  55  79 109 140 173 222 275 324
#     4   9  19  36  57  81 109 143 185 230 273 320
#     4   9  18  32  48  71 105 142 180 220 265 320
#
# _framework density 19.473887999999999
#
# number of rings (size 3 to 8) (size 9 to 14) (size 15 to 20)
#    0.000    2.125    1.250    2.250    0.000    6.250 
#    0.000    3.125    0.000    5.625    0.000    1.750 
#    0.000    0.000    0.000    0.000    0.000    0.000 
#
# Total GULP energy -792892.062292 kJ/mol
# GULP energy per Si atom -12388.938473 kJ/mol
# Density = 1.942956 g / cm^3
# Si number density = 19.473888 Si / 1000 Ang^3
#
#
#
# Elastic Constant Matrix: (Units=GPa)
#
#
# Indices 1 2 3 4 5 6 
#
# 1 53.6748 26.4616 18.8357 0.0000 0.0000 0.0000
# 2 26.4616 77.0015 32.4603 0.0000 0.0000 0.0000
# 3 18.8357 32.4603 80.0486 0.0000 0.0000 0.0000
# 4 0.0000 0.0000 0.0000 28.3444 0.0000 0.0000
# 5 0.0000 0.0000 0.0000 0.0000 32.3056 0.0000
# 6 0.0000 0.0000 0.0000 0.0000 0.0000 22.6567
#
#
#
# Elastic Compliance Matrix: (Units=1/GPa)
#
#
# Indices 1 2 3 4 5 6 
#
# 1 0.022887 -0.006749 -0.002649 0.000000 0.000000 0.000000
# 2 -0.006749 0.017654 -0.005571 0.000000 0.000000 0.000000
# 3 -0.002649 -0.005571 0.015375 0.000000 0.000000 0.000000
# 4 0.000000 0.000000 0.000000 0.035280 0.000000 0.000000
# 5 0.000000 0.000000 0.000000 0.000000 0.030954 0.000000
# 6 0.000000 0.000000 0.000000 0.000000 0.000000 0.044137
#
#
# Mechanical properties :
#
#
# Convention : Reuss Voigt Hill
#
# Bulk Modulus (GPa) = 38.49182 40.69335 39.59259
# Shear Modulus (GPa) = 24.40393 25.52584 24.96489
#
# Velocity S-wave (km/s) = 3.54384 3.62439 3.58434
# Velocity P-wave (km/s) = 6.04598 6.20134 6.12415
#
# Compressibility (1/GPa) = 0.02597955
#
# Stress axis : x y z
#
# Youngs Moduli (GPa) = 43.69237 56.64309 65.04159
#
# Poissons Ratio (x) = 0.38226 0.17228
# Poissons Ratio (y) = 0.29486 0.36235
# Poissons Ratio (z) = 0.11573 0.31556
#
# Static dielectric constant tensor:
#      x y z
#    x 3.614560 0.000000 0.000000 
#    y 0.000000 3.635310 0.000000 
#    z 0.000000 0.000000 3.825720 
# 
# 
# High freq. dielectric constant tensor:
#      x y z
#    x 1.740950 0.000000 0.000000 
#    y 0.000000 1.749880 0.000000 
#    z 0.000000 0.000000 1.765220 
# 
# From -- ./inp_files/28200.got.cif
#   From: 2010.03.12/outbox.cif.g09.slc.cpg/sg59_15_cif.got.tgz:28200.got - 2010.04.16 16:29:54.
