data_PCOD8241773
_publ_section_title
;
Structure prediction by ZEFSAII (Michael W. Deem and Ramdas Pophale) SiO2 
 PCOD8241773
Probable space group: P M M N
;
_chemical_formula_sum "Si O2"
_cell_formula_units_Z 44
_cell_length_a 13.326996
_cell_length_b 10.389794
_cell_length_c 16.550220
_cell_angle_alpha 90.000000
_cell_angle_beta 90.000000
_cell_angle_gamma 90.000000
_cell_volume 2291.621960
_symmetry_space_group_name_H-M "P M M N"
_symmetry_group_IT_number 59
_space_group.IT_coordinate_system_code '2'
_symmetry_cell_setting 'orthorhombic'
loop_
_space_group_symop_operation_xyz
x,y,z
1/2-x,1/2-y,z
1/2+x,-y,-z
-x,1/2+y,-z
-x,-y,-z
1/2+x,1/2+y,-z
1/2-x,y,z
x,1/2-y,z
loop_
_atom_site_type_symbol
_atom_site_label
_atom_site_fract_x
_atom_site_fract_y
_atom_site_fract_z
Si Si1 0.993250 0.250000 0.889410
Si Si2 0.867803 0.893155 0.523593
Si Si3 0.559711 0.604466 0.694305
Si Si4 0.367683 0.503474 0.142687
Si Si5 0.136781 0.992899 0.640275
Si Si6 0.367365 0.250000 0.043451
Si Si7 0.140041 0.250000 0.740774
O O1 0.924286 0.375949 0.896435
O O2 0.053165 0.250000 0.806201
O O3 0.072168 0.250000 0.961140
O O4 0.750000 0.879452 0.512648
O O5 0.916734 0.750000 0.516367
O O6 0.893457 0.951271 0.611413
O O7 0.903646 0.988645 0.451953
O O8 0.596305 0.750000 0.711121
O O9 0.598982 0.512710 0.764770
O O10 0.438412 0.603085 0.686685
O O11 0.250000 0.530950 0.138254
O O12 0.397879 0.375548 0.094211
O O13 0.250000 0.936240 0.643637
O O14 0.130079 0.129308 0.682959
O O15 0.250000 0.250000 0.022622
O O16 0.250000 0.250000 0.783262
#
# Coordination Sequence:
#
# PCOD8241773 Si02
#       7
#     4   8   8   8   8   4   4
#     4  12  22  40  64  90 118 147 190 237 295 335
#     4   9  17  30  52  79 107 146 197 243 283 338
#     4  11  21  34  55  82 112 156 197 234 285 349
#     4  11  23  40  62  90 121 152 189 236 286 343
#     4  10  19  34  53  77 111 148 193 245 289 332
#     4  10  23  43  66  90 118 150 187 229 285 357
#     4  10  19  33  56  82 106 141 191 236 280 336
#
# _framework density 19.200375000000001
#
# number of rings (size 3 to 8) (size 9 to 14) (size 15 to 20)
#    0.000    1.636    3.636    2.182    0.000    1.091 
#    0.000    0.000    0.000    1.091    0.000    0.000 
#    0.000    0.000    0.000    0.000    0.000    0.000 
#
# Total GULP energy -545585.556344 kJ/mol
# GULP energy per Si atom -12399.671735 kJ/mol
# Density = 1.915667 g / cm^3
# Si number density = 19.200375 Si / 1000 Ang^3
#
#
#
# Elastic Constant Matrix: (Units=GPa)
#
#
# Indices 1 2 3 4 5 6 
#
# 1 54.8012 28.1314 33.9539 0.0000 0.0000 0.0000
# 2 28.1314 85.7984 31.0234 0.0000 0.0000 0.0000
# 3 33.9539 31.0234 100.0666 0.0000 0.0000 0.0000
# 4 0.0000 0.0000 0.0000 13.3467 0.0000 0.0000
# 5 0.0000 0.0000 0.0000 0.0000 32.9452 0.0000
# 6 0.0000 0.0000 0.0000 0.0000 0.0000 31.7568
#
#
#
# Elastic Compliance Matrix: (Units=1/GPa)
#
#
# Indices 1 2 3 4 5 6 
#
# 1 0.025502 -0.005893 -0.006826 0.000000 0.000000 0.000000
# 2 -0.005893 0.014489 -0.002492 0.000000 0.000000 0.000000
# 3 -0.006826 -0.002492 0.013082 0.000000 0.000000 0.000000
# 4 0.000000 0.000000 0.000000 0.074925 0.000000 0.000000
# 5 0.000000 0.000000 0.000000 0.000000 0.030353 0.000000
# 6 0.000000 0.000000 0.000000 0.000000 0.000000 0.031489
#
#
# Mechanical properties :
#
#
# Convention : Reuss Voigt Hill
#
# Bulk Modulus (GPa) = 44.15059 47.43149 45.79104
# Shear Modulus (GPa) = 21.94766 25.44691 23.69729
#
# Velocity S-wave (km/s) = 3.38462 3.64446 3.51694
# Velocity P-wave (km/s) = 6.19022 6.51663 6.35552
#
# Compressibility (1/GPa) = 0.02264976
#
# Stress axis : x y z
#
# Youngs Moduli (GPa) = 39.21194 69.01933 76.43982
#
# Poissons Ratio (x) = 0.40676 0.52179
# Poissons Ratio (y) = 0.23109 0.19050
# Poissons Ratio (z) = 0.26767 0.17201
#
# Static dielectric constant tensor:
#      x y z
#    x 3.602000 0.000000 0.000000 
#    y 0.000000 3.440110 0.000000 
#    z 0.000000 0.000000 3.509290 
# 
# 
# High freq. dielectric constant tensor:
#      x y z
#    x 1.752810 0.000000 0.000000 
#    y 0.000000 1.731690 0.000000 
#    z 0.000000 0.000000 1.747850 
# 
# From -- ./inp_files/27335.got.cif
#   From: 2010.03.12/outbox.cif.g09.slc.cpg/sg59_14_cif.got.tgz:27335.got - 2010.04.16 16:29:54.
