data_PCOD8241884
_publ_section_title
;
Structure prediction by ZEFSAII (Michael W. Deem and Ramdas Pophale) SiO2 
 PCOD8241884
Probable space group: P M M N
;
_chemical_formula_sum "Si O2"
_cell_formula_units_Z 40
_cell_length_a 8.984395
_cell_length_b 10.122461
_cell_length_c 24.052038
_cell_angle_alpha 90.000000
_cell_angle_beta 90.000000
_cell_angle_gamma 90.000000
_cell_volume 2187.393066
_symmetry_space_group_name_H-M "P M M N"
_symmetry_group_IT_number 59
_space_group.IT_coordinate_system_code '2'
_symmetry_cell_setting 'orthorhombic'
loop_
_space_group_symop_operation_xyz
x,y,z
1/2-x,1/2-y,z
1/2+x,-y,-z
-x,1/2+y,-z
-x,-y,-z
1/2+x,1/2+y,-z
1/2-x,y,z
x,1/2-y,z
loop_
_atom_site_type_symbol
_atom_site_label
_atom_site_fract_x
_atom_site_fract_y
_atom_site_fract_z
Si Si1 0.073466 0.490343 0.622474
Si Si2 0.927153 0.397005 0.166656
Si Si3 0.926838 0.897404 0.255921
Si Si4 0.426279 0.250000 0.547593
Si Si5 0.425007 0.600064 0.958267
Si Si6 0.573004 0.750000 0.578362
O O1 0.250000 0.513004 0.618632
O O2 0.023468 0.444741 0.683441
O O3 0.016319 0.380657 0.578871
O O4 0.988537 0.624064 0.610042
O O5 0.750000 0.398298 0.169111
O O6 0.983968 0.250000 0.182929
O O7 0.994587 0.503520 0.209679
O O8 0.979693 0.432703 0.104311
O O9 0.750000 0.896027 0.252342
O O10 0.989192 0.750000 0.244874
O O11 0.250000 0.250000 0.549417
O O12 0.487557 0.250000 0.484924
O O13 0.250000 0.581428 0.962656
O O14 0.470176 0.750000 0.973764
O O15 0.500000 0.500000 0.000000
O O16 0.750000 0.750000 0.579744
#
# Coordination Sequence:
#
# PCOD8241884 Si02
#       6
#     8   8   8   4   8   4
#     4  10  19  34  55  78 100 127 167 212 252 294
#     4   8  15  27  44  70 103 130 156 200 254 297
#     4   9  16  27  47  75 101 123 155 205 258 299
#     4   9  18  35  55  75 103 131 162 209 256 296
#     4   9  18  32  49  73 105 137 168 204 245 292
#     4  11  23  35  49  73 105 139 168 199 246 304
#
# _framework density 18.28661
#
# number of rings (size 3 to 8) (size 9 to 14) (size 15 to 20)
#    0.000    2.800    1.000    2.100    1.400    1.200 
#    0.000    3.500    0.000    1.200    0.000    0.000 
#    0.000    0.000    0.000    0.000    0.000    0.000 
#
# Total GULP energy -495895.262558 kJ/mol
# GULP energy per Si atom -12397.381564 kJ/mol
# Density = 1.824499 g / cm^3
# Si number density = 18.286610 Si / 1000 Ang^3
#
#
#
# Elastic Constant Matrix: (Units=GPa)
#
#
# Indices 1 2 3 4 5 6 
#
# 1 21.3723 29.4842 22.4607 0.0000 0.0000 0.0000
# 2 29.4842 185.4401 107.8157 0.0000 0.0000 0.0000
# 3 22.4607 107.8157 149.8753 0.0000 0.0000 0.0000
# 4 0.0000 0.0000 0.0000 43.6311 0.0000 0.0000
# 5 0.0000 0.0000 0.0000 0.0000 20.1734 0.0000
# 6 0.0000 0.0000 0.0000 0.0000 0.0000 9.2287
#
#
#
# Elastic Compliance Matrix: (Units=1/GPa)
#
#
# Indices 1 2 3 4 5 6 
#
# 1 0.061125 -0.007551 -0.003729 0.000000 0.000000 0.000000
# 2 -0.007551 0.010202 -0.006208 0.000000 0.000000 0.000000
# 3 -0.003729 -0.006208 0.011697 0.000000 0.000000 0.000000
# 4 0.000000 0.000000 0.000000 0.022919 0.000000 0.000000
# 5 0.000000 0.000000 0.000000 0.000000 0.049570 0.000000
# 6 0.000000 0.000000 0.000000 0.000000 0.000000 0.108357
#
#
# Mechanical properties :
#
#
# Convention : Reuss Voigt Hill
#
# Bulk Modulus (GPa) = 20.81181 75.13432 47.97306
# Shear Modulus (GPa) = 15.88005 27.73512 21.80759
#
# Velocity S-wave (km/s) = 2.95006 3.89870 3.45707
# Velocity P-wave (km/s) = 4.79681 7.83854 6.49816
#
# Compressibility (1/GPa) = 0.04804965
#
# Stress axis : x y z
#
# Youngs Moduli (GPa) = 16.36001 98.01771 85.49542
#
# Poissons Ratio (x) = 0.74011 0.31877
# Poissons Ratio (y) = 0.12353 0.53072
# Poissons Ratio (z) = 0.06100 0.60845
#
# Static dielectric constant tensor:
#      x y z
#    x 2.806750 0.000000 0.000000 
#    y 0.000000 3.690730 0.000000 
#    z 0.000000 0.000000 4.019500 
# 
# 
# High freq. dielectric constant tensor:
#      x y z
#    x 1.649230 0.000000 0.000000 
#    y 0.000000 1.724640 0.000000 
#    z 0.000000 0.000000 1.720210 
# 
# From -- ./inp_files/32415.got.cif
#   From: 2010.03.12/outbox.cif.g09.slc.cpg/sg59_17_cif.got.tgz:32415.got - 2010.04.16 16:29:54.
