data_PCOD8241753
_publ_section_title
;
Structure prediction by ZEFSAII (Michael W. Deem and Ramdas Pophale) SiO2 
 PCOD8241753
Probable space group: P M M N
;
_chemical_formula_sum "Si O2"
_cell_formula_units_Z 56
_cell_length_a 8.531561
_cell_length_b 24.215218
_cell_length_c 14.705084
_cell_angle_alpha 90.000000
_cell_angle_beta 90.000000
_cell_angle_gamma 90.000000
_cell_volume 3037.976381
_symmetry_space_group_name_H-M "P M M N"
_symmetry_group_IT_number 59
_space_group.IT_coordinate_system_code '2'
_symmetry_cell_setting 'orthorhombic'
loop_
_space_group_symop_operation_xyz
x,y,z
1/2-x,1/2-y,z
1/2+x,-y,-z
-x,1/2+y,-z
-x,-y,-z
1/2+x,1/2+y,-z
1/2-x,y,z
x,1/2-y,z
loop_
_atom_site_type_symbol
_atom_site_label
_atom_site_fract_x
_atom_site_fract_y
_atom_site_fract_z
Si Si1 0.066928 0.062725 0.628786
Si Si2 0.934723 0.750000 0.286650
Si Si3 0.931332 0.552959 0.672551
Si Si4 0.933229 0.366625 0.465192
Si Si5 0.564086 0.750000 0.495715
Si Si6 0.429635 0.638006 0.221625
Si Si7 0.927886 0.432256 0.942611
Si Si8 0.071403 0.538767 0.864458
O O1 0.250000 0.049927 0.624954
O O2 0.021689 0.101965 0.545871
O O3 0.027036 0.093069 0.722347
O O4 0.976930 0.004688 0.624824
O O5 0.750000 0.750000 0.280251
O O6 0.989955 0.750000 0.390809
O O7 0.001855 0.801986 0.234481
O O8 0.750000 0.563846 0.653264
O O9 0.031029 0.602550 0.629091
O O10 0.960118 0.553082 0.780458
O O11 0.750000 0.366476 0.486059
O O12 0.994445 0.304119 0.456333
O O13 0.750000 0.750000 0.505549
O O14 0.250000 0.635752 0.254669
O O15 0.445954 0.624093 0.114537
O O16 0.750000 0.455220 0.934055
O O17 0.044567 0.476948 0.900203
O O18 0.964969 0.420844 0.049402
O O19 0.250000 0.544056 0.830625
#
# Coordination Sequence:
#
# PCOD8241753 Si02
#       8
#     8   4   8   8   4   8   8   8
#     4  12  23  37  56  84 118 153 189 233 285 343
#     4  11  23  37  57  82 114 151 192 236 283 337
#     4  12  24  39  57  83 118 155 193 238 289 345
#     4  12  25  41  61  84 112 151 194 239 288 342
#     4  11  23  41  61  84 114 149 192 238 283 335
#     4  11  21  35  57  84 115 152 191 232 282 340
#     4   9  19  34  54  82 115 148 184 229 282 337
#     4  10  19  33  55  83 114 148 187 231 280 338
#
# _framework density 18.433323000000001
#
# number of rings (size 3 to 8) (size 9 to 14) (size 15 to 20)
#    0.000    1.000    2.857    5.571    0.000    1.714 
#    0.000    0.000    0.000    0.857    0.000    4.000 
#    0.000    0.000    0.000    0.000    0.000    0.000 
#
# Total GULP energy -694582.680432 kJ/mol
# GULP energy per Si atom -12403.262151 kJ/mol
# Density = 1.839137 g / cm^3
# Si number density = 18.433323 Si / 1000 Ang^3
#
#
#
# Elastic Constant Matrix: (Units=GPa)
#
#
# Indices 1 2 3 4 5 6 
#
# 1 73.8056 17.9925 19.6607 0.0000 0.0000 0.0000
# 2 17.9925 112.2370 41.4802 0.0000 0.0000 0.0000
# 3 19.6607 41.4802 80.4387 0.0000 0.0000 0.0000
# 4 0.0000 0.0000 0.0000 27.5139 0.0000 0.0000
# 5 0.0000 0.0000 0.0000 0.0000 27.1912 0.0000
# 6 0.0000 0.0000 0.0000 0.0000 0.0000 18.7240
#
#
#
# Elastic Compliance Matrix: (Units=1/GPa)
#
#
# Indices 1 2 3 4 5 6 
#
# 1 0.014637 -0.001265 -0.002925 0.000000 0.000000 0.000000
# 2 -0.001265 0.011117 -0.005423 0.000000 0.000000 0.000000
# 3 -0.002925 -0.005423 0.015943 0.000000 0.000000 0.000000
# 4 0.000000 0.000000 0.000000 0.036345 0.000000 0.000000
# 5 0.000000 0.000000 0.000000 0.000000 0.036777 0.000000
# 6 0.000000 0.000000 0.000000 0.000000 0.000000 0.053407
#
#
# Mechanical properties :
#
#
# Convention : Reuss Voigt Hill
#
# Bulk Modulus (GPa) = 44.50461 47.19424 45.84942
# Shear Modulus (GPa) = 25.64843 27.17570 26.41207
#
# Velocity S-wave (km/s) = 3.73422 3.84379 3.78940
# Velocity P-wave (km/s) = 6.54129 6.73482 6.63876
#
# Compressibility (1/GPa) = 0.02246958
#
# Stress axis : x y z
#
# Youngs Moduli (GPa) = 68.32116 89.95278 62.72161
#
# Poissons Ratio (x) = 0.11383 0.18346
# Poissons Ratio (y) = 0.08645 0.34017
# Poissons Ratio (z) = 0.19984 0.48785
#
# Static dielectric constant tensor:
#      x y z
#    x 3.529910 0.000000 0.000000 
#    y 0.000000 3.308340 0.000000 
#    z 0.000000 0.000000 3.548110 
# 
# 
# High freq. dielectric constant tensor:
#      x y z
#    x 1.732560 0.000000 0.000000 
#    y 0.000000 1.693760 0.000000 
#    z 0.000000 0.000000 1.714280 
# 
# From -- ./inp_files/21110.got.cif
#   From: 2010.03.12/outbox.cif.g09.slc.cpg/sg59_11_cif.got.tgz:21110.got - 2010.04.16 16:29:54.
