data_PCOD8241997
_publ_section_title
;
Structure prediction by ZEFSAII (Michael W. Deem and Ramdas Pophale) SiO2 
 PCOD8241997
Probable space group: P M M N
;
_chemical_formula_sum "Si O2"
_cell_formula_units_Z 40
_cell_length_a 16.306304
_cell_length_b 8.952111
_cell_length_c 13.738680
_cell_angle_alpha 90.000000
_cell_angle_beta 90.000000
_cell_angle_gamma 90.000000
_cell_volume 2005.515400
_symmetry_space_group_name_H-M "P M M N"
_symmetry_group_IT_number 59
_space_group.IT_coordinate_system_code '2'
_symmetry_cell_setting 'orthorhombic'
loop_
_space_group_symop_operation_xyz
x,y,z
1/2-x,1/2-y,z
1/2+x,-y,-z
-x,1/2+y,-z
-x,-y,-z
1/2+x,1/2+y,-z
1/2-x,y,z
x,1/2-y,z
loop_
_atom_site_type_symbol
_atom_site_label
_atom_site_fract_x
_atom_site_fract_y
_atom_site_fract_z
Si Si1 0.434999 0.923017 0.241531
Si Si2 0.250000 0.072130 0.755942
Si Si3 0.077678 0.072853 0.445831
Si Si4 0.595111 0.925803 0.125797
Si Si5 0.250000 0.427380 0.537307
Si Si6 0.841263 0.076688 0.946333
O O1 0.441127 0.750000 0.274905
O O2 0.515321 0.975126 0.183963
O O3 0.360494 0.950451 0.167216
O O4 0.423526 0.028510 0.333385
O O5 0.250000 0.250000 0.752255
O O6 0.171028 0.010843 0.812253
O O7 0.250000 0.008502 0.646667
O O8 0.069987 0.250000 0.457821
O O9 0.165651 0.015030 0.487109
O O10 0.000000 0.000000 0.500000
O O11 0.598991 0.750000 0.113237
O O12 0.595502 0.993843 0.017531
O O13 0.250000 0.250000 0.535521
O O14 0.750000 0.015206 0.965404
O O15 0.848918 0.250000 0.970588
#
# Coordination Sequence:
#
# PCOD8241997 Si02
#       6
#     8   4   8   8   4   8
#     4  10  22  38  58  83 116 156 195 237 296 356
#     4   9  16  30  54  79 104 140 187 235 282 333
#     4  11  23  41  64  91 122 158 202 253 303 356
#     4  10  19  34  57  83 110 148 195 240 286 346
#     4   9  20  38  60  85 118 158 199 243 298 363
#     4  10  21  36  54  81 119 156 189 236 293 346
#
# _framework density 19.944997000000001
#
# number of rings (size 3 to 8) (size 9 to 14) (size 15 to 20)
#    0.000    2.000    1.000    2.400    1.400    4.800 
#    0.000    1.500    0.000    1.200    0.000    0.000 
#    0.000    0.000    0.000    0.000    0.000    0.000 
#
# Total GULP energy -495979.520375 kJ/mol
# GULP energy per Si atom -12399.488009 kJ/mol
# Density = 1.989960 g / cm^3
# Si number density = 19.944997 Si / 1000 Ang^3
#
#
#
# Elastic Constant Matrix: (Units=GPa)
#
#
# Indices 1 2 3 4 5 6 
#
# 1 119.2717 30.1432 41.1522 0.0000 0.0000 0.0000
# 2 30.1432 38.7084 31.2310 0.0000 0.0000 0.0000
# 3 41.1522 31.2310 121.2907 0.0000 0.0000 0.0000
# 4 0.0000 0.0000 0.0000 36.8435 0.0000 0.0000
# 5 0.0000 0.0000 0.0000 0.0000 26.4617 0.0000
# 6 0.0000 0.0000 0.0000 0.0000 0.0000 17.9391
#
#
#
# Elastic Compliance Matrix: (Units=1/GPa)
#
#
# Indices 1 2 3 4 5 6 
#
# 1 0.010770 -0.006865 -0.001887 0.000000 0.000000 0.000000
# 2 -0.006865 0.036984 -0.007194 0.000000 0.000000 0.000000
# 3 -0.001887 -0.007194 0.010737 0.000000 0.000000 0.000000
# 4 0.000000 0.000000 0.000000 0.027142 0.000000 0.000000
# 5 0.000000 0.000000 0.000000 0.000000 0.037790 0.000000
# 6 0.000000 0.000000 0.000000 0.000000 0.000000 0.055744
#
#
# Mechanical properties :
#
#
# Convention : Reuss Voigt Hill
#
# Bulk Modulus (GPa) = 37.59273 53.81374 45.70323
# Shear Modulus (GPa) = 22.73500 28.03181 25.38341
#
# Velocity S-wave (km/s) = 3.37988 3.75301 3.57132
# Velocity P-wave (km/s) = 5.84128 6.76903 6.32220
#
# Compressibility (1/GPa) = 0.02660089
#
# Stress axis : x y z
#
# Youngs Moduli (GPa) = 92.85013 27.03857 93.13522
#
# Poissons Ratio (x) = 0.18561 0.17570
# Poissons Ratio (y) = 0.63740 0.67001
# Poissons Ratio (z) = 0.17516 0.19451
#
# Static dielectric constant tensor:
#      x y z
#    x 4.044570 0.000000 0.000000 
#    y 0.000000 3.278720 0.000000 
#    z 0.000000 0.000000 3.686440 
# 
# 
# High freq. dielectric constant tensor:
#      x y z
#    x 1.795230 0.000000 0.000000 
#    y 0.000000 1.745690 0.000000 
#    z 0.000000 0.000000 1.790240 
# 
# From -- ./inp_files/22996.got.cif
#   From: 2010.03.12/outbox.cif.g09.slc.cpg/sg59_12_cif.got.tgz:22996.got - 2010.04.16 16:29:54.
