data_PCOD8241611
_publ_section_title
;
Structure prediction by ZEFSAII (Michael W. Deem and Ramdas Pophale) SiO2 
 PCOD8241611
Probable space group: P M M N
;
_chemical_formula_sum "Si O2"
_cell_formula_units_Z 64
_cell_length_a 8.997938
_cell_length_b 16.126583
_cell_length_c 23.373153
_cell_angle_alpha 90.000000
_cell_angle_beta 90.000000
_cell_angle_gamma 90.000000
_cell_volume 3391.584599
_symmetry_space_group_name_H-M "P M M N"
_symmetry_group_IT_number 59
_space_group.IT_coordinate_system_code '2'
_symmetry_cell_setting 'orthorhombic'
loop_
_space_group_symop_operation_xyz
x,y,z
1/2-x,1/2-y,z
1/2+x,-y,-z
-x,1/2+y,-z
-x,-y,-z
1/2+x,1/2+y,-z
1/2-x,y,z
x,1/2-y,z
loop_
_atom_site_type_symbol
_atom_site_label
_atom_site_fract_x
_atom_site_fract_y
_atom_site_fract_z
Si Si1 0.073386 0.993226 0.367279
Si Si2 0.919762 0.342633 0.187442
Si Si3 0.578122 0.078300 0.070536
Si Si4 0.424687 0.843486 0.446285
Si Si5 0.574541 0.993833 0.759589
Si Si6 0.583908 0.656110 0.033915
Si Si7 0.425111 0.156715 0.432772
Si Si8 0.425340 0.925210 0.126094
O O1 0.250000 0.992219 0.367440
O O2 0.011688 0.981412 0.302705
O O3 0.017606 0.082861 0.391120
O O4 0.013637 0.914097 0.403112
O O5 0.750000 0.361866 0.203531
O O6 0.965796 0.250000 0.204412
O O7 0.943456 0.352389 0.119375
O O8 0.021285 0.402397 0.224627
O O9 0.750000 0.051382 0.065761
O O10 0.474592 0.001750 0.086878
O O11 0.523875 0.109706 0.009612
O O12 0.250000 0.854028 0.455280
O O13 0.461241 0.750000 0.423481
O O14 0.501536 0.859506 0.506399
O O15 0.750000 0.989968 0.758238
O O16 0.522802 0.059956 0.808025
O O17 0.750000 0.617552 0.033583
O O18 0.592092 0.750000 0.014419
O O19 0.512613 0.651919 0.097984
O O20 0.250000 0.150048 0.441093
O O21 0.467480 0.250000 0.409944
O O22 0.250000 0.911270 0.122673
#
# Coordination Sequence:
#
# PCOD8241611 Si02
#       8
#     8   8   8   8   8   8   8   8
#     4   9  17  31  50  72  98 127 163 204 243 285
#     4   9  18  32  49  71 100 131 160 194 240 291
#     4  10  19  33  54  76  99 127 159 195 240 296
#     4   9  17  30  49  72  98 128 161 200 246 290
#     4   9  19  34  51  71  94 125 167 207 238 279
#     4  11  23  36  51  73  99 125 157 200 248 297
#     4   9  17  29  47  72 102 133 161 192 234 286
#     4  10  20  35  53  72  97 128 162 200 243 290
#
# _framework density 18.870235999999998
#
# number of rings (size 3 to 8) (size 9 to 14) (size 15 to 20)
#    0.000    2.500    0.000    2.250    0.000    3.250 
#    0.000    3.125    0.000    3.750    0.000    1.750 
#    0.000    0.000    0.000    0.000    0.000    0.000 
#
# Total GULP energy -793204.359858 kJ/mol
# GULP energy per Si atom -12393.818123 kJ/mol
# Density = 1.882729 g / cm^3
# Si number density = 18.870236 Si / 1000 Ang^3
#
#
#
# Elastic Constant Matrix: (Units=GPa)
#
#
# Indices 1 2 3 4 5 6 
#
# 1 26.6009 10.2831 20.3155 0.0000 0.0000 0.0000
# 2 10.2831 82.9157 49.2297 0.0000 0.0000 0.0000
# 3 20.3155 49.2297 123.5604 0.0000 0.0000 0.0000
# 4 0.0000 0.0000 0.0000 18.4530 0.0000 0.0000
# 5 0.0000 0.0000 0.0000 0.0000 23.0910 0.0000
# 6 0.0000 0.0000 0.0000 0.0000 0.0000 21.6727
#
#
#
# Elastic Compliance Matrix: (Units=1/GPa)
#
#
# Indices 1 2 3 4 5 6 
#
# 1 0.043131 -0.001491 -0.006497 0.000000 0.000000 0.000000
# 2 -0.001491 0.015849 -0.006069 0.000000 0.000000 0.000000
# 3 -0.006497 -0.006069 0.011580 0.000000 0.000000 0.000000
# 4 0.000000 0.000000 0.000000 0.054192 0.000000 0.000000
# 5 0.000000 0.000000 0.000000 0.000000 0.043307 0.000000
# 6 0.000000 0.000000 0.000000 0.000000 0.000000 0.046141
#
#
# Mechanical properties :
#
#
# Convention : Reuss Voigt Hill
#
# Bulk Modulus (GPa) = 23.56064 43.63707 33.59886
# Shear Modulus (GPa) = 19.49593 22.85994 21.17793
#
# Velocity S-wave (km/s) = 3.21776 3.48433 3.35370
# Velocity P-wave (km/s) = 5.13011 6.27395 5.73064
#
# Compressibility (1/GPa) = 0.04244366
#
# Stress axis : x y z
#
# Youngs Moduli (GPa) = 23.18503 63.09536 86.35801
#
# Poissons Ratio (x) = 0.09410 0.56109
# Poissons Ratio (y) = 0.03458 0.52415
# Poissons Ratio (z) = 0.15064 0.38295
#
# Static dielectric constant tensor:
#      x y z
#    x 3.344340 0.000000 0.000000 
#    y 0.000000 3.694960 0.000000 
#    z 0.000000 0.000000 3.706310 
# 
# 
# High freq. dielectric constant tensor:
#      x y z
#    x 1.719450 0.000000 0.000000 
#    y 0.000000 1.731330 0.000000 
#    z 0.000000 0.000000 1.726910 
# 
# From -- ./inp_files/29537.got.cif
#   From: 2010.03.12/outbox.cif.g09.slc.cpg/sg59_15_cif.got.tgz:29537.got - 2010.04.16 16:29:54.
