data_PCOD8241944
_publ_section_title
;
Structure prediction by ZEFSAII (Michael W. Deem and Ramdas Pophale) SiO2 
 PCOD8241944
Probable space group: P M M N
;
_chemical_formula_sum "Si O2"
_cell_formula_units_Z 64
_cell_length_a 9.002455
_cell_length_b 19.556329
_cell_length_c 19.322154
_cell_angle_alpha 90.000000
_cell_angle_beta 90.000000
_cell_angle_gamma 90.000000
_cell_volume 3401.761277
_symmetry_space_group_name_H-M "P M M N"
_symmetry_group_IT_number 59
_space_group.IT_coordinate_system_code '2'
_symmetry_cell_setting 'orthorhombic'
loop_
_space_group_symop_operation_xyz
x,y,z
1/2-x,1/2-y,z
1/2+x,-y,-z
-x,1/2+y,-z
-x,-y,-z
1/2+x,1/2+y,-z
1/2-x,y,z
x,1/2-y,z
loop_
_atom_site_type_symbol
_atom_site_label
_atom_site_fract_x
_atom_site_fract_y
_atom_site_fract_z
Si Si1 0.074016 0.173236 0.334669
Si Si2 0.425386 0.330211 0.808867
Si Si3 0.418999 0.826282 0.529550
Si Si4 0.077533 0.432234 0.069144
Si Si5 0.923581 0.091970 0.934663
Si Si6 0.574619 0.927041 0.779106
Si Si7 0.073163 0.934726 0.287829
Si Si8 0.079887 0.546579 0.443314
O O1 0.250000 0.170574 0.333952
O O2 0.014337 0.250000 0.323644
O O3 0.003890 0.126637 0.274460
O O4 0.018853 0.144596 0.408074
O O5 0.250000 0.342164 0.809409
O O6 0.465297 0.250000 0.805723
O O7 0.492688 0.362036 0.878812
O O8 0.494644 0.366426 0.740858
O O9 0.250000 0.826810 0.555691
O O10 0.469586 0.750000 0.507873
O O11 0.440282 0.874206 0.463569
O O12 0.250000 0.421039 0.051696
O O13 0.040431 0.512391 0.075679
O O14 0.031433 0.402444 0.143963
O O15 0.982371 0.391402 0.012050
O O16 0.750000 0.108242 0.928754
O O17 0.750000 0.927031 0.770227
O O18 0.521636 0.004055 0.762826
O O19 0.250000 0.922263 0.287638
O O20 0.017628 0.956379 0.364900
O O21 0.250000 0.522947 0.443863
O O22 0.000000 0.500000 0.500000
#
# Coordination Sequence:
#
# PCOD8241944 Si02
#       8
#     8   8   8   8   8   8   8   8
#     4   9  17  30  51  77 102 134 175 215 259 313
#     4  11  24  40  57  80 112 147 184 233 289 338
#     4   9  18  33  50  70 100 137 175 214 260 316
#     4   9  17  31  53  79 109 141 174 218 267 313
#     4  10  19  34  56  81 107 140 181 220 263 319
#     4   9  16  30  51  76 107 139 174 219 263 310
#     4  10  20  36  56  79 105 142 189 229 270 326
#     4  10  21  35  55  81 110 141 177 224 276 326
#
# _framework density 18.813783999999998
#
# number of rings (size 3 to 8) (size 9 to 14) (size 15 to 20)
#    0.000    2.375    1.250    1.500    0.000    4.000 
#    0.000    3.125    0.000    3.750    0.000    0.000 
#    0.000    0.000    0.000    0.000    0.000    0.000 
#
# Total GULP energy -793359.266441 kJ/mol
# GULP energy per Si atom -12396.238538 kJ/mol
# Density = 1.877096 g / cm^3
# Si number density = 18.813784 Si / 1000 Ang^3
#
#
#
# Elastic Constant Matrix: (Units=GPa)
#
#
# Indices 1 2 3 4 5 6 
#
# 1 50.7818 34.6397 37.5329 0.0000 0.0000 0.0000
# 2 34.6397 65.7987 48.4969 0.0000 0.0000 0.0000
# 3 37.5329 48.4969 132.2775 0.0000 0.0000 0.0000
# 4 0.0000 0.0000 0.0000 30.4704 0.0000 0.0000
# 5 0.0000 0.0000 0.0000 0.0000 30.6817 0.0000
# 6 0.0000 0.0000 0.0000 0.0000 0.0000 24.0323
#
#
#
# Elastic Compliance Matrix: (Units=1/GPa)
#
#
# Indices 1 2 3 4 5 6 
#
# 1 0.032202 -0.014002 -0.004004 0.000000 0.000000 0.000000
# 2 -0.014002 0.026914 -0.005894 0.000000 0.000000 0.000000
# 3 -0.004004 -0.005894 0.010857 0.000000 0.000000 0.000000
# 4 0.000000 0.000000 0.000000 0.032819 0.000000 0.000000
# 5 0.000000 0.000000 0.000000 0.000000 0.032593 0.000000
# 6 0.000000 0.000000 0.000000 0.000000 0.000000 0.041611
#
#
# Mechanical properties :
#
#
# Convention : Reuss Voigt Hill
#
# Bulk Modulus (GPa) = 45.10017 54.46633 49.78325
# Shear Modulus (GPa) = 21.53444 25.58278 23.55861
#
# Velocity S-wave (km/s) = 3.38688 3.69153 3.54248
# Velocity P-wave (km/s) = 6.27045 6.86899 6.57653
#
# Compressibility (1/GPa) = 0.02217286
#
# Stress axis : x y z
#
# Youngs Moduli (GPa) = 31.05362 37.15582 92.10707
#
# Poissons Ratio (x) = 0.52026 0.36876
# Poissons Ratio (y) = 0.43481 0.54291
# Poissons Ratio (z) = 0.12433 0.21901
#
# Static dielectric constant tensor:
#      x y z
#    x 3.289000 0.000000 0.000000 
#    y 0.000000 3.526190 0.000000 
#    z 0.000000 0.000000 3.720540 
# 
# 
# High freq. dielectric constant tensor:
#      x y z
#    x 1.709600 0.000000 0.000000 
#    y 0.000000 1.720410 0.000000 
#    z 0.000000 0.000000 1.741960 
# 
# From -- ./inp_files/29615.got.cif
#   From: 2010.03.12/outbox.cif.g09.slc.cpg/sg59_15_cif.got.tgz:29615.got - 2010.04.16 16:29:54.
