data_PCOD8241583
_publ_section_title
;
Structure prediction by ZEFSAII (Michael W. Deem and Ramdas Pophale) SiO2 
 PCOD8241583
Probable space group: P M M N
;
_chemical_formula_sum "Si O2"
_cell_formula_units_Z 56
_cell_length_a 8.979571
_cell_length_b 20.385128
_cell_length_c 15.333047
_cell_angle_alpha 90.000000
_cell_angle_beta 90.000000
_cell_angle_gamma 90.000000
_cell_volume 2806.709718
_symmetry_space_group_name_H-M "P M M N"
_symmetry_group_IT_number 59
_space_group.IT_coordinate_system_code '2'
_symmetry_cell_setting 'orthorhombic'
loop_
_space_group_symop_operation_xyz
x,y,z
1/2-x,1/2-y,z
1/2+x,-y,-z
-x,1/2+y,-z
-x,-y,-z
1/2+x,1/2+y,-z
1/2-x,y,z
x,1/2-y,z
loop_
_atom_site_type_symbol
_atom_site_label
_atom_site_fract_x
_atom_site_fract_y
_atom_site_fract_z
Si Si1 0.426578 0.943833 0.440040
Si Si2 0.084778 0.511973 0.256916
Si Si3 0.087509 0.676732 0.863121
Si Si4 0.072040 0.039827 0.917434
Si Si5 0.924708 0.675862 0.526064
Si Si6 0.911066 0.867682 0.707525
Si Si7 0.072869 0.676694 0.058425
O O1 0.250000 0.950084 0.451203
O O2 0.473008 0.943464 0.337115
O O3 0.481030 0.871858 0.466265
O O4 0.500000 0.000000 0.500000
O O5 0.250000 0.533495 0.223235
O O6 0.099260 0.444416 0.310501
O O7 0.973843 0.506546 0.174222
O O8 0.250000 0.644389 0.867820
O O9 0.095671 0.750000 0.825911
O O10 0.993847 0.634146 0.798443
O O11 0.018071 0.676045 0.958771
O O12 0.250000 0.038699 0.929407
O O13 0.014793 0.114895 0.901808
O O14 0.000000 0.000000 0.000000
O O15 0.750000 0.656551 0.524054
O O16 0.950737 0.750000 0.493841
O O17 0.986812 0.668102 0.625296
O O18 0.750000 0.834949 0.721681
O O19 0.250000 0.666296 0.067276
O O20 0.032042 0.750000 0.097054
#
# Coordination Sequence:
#
# PCOD8241583 Si02
#       7
#     8   8   8   8   8   8   8
#     4  11  22  40  65  90 120 157 203 251 300 362
#     4  10  22  40  61  86 116 155 203 252 303 365
#     4   9  18  31  48  75 110 146 187 235 290 354
#     4  12  25  40  61  91 126 162 205 258 310 367
#     4  10  21  38  59  86 123 162 201 250 307 361
#     4  10  19  33  53  79 112 151 194 238 293 358
#     4   9  19  38  61  83 113 156 203 253 311 368
#
# _framework density 19.952186999999999
#
# number of rings (size 3 to 8) (size 9 to 14) (size 15 to 20)
#    0.000    1.857    1.429    3.857    0.000    6.571 
#    0.000    2.143    0.000    0.857    0.000    0.000 
#    0.000    0.000    0.000    0.000    0.000    0.000 
#
# Total GULP energy -693731.696745 kJ/mol
# GULP energy per Si atom -12388.066013 kJ/mol
# Density = 1.990678 g / cm^3
# Si number density = 19.952187 Si / 1000 Ang^3
#
#
#
# Elastic Constant Matrix: (Units=GPa)
#
#
# Indices 1 2 3 4 5 6 
#
# 1 84.0368 34.2695 41.1079 0.0000 0.0000 0.0000
# 2 34.2695 99.3925 28.7505 0.0000 0.0000 0.0000
# 3 41.1079 28.7505 97.7082 0.0000 0.0000 0.0000
# 4 0.0000 0.0000 0.0000 30.6592 0.0000 0.0000
# 5 0.0000 0.0000 0.0000 0.0000 31.0744 0.0000
# 6 0.0000 0.0000 0.0000 0.0000 0.0000 30.5295
#
#
#
# Elastic Compliance Matrix: (Units=1/GPa)
#
#
# Indices 1 2 3 4 5 6 
#
# 1 0.016304 -0.003976 -0.005690 0.000000 0.000000 0.000000
# 2 -0.003976 0.011967 -0.001849 0.000000 0.000000 0.000000
# 3 -0.005690 -0.001849 0.013172 0.000000 0.000000 0.000000
# 4 0.000000 0.000000 0.000000 0.032617 0.000000 0.000000
# 5 0.000000 0.000000 0.000000 0.000000 0.032181 0.000000
# 6 0.000000 0.000000 0.000000 0.000000 0.000000 0.032755
#
#
# Mechanical properties :
#
#
# Convention : Reuss Voigt Hill
#
# Bulk Modulus (GPa) = 54.30282 54.37702 54.33992
# Shear Modulus (GPa) = 29.73339 30.25329 29.99334
#
# Velocity S-wave (km/s) = 3.86454 3.89818 3.88140
# Velocity P-wave (km/s) = 6.86939 6.89738 6.88340
#
# Compressibility (1/GPa) = 0.01841525
#
# Stress axis : x y z
#
# Youngs Moduli (GPa) = 61.33499 83.56603 75.91750
#
# Poissons Ratio (x) = 0.33223 0.43194
# Poissons Ratio (y) = 0.24385 0.14034
# Poissons Ratio (z) = 0.34897 0.15447
#
# Static dielectric constant tensor:
#      x y z
#    x 3.530950 0.000000 0.000000 
#    y 0.000000 3.809390 0.000000 
#    z 0.000000 0.000000 3.514990 
# 
# 
# High freq. dielectric constant tensor:
#      x y z
#    x 1.764230 0.000000 0.000000 
#    y 0.000000 1.785510 0.000000 
#    z 0.000000 0.000000 1.767310 
# 
# From -- ./inp_files/20984.got.cif
#   From: 2010.03.12/outbox.cif.g09.slc.cpg/sg59_11_cif.got.tgz:20984.got - 2010.04.16 16:29:54.
