data_PCOD8241457
_publ_section_title
;
Structure prediction by ZEFSAII (Michael W. Deem and Ramdas Pophale) SiO2 
 PCOD8241457
Probable space group: P M M N
;
_chemical_formula_sum "Si O2"
_cell_formula_units_Z 48
_cell_length_a 18.692553
_cell_length_b 9.322866
_cell_length_c 14.624340
_cell_angle_alpha 90.000000
_cell_angle_beta 90.000000
_cell_angle_gamma 90.000000
_cell_volume 2548.556923
_symmetry_space_group_name_H-M "P M M N"
_symmetry_group_IT_number 59
_space_group.IT_coordinate_system_code '2'
_symmetry_cell_setting 'orthorhombic'
loop_
_space_group_symop_operation_xyz
x,y,z
1/2-x,1/2-y,z
1/2+x,-y,-z
-x,1/2+y,-z
-x,-y,-z
1/2+x,1/2+y,-z
1/2-x,y,z
x,1/2-y,z
loop_
_atom_site_type_symbol
_atom_site_label
_atom_site_fract_x
_atom_site_fract_y
_atom_site_fract_z
Si Si1 0.904494 0.912925 0.956595
Si Si2 0.941667 0.083112 0.123571
Si Si3 0.331694 0.087447 0.223147
Si Si4 0.431348 0.086152 0.692726
Si Si5 0.667819 0.583984 0.472744
Si Si6 0.413133 0.917235 0.370612
O O1 0.907044 0.750000 0.992510
O O2 0.840066 0.938981 0.885524
O O3 0.976393 0.950482 0.900685
O O4 0.892724 0.014469 0.043851
O O5 0.924384 0.250000 0.128907
O O6 0.922556 0.015588 0.220628
O O7 0.250000 0.064773 0.251541
O O8 0.356749 0.250000 0.246521
O O9 0.378965 0.974727 0.277416
O O10 0.434675 0.250000 0.727454
O O11 0.362880 0.059427 0.628630
O O12 0.502321 0.050658 0.633888
O O13 0.750000 0.531876 0.474577
O O14 0.662159 0.750000 0.501241
O O15 0.620730 0.494759 0.542953
O O16 0.396491 0.750000 0.379225
#
# Coordination Sequence:
#
# PCOD8241457 Si02
#       6
#     8   8   8   8   8   8
#     4   9  18  33  52  77 108 141 178 220 264 316
#     4  10  19  32  55  82 106 138 178 223 270 314
#     4  10  20  35  55  79 110 148 186 223 267 323
#     4  10  21  37  57  82 109 141 182 227 271 321
#     4  10  22  40  59  78 105 144 186 225 268 322
#     4  11  22  35  55  83 112 141 176 224 279 328
#
# _framework density 18.834188999999999
#
# number of rings (size 3 to 8) (size 9 to 14) (size 15 to 20)
#    0.000    2.000    1.667    2.000    0.000    5.333 
#    0.000    0.833    0.000    5.000    0.000    0.000 
#    0.000    0.000    0.000    0.000    0.000    0.000 
#
# Total GULP energy -595322.384902 kJ/mol
# GULP energy per Si atom -12402.549685 kJ/mol
# Density = 1.879132 g / cm^3
# Si number density = 18.834189 Si / 1000 Ang^3
#
#
#
# Elastic Constant Matrix: (Units=GPa)
#
#
# Indices 1 2 3 4 5 6 
#
# 1 50.7589 26.4788 26.7916 0.0000 0.0000 0.0000
# 2 26.4788 89.6667 63.8590 0.0000 0.0000 0.0000
# 3 26.7916 63.8590 112.2048 0.0000 0.0000 0.0000
# 4 0.0000 0.0000 0.0000 41.9021 0.0000 0.0000
# 5 0.0000 0.0000 0.0000 0.0000 19.0246 0.0000
# 6 0.0000 0.0000 0.0000 0.0000 0.0000 20.5329
#
#
#
# Elastic Compliance Matrix: (Units=1/GPa)
#
#
# Indices 1 2 3 4 5 6 
#
# 1 0.023812 -0.005015 -0.002831 0.000000 0.000000 0.000000
# 2 -0.005015 0.019810 -0.010077 0.000000 0.000000 0.000000
# 3 -0.002831 -0.010077 0.015323 0.000000 0.000000 0.000000
# 4 0.000000 0.000000 0.000000 0.023865 0.000000 0.000000
# 5 0.000000 0.000000 0.000000 0.000000 0.052564 0.000000
# 6 0.000000 0.000000 0.000000 0.000000 0.000000 0.048702
#
#
# Mechanical properties :
#
#
# Convention : Reuss Voigt Hill
#
# Bulk Modulus (GPa) = 43.29358 54.09879 48.69619
# Shear Modulus (GPa) = 21.96619 25.32532 23.64576
#
# Velocity S-wave (km/s) = 3.41881 3.67092 3.54710
# Velocity P-wave (km/s) = 6.21457 6.83766 6.53355
#
# Compressibility (1/GPa) = 0.02309811
#
# Stress axis : x y z
#
# Youngs Moduli (GPa) = 41.99628 50.47944 65.25963
#
# Poissons Ratio (x) = 0.25317 0.18477
# Poissons Ratio (y) = 0.21062 0.65762
# Poissons Ratio (z) = 0.11890 0.50868
#
# Static dielectric constant tensor:
#      x y z
#    x 3.390570 0.000000 0.000000 
#    y 0.000000 3.474880 0.000000 
#    z 0.000000 0.000000 3.393910 
# 
# 
# High freq. dielectric constant tensor:
#      x y z
#    x 1.715560 0.000000 0.000000 
#    y 0.000000 1.732170 0.000000 
#    z 0.000000 0.000000 1.736670 
# 
# From -- ./inp_files/20421.got.cif
#   From: 2010.03.12/outbox.cif.g09.slc.cpg/sg59_11_cif.got.tgz:20421.got - 2010.04.16 16:29:54.
