data_PCOD8241953
_publ_section_title
;
Structure prediction by ZEFSAII (Michael W. Deem and Ramdas Pophale) SiO2 
 PCOD8241953
Probable space group: P M M N
;
_chemical_formula_sum "Si O2"
_cell_formula_units_Z 64
_cell_length_a 14.620699
_cell_length_b 18.135484
_cell_length_c 12.428646
_cell_angle_alpha 90.000000
_cell_angle_beta 90.000000
_cell_angle_gamma 90.000000
_cell_volume 3295.498400
_symmetry_space_group_name_H-M "P M M N"
_symmetry_group_IT_number 59
_space_group.IT_coordinate_system_code '2'
_symmetry_cell_setting 'orthorhombic'
loop_
_space_group_symop_operation_xyz
x,y,z
1/2-x,1/2-y,z
1/2+x,-y,-z
-x,1/2+y,-z
-x,-y,-z
1/2+x,1/2+y,-z
1/2-x,y,z
x,1/2-y,z
loop_
_atom_site_type_symbol
_atom_site_label
_atom_site_fract_x
_atom_site_fract_y
_atom_site_fract_z
Si Si1 0.145307 0.164367 0.091981
Si Si2 0.351181 0.593474 0.595618
Si Si3 0.855024 0.165746 0.189179
Si Si4 0.356757 0.435397 0.286200
Si Si5 0.640965 0.098314 0.783731
Si Si6 0.534028 0.165019 0.977383
Si Si7 0.960620 0.334469 0.593766
Si Si8 0.084334 0.051845 0.521298
O O1 0.250000 0.141506 0.059662
O O2 0.141152 0.250000 0.122639
O O3 0.106743 0.121571 0.196764
O O4 0.074992 0.148229 0.992953
O O5 0.250000 0.626541 0.581983
O O6 0.386487 0.610618 0.715743
O O7 0.414563 0.638299 0.515351
O O8 0.343854 0.504706 0.575539
O O9 0.750000 0.151849 0.156119
O O10 0.869698 0.250000 0.226781
O O11 0.917259 0.146301 0.088599
O O12 0.250000 0.430722 0.280904
O O13 0.387984 0.517896 0.257447
O O14 0.385520 0.413760 0.406978
O O15 0.750000 0.106822 0.805301
O O16 0.581089 0.113341 0.889345
O O17 0.609328 0.155093 0.692067
O O18 0.549376 0.250000 0.943628
O O19 0.989100 0.250000 0.586492
O O20 0.055301 0.381955 0.602703
O O21 0.000000 0.000000 0.500000
#
# Coordination Sequence:
#
# PCOD8241953 Si02
#       8
#     8   8   8   8   8   8   8   8
#     4   9  20  38  60  85 110 143 196 252 296 342
#     4  10  19  34  56  81 110 149 191 233 290 349
#     4   9  18  31  49  80 120 154 186 230 288 353
#     4  10  20  37  60  85 115 152 192 240 297 349
#     4  11  22  37  58  87 121 157 196 239 288 356
#     4  10  21  35  56  83 116 155 190 232 295 351
#     4  11  23  35  54  85 116 152 196 240 287 342
#     4  10  20  34  53  79 114 150 188 230 288 346
#
# _framework density 19.420432000000002
#
# number of rings (size 3 to 8) (size 9 to 14) (size 15 to 20)
#    0.000    2.000    2.500    1.875    3.500    3.750 
#    0.000    0.000    0.000    4.125    0.000    0.000 
#    0.000    0.000    0.000    0.000    0.000    0.000 
#
# Total GULP energy -793213.365672 kJ/mol
# GULP energy per Si atom -12393.958839 kJ/mol
# Density = 1.937623 g / cm^3
# Si number density = 19.420432 Si / 1000 Ang^3
#
#
#
# Elastic Constant Matrix: (Units=GPa)
#
#
# Indices 1 2 3 4 5 6 
#
# 1 57.8997 29.4699 44.4080 0.0000 0.0000 0.0000
# 2 29.4699 84.3773 31.2761 0.0000 0.0000 0.0000
# 3 44.4080 31.2761 83.1482 0.0000 0.0000 0.0000
# 4 0.0000 0.0000 0.0000 18.2106 0.0000 0.0000
# 5 0.0000 0.0000 0.0000 0.0000 33.2436 0.0000
# 6 0.0000 0.0000 0.0000 0.0000 0.0000 23.9704
#
#
#
# Elastic Compliance Matrix: (Units=1/GPa)
#
#
# Indices 1 2 3 4 5 6 
#
# 1 0.031311 -0.005505 -0.014652 0.000000 0.000000 0.000000
# 2 -0.005505 0.014739 -0.002604 0.000000 0.000000 0.000000
# 3 -0.014652 -0.002604 0.020832 0.000000 0.000000 0.000000
# 4 0.000000 0.000000 0.000000 0.054913 0.000000 0.000000
# 5 0.000000 0.000000 0.000000 0.000000 0.030081 0.000000
# 6 0.000000 0.000000 0.000000 0.000000 0.000000 0.041718
#
#
# Mechanical properties :
#
#
# Convention : Reuss Voigt Hill
#
# Bulk Modulus (GPa) = 46.81632 48.41481 47.61556
# Shear Modulus (GPa) = 20.30573 23.10301 21.70437
#
# Velocity S-wave (km/s) = 3.23706 3.45283 3.34669
# Velocity P-wave (km/s) = 6.17499 6.39375 6.28532
#
# Compressibility (1/GPa) = 0.02136007
#
# Stress axis : x y z
#
# Youngs Moduli (GPa) = 31.93785 67.84517 48.00388
#
# Poissons Ratio (x) = 0.37347 0.70335
# Poissons Ratio (y) = 0.17581 0.12502
# Poissons Ratio (z) = 0.46795 0.17669
#
# Static dielectric constant tensor:
#      x y z
#    x 3.872120 0.000000 0.000000 
#    y 0.000000 4.367070 0.000000 
#    z 0.000000 0.000000 3.380330 
# 
# 
# High freq. dielectric constant tensor:
#      x y z
#    x 1.759340 0.000000 0.000000 
#    y 0.000000 1.746880 0.000000 
#    z 0.000000 0.000000 1.743900 
# 
# From -- ./inp_files/17202.got.cif
#   From: 2010.03.12/outbox.cif.g09.slc.cpg/sg59_9_cif.got.tgz:17202.got - 2010.04.16 16:29:54.
