data_PCOD8241701
_publ_section_title
;
Structure prediction by ZEFSAII (Michael W. Deem and Ramdas Pophale) SiO2 
 PCOD8241701
Probable space group: P M M N
;
_chemical_formula_sum "Si O2"
_cell_formula_units_Z 48
_cell_length_a 15.458357
_cell_length_b 8.690956
_cell_length_c 19.599875
_cell_angle_alpha 90.000000
_cell_angle_beta 90.000000
_cell_angle_gamma 90.000000
_cell_volume 2633.202057
_symmetry_space_group_name_H-M "P M M N"
_symmetry_group_IT_number 59
_space_group.IT_coordinate_system_code '2'
_symmetry_cell_setting 'orthorhombic'
loop_
_space_group_symop_operation_xyz
x,y,z
1/2-x,1/2-y,z
1/2+x,-y,-z
-x,1/2+y,-z
-x,-y,-z
1/2+x,1/2+y,-z
1/2-x,y,z
x,1/2-y,z
loop_
_atom_site_type_symbol
_atom_site_label
_atom_site_fract_x
_atom_site_fract_y
_atom_site_fract_z
Si Si1 0.750000 0.075068 0.948695
Si Si2 0.003985 0.568690 0.657579
Si Si3 0.650966 0.430088 0.574611
Si Si4 0.750000 0.577738 0.813063
Si Si5 0.064538 0.567549 0.053860
Si Si6 0.651603 0.928056 0.429978
Si Si7 0.561117 0.925211 0.800265
O O1 0.750000 0.250000 0.971857
O O2 0.841446 0.000662 0.971588
O O3 0.750000 0.059735 0.867214
O O4 0.017420 0.750000 0.648721
O O5 0.914716 0.523124 0.621465
O O6 0.998807 0.521424 0.737532
O O7 0.086707 0.479253 0.629202
O O8 0.750000 0.475630 0.593188
O O9 0.634907 0.250000 0.584962
O O10 0.631200 0.471524 0.496408
O O11 0.750000 0.750000 0.846984
O O12 0.839585 0.557777 0.771753
O O13 0.063780 0.750000 0.050978
O O14 0.041971 0.521053 0.131382
O O15 0.000000 0.500000 0.000000
O O16 0.750000 0.955885 0.404838
O O17 0.635939 0.750000 0.447952
O O18 0.540978 0.750000 0.819729
#
# Coordination Sequence:
#
# PCOD8241701 Si02
#       7
#     4   8   8   4   8   8   8
#     4   8  16  30  48  74 102 132 165 200 247 300
#     4  11  22  34  54  80 110 142 175 219 268 321
#     4  10  21  36  54  79 110 142 178 219 263 316
#     4   8  14  28  48  70 100 134 165 200 241 300
#     4  10  19  33  55  79 107 139 174 215 258 308
#     4  10  21  38  58  76  99 137 183 229 272 316
#     4   9  19  33  51  77 107 140 175 210 256 311
#
# _framework density 18.228757000000002
#
# number of rings (size 3 to 8) (size 9 to 14) (size 15 to 20)
#    0.000    2.333    0.000    2.500    1.167    4.000 
#    0.000    0.000    1.833    0.000    0.000    0.000 
#    0.000    0.000    0.000    0.000    0.000    0.000 
#
# Total GULP energy -594739.187257 kJ/mol
# GULP energy per Si atom -12390.399735 kJ/mol
# Density = 1.818727 g / cm^3
# Si number density = 18.228757 Si / 1000 Ang^3
#
#
#
# Elastic Constant Matrix: (Units=GPa)
#
#
# Indices 1 2 3 4 5 6 
#
# 1 109.5248 28.8974 59.4256 0.0000 0.0000 0.0000
# 2 28.8974 42.6372 22.1866 0.0000 0.0000 0.0000
# 3 59.4256 22.1866 87.0051 0.0000 0.0000 0.0000
# 4 0.0000 0.0000 0.0000 27.9138 0.0000 0.0000
# 5 0.0000 0.0000 0.0000 0.0000 26.5487 0.0000
# 6 0.0000 0.0000 0.0000 0.0000 0.0000 27.2740
#
#
#
# Elastic Compliance Matrix: (Units=1/GPa)
#
#
# Indices 1 2 3 4 5 6 
#
# 1 0.015667 -0.005823 -0.009216 0.000000 0.000000 0.000000
# 2 -0.005823 0.029206 -0.003471 0.000000 0.000000 0.000000
# 3 -0.009216 -0.003471 0.018673 0.000000 0.000000 0.000000
# 4 0.000000 0.000000 0.000000 0.035825 0.000000 0.000000
# 5 0.000000 0.000000 0.000000 0.000000 0.037667 0.000000
# 6 0.000000 0.000000 0.000000 0.000000 0.000000 0.036665
#
#
# Mechanical properties :
#
#
# Convention : Reuss Voigt Hill
#
# Bulk Modulus (GPa) = 37.69655 51.13181 44.41418
# Shear Modulus (GPa) = 22.77246 24.92448 23.84847
#
# Velocity S-wave (km/s) = 3.53832 3.70174 3.62095
# Velocity P-wave (km/s) = 6.11699 6.81039 6.47298
#
# Compressibility (1/GPa) = 0.02652763
#
# Stress axis : x y z
#
# Youngs Moduli (GPa) = 63.82850 34.23947 53.55269
#
# Poissons Ratio (x) = 0.19937 0.49354
# Poissons Ratio (y) = 0.37166 0.18586
# Poissons Ratio (z) = 0.58824 0.11883
#
# Static dielectric constant tensor:
#      x y z
#    x 5.133440 0.000000 0.000000 
#    y 0.000000 3.431770 0.000000 
#    z 0.000000 0.000000 3.403050 
# 
# 
# High freq. dielectric constant tensor:
#      x y z
#    x 1.711890 0.000000 0.000000 
#    y 0.000000 1.712000 0.000000 
#    z 0.000000 0.000000 1.679580 
# 
# From -- ./inp_files/27448.got.cif
#   From: 2010.03.12/outbox.cif.g09.slc.cpg/sg59_14_cif.got.tgz:27448.got - 2010.04.16 16:29:54.
