data_PCOD8241461
_publ_section_title
;
Structure prediction by ZEFSAII (Michael W. Deem and Ramdas Pophale) SiO2 
 PCOD8241461
Probable space group: P M M N
;
_chemical_formula_sum "Si O2"
_cell_formula_units_Z 48
_cell_length_a 13.204898
_cell_length_b 13.480214
_cell_length_c 13.710308
_cell_angle_alpha 90.000000
_cell_angle_beta 90.000000
_cell_angle_gamma 90.000000
_cell_volume 2440.501331
_symmetry_space_group_name_H-M "P M M N"
_symmetry_group_IT_number 59
_space_group.IT_coordinate_system_code '2'
_symmetry_cell_setting 'orthorhombic'
loop_
_space_group_symop_operation_xyz
x,y,z
1/2-x,1/2-y,z
1/2+x,-y,-z
-x,1/2+y,-z
-x,-y,-z
1/2+x,1/2+y,-z
1/2-x,y,z
x,1/2-y,z
loop_
_atom_site_type_symbol
_atom_site_label
_atom_site_fract_x
_atom_site_fract_y
_atom_site_fract_z
Si Si1 0.750000 0.858766 0.141643
Si Si2 0.540579 0.972560 0.892367
Si Si3 0.133987 0.040166 0.612293
Si Si4 0.363465 0.138502 0.415678
Si Si5 0.458430 0.364090 0.780398
Si Si6 0.750000 0.861309 0.914408
Si Si7 0.046362 0.863254 0.721071
O O1 0.750000 0.750000 0.191900
O O2 0.646188 0.910882 0.174790
O O3 0.750000 0.846496 0.027989
O O4 0.649687 0.921965 0.888046
O O5 0.460628 0.902320 0.832998
O O6 0.549146 0.075692 0.831653
O O7 0.500000 0.000000 0.000000
O O8 0.250000 0.073521 0.632794
O O9 0.110281 0.055923 0.497912
O O10 0.052951 0.112576 0.666032
O O11 0.120073 0.927392 0.650780
O O12 0.250000 0.121509 0.376605
O O13 0.375399 0.250000 0.459753
O O14 0.434010 0.124957 0.322506
O O15 0.477395 0.250000 0.803725
O O16 0.750000 0.750000 0.866260
O O17 0.085511 0.750000 0.720683
#
# Coordination Sequence:
#
# PCOD8241461 Si02
#       7
#     4   8   8   8   8   4   8
#     4   9  16  28  52  78 102 138 179 225 279 335
#     4  11  23  37  57  85 112 145 192 238 286 340
#     4  10  19  32  55  83 113 148 190 238 284 336
#     4   9  18  33  55  85 114 142 184 237 287 337
#     4  10  19  33  54  81 112 143 182 233 288 338
#     4  11  22  38  61  82 108 148 190 233 284 347
#     4  10  22  37  54  79 116 154 191 235 287 345
#
# _framework density 19.668091
#
# number of rings (size 3 to 8) (size 9 to 14) (size 15 to 20)
#    0.000    2.000    2.500    1.500    1.167    1.667 
#    0.000    0.417    0.000    0.000    0.000    0.000 
#    0.000    0.000    0.000    0.000    0.000    0.000 
#
# Total GULP energy -594738.447186 kJ/mol
# GULP energy per Si atom -12390.384316 kJ/mol
# Density = 1.962333 g / cm^3
# Si number density = 19.668091 Si / 1000 Ang^3
#
#
#
# Elastic Constant Matrix: (Units=GPa)
#
#
# Indices 1 2 3 4 5 6 
#
# 1 58.7915 29.6740 14.3906 0.0000 0.0000 0.0000
# 2 29.6740 125.7964 29.7112 0.0000 0.0000 0.0000
# 3 14.3906 29.7112 80.5905 0.0000 0.0000 0.0000
# 4 0.0000 0.0000 0.0000 27.2975 0.0000 0.0000
# 5 0.0000 0.0000 0.0000 0.0000 13.7435 0.0000
# 6 0.0000 0.0000 0.0000 0.0000 0.0000 6.1253
#
#
#
# Elastic Compliance Matrix: (Units=1/GPa)
#
#
# Indices 1 2 3 4 5 6 
#
# 1 0.019588 -0.004156 -0.001965 0.000000 0.000000 0.000000
# 2 -0.004156 0.009590 -0.002793 0.000000 0.000000 0.000000
# 3 -0.001965 -0.002793 0.013789 0.000000 0.000000 0.000000
# 4 0.000000 0.000000 0.000000 0.036633 0.000000 0.000000
# 5 0.000000 0.000000 0.000000 0.000000 0.072762 0.000000
# 6 0.000000 0.000000 0.000000 0.000000 0.000000 0.163257
#
#
# Mechanical properties :
#
#
# Convention : Reuss Voigt Hill
#
# Bulk Modulus (GPa) = 39.78228 45.85890 42.82059
# Shear Modulus (GPa) = 14.62722 22.19343 18.41032
#
# Velocity S-wave (km/s) = 2.73005 3.36281 3.06281
# Velocity P-wave (km/s) = 5.49621 6.20040 5.85889
#
# Compressibility (1/GPa) = 0.02513682
#
# Stress axis : x y z
#
# Youngs Moduli (GPa) = 51.05107 104.28049 72.52100
#
# Poissons Ratio (x) = 0.43344 0.14253
# Poissons Ratio (y) = 0.21219 0.20256
# Poissons Ratio (z) = 0.10034 0.29127
#
# Static dielectric constant tensor:
#      x y z
#    x 3.436900 0.000000 0.000000 
#    y 0.000000 3.757260 0.000000 
#    z 0.000000 0.000000 3.581850 
# 
# 
# High freq. dielectric constant tensor:
#      x y z
#    x 1.741910 0.000000 0.000000 
#    y 0.000000 1.762460 0.000000 
#    z 0.000000 0.000000 1.772030 
# 
# From -- ./inp_files/22449.got.cif
#   From: 2010.03.12/outbox.cif.g09.slc.cpg/sg59_12_cif.got.tgz:22449.got - 2010.04.16 16:29:54.
