data_PCOD8241157
_publ_section_title
;
Structure prediction by ZEFSAII (Michael W. Deem and Ramdas Pophale) SiO2 
 PCOD8241157
Probable space group: P M M N
;
_chemical_formula_sum "Si O2"
_cell_formula_units_Z 56
_cell_length_a 16.597245
_cell_length_b 9.142943
_cell_length_c 19.448751
_cell_angle_alpha 90.000000
_cell_angle_beta 90.000000
_cell_angle_gamma 90.000000
_cell_volume 2951.302551
_symmetry_space_group_name_H-M "P M M N"
_symmetry_group_IT_number 59
_space_group.IT_coordinate_system_code '2'
_symmetry_cell_setting 'orthorhombic'
loop_
_space_group_symop_operation_xyz
x,y,z
1/2-x,1/2-y,z
1/2+x,-y,-z
-x,1/2+y,-z
-x,-y,-z
1/2+x,1/2+y,-z
1/2-x,y,z
x,1/2-y,z
loop_
_atom_site_type_symbol
_atom_site_label
_atom_site_fract_x
_atom_site_fract_y
_atom_site_fract_z
Si Si1 0.661262 0.577372 0.153461
Si Si2 0.750000 0.576330 0.931275
Si Si3 0.750000 0.576298 0.774355
Si Si4 0.663682 0.580102 0.405457
Si Si5 0.403358 0.076309 0.309250
Si Si6 0.413313 0.076505 0.987911
Si Si7 0.427928 0.081499 0.463347
Si Si8 0.940071 0.576880 0.282534
O O1 0.750000 0.505780 0.148432
O O2 0.670516 0.750000 0.153108
O O3 0.607210 0.529016 0.089508
O O4 0.620451 0.524717 0.223569
O O5 0.750000 0.750000 0.935480
O O6 0.750000 0.517029 0.852679
O O7 0.664984 0.523170 0.966477
O O8 0.750000 0.750000 0.776543
O O9 0.673965 0.517558 0.731498
O O10 0.750000 0.505985 0.389459
O O11 0.668858 0.750000 0.386707
O O12 0.647491 0.557884 0.486153
O O13 0.594883 0.516440 0.355355
O O14 0.408200 0.250000 0.306554
O O15 0.403395 0.019766 0.388504
O O16 0.477296 0.006189 0.268747
O O17 0.425145 0.250000 0.997379
O O18 0.500000 0.000000 0.000000
O O19 0.452970 0.250000 0.457270
O O20 0.500000 0.000000 0.500000
O O21 0.955675 0.750000 0.281812
#
# Coordination Sequence:
#
# PCOD8241157 Si02
#       8
#     8   4   4   8   8   8   8   8
#     4   9  17  32  54  79 106 135 171 213 257 307
#     4   9  18  36  59  79 106 146 185 216 259 325
#     4   9  20  36  53  75 102 138 181 218 251 301
#     4   9  17  29  48  74  98 126 167 208 246 295
#     4  10  21  35  52  74 102 136 174 216 259 304
#     4  10  20  35  57  83 109 141 178 218 264 316
#     4  10  19  32  51  73  99 131 168 214 260 302
#     4  10  19  32  53  77 102 131 166 211 260 309
#
# _framework density 18.974672000000002
#
# number of rings (size 3 to 8) (size 9 to 14) (size 15 to 20)
#    0.000    2.429    2.143    0.429    3.000    1.714 
#    0.000    0.714    0.000    4.714    0.000    0.000 
#    0.000    0.000    0.000    0.000    0.000    0.000 
#
# Total GULP energy -693913.834686 kJ/mol
# GULP energy per Si atom -12391.318477 kJ/mol
# Density = 1.893148 g / cm^3
# Si number density = 18.974672 Si / 1000 Ang^3
#
#
#
# Elastic Constant Matrix: (Units=GPa)
#
#
# Indices 1 2 3 4 5 6 
#
# 1 167.7972 27.2119 61.8265 0.0000 0.0000 0.0000
# 2 27.2119 15.9447 18.6315 0.0000 0.0000 0.0000
# 3 61.8265 18.6315 133.0806 0.0000 0.0000 0.0000
# 4 0.0000 0.0000 0.0000 15.3224 0.0000 0.0000
# 5 0.0000 0.0000 0.0000 0.0000 21.3360 0.0000
# 6 0.0000 0.0000 0.0000 0.0000 0.0000 25.9815
#
#
#
# Elastic Compliance Matrix: (Units=1/GPa)
#
#
# Indices 1 2 3 4 5 6 
#
# 1 0.008830 -0.012286 -0.002382 0.000000 0.000000 0.000000
# 2 -0.012286 0.092077 -0.007183 0.000000 0.000000 0.000000
# 3 -0.002382 -0.007183 0.009627 0.000000 0.000000 0.000000
# 4 0.000000 0.000000 0.000000 0.065264 0.000000 0.000000
# 5 0.000000 0.000000 0.000000 0.000000 0.046869 0.000000
# 6 0.000000 0.000000 0.000000 0.000000 0.000000 0.038489
#
#
# Mechanical properties :
#
#
# Convention : Reuss Voigt Hill
#
# Bulk Modulus (GPa) = 14.96298 59.12915 37.04606
# Shear Modulus (GPa) = 15.28421 26.47148 20.87784
#
# Velocity S-wave (km/s) = 2.84122 3.73915 3.32068
# Velocity P-wave (km/s) = 4.32045 7.06197 5.85396
#
# Compressibility (1/GPa) = 0.06683162
#
# Stress axis : x y z
#
# Youngs Moduli (GPa) = 113.25496 10.86043 103.87898
#
# Poissons Ratio (x) = 0.13343 0.24745
# Poissons Ratio (y) = 1.39140 0.74620
# Poissons Ratio (z) = 0.26978 0.07801
#
# Static dielectric constant tensor:
#      x y z
#    x 3.446850 0.000000 0.000000 
#    y 0.000000 2.953890 0.000000 
#    z 0.000000 0.000000 3.897990 
# 
# 
# High freq. dielectric constant tensor:
#      x y z
#    x 1.751750 0.000000 0.000000 
#    y 0.000000 1.676440 0.000000 
#    z 0.000000 0.000000 1.752990 
# 
# From -- ./inp_files/30519.got.cif
#   From: 2010.03.12/outbox.cif.g09.slc.cpg/sg59_16_cif.got.tgz:30519.got - 2010.04.16 16:29:54.
