data_PCOD8241714
_publ_section_title
;
Structure prediction by ZEFSAII (Michael W. Deem and Ramdas Pophale) SiO2 
 PCOD8241714
Probable space group: P M M N
;
_chemical_formula_sum "Si O2"
_cell_formula_units_Z 56
_cell_length_a 9.091752
_cell_length_b 19.305059
_cell_length_c 16.574962
_cell_angle_alpha 90.000000
_cell_angle_beta 90.000000
_cell_angle_gamma 90.000000
_cell_volume 2909.184436
_symmetry_space_group_name_H-M "P M M N"
_symmetry_group_IT_number 59
_space_group.IT_coordinate_system_code '2'
_symmetry_cell_setting 'orthorhombic'
loop_
_space_group_symop_operation_xyz
x,y,z
1/2-x,1/2-y,z
1/2+x,-y,-z
-x,1/2+y,-z
-x,-y,-z
1/2+x,1/2+y,-z
1/2-x,y,z
x,1/2-y,z
loop_
_atom_site_type_symbol
_atom_site_label
_atom_site_fract_x
_atom_site_fract_y
_atom_site_fract_z
Si Si1 0.919443 0.572852 0.000813
Si Si2 0.581862 0.570894 0.180264
Si Si3 0.923924 0.672172 0.860578
Si Si4 0.418608 0.170285 0.679685
Si Si5 0.575138 0.552074 0.562981
Si Si6 0.577348 0.553402 0.746117
Si Si7 0.580204 0.169375 0.519055
O O1 0.750000 0.558806 0.979043
O O2 0.938449 0.602830 0.091207
O O3 0.985456 0.629132 0.937996
O O4 0.000000 0.500000 0.000000
O O5 0.750000 0.550843 0.196773
O O6 0.527653 0.628818 0.242501
O O7 0.489841 0.501149 0.191624
O O8 0.750000 0.678969 0.868905
O O9 0.992926 0.750000 0.857600
O O10 0.966282 0.630255 0.778593
O O11 0.250000 0.153923 0.655313
O O12 0.438901 0.250000 0.701420
O O13 0.524925 0.147703 0.607446
O O14 0.500000 0.500000 0.500000
O O15 0.750000 0.547451 0.553633
O O16 0.522987 0.538202 0.654883
O O17 0.518786 0.629413 0.545516
O O18 0.750000 0.544416 0.749962
O O19 0.750000 0.147536 0.511570
O O20 0.555707 0.250000 0.502553
#
# Coordination Sequence:
#
# PCOD8241714 Si02
#       7
#     8   8   8   8   8   8   8
#     4  10  19  33  55  80 107 142 178 216 265 321
#     4  10  20  32  52  81 109 139 176 217 267 322
#     4   9  18  34  56  81 108 139 179 224 265 311
#     4   9  18  33  52  76 108 142 178 223 272 322
#     4  11  23  37  56  82 111 144 187 235 284 335
#     4  10  21  36  55  79 105 140 181 223 272 325
#     4  10  21  37  56  78 107 144 185 227 276 335
#
# _framework density 19.249381
#
# number of rings (size 3 to 8) (size 9 to 14) (size 15 to 20)
#    0.000    2.143    1.429    1.714    0.000    6.000 
#    0.000    4.286    0.000    1.714    0.000    2.000 
#    0.000    0.000    0.000    0.000    0.000    0.000 
#
# Total GULP energy -694283.457944 kJ/mol
# GULP energy per Si atom -12397.918892 kJ/mol
# Density = 1.920557 g / cm^3
# Si number density = 19.249381 Si / 1000 Ang^3
#
#
#
# Elastic Constant Matrix: (Units=GPa)
#
#
# Indices 1 2 3 4 5 6 
#
# 1 44.0169 27.5592 32.7142 0.0000 0.0000 0.0000
# 2 27.5592 97.8681 53.8954 0.0000 0.0000 0.0000
# 3 32.7142 53.8954 120.1563 0.0000 0.0000 0.0000
# 4 0.0000 0.0000 0.0000 36.9319 0.0000 0.0000
# 5 0.0000 0.0000 0.0000 0.0000 22.9625 0.0000
# 6 0.0000 0.0000 0.0000 0.0000 0.0000 29.0597
#
#
#
# Elastic Compliance Matrix: (Units=1/GPa)
#
#
# Indices 1 2 3 4 5 6 
#
# 1 0.030435 -0.005322 -0.005899 0.000000 0.000000 0.000000
# 2 -0.005322 0.014500 -0.005055 0.000000 0.000000 0.000000
# 3 -0.005899 -0.005055 0.012196 0.000000 0.000000 0.000000
# 4 0.000000 0.000000 0.000000 0.027077 0.000000 0.000000
# 5 0.000000 0.000000 0.000000 0.000000 0.043549 0.000000
# 6 0.000000 0.000000 0.000000 0.000000 0.000000 0.034412
#
#
# Mechanical properties :
#
#
# Convention : Reuss Voigt Hill
#
# Bulk Modulus (GPa) = 40.68491 54.48653 47.58572
# Shear Modulus (GPa) = 24.64093 27.64899 26.14496
#
# Velocity S-wave (km/s) = 3.58172 3.79404 3.68941
# Velocity P-wave (km/s) = 6.18761 6.89638 6.55159
#
# Compressibility (1/GPa) = 0.02457914
#
# Stress axis : x y z
#
# Youngs Moduli (GPa) = 32.85698 68.96469 81.99344
#
# Poissons Ratio (x) = 0.36700 0.48371
# Poissons Ratio (y) = 0.17485 0.41448
# Poissons Ratio (z) = 0.19384 0.34862
#
# Static dielectric constant tensor:
#      x y z
#    x 3.347830 0.000000 0.000000 
#    y 0.000000 3.651830 0.000000 
#    z 0.000000 0.000000 3.865270 
# 
# 
# High freq. dielectric constant tensor:
#      x y z
#    x 1.727690 0.000000 0.000000 
#    y 0.000000 1.749970 0.000000 
#    z 0.000000 0.000000 1.758630 
# 
# From -- ./inp_files/20946.got.cif
#   From: 2010.03.12/outbox.cif.g09.slc.cpg/sg59_11_cif.got.tgz:20946.got - 2010.04.16 16:29:54.
