data_PCOD8241264
_publ_section_title
;
Structure prediction by ZEFSAII (Michael W. Deem and Ramdas Pophale) SiO2 
 PCOD8241264
Probable space group: P M M N
;
_chemical_formula_sum "Si O2"
_cell_formula_units_Z 56
_cell_length_a 19.877202
_cell_length_b 8.800372
_cell_length_c 17.423676
_cell_angle_alpha 90.000000
_cell_angle_beta 90.000000
_cell_angle_gamma 90.000000
_cell_volume 3047.867398
_symmetry_space_group_name_H-M "P M M N"
_symmetry_group_IT_number 59
_space_group.IT_coordinate_system_code '2'
_symmetry_cell_setting 'orthorhombic'
loop_
_space_group_symop_operation_xyz
x,y,z
1/2-x,1/2-y,z
1/2+x,-y,-z
-x,1/2+y,-z
-x,-y,-z
1/2+x,1/2+y,-z
1/2-x,y,z
x,1/2-y,z
loop_
_atom_site_type_symbol
_atom_site_label
_atom_site_fract_x
_atom_site_fract_y
_atom_site_fract_z
Si Si1 0.558850 0.570327 0.771500
Si Si2 0.952893 0.425064 0.612434
Si Si3 0.582285 0.570676 0.189170
Si Si4 0.582608 0.422592 0.447795
Si Si5 0.175063 0.430628 0.118068
Si Si6 0.326046 0.575345 0.686784
Si Si7 0.174967 0.069460 0.946610
O O1 0.554284 0.750000 0.776334
O O2 0.572531 0.523336 0.683874
O O3 0.490372 0.504246 0.805597
O O4 0.620522 0.504987 0.822164
O O5 0.950219 0.250000 0.637216
O O6 0.906168 0.460165 0.537989
O O7 0.029154 0.465215 0.590602
O O8 0.572812 0.750000 0.185668
O O9 0.626288 0.529799 0.262896
O O10 0.620334 0.505985 0.113646
O O11 0.554791 0.250000 0.440305
O O12 0.652578 0.441183 0.402505
O O13 0.250000 0.489367 0.140229
O O14 0.174701 0.250000 0.119528
O O15 0.156187 0.487283 0.032192
O O16 0.250000 0.517270 0.694667
O O17 0.333318 0.750000 0.713524
O O18 0.250000 0.010730 0.924444
O O19 0.174965 0.250000 0.943605
#
# Coordination Sequence:
#
# PCOD8241264 Si02
#       7
#     8   8   8   8   8   8   8
#     4  11  21  33  52  78 106 135 171 218 265 309
#     4  10  19  32  52  76 101 133 171 211 253 303
#     4  11  21  32  50  78 108 138 174 214 259 312
#     4   9  18  33  52  73  99 134 173 209 251 304
#     4   8  16  33  55  75  97 132 176 217 261 314
#     4  10  20  34  52  75 106 141 174 211 257 310
#     4   8  15  30  51  74 101 134 173 215 257 304
#
# _framework density 18.373502999999999
#
# number of rings (size 3 to 8) (size 9 to 14) (size 15 to 20)
#    0.000    2.429    1.429    2.571    0.000    2.000 
#    0.000    0.714    0.000    5.143    0.000    8.000 
#    0.000    0.000    0.000    0.000    0.000    0.000 
#
# Total GULP energy -694214.436225 kJ/mol
# GULP energy per Si atom -12396.686361 kJ/mol
# Density = 1.833168 g / cm^3
# Si number density = 18.373503 Si / 1000 Ang^3
#
#
#
# Elastic Constant Matrix: (Units=GPa)
#
#
# Indices 1 2 3 4 5 6 
#
# 1 127.0509 29.6643 85.1480 0.0000 0.0000 0.0000
# 2 29.6643 46.4006 29.6517 0.0000 0.0000 0.0000
# 3 85.1480 29.6517 148.3160 0.0000 0.0000 0.0000
# 4 0.0000 0.0000 0.0000 17.9951 0.0000 0.0000
# 5 0.0000 0.0000 0.0000 0.0000 25.9864 0.0000
# 6 0.0000 0.0000 0.0000 0.0000 0.0000 12.0449
#
#
#
# Elastic Compliance Matrix: (Units=1/GPa)
#
#
# Indices 1 2 3 4 5 6 
#
# 1 0.013474 -0.004208 -0.006894 0.000000 0.000000 0.000000
# 2 -0.004208 0.026023 -0.002786 0.000000 0.000000 0.000000
# 3 -0.006894 -0.002786 0.011257 0.000000 0.000000 0.000000
# 4 0.000000 0.000000 0.000000 0.055571 0.000000 0.000000
# 5 0.000000 0.000000 0.000000 0.000000 0.038482 0.000000
# 6 0.000000 0.000000 0.000000 0.000000 0.000000 0.083023
#
#
# Mechanical properties :
#
#
# Convention : Reuss Voigt Hill
#
# Bulk Modulus (GPa) = 43.52369 67.85504 55.68936
# Shear Modulus (GPa) = 18.99231 23.02551 21.00891
#
# Velocity S-wave (km/s) = 3.21858 3.54388 3.38514
# Velocity P-wave (km/s) = 6.12797 7.33189 6.75680
#
# Compressibility (1/GPa) = 0.02297599
#
# Stress axis : x y z
#
# Youngs Moduli (GPa) = 74.21918 38.42819 88.83224
#
# Poissons Ratio (x) = 0.16172 0.61239
# Poissons Ratio (y) = 0.31234 0.24753
# Poissons Ratio (z) = 0.51165 0.10708
#
# Static dielectric constant tensor:
#      x y z
#    x 3.450270 0.000000 0.000000 
#    y 0.000000 3.164680 0.000000 
#    z 0.000000 0.000000 3.709910 
# 
# 
# High freq. dielectric constant tensor:
#      x y z
#    x 1.698090 0.000000 0.000000 
#    y 0.000000 1.689640 0.000000 
#    z 0.000000 0.000000 1.723160 
# 
# From -- ./inp_files/28042.got.cif
#   From: 2010.03.12/outbox.cif.g09.slc.cpg/sg59_15_cif.got.tgz:28042.got - 2010.04.16 16:29:54.
