data_PCOD8241186
_publ_section_title
;
Structure prediction by ZEFSAII (Michael W. Deem and Ramdas Pophale) SiO2 
 PCOD8241186
Probable space group: P M M N
;
_chemical_formula_sum "Si O2"
_cell_formula_units_Z 40
_cell_length_a 8.598499
_cell_length_b 25.974305
_cell_length_c 9.256655
_cell_angle_alpha 90.000000
_cell_angle_beta 90.000000
_cell_angle_gamma 90.000000
_cell_volume 2067.381657
_symmetry_space_group_name_H-M "P M M N"
_symmetry_group_IT_number 59
_space_group.IT_coordinate_system_code '2'
_symmetry_cell_setting 'orthorhombic'
loop_
_space_group_symop_operation_xyz
x,y,z
1/2-x,1/2-y,z
1/2+x,-y,-z
-x,1/2+y,-z
-x,-y,-z
1/2+x,1/2+y,-z
1/2-x,y,z
x,1/2-y,z
loop_
_atom_site_type_symbol
_atom_site_label
_atom_site_fract_x
_atom_site_fract_y
_atom_site_fract_z
Si Si1 0.065320 0.693334 0.161457
Si Si2 0.564877 0.403139 0.338696
Si Si3 0.933930 0.999133 0.159670
Si Si4 0.564960 0.192965 0.162601
Si Si5 0.435140 0.595710 0.334318
O O1 0.250000 0.693017 0.160141
O O2 0.005973 0.750000 0.211128
O O3 0.003944 0.650125 0.271291
O O4 0.004653 0.681393 0.999576
O O5 0.750000 0.401637 0.338102
O O6 0.502528 0.451252 0.246300
O O7 0.497006 0.350411 0.269778
O O8 0.503613 0.408414 0.501996
O O9 0.750000 0.000305 0.151355
O O10 0.989013 0.948715 0.241177
O O11 0.000000 0.000000 0.000000
O O12 0.750000 0.190915 0.164199
O O13 0.508945 0.250000 0.212232
O O14 0.250000 0.590945 0.324290
#
# Coordination Sequence:
#
# PCOD8241186 Si02
#       5
#     8   8   8   8   8
#     4   8  14  25  44  71 101 132 165 201 241 287
#     4   9  18  30  46  71 101 131 161 199 247 297
#     4  11  22  36  53  72  97 130 169 208 250 300
#     4   8  13  23  40  64  96 130 161 195 237 284
#     4  10  19  32  51  75 103 131 162 202 248 296
#
# _framework density 19.348147000000001
#
# number of rings (size 3 to 8) (size 9 to 14) (size 15 to 20)
#    0.000    2.800    0.000    3.600    0.000    4.000 
#    0.000    5.000    0.000    0.600    0.000    0.000 
#    0.000    5.600    0.000    0.000    0.000    0.000 
#
# Total GULP energy -495837.224060 kJ/mol
# GULP energy per Si atom -12395.930602 kJ/mol
# Density = 1.930411 g / cm^3
# Si number density = 19.348147 Si / 1000 Ang^3
#
#
#
# Elastic Constant Matrix: (Units=GPa)
#
#
# Indices 1 2 3 4 5 6 
#
# 1 20.0697 21.6721 21.2064 0.0000 0.0000 0.0000
# 2 21.6721 193.0349 117.5306 0.0000 0.0000 0.0000
# 3 21.2064 117.5306 184.7549 0.0000 0.0000 0.0000
# 4 0.0000 0.0000 0.0000 30.3188 0.0000 0.0000
# 5 0.0000 0.0000 0.0000 0.0000 17.3589 0.0000
# 6 0.0000 0.0000 0.0000 0.0000 0.0000 20.0729
#
#
#
# Elastic Compliance Matrix: (Units=1/GPa)
#
#
# Indices 1 2 3 4 5 6 
#
# 1 0.058584 -0.004053 -0.004146 0.000000 0.000000 0.000000
# 2 -0.004053 0.008736 -0.005092 0.000000 0.000000 0.000000
# 3 -0.004146 -0.005092 0.009128 0.000000 0.000000 0.000000
# 4 0.000000 0.000000 0.000000 0.032983 0.000000 0.000000
# 5 0.000000 0.000000 0.000000 0.000000 0.057607 0.000000
# 6 0.000000 0.000000 0.000000 0.000000 0.000000 0.049818
#
#
# Mechanical properties :
#
#
# Convention : Reuss Voigt Hill
#
# Bulk Modulus (GPa) = 20.05406 79.85310 49.95358
# Shear Modulus (GPa) = 19.22641 29.38017 24.30329
#
# Velocity S-wave (km/s) = 3.15573 3.90102 3.54800
# Velocity P-wave (km/s) = 4.86473 7.85187 6.53137
#
# Compressibility (1/GPa) = 0.04986522
#
# Stress axis : x y z
#
# Youngs Moduli (GPa) = 17.06961 114.47282 109.55661
#
# Poissons Ratio (x) = 0.46393 0.45424
# Poissons Ratio (y) = 0.06918 0.55786
# Poissons Ratio (z) = 0.07077 0.58289
#
# Static dielectric constant tensor:
#      x y z
#    x 2.938390 0.000000 0.000000 
#    y 0.000000 3.986890 0.000000 
#    z 0.000000 0.000000 3.790760 
# 
# 
# High freq. dielectric constant tensor:
#      x y z
#    x 1.686620 0.000000 0.000000 
#    y 0.000000 1.774540 0.000000 
#    z 0.000000 0.000000 1.760320 
# 
# From -- ./inp_files/5647.got.cif
#   From: 2010.03.12/outbox.cif.g09.slc.cpg/sg59_3_cif.got.tgz:5647.got - 2010.04.16 16:29:54.
