data_PCOD8241874
_publ_section_title
;
Structure prediction by ZEFSAII (Michael W. Deem and Ramdas Pophale) SiO2 
 PCOD8241874
Probable space group: P M M N
;
_chemical_formula_sum "Si O2"
_cell_formula_units_Z 56
_cell_length_a 8.690301
_cell_length_b 21.516821
_cell_length_c 15.712016
_cell_angle_alpha 90.000000
_cell_angle_beta 90.000000
_cell_angle_gamma 90.000000
_cell_volume 2937.952965
_symmetry_space_group_name_H-M "P M M N"
_symmetry_group_IT_number 59
_space_group.IT_coordinate_system_code '2'
_symmetry_cell_setting 'orthorhombic'
loop_
_space_group_symop_operation_xyz
x,y,z
1/2-x,1/2-y,z
1/2+x,-y,-z
-x,1/2+y,-z
-x,-y,-z
1/2+x,1/2+y,-z
1/2-x,y,z
x,1/2-y,z
loop_
_atom_site_type_symbol
_atom_site_label
_atom_site_fract_x
_atom_site_fract_y
_atom_site_fract_z
Si Si1 0.429162 0.498253 0.907610
Si Si2 0.929524 0.881103 0.196578
Si Si3 0.431013 0.867337 0.478519
Si Si4 0.432991 0.458263 0.644740
Si Si5 0.579972 0.750000 0.397177
Si Si6 0.568308 0.566086 0.748622
Si Si7 0.918355 0.750000 0.197807
Si Si8 0.931862 0.178254 0.336316
O O1 0.250000 0.515334 0.909262
O O2 0.458258 0.427359 0.880626
O O3 0.509336 0.544580 0.841160
O O4 0.500000 0.500000 0.000000
O O5 0.750000 0.868638 0.212906
O O6 0.995188 0.910487 0.283417
O O7 0.007526 0.814176 0.173245
O O8 0.250000 0.874965 0.471391
O O9 0.506898 0.932237 0.445921
O O10 0.485559 0.810802 0.420916
O O11 0.482165 0.851957 0.574198
O O12 0.250000 0.464383 0.642954
O O13 0.498636 0.525691 0.670413
O O14 0.750000 0.750000 0.440536
O O15 0.602260 0.750000 0.297915
O O16 0.750000 0.560594 0.746922
O O17 0.515587 0.637605 0.736277
O O18 0.750000 0.750000 0.153120
O O19 0.750000 0.174754 0.323275
O O20 0.987555 0.250000 0.331573
#
# Coordination Sequence:
#
# PCOD8241874 Si02
#       8
#     8   8   8   8   4   8   4   8
#     4  10  20  37  62  88 113 145 183 226 279 343
#     4   8  15  27  48  78 109 140 178 218 265 325
#     4  11  21  34  52  79 113 151 197 245 286 330
#     4  10  19  34  54  80 113 152 192 232 282 340
#     4  11  19  29  49  75 108 151 196 233 275 334
#     4  11  23  39  60  88 115 144 186 238 291 346
#     4   9  14  25  47  77 108 141 178 219 269 326
#     4  10  22  41  60  79 110 154 197 241 293 343
#
# _framework density 19.060889
#
# number of rings (size 3 to 8) (size 9 to 14) (size 15 to 20)
#    0.000    2.000    2.143    3.643    0.000    2.000 
#    0.000    0.000    1.571    0.000    0.000    0.000 
#    0.000    0.000    0.000    0.000    0.000    0.000 
#
# Total GULP energy -694087.738428 kJ/mol
# GULP energy per Si atom -12394.423900 kJ/mol
# Density = 1.901751 g / cm^3
# Si number density = 19.060889 Si / 1000 Ang^3
#
#
#
# Elastic Constant Matrix: (Units=GPa)
#
#
# Indices 1 2 3 4 5 6 
#
# 1 85.2477 47.7050 39.1392 0.0000 0.0000 0.0000
# 2 47.7050 137.9904 58.1434 0.0000 0.0000 0.0000
# 3 39.1392 58.1434 84.0719 0.0000 0.0000 0.0000
# 4 0.0000 0.0000 0.0000 22.3346 0.0000 0.0000
# 5 0.0000 0.0000 0.0000 0.0000 27.8629 0.0000
# 6 0.0000 0.0000 0.0000 0.0000 0.0000 16.2404
#
#
#
# Elastic Compliance Matrix: (Units=1/GPa)
#
#
# Indices 1 2 3 4 5 6 
#
# 1 0.015956 -0.003368 -0.005099 0.000000 0.000000 0.000000
# 2 -0.003368 0.010938 -0.005997 0.000000 0.000000 0.000000
# 3 -0.005099 -0.005997 0.018416 0.000000 0.000000 0.000000
# 4 0.000000 0.000000 0.000000 0.044774 0.000000 0.000000
# 5 0.000000 0.000000 0.000000 0.000000 0.035890 0.000000
# 6 0.000000 0.000000 0.000000 0.000000 0.000000 0.061575
#
#
# Mechanical properties :
#
#
# Convention : Reuss Voigt Hill
#
# Bulk Modulus (GPa) = 61.04050 66.36501 63.70275
# Shear Modulus (GPa) = 22.52893 24.10908 23.31900
#
# Velocity S-wave (km/s) = 3.44167 3.56032 3.50150
# Velocity P-wave (km/s) = 6.92004 7.19682 7.05978
#
# Compressibility (1/GPa) = 0.01638257
#
# Stress axis : x y z
#
# Youngs Moduli (GPa) = 62.67114 91.42518 54.30095
#
# Poissons Ratio (x) = 0.30789 0.27690
# Poissons Ratio (y) = 0.21105 0.32563
# Poissons Ratio (z) = 0.31958 0.54826
#
# Static dielectric constant tensor:
#      x y z
#    x 3.332350 0.000000 0.000000 
#    y 0.000000 3.865650 0.000000 
#    z 0.000000 0.000000 3.188690 
# 
# 
# High freq. dielectric constant tensor:
#      x y z
#    x 1.726780 0.000000 0.000000 
#    y 0.000000 1.755240 0.000000 
#    z 0.000000 0.000000 1.712380 
# 
# From -- ./inp_files/21217.got.cif
#   From: 2010.03.12/outbox.cif.g09.slc.cpg/sg59_11_cif.got.tgz:21217.got - 2010.04.16 16:29:54.
