data_PCOD8241539
_publ_section_title
;
Structure prediction by ZEFSAII (Michael W. Deem and Ramdas Pophale) SiO2 
 PCOD8241539
Probable space group: P M M N
;
_chemical_formula_sum "Si O2"
_cell_formula_units_Z 48
_cell_length_a 8.964754
_cell_length_b 16.065906
_cell_length_c 17.074022
_cell_angle_alpha 90.000000
_cell_angle_beta 90.000000
_cell_angle_gamma 90.000000
_cell_volume 2459.118375
_symmetry_space_group_name_H-M "P M M N"
_symmetry_group_IT_number 59
_space_group.IT_coordinate_system_code '2'
_symmetry_cell_setting 'orthorhombic'
loop_
_space_group_symop_operation_xyz
x,y,z
1/2-x,1/2-y,z
1/2+x,-y,-z
-x,1/2+y,-z
-x,-y,-z
1/2+x,1/2+y,-z
1/2-x,y,z
x,1/2-y,z
loop_
_atom_site_type_symbol
_atom_site_label
_atom_site_fract_x
_atom_site_fract_y
_atom_site_fract_z
Si Si1 0.072800 0.250000 0.556952
Si Si2 0.577461 0.079879 0.160024
Si Si3 0.075806 0.107717 0.844356
Si Si4 0.928148 0.750000 0.267128
Si Si5 0.576139 0.345709 0.322157
Si Si6 0.927091 0.583959 0.532314
Si Si7 0.573761 0.844109 0.986740
O O1 0.250000 0.250000 0.555637
O O2 0.007498 0.250000 0.644950
O O3 0.015410 0.165480 0.515126
O O4 0.750000 0.093311 0.140000
O O5 0.527678 0.136923 0.232728
O O6 0.486859 0.099664 0.082602
O O7 0.542608 0.985204 0.183963
O O8 0.250000 0.126849 0.850968
O O9 0.009043 0.169333 0.778796
O O10 0.006422 0.124705 0.930348
O O11 0.750000 0.750000 0.271717
O O12 0.750000 0.367599 0.333698
O O13 0.541813 0.250000 0.341379
O O14 0.478709 0.404166 0.378215
O O15 0.750000 0.574772 0.527845
O O16 0.000000 0.500000 0.500000
O O17 0.750000 0.852487 0.986612
O O18 0.521289 0.750000 0.972518
#
# Coordination Sequence:
#
# PCOD8241539 Si02
#       7
#     4   8   8   4   8   8   8
#     4   9  20  36  59  88 115 144 190 239 281 343
#     4  10  21  34  54  83 110 143 187 232 278 330
#     4   9  17  31  52  79 109 140 178 226 278 331
#     4   9  16  30  54  80 105 136 176 227 275 321
#     4  10  21  38  58  82 115 152 190 234 286 341
#     4  11  23  40  61  90 120 152 194 239 291 350
#     4  10  19  33  52  77 108 144 184 224 274 332
#
# _framework density 19.519189999999998
#
# number of rings (size 3 to 8) (size 9 to 14) (size 15 to 20)
#    0.000    2.167    1.667    1.500    2.333    1.667 
#    0.000    0.000    0.000    0.000    0.000    0.000 
#    0.000    0.000    0.000    0.000    0.000    0.000 
#
# Total GULP energy -595205.923601 kJ/mol
# GULP energy per Si atom -12400.123408 kJ/mol
# Density = 1.947476 g / cm^3
# Si number density = 19.519190 Si / 1000 Ang^3
#
#
#
# Elastic Constant Matrix: (Units=GPa)
#
#
# Indices 1 2 3 4 5 6 
#
# 1 32.1886 30.2253 23.2594 0.0000 0.0000 0.0000
# 2 30.2253 108.5539 43.9371 0.0000 0.0000 0.0000
# 3 23.2594 43.9371 120.4118 0.0000 0.0000 0.0000
# 4 0.0000 0.0000 0.0000 37.3154 0.0000 0.0000
# 5 0.0000 0.0000 0.0000 0.0000 24.5712 0.0000
# 6 0.0000 0.0000 0.0000 0.0000 0.0000 23.3044
#
#
#
# Elastic Compliance Matrix: (Units=1/GPa)
#
#
# Indices 1 2 3 4 5 6 
#
# 1 0.044271 -0.010402 -0.004756 0.000000 0.000000 0.000000
# 2 -0.010402 0.013252 -0.002826 0.000000 0.000000 0.000000
# 3 -0.004756 -0.002826 0.010255 0.000000 0.000000 0.000000
# 4 0.000000 0.000000 0.000000 0.026799 0.000000 0.000000
# 5 0.000000 0.000000 0.000000 0.000000 0.040698 0.000000
# 6 0.000000 0.000000 0.000000 0.000000 0.000000 0.042910
#
#
# Mechanical properties :
#
#
# Convention : Reuss Voigt Hill
#
# Bulk Modulus (GPa) = 31.43697 50.66642 41.05170
# Shear Modulus (GPa) = 22.24634 27.95370 25.10002
#
# Velocity S-wave (km/s) = 3.37963 3.78843 3.58986
# Velocity P-wave (km/s) = 5.60088 6.71937 6.18546
#
# Compressibility (1/GPa) = 0.03180968
#
# Stress axis : x y z
#
# Youngs Moduli (GPa) = 22.58827 75.45957 97.51456
#
# Poissons Ratio (x) = 0.78489 0.46380
# Poissons Ratio (y) = 0.23495 0.27561
# Poissons Ratio (z) = 0.10743 0.21328
#
# Static dielectric constant tensor:
#      x y z
#    x 3.127210 0.000000 0.000000 
#    y 0.000000 3.694310 0.000000 
#    z 0.000000 0.000000 3.699360 
# 
# 
# High freq. dielectric constant tensor:
#      x y z
#    x 1.713260 0.000000 0.000000 
#    y 0.000000 1.774120 0.000000 
#    z 0.000000 0.000000 1.773380 
# 
# From -- ./inp_files/25629.got.cif
#   From: 2010.03.12/outbox.cif.g09.slc.cpg/sg59_13_cif.got.tgz:25629.got - 2010.04.16 16:29:54.
