data_PCOD8241456
_publ_section_title
;
Structure prediction by ZEFSAII (Michael W. Deem and Ramdas Pophale) SiO2 
 PCOD8241456
Probable space group: P M M N
;
_chemical_formula_sum "Si O2"
_cell_formula_units_Z 64
_cell_length_a 18.772800
_cell_length_b 9.125974
_cell_length_c 19.980507
_cell_angle_alpha 90.000000
_cell_angle_beta 90.000000
_cell_angle_gamma 90.000000
_cell_volume 3423.062152
_symmetry_space_group_name_H-M "P M M N"
_symmetry_group_IT_number 59
_space_group.IT_coordinate_system_code '2'
_symmetry_cell_setting 'orthorhombic'
loop_
_space_group_symop_operation_xyz
x,y,z
1/2-x,1/2-y,z
1/2+x,-y,-z
-x,1/2+y,-z
-x,-y,-z
1/2+x,1/2+y,-z
1/2-x,y,z
x,1/2-y,z
loop_
_atom_site_type_symbol
_atom_site_label
_atom_site_fract_x
_atom_site_fract_y
_atom_site_fract_z
Si Si1 0.167268 0.922128 0.901028
Si Si2 0.062921 0.922914 0.635030
Si Si3 0.669299 0.078969 0.729180
Si Si4 0.579711 0.424118 0.601916
Si Si5 0.935639 0.423507 0.214250
Si Si6 0.925325 0.579424 0.990842
Si Si7 0.586350 0.919059 0.837329
Si Si8 0.170700 0.922901 0.523012
O O1 0.250000 0.960361 0.894310
O O2 0.154149 0.750000 0.913186
O O3 0.129194 0.976275 0.832753
O O4 0.135152 0.009555 0.963147
O O5 0.048002 0.750000 0.634460
O O6 0.074672 0.983199 0.710382
O O7 0.133183 0.963750 0.593009
O O8 0.996984 0.001504 0.599619
O O9 0.750000 0.038379 0.710568
O O10 0.660014 0.250000 0.740784
O O11 0.619654 0.023915 0.668967
O O12 0.648346 0.000898 0.797854
O O13 0.570560 0.250000 0.599032
O O14 0.624843 0.484079 0.539014
O O15 0.937016 0.250000 0.215268
O O16 0.009264 0.484667 0.183356
O O17 0.935249 0.750000 0.008152
O O18 0.899190 0.556976 0.915278
O O19 0.000000 0.500000 0.000000
O O20 0.589403 0.750000 0.817229
O O21 0.250000 0.992457 0.522556
O O22 0.176864 0.750000 0.514806
#
# Coordination Sequence:
#
# PCOD8241456 Si02
#       8
#     8   8   8   8   8   8   8   8
#     4  10  21  38  59  83 113 147 182 223 275 329
#     4  10  19  32  55  81 105 135 178 226 262 308
#     4  10  21  35  52  77 107 139 177 217 259 314
#     4  10  19  33  53  76 106 142 176 215 265 317
#     4   9  17  33  54  79 109 139 175 219 267 315
#     4  11  22  37  59  82 109 143 183 225 270 325
#     4  10  20  36  56  77 106 140 174 217 268 321
#     4   9  18  32  51  77 107 139 176 218 265 314
#
# _framework density 18.696709999999999
#
# number of rings (size 3 to 8) (size 9 to 14) (size 15 to 20)
#    0.000    2.125    2.500    1.125    0.000    4.000 
#    0.000    5.625    0.000    2.250    0.000    0.000 
#    0.000    0.000    0.000    0.000    0.000    0.000 
#
# Total GULP energy -793698.083591 kJ/mol
# GULP energy per Si atom -12401.532556 kJ/mol
# Density = 1.865416 g / cm^3
# Si number density = 18.696710 Si / 1000 Ang^3
#
#
#
# Elastic Constant Matrix: (Units=GPa)
#
#
# Indices 1 2 3 4 5 6 
#
# 1 123.4211 35.2944 68.6861 0.0000 0.0000 0.0000
# 2 35.2944 36.3791 32.8892 0.0000 0.0000 0.0000
# 3 68.6861 32.8892 136.1272 0.0000 0.0000 0.0000
# 4 0.0000 0.0000 0.0000 21.0936 0.0000 0.0000
# 5 0.0000 0.0000 0.0000 0.0000 34.2992 0.0000
# 6 0.0000 0.0000 0.0000 0.0000 0.0000 27.9468
#
#
#
# Elastic Compliance Matrix: (Units=1/GPa)
#
#
# Indices 1 2 3 4 5 6 
#
# 1 0.013078 -0.008601 -0.004521 0.000000 0.000000 0.000000
# 2 -0.008601 0.040827 -0.005524 0.000000 0.000000 0.000000
# 3 -0.004521 -0.005524 0.010962 0.000000 0.000000 0.000000
# 4 0.000000 0.000000 0.000000 0.047408 0.000000 0.000000
# 5 0.000000 0.000000 0.000000 0.000000 0.029155 0.000000
# 6 0.000000 0.000000 0.000000 0.000000 0.000000 0.035782
#
#
# Mechanical properties :
#
#
# Convention : Reuss Voigt Hill
#
# Bulk Modulus (GPa) = 36.26475 63.29631 49.78053
# Shear Modulus (GPa) = 22.35185 27.27177 24.81181
#
# Velocity S-wave (km/s) = 3.46135 3.82336 3.64685
# Velocity P-wave (km/s) = 5.95088 7.30880 6.66451
#
# Compressibility (1/GPa) = 0.02757499
#
# Stress axis : x y z
#
# Youngs Moduli (GPa) = 76.46589 24.49349 91.22598
#
# Poissons Ratio (x) = 0.21066 0.41240
# Poissons Ratio (y) = 0.65767 0.50397
# Poissons Ratio (z) = 0.34568 0.13531
#
# Static dielectric constant tensor:
#      x y z
#    x 3.502070 0.000000 0.000000 
#    y 0.000000 3.153350 0.000000 
#    z 0.000000 0.000000 3.727390 
# 
# 
# High freq. dielectric constant tensor:
#      x y z
#    x 1.729940 0.000000 0.000000 
#    y 0.000000 1.691870 0.000000 
#    z 0.000000 0.000000 1.740660 
# 
# From -- ./inp_files/30821.got.cif
#   From: 2010.03.12/outbox.cif.g09.slc.cpg/sg59_16_cif.got.tgz:30821.got - 2010.04.16 16:29:54.
