data_PCOD8241129
_publ_section_title
;
Structure prediction by ZEFSAII (Michael W. Deem and Ramdas Pophale) SiO2 
 PCOD8241129
Probable space group: P M M N
;
_chemical_formula_sum "Si O2"
_cell_formula_units_Z 64
_cell_length_a 22.989135
_cell_length_b 8.939304
_cell_length_c 18.882084
_cell_angle_alpha 90.000000
_cell_angle_beta 90.000000
_cell_angle_gamma 90.000000
_cell_volume 3880.397915
_symmetry_space_group_name_H-M "P M M N"
_symmetry_group_IT_number 59
_space_group.IT_coordinate_system_code '2'
_symmetry_cell_setting 'orthorhombic'
loop_
_space_group_symop_operation_xyz
x,y,z
1/2-x,1/2-y,z
1/2+x,-y,-z
-x,1/2+y,-z
-x,-y,-z
1/2+x,1/2+y,-z
1/2-x,y,z
x,1/2-y,z
loop_
_atom_site_type_symbol
_atom_site_label
_atom_site_fract_x
_atom_site_fract_y
_atom_site_fract_z
Si Si1 0.026823 0.077516 0.099130
Si Si2 0.682669 0.922400 0.112529
Si Si3 0.590847 0.075969 0.019978
Si Si4 0.635627 0.073176 0.251614
Si Si5 0.498223 0.924182 0.744205
Si Si6 0.411002 0.576540 0.526633
Si Si7 0.182801 0.422457 0.609003
Si Si8 0.014786 0.923486 0.394363
O O1 0.040586 0.250000 0.082940
O O2 0.961935 0.038608 0.073072
O O3 0.030679 0.041228 0.182221
O O4 0.074357 0.977352 0.059017
O O5 0.750000 0.943736 0.093996
O O6 0.666183 0.750000 0.123077
O O7 0.647217 0.988292 0.046485
O O8 0.668440 0.007555 0.184476
O O9 0.605678 0.250000 0.018553
O O10 0.641404 0.250000 0.248114
O O11 0.568541 0.023311 0.250630
O O12 0.666540 0.014593 0.321655
O O13 0.502214 0.750000 0.725030
O O14 0.531193 0.020331 0.684086
O O15 0.400154 0.750000 0.542797
O O16 0.352265 0.484991 0.541241
O O17 0.430120 0.548934 0.445560
O O18 0.460374 0.520727 0.580220
O O19 0.250000 0.444561 0.590934
O O20 0.167077 0.250000 0.622042
O O21 0.996939 0.750000 0.394341
#
# Coordination Sequence:
#
# PCOD8241129 Si02
#       8
#     8   8   8   8   8   8   8   8
#     4   9  18  33  50  71 100 129 161 202 249 298
#     4  11  23  36  50  70  99 137 176 210 247 291
#     4  10  19  33  51  73  98 128 167 208 249 293
#     4  11  21  34  50  72 101 135 174 208 242 289
#     4  10  19  32  50  74 103 134 166 201 245 300
#     4  10  20  34  50  71  98 130 168 207 249 296
#     4  11  23  36  50  71  99 133 173 211 248 293
#     4  10  20  32  50  74 100 129 164 207 252 298
#
# _framework density 16.493155000000002
#
# number of rings (size 3 to 8) (size 9 to 14) (size 15 to 20)
#    0.000    1.750    2.500    2.625    0.000    6.500 
#    0.000    0.000    0.000    0.000    0.000    0.875 
#    0.000    5.000    0.000    0.000    0.000    0.000 
#
# Total GULP energy -793840.775202 kJ/mol
# GULP energy per Si atom -12403.762113 kJ/mol
# Density = 1.645562 g / cm^3
# Si number density = 16.493155 Si / 1000 Ang^3
#
#
#
# Elastic Constant Matrix: (Units=GPa)
#
#
# Indices 1 2 3 4 5 6 
#
# 1 76.7321 48.3672 47.5067 0.0000 0.0000 0.0000
# 2 48.3672 85.0359 47.6416 0.0000 0.0000 0.0000
# 3 47.5067 47.6416 104.6109 0.0000 0.0000 0.0000
# 4 0.0000 0.0000 0.0000 31.7673 0.0000 0.0000
# 5 0.0000 0.0000 0.0000 0.0000 22.8178 0.0000
# 6 0.0000 0.0000 0.0000 0.0000 0.0000 25.1731
#
#
#
# Elastic Compliance Matrix: (Units=1/GPa)
#
#
# Indices 1 2 3 4 5 6 
#
# 1 0.022792 -0.009619 -0.005970 0.000000 0.000000 0.000000
# 2 -0.009619 0.019848 -0.004671 0.000000 0.000000 0.000000
# 3 -0.005970 -0.004671 0.014397 0.000000 0.000000 0.000000
# 4 0.000000 0.000000 0.000000 0.031479 0.000000 0.000000
# 5 0.000000 0.000000 0.000000 0.000000 0.043825 0.000000
# 6 0.000000 0.000000 0.000000 0.000000 0.000000 0.039725
#
#
# Mechanical properties :
#
#
# Convention : Reuss Voigt Hill
#
# Bulk Modulus (GPa) = 60.54050 61.49000 61.01525
# Shear Modulus (GPa) = 22.92628 24.14254 23.53441
#
# Velocity S-wave (km/s) = 3.73238 3.83010 3.78156
# Velocity P-wave (km/s) = 7.44045 7.54471 7.49276
#
# Compressibility (1/GPa) = 0.01651787
#
# Stress axis : x y z
#
# Youngs Moduli (GPa) = 43.87597 50.38373 69.45738
#
# Poissons Ratio (x) = 0.48464 0.41463
# Poissons Ratio (y) = 0.42204 0.32442
# Poissons Ratio (z) = 0.26192 0.23533
#
# Static dielectric constant tensor:
#      x y z
#    x 2.963440 0.000000 0.000000 
#    y 0.000000 3.233340 0.000000 
#    z 0.000000 0.000000 3.171320 
# 
# 
# High freq. dielectric constant tensor:
#      x y z
#    x 1.605290 0.000000 0.000000 
#    y 0.000000 1.651180 0.000000 
#    z 0.000000 0.000000 1.631180 
# 
# From -- ./inp_files/26476.got.cif
#   From: 2010.03.12/outbox.cif.g09.slc.cpg/sg59_14_cif.got.tgz:26476.got - 2010.04.16 16:29:54.
