data_PCOD8241088
_publ_section_title
;
Structure prediction by ZEFSAII (Michael W. Deem and Ramdas Pophale) SiO2 
 PCOD8241088
Probable space group: P M M N
;
_chemical_formula_sum "Si O2"
_cell_formula_units_Z 56
_cell_length_a 14.078636
_cell_length_b 8.945172
_cell_length_c 24.263633
_cell_angle_alpha 90.000000
_cell_angle_beta 90.000000
_cell_angle_gamma 90.000000
_cell_volume 3055.660531
_symmetry_space_group_name_H-M "P M M N"
_symmetry_group_IT_number 59
_space_group.IT_coordinate_system_code '2'
_symmetry_cell_setting 'orthorhombic'
loop_
_space_group_symop_operation_xyz
x,y,z
1/2-x,1/2-y,z
1/2+x,-y,-z
-x,1/2+y,-z
-x,-y,-z
1/2+x,1/2+y,-z
1/2-x,y,z
x,1/2-y,z
loop_
_atom_site_type_symbol
_atom_site_label
_atom_site_fract_x
_atom_site_fract_y
_atom_site_fract_z
Si Si1 0.750000 0.078768 0.311288
Si Si2 0.458832 0.078813 0.808773
Si Si3 0.955663 0.071662 0.308935
Si Si4 0.640535 0.423001 0.487651
Si Si5 0.490550 0.577176 0.412956
Si Si6 0.641717 0.423684 0.002212
Si Si7 0.750000 0.583373 0.203770
Si Si8 0.021127 0.425042 0.085477
O O1 0.750000 0.250000 0.326663
O O2 0.851259 0.014497 0.331859
O O3 0.750000 0.053204 0.246008
O O4 0.490431 0.250000 0.802832
O O5 0.348514 0.066397 0.829642
O O6 0.477595 0.999934 0.750203
O O7 0.523032 0.001169 0.854793
O O8 0.960909 0.250000 0.302825
O O9 0.027282 0.012447 0.355771
O O10 0.750000 0.470938 0.486172
O O11 0.626833 0.250000 0.471190
O O12 0.584861 0.522203 0.443912
O O13 0.601265 0.452293 0.549118
O O14 0.503145 0.750000 0.398608
O O15 0.750000 0.462855 0.017674
O O16 0.628687 0.250000 0.987901
O O17 0.611604 0.516989 0.948548
O O18 0.575876 0.468966 0.053751
O O19 0.750000 0.750000 0.232073
O O20 0.030635 0.250000 0.094181
#
# Coordination Sequence:
#
# PCOD8241088 Si02
#       8
#     4   8   8   8   8   8   4   8
#     4   8  16  28  42  62  90 128 166 194 231 290
#     4  10  19  32  49  72 103 137 171 211 255 304
#     4  10  19  32  49  71 101 137 171 206 251 306
#     4   9  19  36  55  73  99 135 171 207 251 303
#     4  10  20  33  51  78 104 130 168 212 255 301
#     4   9  19  36  55  75 102 137 174 213 257 305
#     4   8  16  28  42  64  94 128 164 200 241 288
#     4  10  20  33  52  79 106 135 172 213 257 308
#
# _framework density 18.326644000000002
#
# number of rings (size 3 to 8) (size 9 to 14) (size 15 to 20)
#    0.000    2.571    0.000    1.714    2.000    2.857 
#    0.000    0.000    0.000    0.857    0.000    2.000 
#    0.000    0.000    0.000    0.000    0.000    0.000 
#
# Total GULP energy -694011.782251 kJ/mol
# GULP energy per Si atom -12393.067540 kJ/mol
# Density = 1.828493 g / cm^3
# Si number density = 18.326644 Si / 1000 Ang^3
#
#
#
# Elastic Constant Matrix: (Units=GPa)
#
#
# Indices 1 2 3 4 5 6 
#
# 1 52.4339 17.1090 11.0484 0.0000 0.0000 0.0000
# 2 17.1090 75.4604 47.9218 0.0000 0.0000 0.0000
# 3 11.0484 47.9218 97.9666 0.0000 0.0000 0.0000
# 4 0.0000 0.0000 0.0000 34.0519 0.0000 0.0000
# 5 0.0000 0.0000 0.0000 0.0000 19.8399 0.0000
# 6 0.0000 0.0000 0.0000 0.0000 0.0000 22.4973
#
#
#
# Elastic Compliance Matrix: (Units=1/GPa)
#
#
# Indices 1 2 3 4 5 6 
#
# 1 0.020596 -0.004634 -0.000056 0.000000 0.000000 0.000000
# 2 -0.004634 0.020267 -0.009391 0.000000 0.000000 0.000000
# 3 -0.000056 -0.009391 0.014808 0.000000 0.000000 0.000000
# 4 0.000000 0.000000 0.000000 0.029367 0.000000 0.000000
# 5 0.000000 0.000000 0.000000 0.000000 0.050403 0.000000
# 6 0.000000 0.000000 0.000000 0.000000 0.000000 0.044450
#
#
# Mechanical properties :
#
#
# Convention : Reuss Voigt Hill
#
# Bulk Modulus (GPa) = 36.35354 42.00213 39.17783
# Shear Modulus (GPa) = 23.01803 25.26327 24.14065
#
# Velocity S-wave (km/s) = 3.54784 3.71684 3.63332
# Velocity P-wave (km/s) = 6.05494 6.43337 6.24702
#
# Compressibility (1/GPa) = 0.02750764
#
# Stress axis : x y z
#
# Youngs Moduli (GPa) = 48.55429 49.34246 67.53275
#
# Poissons Ratio (x) = 0.22866 0.00377
# Poissons Ratio (y) = 0.22500 0.63420
# Poissons Ratio (z) = 0.00271 0.46338
#
# Static dielectric constant tensor:
#      x y z
#    x 3.292860 0.000000 0.000000 
#    y 0.000000 3.403690 0.000000 
#    z 0.000000 0.000000 3.238270 
# 
# 
# High freq. dielectric constant tensor:
#      x y z
#    x 1.681760 0.000000 0.000000 
#    y 0.000000 1.716950 0.000000 
#    z 0.000000 0.000000 1.703550 
# 
# From -- ./inp_files/30491.got.cif
#   From: 2010.03.12/outbox.cif.g09.slc.cpg/sg59_16_cif.got.tgz:30491.got - 2010.04.16 16:29:54.
