data_PCOD8241171
_publ_section_title
;
Structure prediction by ZEFSAII (Michael W. Deem and Ramdas Pophale) SiO2 
 PCOD8241171
Probable space group: P M M N
;
_chemical_formula_sum "Si O2"
_cell_formula_units_Z 64
_cell_length_a 8.869787
_cell_length_b 31.087060
_cell_length_c 12.143077
_cell_angle_alpha 90.000000
_cell_angle_beta 90.000000
_cell_angle_gamma 90.000000
_cell_volume 3348.278630
_symmetry_space_group_name_H-M "P M M N"
_symmetry_group_IT_number 59
_space_group.IT_coordinate_system_code '2'
_symmetry_cell_setting 'orthorhombic'
loop_
_space_group_symop_operation_xyz
x,y,z
1/2-x,1/2-y,z
1/2+x,-y,-z
-x,1/2+y,-z
-x,-y,-z
1/2+x,1/2+y,-z
1/2-x,y,z
x,1/2-y,z
loop_
_atom_site_type_symbol
_atom_site_label
_atom_site_fract_x
_atom_site_fract_y
_atom_site_fract_z
Si Si1 0.574528 0.939121 0.255942
Si Si2 0.928736 0.386045 0.357606
Si Si3 0.924812 0.018593 0.393184
Si Si4 0.428487 0.127883 0.129493
Si Si5 0.429309 0.047059 0.985176
Si Si6 0.574037 0.299847 0.982490
Si Si7 0.579613 0.700972 0.240853
Si Si8 0.926337 0.867431 0.419137
O O1 0.750000 0.928254 0.255825
O O2 0.513004 0.933524 0.131986
O O3 0.503694 0.906615 0.345892
O O4 0.540142 0.988107 0.289788
O O5 0.750000 0.382758 0.347862
O O6 0.989593 0.434852 0.364309
O O7 0.001430 0.365469 0.249681
O O8 0.984439 0.361883 0.466953
O O9 0.750000 0.021572 0.419508
O O10 0.000000 0.000000 0.500000
O O11 0.250000 0.128637 0.137123
O O12 0.480963 0.169026 0.060985
O O13 0.481873 0.082156 0.076062
O O14 0.250000 0.041155 0.985006
O O15 0.500000 0.000000 0.000000
O O16 0.750000 0.307809 0.000879
O O17 0.530322 0.250000 0.006719
O O18 0.532271 0.311892 0.857262
O O19 0.750000 0.690696 0.200989
O O20 0.559407 0.750000 0.274846
O O21 0.540773 0.675405 0.350972
O O22 0.750000 0.874367 0.445395
#
# Coordination Sequence:
#
# PCOD8241171 Si02
#       8
#     8   8   8   8   8   8   8   8
#     4   9  17  31  52  75 102 136 174 221 274 327
#     4  11  23  37  54  79 112 149 190 239 290 341
#     4  10  19  32  51  74 104 142 182 227 277 331
#     4  11  23  39  60  84 114 155 199 242 289 349
#     4  10  21  37  56  81 113 149 190 234 285 340
#     4  10  21  38  62  91 120 149 185 235 294 350
#     4   9  18  34  58  87 116 145 180 224 275 335
#     4  10  19  34  56  79 107 144 185 229 277 332
#
# _framework density 19.1143
#
# number of rings (size 3 to 8) (size 9 to 14) (size 15 to 20)
#    0.000    2.000    1.250    2.625    0.000    5.750 
#    0.000    1.875    0.000    2.250    0.000    0.000 
#    0.000    0.000    0.000    0.000    0.000    0.000 
#
# Total GULP energy -793541.505283 kJ/mol
# GULP energy per Si atom -12399.086020 kJ/mol
# Density = 1.907079 g / cm^3
# Si number density = 19.114300 Si / 1000 Ang^3
#
#
#
# Elastic Constant Matrix: (Units=GPa)
#
#
# Indices 1 2 3 4 5 6 
#
# 1 55.8906 37.2631 42.4655 0.0000 0.0000 0.0000
# 2 37.2631 98.4404 58.0273 0.0000 0.0000 0.0000
# 3 42.4655 58.0273 147.3884 0.0000 0.0000 0.0000
# 4 0.0000 0.0000 0.0000 29.2184 0.0000 0.0000
# 5 0.0000 0.0000 0.0000 0.0000 29.6242 0.0000
# 6 0.0000 0.0000 0.0000 0.0000 0.0000 26.2715
#
#
#
# Elastic Compliance Matrix: (Units=1/GPa)
#
#
# Indices 1 2 3 4 5 6 
#
# 1 0.026266 -0.007138 -0.004757 0.000000 0.000000 0.000000
# 2 -0.007138 0.015168 -0.003915 0.000000 0.000000 0.000000
# 3 -0.004757 -0.003915 0.009697 0.000000 0.000000 0.000000
# 4 0.000000 0.000000 0.000000 0.034225 0.000000 0.000000
# 5 0.000000 0.000000 0.000000 0.000000 0.033756 0.000000
# 6 0.000000 0.000000 0.000000 0.000000 0.000000 0.038064
#
#
# Mechanical properties :
#
#
# Convention : Reuss Voigt Hill
#
# Bulk Modulus (GPa) = 51.25678 64.13680 57.69679
# Shear Modulus (GPa) = 25.60149 27.95373 26.77761
#
# Velocity S-wave (km/s) = 3.66374 3.82835 3.74695
# Velocity P-wave (km/s) = 6.69115 7.29170 6.99787
#
# Compressibility (1/GPa) = 0.01950962
#
# Stress axis : x y z
#
# Youngs Moduli (GPa) = 38.07214 65.92674 103.12566
#
# Poissons Ratio (x) = 0.47060 0.49061
# Poissons Ratio (y) = 0.27177 0.40375
# Poissons Ratio (z) = 0.18112 0.25811
#
# Static dielectric constant tensor:
#      x y z
#    x 3.284990 0.000000 0.000000 
#    y 0.000000 3.479400 0.000000 
#    z 0.000000 0.000000 3.556680 
# 
# 
# High freq. dielectric constant tensor:
#      x y z
#    x 1.726470 0.000000 0.000000 
#    y 0.000000 1.743110 0.000000 
#    z 0.000000 0.000000 1.749370 
# 
# From -- ./inp_files/15043.got.cif
#   From: 2010.03.12/outbox.cif.g09.slc.cpg/sg59_8_cif.got.tgz:15043.got - 2010.04.16 16:29:54.
