data_PCOD8241403
_publ_section_title
;
Structure prediction by ZEFSAII (Michael W. Deem and Ramdas Pophale) SiO2 
 PCOD8241403
Probable space group: P M M N
;
_chemical_formula_sum "Si O2"
_cell_formula_units_Z 48
_cell_length_a 21.832955
_cell_length_b 9.093637
_cell_length_c 12.220013
_cell_angle_alpha 90.000000
_cell_angle_beta 90.000000
_cell_angle_gamma 90.000000
_cell_volume 2426.173203
_symmetry_space_group_name_H-M "P M M N"
_symmetry_group_IT_number 59
_space_group.IT_coordinate_system_code '2'
_symmetry_cell_setting 'orthorhombic'
loop_
_space_group_symop_operation_xyz
x,y,z
1/2-x,1/2-y,z
1/2+x,-y,-z
-x,1/2+y,-z
-x,-y,-z
1/2+x,1/2+y,-z
1/2-x,y,z
x,1/2-y,z
loop_
_atom_site_type_symbol
_atom_site_label
_atom_site_fract_x
_atom_site_fract_y
_atom_site_fract_z
Si Si1 0.182475 0.414877 0.575236
Si Si2 0.344611 0.576685 0.358516
Si Si3 0.020860 0.915976 0.394556
Si Si4 0.909927 0.580302 0.242768
Si Si5 0.317164 0.575761 0.119075
Si Si6 0.566477 0.074265 0.022311
O O1 0.250000 0.413694 0.627549
O O2 0.159543 0.250000 0.547855
O O3 0.186614 0.505044 0.463487
O O4 0.137207 0.482391 0.666240
O O5 0.336159 0.750000 0.370333
O O6 0.414543 0.524415 0.354135
O O7 0.315888 0.520451 0.244864
O O8 0.026033 0.750000 0.434215
O O9 0.977483 0.932880 0.290910
O O10 0.000000 0.000000 0.500000
O O11 0.894667 0.750000 0.210967
O O12 0.907700 0.473516 0.139695
O O13 0.250000 0.527055 0.068788
O O14 0.322045 0.750000 0.115791
O O15 0.378654 0.517134 0.058156
O O16 0.557737 0.250000 0.015735
O O17 0.500000 0.000000 0.000000
#
# Coordination Sequence:
#
# PCOD8241403 Si02
#       6
#     8   8   8   8   8   8
#     4  10  21  36  54  79 114 153 186 223 280 342
#     4  10  19  33  57  84 110 143 187 234 282 341
#     4  10  19  32  53  81 112 146 183 226 279 338
#     4  10  21  38  57  80 114 150 185 230 284 339
#     4   9  19  37  60  85 114 151 195 245 299 347
#     4  11  23  40  63  88 116 151 195 245 296 352
#
# _framework density 19.784241999999999
#
# number of rings (size 3 to 8) (size 9 to 14) (size 15 to 20)
#    0.000    2.000    1.667    2.000    0.000    5.667 
#    0.000    3.333    0.000    3.500    0.000    0.000 
#    0.000    0.000    0.000    0.000    0.000    0.000 
#
# Total GULP energy -594836.362053 kJ/mol
# GULP energy per Si atom -12392.424209 kJ/mol
# Density = 1.973921 g / cm^3
# Si number density = 19.784242 Si / 1000 Ang^3
#
#
#
# Elastic Constant Matrix: (Units=GPa)
#
#
# Indices 1 2 3 4 5 6 
#
# 1 154.6775 25.6087 49.9250 0.0000 0.0000 0.0000
# 2 25.6087 42.7435 31.7111 0.0000 0.0000 0.0000
# 3 49.9250 31.7111 113.0469 0.0000 0.0000 0.0000
# 4 0.0000 0.0000 0.0000 33.0830 0.0000 0.0000
# 5 0.0000 0.0000 0.0000 0.0000 25.9604 0.0000
# 6 0.0000 0.0000 0.0000 0.0000 0.0000 22.6751
#
#
#
# Elastic Compliance Matrix: (Units=1/GPa)
#
#
# Indices 1 2 3 4 5 6 
#
# 1 0.007773 -0.002665 -0.002685 0.000000 0.000000 0.000000
# 2 -0.002665 0.030457 -0.007367 0.000000 0.000000 0.000000
# 3 -0.002685 -0.007367 0.012098 0.000000 0.000000 0.000000
# 4 0.000000 0.000000 0.000000 0.030227 0.000000 0.000000
# 5 0.000000 0.000000 0.000000 0.000000 0.038520 0.000000
# 6 0.000000 0.000000 0.000000 0.000000 0.000000 0.044101
#
#
# Mechanical properties :
#
#
# Convention : Reuss Voigt Hill
#
# Bulk Modulus (GPa) = 40.16907 58.32861 49.24884
# Shear Modulus (GPa) = 25.39244 29.89191 27.64217
#
# Velocity S-wave (km/s) = 3.58644 3.89124 3.74194
# Velocity P-wave (km/s) = 6.12354 7.05233 6.60428
#
# Compressibility (1/GPa) = 0.02489478
#
# Stress axis : x y z
#
# Youngs Moduli (GPa) = 128.65083 32.83289 82.65642
#
# Poissons Ratio (x) = 0.08749 0.22196
# Poissons Ratio (y) = 0.34283 0.60891
# Poissons Ratio (z) = 0.34546 0.24187
#
# Static dielectric constant tensor:
#      x y z
#    x 4.062760 0.000000 0.000000 
#    y 0.000000 3.353070 0.000000 
#    z 0.000000 0.000000 3.594170 
# 
# 
# High freq. dielectric constant tensor:
#      x y z
#    x 1.797000 0.000000 0.000000 
#    y 0.000000 1.740330 0.000000 
#    z 0.000000 0.000000 1.766590 
# 
# From -- ./inp_files/18592.got.cif
#   From: 2010.03.12/outbox.cif.g09.slc.cpg/sg59_10_cif.got.tgz:18592.got - 2010.04.16 16:29:54.
