data_PCOD8241127
_publ_section_title
;
Structure prediction by ZEFSAII (Michael W. Deem and Ramdas Pophale) SiO2 
 PCOD8241127
Probable space group: P M M N
;
_chemical_formula_sum "Si O2"
_cell_formula_units_Z 48
_cell_length_a 25.734613
_cell_length_b 8.682566
_cell_length_c 11.848021
_cell_angle_alpha 90.000000
_cell_angle_beta 90.000000
_cell_angle_gamma 90.000000
_cell_volume 2647.351146
_symmetry_space_group_name_H-M "P M M N"
_symmetry_group_IT_number 59
_space_group.IT_coordinate_system_code '2'
_symmetry_cell_setting 'orthorhombic'
loop_
_space_group_symop_operation_xyz
x,y,z
1/2-x,1/2-y,z
1/2+x,-y,-z
-x,1/2+y,-z
-x,-y,-z
1/2+x,1/2+y,-z
1/2-x,y,z
x,1/2-y,z
loop_
_atom_site_type_symbol
_atom_site_label
_atom_site_fract_x
_atom_site_fract_y
_atom_site_fract_z
Si Si1 0.531318 0.074909 0.859297
Si Si2 0.809245 0.568794 0.833782
Si Si3 0.555903 0.930654 0.470322
Si Si4 0.883410 0.423064 0.666582
Si Si5 0.889845 0.567964 0.020906
Si Si6 0.071490 0.569217 0.767953
O O1 0.513613 0.250000 0.886617
O O2 0.572691 0.074325 0.760232
O O3 0.484311 0.971580 0.818020
O O4 0.556126 0.996238 0.969612
O O5 0.750000 0.518086 0.852289
O O6 0.815194 0.750000 0.816600
O O7 0.830506 0.488462 0.720711
O O8 0.841171 0.514800 0.944535
O O9 0.547908 0.750000 0.462230
O O10 0.500000 0.000000 0.500000
O O11 0.598896 0.970898 0.563343
O O12 0.578548 0.991585 0.353032
O O13 0.873587 0.250000 0.622715
O O14 0.892957 0.750000 0.029908
O O15 0.884434 0.495371 0.146025
O O16 0.077736 0.750000 0.753932
#
# Coordination Sequence:
#
# PCOD8241127 Si02
#       6
#     8   8   8   8   8   8
#     4  10  19  32  50  73 106 143 181 220 263 317
#     4   9  19  37  61  85 108 138 178 226 279 330
#     4  12  23  36  54  77 109 148 187 224 266 321
#     4  10  20  34  54  81 111 143 182 226 270 319
#     4  10  20  34  52  76 107 139 178 224 273 324
#     4  12  23  34  50  73 107 147 185 220 264 319
#
# _framework density 18.131329999999998
#
# number of rings (size 3 to 8) (size 9 to 14) (size 15 to 20)
#    0.000    1.500    1.667    5.000    0.000    2.333 
#    0.000    0.000    0.000    1.000    0.000    2.333 
#    0.000    0.000    0.000    0.000    0.000    0.000 
#
# Total GULP energy -595312.336642 kJ/mol
# GULP energy per Si atom -12402.340347 kJ/mol
# Density = 1.809006 g / cm^3
# Si number density = 18.131330 Si / 1000 Ang^3
#
#
#
# Elastic Constant Matrix: (Units=GPa)
#
#
# Indices 1 2 3 4 5 6 
#
# 1 70.3805 22.5092 21.7166 0.0000 0.0000 0.0000
# 2 22.5092 119.0729 47.2605 0.0000 0.0000 0.0000
# 3 21.7166 47.2605 110.2085 0.0000 0.0000 0.0000
# 4 0.0000 0.0000 0.0000 34.3945 0.0000 0.0000
# 5 0.0000 0.0000 0.0000 0.0000 10.3051 0.0000
# 6 0.0000 0.0000 0.0000 0.0000 0.0000 22.1096
#
#
#
# Elastic Compliance Matrix: (Units=1/GPa)
#
#
# Indices 1 2 3 4 5 6 
#
# 1 0.015543 -0.002076 -0.002173 0.000000 0.000000 0.000000
# 2 -0.002076 0.010398 -0.004050 0.000000 0.000000 0.000000
# 3 -0.002173 -0.004050 0.011239 0.000000 0.000000 0.000000
# 4 0.000000 0.000000 0.000000 0.029074 0.000000 0.000000
# 5 0.000000 0.000000 0.000000 0.000000 0.097039 0.000000
# 6 0.000000 0.000000 0.000000 0.000000 0.000000 0.045229
#
#
# Mechanical properties :
#
#
# Convention : Reuss Voigt Hill
#
# Bulk Modulus (GPa) = 48.58448 53.62605 51.10527
# Shear Modulus (GPa) = 21.55360 27.24023 24.39692
#
# Velocity S-wave (km/s) = 3.45156 3.88027 3.67218
# Velocity P-wave (km/s) = 6.53746 7.05095 6.79906
#
# Compressibility (1/GPa) = 0.02058270
#
# Stress axis : x y z
#
# Youngs Moduli (GPa) = 64.33875 96.17170 88.97963
#
# Poissons Ratio (x) = 0.19964 0.19331
# Poissons Ratio (y) = 0.13356 0.36036
# Poissons Ratio (z) = 0.13978 0.38949
#
# Static dielectric constant tensor:
#      x y z
#    x 3.228670 0.000000 0.000000 
#    y 0.000000 3.516690 0.000000 
#    z 0.000000 0.000000 3.721330 
# 
# 
# High freq. dielectric constant tensor:
#      x y z
#    x 1.665540 0.000000 0.000000 
#    y 0.000000 1.717800 0.000000 
#    z 0.000000 0.000000 1.711400 
# 
# From -- ./inp_files/18585.got.cif
#   From: 2010.03.12/outbox.cif.g09.slc.cpg/sg59_10_cif.got.tgz:18585.got - 2010.04.16 16:29:54.
