data_PCOD8241833
_publ_section_title
;
Structure prediction by ZEFSAII (Michael W. Deem and Ramdas Pophale) SiO2 
 PCOD8241833
Probable space group: P M M N
;
_chemical_formula_sum "Si O2"
_cell_formula_units_Z 56
_cell_length_a 22.575668
_cell_length_b 9.028819
_cell_length_c 14.808181
_cell_angle_alpha 90.000000
_cell_angle_beta 90.000000
_cell_angle_gamma 90.000000
_cell_volume 3018.375525
_symmetry_space_group_name_H-M "P M M N"
_symmetry_group_IT_number 59
_space_group.IT_coordinate_system_code '2'
_symmetry_cell_setting 'orthorhombic'
loop_
_space_group_symop_operation_xyz
x,y,z
1/2-x,1/2-y,z
1/2+x,-y,-z
-x,1/2+y,-z
-x,-y,-z
1/2+x,1/2+y,-z
1/2-x,y,z
x,1/2-y,z
loop_
_atom_site_type_symbol
_atom_site_label
_atom_site_fract_x
_atom_site_fract_y
_atom_site_fract_z
Si Si1 0.317622 0.422903 0.696934
Si Si2 0.815026 0.426061 0.927193
Si Si3 0.041276 0.580558 0.390174
Si Si4 0.421579 0.924360 0.586967
Si Si5 0.916683 0.420716 0.799278
Si Si6 0.851940 0.080192 0.123183
Si Si7 0.488376 0.581423 0.907038
O O1 0.250000 0.450911 0.663773
O O2 0.332759 0.250000 0.697962
O O3 0.363378 0.502357 0.629654
O O4 0.323183 0.483725 0.798324
O O5 0.750000 0.483394 0.900570
O O6 0.817964 0.250000 0.929105
O O7 0.859470 0.487263 0.850564
O O8 0.831336 0.485293 0.026662
O O9 0.019599 0.750000 0.397616
O O10 0.076216 0.534266 0.480642
O O11 0.088359 0.560058 0.308732
O O12 0.982855 0.483307 0.370373
O O13 0.417420 0.750000 0.605105
O O14 0.925381 0.250000 0.826938
O O15 0.974036 0.509833 0.828094
O O16 0.831034 0.250000 0.134974
O O17 0.922074 0.067327 0.127856
O O18 0.507013 0.750000 0.922150
O O19 0.500000 0.500000 0.000000
#
# Coordination Sequence:
#
# PCOD8241833 Si02
#       7
#     8   8   8   8   8   8   8
#     4  11  24  39  55  79 111 148 187 228 278 328
#     4   9  17  31  51  73 100 136 175 213 253 304
#     4   9  19  35  58  85 112 140 172 221 281 330
#     4  10  20  36  58  84 110 140 180 224 273 331
#     4  10  19  34  53  78 109 138 173 216 264 317
#     4  10  20  35  55  78 104 139 183 222 265 322
#     4  11  21  33  51  78 108 140 177 218 266 317
#
# _framework density 18.553027
#
# number of rings (size 3 to 8) (size 9 to 14) (size 15 to 20)
#    0.000    2.000    1.429    2.571    0.000    6.286 
#    0.000    0.714    0.000    3.000    0.000    0.000 
#    0.000    0.000    0.000    0.000    0.000    0.000 
#
# Total GULP energy -694357.264705 kJ/mol
# GULP energy per Si atom -12399.236870 kJ/mol
# Density = 1.851080 g / cm^3
# Si number density = 18.553027 Si / 1000 Ang^3
#
#
#
# Elastic Constant Matrix: (Units=GPa)
#
#
# Indices 1 2 3 4 5 6 
#
# 1 118.2865 47.3506 69.3161 0.0000 0.0000 0.0000
# 2 47.3506 81.8874 41.9278 0.0000 0.0000 0.0000
# 3 69.3161 41.9278 121.9309 0.0000 0.0000 0.0000
# 4 0.0000 0.0000 0.0000 23.9011 0.0000 0.0000
# 5 0.0000 0.0000 0.0000 0.0000 22.1666 0.0000
# 6 0.0000 0.0000 0.0000 0.0000 0.0000 24.0829
#
#
#
# Elastic Compliance Matrix: (Units=1/GPa)
#
#
# Indices 1 2 3 4 5 6 
#
# 1 0.014147 -0.004931 -0.006347 0.000000 0.000000 0.000000
# 2 -0.004931 0.016540 -0.002884 0.000000 0.000000 0.000000
# 3 -0.006347 -0.002884 0.012801 0.000000 0.000000 0.000000
# 4 0.000000 0.000000 0.000000 0.041839 0.000000 0.000000
# 5 0.000000 0.000000 0.000000 0.000000 0.045113 0.000000
# 6 0.000000 0.000000 0.000000 0.000000 0.000000 0.041523
#
#
# Mechanical properties :
#
#
# Convention : Reuss Voigt Hill
#
# Bulk Modulus (GPa) = 65.94477 71.03264 68.48871
# Shear Modulus (GPa) = 24.34951 24.93079 24.64015
#
# Velocity S-wave (km/s) = 3.62668 3.66971 3.64826
# Velocity P-wave (km/s) = 7.29096 7.50500 7.39876
#
# Compressibility (1/GPa) = 0.01516420
#
# Stress axis : x y z
#
# Youngs Moduli (GPa) = 70.68545 60.45973 78.11634
#
# Poissons Ratio (x) = 0.29811 0.49580
# Poissons Ratio (y) = 0.34853 0.22532
# Poissons Ratio (z) = 0.44864 0.17439
#
# Static dielectric constant tensor:
#      x y z
#    x 3.419450 0.000000 0.000000 
#    y 0.000000 3.492870 0.000000 
#    z 0.000000 0.000000 -7.403930 
# 
# 
# High freq. dielectric constant tensor:
#      x y z
#    x 1.716090 0.000000 0.000000 
#    y 0.000000 1.708020 0.000000 
#    z 0.000000 0.000000 1.725140 
# 
# From -- ./inp_files/24202.got.cif
#   From: 2010.03.12/outbox.cif.g09.slc.cpg/sg59_13_cif.got.tgz:24202.got - 2010.04.16 16:29:54.
