data_PCOD8241139
_publ_section_title
;
Structure prediction by ZEFSAII (Michael W. Deem and Ramdas Pophale) SiO2 
 PCOD8241139
Probable space group: P M M N
;
_chemical_formula_sum "Si O2"
_cell_formula_units_Z 64
_cell_length_a 9.280781
_cell_length_b 24.014137
_cell_length_c 14.981809
_cell_angle_alpha 90.000000
_cell_angle_beta 90.000000
_cell_angle_gamma 90.000000
_cell_volume 3338.994969
_symmetry_space_group_name_H-M "P M M N"
_symmetry_group_IT_number 59
_space_group.IT_coordinate_system_code '2'
_symmetry_cell_setting 'orthorhombic'
loop_
_space_group_symop_operation_xyz
x,y,z
1/2-x,1/2-y,z
1/2+x,-y,-z
-x,1/2+y,-z
-x,-y,-z
1/2+x,1/2+y,-z
1/2-x,y,z
x,1/2-y,z
loop_
_atom_site_type_symbol
_atom_site_label
_atom_site_fract_x
_atom_site_fract_y
_atom_site_fract_z
Si Si1 0.084683 0.314371 0.025229
Si Si2 0.421490 0.879019 0.122962
Si Si3 0.582571 0.866877 0.444594
Si Si4 0.086126 0.017121 0.634306
Si Si5 0.583057 0.597021 0.827593
Si Si6 0.917098 0.590658 0.627213
Si Si7 0.915197 0.187360 0.703643
Si Si8 0.916381 0.512394 0.156251
O O1 0.250000 0.323343 0.993982
O O2 0.052493 0.250000 0.045159
O O3 0.053779 0.347485 0.116533
O O4 0.976451 0.335383 0.949892
O O5 0.250000 0.885906 0.114708
O O6 0.467521 0.854733 0.219377
O O7 0.499278 0.938104 0.105756
O O8 0.750000 0.858540 0.424087
O O9 0.528497 0.926945 0.410915
O O10 0.549183 0.862739 0.551220
O O11 0.499652 0.820120 0.389180
O O12 0.250000 0.005421 0.607666
O O13 0.067212 0.023515 0.739672
O O14 0.994256 0.965950 0.597982
O O15 0.750000 0.578838 0.830834
O O16 0.534591 0.610923 0.725596
O O17 0.489068 0.546628 0.868407
O O18 0.750000 0.576125 0.626009
O O19 0.750000 0.176318 0.681444
O O20 0.941228 0.250000 0.738281
O O21 0.750000 0.511717 0.125036
#
# Coordination Sequence:
#
# PCOD8241139 Si02
#       8
#     8   8   8   8   8   8   8   8
#     4  10  22  40  61  82 105 140 185 230 277 328
#     4  11  22  37  59  84 111 141 178 227 280 334
#     4  10  19  32  50  77 109 142 181 222 264 313
#     4   9  17  29  47  75 111 144 177 217 261 312
#     4   9  19  37  57  81 114 147 183 227 274 326
#     4   9  18  31  51  78 109 142 180 220 263 314
#     4  10  22  38  54  75 106 144 183 224 273 330
#     4  10  19  33  55  84 117 149 181 220 270 330
#
# _framework density 19.167445000000001
#
# number of rings (size 3 to 8) (size 9 to 14) (size 15 to 20)
#    0.000    2.250    1.250    1.500    0.000    4.000 
#    0.000    0.625    0.000    2.250    0.000    0.000 
#    0.000    0.000    0.000    0.000    0.000    0.000 
#
# Total GULP energy -793605.300828 kJ/mol
# GULP energy per Si atom -12400.082825 kJ/mol
# Density = 1.912382 g / cm^3
# Si number density = 19.167445 Si / 1000 Ang^3
#
#
#
# Elastic Constant Matrix: (Units=GPa)
#
#
# Indices 1 2 3 4 5 6 
#
# 1 71.9101 49.2849 39.4012 0.0000 0.0000 0.0000
# 2 49.2849 105.7432 50.5784 0.0000 0.0000 0.0000
# 3 39.4012 50.5784 76.9227 0.0000 0.0000 0.0000
# 4 0.0000 0.0000 0.0000 28.8277 0.0000 0.0000
# 5 0.0000 0.0000 0.0000 0.0000 24.4708 0.0000
# 6 0.0000 0.0000 0.0000 0.0000 0.0000 29.3199
#
#
#
# Elastic Compliance Matrix: (Units=1/GPa)
#
#
# Indices 1 2 3 4 5 6 
#
# 1 0.022630 -0.007298 -0.006793 0.000000 0.000000 0.000000
# 2 -0.007298 0.016149 -0.006880 0.000000 0.000000 0.000000
# 3 -0.006793 -0.006880 0.021003 0.000000 0.000000 0.000000
# 4 0.000000 0.000000 0.000000 0.034689 0.000000 0.000000
# 5 0.000000 0.000000 0.000000 0.000000 0.040865 0.000000
# 6 0.000000 0.000000 0.000000 0.000000 0.000000 0.034107
#
#
# Mechanical properties :
#
#
# Convention : Reuss Voigt Hill
#
# Bulk Modulus (GPa) = 56.05315 59.23388 57.64351
# Shear Modulus (GPa) = 23.00616 24.21111 23.60864
#
# Velocity S-wave (km/s) = 3.46825 3.55792 3.51337
# Velocity P-wave (km/s) = 6.73393 6.91729 6.82622
#
# Compressibility (1/GPa) = 0.01784021
#
# Stress axis : x y z
#
# Youngs Moduli (GPa) = 44.18856 61.92167 47.61158
#
# Poissons Ratio (x) = 0.45193 0.32341
# Poissons Ratio (y) = 0.32251 0.32758
# Poissons Ratio (z) = 0.30016 0.42603
#
# Static dielectric constant tensor:
#      x y z
#    x 3.489380 0.000000 0.000000 
#    y 0.000000 3.353950 0.000000 
#    z 0.000000 0.000000 3.618980 
# 
# 
# High freq. dielectric constant tensor:
#      x y z
#    x 1.741700 0.000000 0.000000 
#    y 0.000000 1.729480 0.000000 
#    z 0.000000 0.000000 1.747410 
# 
# From -- ./inp_files/21561.got.cif
#   From: 2010.03.12/outbox.cif.g09.slc.cpg/sg59_11_cif.got.tgz:21561.got - 2010.04.16 16:29:54.
