data_PCOD8241579
_publ_section_title
;
Structure prediction by ZEFSAII (Michael W. Deem and Ramdas Pophale) SiO2 
 PCOD8241579
Probable space group: P M M N
;
_chemical_formula_sum "Si O2"
_cell_formula_units_Z 48
_cell_length_a 31.358145
_cell_length_b 8.501576
_cell_length_c 9.203873
_cell_angle_alpha 90.000000
_cell_angle_beta 90.000000
_cell_angle_gamma 90.000000
_cell_volume 2453.694124
_symmetry_space_group_name_H-M "P M M N"
_symmetry_group_IT_number 59
_space_group.IT_coordinate_system_code '2'
_symmetry_cell_setting 'orthorhombic'
loop_
_space_group_symop_operation_xyz
x,y,z
1/2-x,1/2-y,z
1/2+x,-y,-z
-x,1/2+y,-z
-x,-y,-z
1/2+x,1/2+y,-z
1/2-x,y,z
x,1/2-y,z
loop_
_atom_site_type_symbol
_atom_site_label
_atom_site_fract_x
_atom_site_fract_y
_atom_site_fract_z
Si Si1 0.657696 0.936627 0.670886
Si Si2 0.250000 0.928277 0.627960
Si Si3 0.250000 0.429425 0.327791
Si Si4 0.079934 0.562979 0.839865
Si Si5 0.921385 0.434162 0.832333
Si Si6 0.999772 0.934265 0.660556
Si Si7 0.657180 0.067743 0.351992
O O1 0.652374 0.750000 0.693095
O O2 0.704604 0.999319 0.726570
O O3 0.624838 0.032436 0.767442
O O4 0.651155 0.973699 0.501255
O O5 0.250000 0.750000 0.563339
O O6 0.205392 0.953478 0.715165
O O7 0.250000 0.055236 0.501135
O O8 0.250000 0.250000 0.283402
O O9 0.079604 0.750000 0.843678
O O10 0.039569 0.495196 0.751012
O O11 0.123521 0.501466 0.765091
O O12 0.077339 0.498906 0.003862
O O13 0.931406 0.250000 0.825970
O O14 0.955982 0.525393 0.738791
O O15 0.005026 0.750000 0.649527
O O16 0.000000 0.000000 0.500000
O O17 0.647532 0.250000 0.385464
#
# Coordination Sequence:
#
# PCOD8241579 Si02
#       7
#     8   4   4   8   8   8   8
#     4  10  19  33  53  79 106 138 178 221 264 312
#     4   8  14  24  47  78 104 130 168 214 263 312
#     4   8  16  30  49  72 104 138 172 216 265 308
#     4   9  20  36  54  75 105 140 175 214 261 310
#     4  11  22  37  54  76 107 143 176 214 260 311
#     4  11  22  38  59  83 106 135 174 218 263 312
#     4   9  16  31  53  78 105 136 173 218 265 313
#
# _framework density 19.562341
#
# number of rings (size 3 to 8) (size 9 to 14) (size 15 to 20)
#    0.000    2.333    0.000    3.000    0.000    2.000 
#    0.000    5.833    0.000    2.000    0.000    3.500 
#    0.000    0.000    0.000    0.000    0.000    0.000 
#
# Total GULP energy -594846.332602 kJ/mol
# GULP energy per Si atom -12392.631929 kJ/mol
# Density = 1.951782 g / cm^3
# Si number density = 19.562341 Si / 1000 Ang^3
#
#
#
# Elastic Constant Matrix: (Units=GPa)
#
#
# Indices 1 2 3 4 5 6 
#
# 1 173.5369 9.0318 75.9900 0.0000 0.0000 0.0000
# 2 9.0318 29.6493 12.8764 0.0000 0.0000 0.0000
# 3 75.9900 12.8764 129.3923 0.0000 0.0000 0.0000
# 4 0.0000 0.0000 0.0000 20.2165 0.0000 0.0000
# 5 0.0000 0.0000 0.0000 0.0000 7.7014 0.0000
# 6 0.0000 0.0000 0.0000 0.0000 0.0000 16.5038
#
#
#
# Elastic Compliance Matrix: (Units=1/GPa)
#
#
# Indices 1 2 3 4 5 6 
#
# 1 0.007762 -0.000402 -0.004518 0.000000 0.000000 0.000000
# 2 -0.000402 0.035272 -0.003274 0.000000 0.000000 0.000000
# 3 -0.004518 -0.003274 0.010708 0.000000 0.000000 0.000000
# 4 0.000000 0.000000 0.000000 0.049465 0.000000 0.000000
# 5 0.000000 0.000000 0.000000 0.000000 0.129846 0.000000
# 6 0.000000 0.000000 0.000000 0.000000 0.000000 0.060592
#
#
# Mechanical properties :
#
#
# Convention : Reuss Voigt Hill
#
# Bulk Modulus (GPa) = 26.77177 58.70833 42.74005
# Shear Modulus (GPa) = 15.50464 24.52970 20.01717
#
# Velocity S-wave (km/s) = 2.81833 3.54492 3.20230
# Velocity P-wave (km/s) = 4.93008 6.84334 5.96393
#
# Compressibility (1/GPa) = 0.03735278
#
# Stress axis : x y z
#
# Youngs Moduli (GPa) = 128.83313 28.35113 93.38935
#
# Poissons Ratio (x) = 0.01140 0.42198
# Poissons Ratio (y) = 0.05181 0.30575
# Poissons Ratio (z) = 0.58213 0.09282
#
# Static dielectric constant tensor:
#      x y z
#    x 3.948890 0.000000 0.000000 
#    y 0.000000 3.362730 0.000000 
#    z 0.000000 0.000000 3.449470 
# 
# 
# High freq. dielectric constant tensor:
#      x y z
#    x 1.791260 0.000000 0.000000 
#    y 0.000000 1.743980 0.000000 
#    z 0.000000 0.000000 1.733930 
# 
# From -- ./inp_files/6411.got.cif
#   From: 2010.03.12/outbox.cif.g09.slc.cpg/sg59_4_cif.got.tgz:6411.got - 2010.04.16 16:29:54.
