data_PCOD8241288
_publ_section_title
;
Structure prediction by ZEFSAII (Michael W. Deem and Ramdas Pophale) SiO2 
 PCOD8241288
Probable space group: P M M N
;
_chemical_formula_sum "Si O2"
_cell_formula_units_Z 64
_cell_length_a 19.910597
_cell_length_b 8.838344
_cell_length_c 20.084012
_cell_angle_alpha 90.000000
_cell_angle_beta 90.000000
_cell_angle_gamma 90.000000
_cell_volume 3534.318266
_symmetry_space_group_name_H-M "P M M N"
_symmetry_group_IT_number 59
_space_group.IT_coordinate_system_code '2'
_symmetry_cell_setting 'orthorhombic'
loop_
_space_group_symop_operation_xyz
x,y,z
1/2-x,1/2-y,z
1/2+x,-y,-z
-x,1/2+y,-z
-x,-y,-z
1/2+x,1/2+y,-z
1/2-x,y,z
x,1/2-y,z
loop_
_atom_site_type_symbol
_atom_site_label
_atom_site_fract_x
_atom_site_fract_y
_atom_site_fract_z
Si Si1 0.173167 0.422747 0.437327
Si Si2 0.584925 0.070692 0.826523
Si Si3 0.433987 0.428490 0.809317
Si Si4 0.094202 0.075908 0.308499
Si Si5 0.932731 0.427534 0.471384
Si Si6 0.826888 0.426752 0.950378
Si Si7 0.325674 0.070419 0.911752
Si Si8 0.044101 0.071271 0.662260
O O1 0.250000 0.468802 0.447118
O O2 0.159555 0.250000 0.459768
O O3 0.155591 0.441830 0.359537
O O4 0.130038 0.534445 0.482460
O O5 0.590217 0.250000 0.816308
O O6 0.507478 0.017089 0.833817
O O7 0.617614 0.990734 0.762315
O O8 0.625882 0.015653 0.890806
O O9 0.431035 0.250000 0.815335
O O10 0.375604 0.498566 0.855772
O O11 0.421927 0.476725 0.732557
O O12 0.072015 0.250000 0.300463
O O13 0.032954 0.980111 0.338353
O O14 0.943859 0.250000 0.467900
O O15 0.916722 0.490110 0.397552
O O16 0.000000 0.500000 0.500000
O O17 0.750000 0.465956 0.932184
O O18 0.836616 0.250000 0.962968
O O19 0.850130 0.512395 0.016687
O O20 0.250000 0.012803 0.896505
O O21 0.328187 0.250000 0.912342
O O22 0.046630 0.250000 0.651502
#
# Coordination Sequence:
#
# PCOD8241288 Si02
#       8
#     8   8   8   8   8   8   8   8
#     4  10  22  39  56  78 111 146 179 221 272 323
#     4   9  18  32  49  69  99 136 169 207 256 309
#     4   8  16  31  50  73 100 129 165 208 255 307
#     4  10  19  32  52  77 105 136 173 216 261 314
#     4  12  23  36  58  84 109 142 184 226 268 320
#     4   9  18  32  48  68  96 131 170 209 253 309
#     4   9  17  31  51  72  95 127 168 211 254 306
#     4  10  19  34  56  79 105 137 174 217 264 318
#
# _framework density 18.108159000000001
#
# number of rings (size 3 to 8) (size 9 to 14) (size 15 to 20)
#    0.000    2.375    1.250    2.625    0.000    2.250 
#    0.000    3.750    0.000    2.250    0.000    0.000 
#    0.000    0.000    0.000    0.000    0.000    0.000 
#
# Total GULP energy -793596.371207 kJ/mol
# GULP energy per Si atom -12399.943300 kJ/mol
# Density = 1.806694 g / cm^3
# Si number density = 18.108159 Si / 1000 Ang^3
#
#
#
# Elastic Constant Matrix: (Units=GPa)
#
#
# Indices 1 2 3 4 5 6 
#
# 1 95.3716 35.2910 78.2602 0.0000 0.0000 0.0000
# 2 35.2910 69.1246 48.1791 0.0000 0.0000 0.0000
# 3 78.2602 48.1791 153.3297 0.0000 0.0000 0.0000
# 4 0.0000 0.0000 0.0000 32.3212 0.0000 0.0000
# 5 0.0000 0.0000 0.0000 0.0000 31.8856 0.0000
# 6 0.0000 0.0000 0.0000 0.0000 0.0000 20.1456
#
#
#
# Elastic Compliance Matrix: (Units=1/GPa)
#
#
# Indices 1 2 3 4 5 6 
#
# 1 0.018759 -0.003718 -0.008407 0.000000 0.000000 0.000000
# 2 -0.003718 0.019260 -0.004154 0.000000 0.000000 0.000000
# 3 -0.008407 -0.004154 0.012118 0.000000 0.000000 0.000000
# 4 0.000000 0.000000 0.000000 0.030939 0.000000 0.000000
# 5 0.000000 0.000000 0.000000 0.000000 0.031362 0.000000
# 6 0.000000 0.000000 0.000000 0.000000 0.000000 0.049639
#
#
# Mechanical properties :
#
#
# Convention : Reuss Voigt Hill
#
# Bulk Modulus (GPa) = 56.88326 71.25406 64.06866
# Shear Modulus (GPa) = 24.93817 27.27685 26.10751
#
# Velocity S-wave (km/s) = 3.71506 3.88536 3.80116
# Velocity P-wave (km/s) = 7.06282 7.71768 7.39750
#
# Compressibility (1/GPa) = 0.01757986
#
# Stress axis : x y z
#
# Youngs Moduli (GPa) = 53.30646 51.92012 82.52191
#
# Poissons Ratio (x) = 0.19305 0.69373
# Poissons Ratio (y) = 0.19820 0.34281
# Poissons Ratio (z) = 0.44813 0.21569
#
# Static dielectric constant tensor:
#      x y z
#    x 3.369850 0.000000 0.000000 
#    y 0.000000 3.234770 0.000000 
#    z 0.000000 0.000000 3.635530 
# 
# 
# High freq. dielectric constant tensor:
#      x y z
#    x 1.684320 0.000000 0.000000 
#    y 0.000000 1.690790 0.000000 
#    z 0.000000 0.000000 1.711710 
# 
# From -- ./inp_files/28222.got.cif
#   From: 2010.03.12/outbox.cif.g09.slc.cpg/sg59_15_cif.got.tgz:28222.got - 2010.04.16 16:29:54.
