data_PCOD8241666
_publ_section_title
;
Structure prediction by ZEFSAII (Michael W. Deem and Ramdas Pophale) SiO2 
 PCOD8241666
Probable space group: P M M N
;
_chemical_formula_sum "Si O2"
_cell_formula_units_Z 48
_cell_length_a 16.922775
_cell_length_b 8.479407
_cell_length_c 16.485231
_cell_angle_alpha 90.000000
_cell_angle_beta 90.000000
_cell_angle_gamma 90.000000
_cell_volume 2365.549818
_symmetry_space_group_name_H-M "P M M N"
_symmetry_group_IT_number 59
_space_group.IT_coordinate_system_code '2'
_symmetry_cell_setting 'orthorhombic'
loop_
_space_group_symop_operation_xyz
x,y,z
1/2-x,1/2-y,z
1/2+x,-y,-z
-x,1/2+y,-z
-x,-y,-z
1/2+x,1/2+y,-z
1/2-x,y,z
x,1/2-y,z
loop_
_atom_site_type_symbol
_atom_site_label
_atom_site_fract_x
_atom_site_fract_y
_atom_site_fract_z
Si Si1 0.554864 0.065929 0.223216
Si Si2 0.250000 0.067511 0.021456
Si Si3 0.163027 0.562244 0.635575
Si Si4 0.250000 0.571432 0.191756
Si Si5 0.416206 0.563409 0.475913
Si Si6 0.597067 0.067660 0.705161
Si Si7 0.919198 0.062168 0.042749
O O1 0.570896 0.250000 0.221002
O O2 0.607112 0.987889 0.294986
O O3 0.577503 0.998082 0.135108
O O4 0.464645 0.032169 0.243328
O O5 0.250000 0.250000 0.997255
O O6 0.333433 0.992873 0.991010
O O7 0.250000 0.049695 0.118081
O O8 0.250000 0.504399 0.657623
O O9 0.155577 0.750000 0.635832
O O10 0.142821 0.499092 0.545344
O O11 0.250000 0.750000 0.157201
O O12 0.322436 0.539035 0.249637
O O13 0.500000 0.500000 0.500000
O O14 0.416119 0.750000 0.475539
O O15 0.393298 0.501282 0.386510
O O16 0.571061 0.250000 0.704174
O O17 0.921865 0.250000 0.036292
O O18 0.000000 0.000000 0.000000
#
# Coordination Sequence:
#
# PCOD8241666 Si02
#       7
#     8   4   8   4   8   8   8
#     4  10  21  37  60  86 112 149 195 240 291 354
#     4  12  26  44  66  93 124 162 207 254 313 379
#     4   9  18  32  54  81 110 146 191 236 275 331
#     4  10  22  40  60  85 118 154 195 246 299 353
#     4  10  19  33  54  80 111 149 190 235 285 341
#     4  10  21  35  56  85 118 153 192 240 294 347
#     4  11  24  42  66  94 126 162 206 258 314 376
#
# _framework density 20.291266
#
# number of rings (size 3 to 8) (size 9 to 14) (size 15 to 20)
#    0.000    1.833    1.667    2.250    2.333    4.667 
#    0.000    0.000    0.000    1.500    0.000    0.000 
#    0.000    0.000    0.000    0.000    0.000    0.000 
#
# Total GULP energy -594869.438480 kJ/mol
# GULP energy per Si atom -12393.113302 kJ/mol
# Density = 2.024508 g / cm^3
# Si number density = 20.291266 Si / 1000 Ang^3
#
#
#
# Elastic Constant Matrix: (Units=GPa)
#
#
# Indices 1 2 3 4 5 6 
#
# 1 157.4304 20.4281 72.7272 0.0000 0.0000 0.0000
# 2 20.4281 31.9961 28.4044 0.0000 0.0000 0.0000
# 3 72.7272 28.4044 180.2178 0.0000 0.0000 0.0000
# 4 0.0000 0.0000 0.0000 22.7099 0.0000 0.0000
# 5 0.0000 0.0000 0.0000 0.0000 -36.9267 0.0000
# 6 0.0000 0.0000 0.0000 0.0000 0.0000 25.2671
#
#
#
# Elastic Compliance Matrix: (Units=1/GPa)
#
#
# Indices 1 2 3 4 5 6 
#
# 1 0.007990 -0.002603 -0.002814 0.000000 0.000000 0.000000
# 2 -0.002603 0.037186 -0.004811 0.000000 0.000000 0.000000
# 3 -0.002814 -0.004811 0.007443 0.000000 0.000000 0.000000
# 4 0.000000 0.000000 0.000000 0.044034 0.000000 0.000000
# 5 0.000000 0.000000 0.000000 0.000000 -0.027081 0.000000
# 6 0.000000 0.000000 0.000000 0.000000 0.000000 0.039577
#
#
# Mechanical properties :
#
#
# Convention : Reuss Voigt Hill
#
# Bulk Modulus (GPa) = 31.09106 68.08486 49.58796
# Shear Modulus (GPa) = 35.63157 18.74904 27.19030
#
# Velocity S-wave (km/s) = 4.19502 3.04303 3.66457
# Velocity P-wave (km/s) = 6.23056 6.78036 6.51127
#
# Compressibility (1/GPa) = 0.03216359
#
# Stress axis : x y z
#
# Youngs Moduli (GPa) = 125.16035 26.89164 134.36085
#
# Poissons Ratio (x) = 0.07000 0.37809
# Poissons Ratio (y) = 0.32579 0.64635
# Poissons Ratio (z) = 0.35220 0.12936
#
# Static dielectric constant tensor:
#      x y z
#    x 3.752010 0.000000 0.000000 
#    y 0.000000 3.463640 0.000000 
#    z 0.000000 0.000000 4.331180 
# 
# 
# High freq. dielectric constant tensor:
#      x y z
#    x 1.804040 0.000000 0.000000 
#    y 0.000000 1.761120 0.000000 
#    z 0.000000 0.000000 1.815950 
# 
# From -- ./inp_files/23729.got.cif
#   From: 2010.03.12/outbox.cif.g09.slc.cpg/sg59_12_cif.got.tgz:23729.got - 2010.04.16 16:29:54.
