data_PCOD8241959
_publ_section_title
;
Structure prediction by ZEFSAII (Michael W. Deem and Ramdas Pophale) SiO2 
 PCOD8241959
Probable space group: P M M N
;
_chemical_formula_sum "Si O2"
_cell_formula_units_Z 56
_cell_length_a 19.330641
_cell_length_b 8.882782
_cell_length_c 17.563748
_cell_angle_alpha 90.000000
_cell_angle_beta 90.000000
_cell_angle_gamma 90.000000
_cell_volume 3015.868884
_symmetry_space_group_name_H-M "P M M N"
_symmetry_group_IT_number 59
_space_group.IT_coordinate_system_code '2'
_symmetry_cell_setting 'orthorhombic'
loop_
_space_group_symop_operation_xyz
x,y,z
1/2-x,1/2-y,z
1/2+x,-y,-z
-x,1/2+y,-z
-x,-y,-z
1/2+x,1/2+y,-z
1/2-x,y,z
x,1/2-y,z
loop_
_atom_site_type_symbol
_atom_site_label
_atom_site_fract_x
_atom_site_fract_y
_atom_site_fract_z
Si Si1 0.940337 0.926471 0.601012
Si Si2 0.093531 0.573955 0.551127
Si Si3 0.070605 0.428231 0.811409
Si Si4 0.829811 0.573294 0.884155
Si Si5 0.427644 0.427565 0.980360
Si Si6 0.921254 0.071395 0.759113
Si Si7 0.829331 0.924509 0.318846
O O1 0.927879 0.750000 0.608648
O O2 0.021112 0.967235 0.591624
O O3 0.898574 0.987432 0.528427
O O4 0.910097 0.007737 0.674875
O O5 0.099986 0.750000 0.535052
O O6 0.154871 0.518298 0.605316
O O7 0.070046 0.250000 0.806559
O O8 0.093826 0.481184 0.895535
O O9 0.125427 0.491770 0.750568
O O10 0.993948 0.489977 0.792682
O O11 0.750000 0.529892 0.894360
O O12 0.839969 0.750000 0.870596
O O13 0.859267 0.486331 0.811585
O O14 0.869042 0.519322 0.960611
O O15 0.437675 0.250000 0.982883
O O16 0.500000 0.500000 0.000000
O O17 0.919490 0.250000 0.755911
O O18 0.750000 0.946928 0.296195
O O19 0.847026 0.750000 0.334247
#
# Coordination Sequence:
#
# PCOD8241959 Si02
#       7
#     8   8   8   8   8   8   8
#     4  10  20  34  56  84 111 142 183 230 277 328
#     4  10  20  34  54  81 112 145 182 227 277 328
#     4   9  18  32  53  82 111 141 185 234 275 323
#     4  10  22  38  56  81 115 151 186 229 282 339
#     4  10  19  34  56  82 110 144 186 230 276 325
#     4  11  20  34  58  84 113 146 185 234 281 329
#     4  10  20  35  55  79 112 152 188 227 278 333
#
# _framework density 18.568446999999999
#
# number of rings (size 3 to 8) (size 9 to 14) (size 15 to 20)
#    0.000    2.000    2.857    1.286    0.000    2.286 
#    0.000    4.286    0.000    4.286    0.000    2.000 
#    0.000    0.000    0.000    0.000    0.000    0.000 
#
# Total GULP energy -694563.918325 kJ/mol
# GULP energy per Si atom -12402.927113 kJ/mol
# Density = 1.852618 g / cm^3
# Si number density = 18.568447 Si / 1000 Ang^3
#
#
#
# Elastic Constant Matrix: (Units=GPa)
#
#
# Indices 1 2 3 4 5 6 
#
# 1 110.8016 37.8517 70.5878 0.0000 0.0000 0.0000
# 2 37.8517 50.0928 43.5612 0.0000 0.0000 0.0000
# 3 70.5878 43.5612 167.0815 0.0000 0.0000 0.0000
# 4 0.0000 0.0000 0.0000 25.9150 0.0000 0.0000
# 5 0.0000 0.0000 0.0000 0.0000 30.5341 0.0000
# 6 0.0000 0.0000 0.0000 0.0000 0.0000 25.0469
#
#
#
# Elastic Compliance Matrix: (Units=1/GPa)
#
#
# Indices 1 2 3 4 5 6 
#
# 1 0.014042 -0.007050 -0.004094 0.000000 0.000000 0.000000
# 2 -0.007050 0.029356 -0.004675 0.000000 0.000000 0.000000
# 3 -0.004094 -0.004675 0.008934 0.000000 0.000000 0.000000
# 4 0.000000 0.000000 0.000000 0.038588 0.000000 0.000000
# 5 0.000000 0.000000 0.000000 0.000000 0.032750 0.000000
# 6 0.000000 0.000000 0.000000 0.000000 0.000000 0.039925
#
#
# Mechanical properties :
#
#
# Convention : Reuss Voigt Hill
#
# Bulk Modulus (GPa) = 48.32683 70.21970 59.27327
# Shear Modulus (GPa) = 24.73649 28.03089 26.38369
#
# Velocity S-wave (km/s) = 3.65386 3.88957 3.77356
# Velocity P-wave (km/s) = 6.62448 7.62040 7.13983
#
# Compressibility (1/GPa) = 0.02069244
#
# Stress axis : x y z
#
# Youngs Moduli (GPa) = 71.21556 34.06496 111.93551
#
# Poissons Ratio (x) = 0.24016 0.45829
# Poissons Ratio (y) = 0.50207 0.52331
# Poissons Ratio (z) = 0.29158 0.15926
#
# Static dielectric constant tensor:
#      x y z
#    x 3.241950 0.000000 0.000000 
#    y 0.000000 3.234350 0.000000 
#    z 0.000000 0.000000 3.560650 
# 
# 
# High freq. dielectric constant tensor:
#      x y z
#    x 1.702200 0.000000 0.000000 
#    y 0.000000 1.707580 0.000000 
#    z 0.000000 0.000000 1.736370 
# 
# From -- ./inp_files/24303.got.cif
#   From: 2010.03.12/outbox.cif.g09.slc.cpg/sg59_13_cif.got.tgz:24303.got - 2010.04.16 16:29:54.
