data_PCOD8241533
_publ_section_title
;
Structure prediction by ZEFSAII (Michael W. Deem and Ramdas Pophale) SiO2 
 PCOD8241533
Probable space group: P M M N
;
_chemical_formula_sum "Si O2"
_cell_formula_units_Z 48
_cell_length_a 8.713964
_cell_length_b 20.741421
_cell_length_c 15.195949
_cell_angle_alpha 90.000000
_cell_angle_beta 90.000000
_cell_angle_gamma 90.000000
_cell_volume 2746.515760
_symmetry_space_group_name_H-M "P M M N"
_symmetry_group_IT_number 59
_space_group.IT_coordinate_system_code '2'
_symmetry_cell_setting 'orthorhombic'
loop_
_space_group_symop_operation_xyz
x,y,z
1/2-x,1/2-y,z
1/2+x,-y,-z
-x,1/2+y,-z
-x,-y,-z
1/2+x,1/2+y,-z
1/2-x,y,z
x,1/2-y,z
loop_
_atom_site_type_symbol
_atom_site_label
_atom_site_fract_x
_atom_site_fract_y
_atom_site_fract_z
Si Si1 0.568442 0.180332 0.490323
Si Si2 0.577019 0.153298 0.298789
Si Si3 0.067623 0.459933 0.079617
Si Si4 0.430270 0.180485 0.119680
Si Si5 0.576346 0.493308 0.261049
Si Si6 0.432541 0.950709 0.429098
O O1 0.750000 0.173374 0.484597
O O2 0.520437 0.250000 0.531475
O O3 0.506185 0.177820 0.390405
O O4 0.505786 0.121126 0.547780
O O5 0.750000 0.178665 0.282521
O O6 0.470188 0.180144 0.222312
O O7 0.576062 0.076586 0.303934
O O8 0.250000 0.461400 0.075801
O O9 0.004309 0.385210 0.074399
O O10 0.013254 0.494038 0.168913
O O11 0.000000 0.500000 0.000000
O O12 0.250000 0.178227 0.109548
O O13 0.490186 0.250000 0.079876
O O14 0.750000 0.517693 0.244939
O O15 0.491133 0.538994 0.330226
O O16 0.250000 0.956585 0.431786
O O17 0.500000 0.000000 0.500000
#
# Coordination Sequence:
#
# PCOD8241533 Si02
#       6
#     8   8   8   8   8   8
#     4   9  17  29  45  67  97 133 172 212 252 294
#     4   9  16  28  46  69  97 130 166 200 240 296
#     4  10  20  35  55  79 105 134 166 207 254 303
#     4   9  18  31  47  71 103 133 160 196 248 304
#     4  10  19  33  52  76 101 131 170 211 252 300
#     4  11  20  32  50  73 101 135 174 213 251 297
#
# _framework density 17.476689
#
# number of rings (size 3 to 8) (size 9 to 14) (size 15 to 20)
#    0.000    2.333    1.667    2.000    0.000    2.333 
#    0.000    0.000    0.000    4.000    0.000    0.000 
#    0.000    0.000    0.000    0.000    0.000    0.000 
#
# Total GULP energy -594785.609917 kJ/mol
# GULP energy per Si atom -12391.366873 kJ/mol
# Density = 1.743691 g / cm^3
# Si number density = 17.476689 Si / 1000 Ang^3
#
#
#
# Elastic Constant Matrix: (Units=GPa)
#
#
# Indices 1 2 3 4 5 6 
#
# 1 48.3541 33.0575 27.0254 0.0000 0.0000 0.0000
# 2 33.0575 150.9906 77.2110 0.0000 0.0000 0.0000
# 3 27.0254 77.2110 102.4451 0.0000 0.0000 0.0000
# 4 0.0000 0.0000 0.0000 19.0868 0.0000 0.0000
# 5 0.0000 0.0000 0.0000 0.0000 29.0072 0.0000
# 6 0.0000 0.0000 0.0000 0.0000 0.0000 15.8096
#
#
#
# Elastic Compliance Matrix: (Units=1/GPa)
#
#
# Indices 1 2 3 4 5 6 
#
# 1 0.025323 -0.003463 -0.004071 0.000000 0.000000 0.000000
# 2 -0.003463 0.011250 -0.007565 0.000000 0.000000 0.000000
# 3 -0.004071 -0.007565 0.016537 0.000000 0.000000 0.000000
# 4 0.000000 0.000000 0.000000 0.052392 0.000000 0.000000
# 5 0.000000 0.000000 0.000000 0.000000 0.034474 0.000000
# 6 0.000000 0.000000 0.000000 0.000000 0.000000 0.063253
#
#
# Mechanical properties :
#
#
# Convention : Reuss Voigt Hill
#
# Bulk Modulus (GPa) = 43.64373 64.04196 53.84284
# Shear Modulus (GPa) = 20.74148 23.74712 22.24430
#
# Velocity S-wave (km/s) = 3.44875 3.69017 3.57150
# Velocity P-wave (km/s) = 6.39415 7.40812 6.91974
#
# Compressibility (1/GPa) = 0.02291280
#
# Stress axis : x y z
#
# Youngs Moduli (GPa) = 39.48962 88.89245 60.47092
#
# Poissons Ratio (x) = 0.30780 0.24616
# Poissons Ratio (y) = 0.13674 0.45747
# Poissons Ratio (z) = 0.16075 0.67248
#
# Static dielectric constant tensor:
#      x y z
#    x 3.160370 0.000000 0.000000 
#    y 0.000000 3.652720 0.000000 
#    z 0.000000 0.000000 3.048880 
# 
# 
# High freq. dielectric constant tensor:
#      x y z
#    x 1.663750 0.000000 0.000000 
#    y 0.000000 1.683210 0.000000 
#    z 0.000000 0.000000 1.645900 
# 
# From -- ./inp_files/20690.got.cif
#   From: 2010.03.12/outbox.cif.g09.slc.cpg/sg59_11_cif.got.tgz:20690.got - 2010.04.16 16:29:54.
