data_PCOD8241898
_publ_section_title
;
Structure prediction by ZEFSAII (Michael W. Deem and Ramdas Pophale) SiO2 
 PCOD8241898
Probable space group: P M M N
;
_chemical_formula_sum "Si O2"
_cell_formula_units_Z 48
_cell_length_a 8.908596
_cell_length_b 20.352415
_cell_length_c 14.462062
_cell_angle_alpha 90.000000
_cell_angle_beta 90.000000
_cell_angle_gamma 90.000000
_cell_volume 2622.137328
_symmetry_space_group_name_H-M "P M M N"
_symmetry_group_IT_number 59
_space_group.IT_coordinate_system_code '2'
_symmetry_cell_setting 'orthorhombic'
loop_
_space_group_symop_operation_xyz
x,y,z
1/2-x,1/2-y,z
1/2+x,-y,-z
-x,1/2+y,-z
-x,-y,-z
1/2+x,1/2+y,-z
1/2-x,y,z
x,1/2-y,z
loop_
_atom_site_type_symbol
_atom_site_label
_atom_site_fract_x
_atom_site_fract_y
_atom_site_fract_z
Si Si1 0.077405 0.175083 0.062962
Si Si2 0.078144 0.987684 0.243575
Si Si3 0.573855 0.057766 0.557273
Si Si4 0.576831 0.062519 0.954059
Si Si5 0.571658 0.322797 0.438994
Si Si6 0.072771 0.625156 0.757916
O O1 0.250000 0.153403 0.070574
O O2 0.060911 0.250000 0.029427
O O3 0.003206 0.168378 0.163141
O O4 0.997543 0.129645 0.987638
O O5 0.250000 0.012556 0.251033
O O6 0.030976 0.947329 0.334937
O O7 0.057835 0.939608 0.156559
O O8 0.970436 0.049420 0.230232
O O9 0.750000 0.052008 0.540681
O O10 0.514345 0.127772 0.518902
O O11 0.500000 0.000000 0.500000
O O12 0.750000 0.062334 0.983962
O O13 0.500000 0.000000 0.000000
O O14 0.750000 0.320366 0.437235
O O15 0.506259 0.250000 0.458674
O O16 0.512829 0.348407 0.340121
O O17 0.250000 0.632465 0.767098
#
# Coordination Sequence:
#
# PCOD8241898 Si02
#       6
#     8   8   8   8   8   8
#     4  11  24  40  57  81 115 152 187 230 286 339
#     4  10  21  35  54  82 114 142 181 233 281 332
#     4  10  19  34  55  79 109 145 182 224 273 324
#     4  11  22  37  58  83 112 148 191 235 279 332
#     4   9  18  32  51  79 112 143 180 223 270 325
#     4  11  20  32  56  85 112 144 182 229 279 334
#
# _framework density 18.305675999999998
#
# number of rings (size 3 to 8) (size 9 to 14) (size 15 to 20)
#    0.000    1.667    3.333    2.000    0.000    2.667 
#    0.000    0.833    0.000    4.500    0.000    0.000 
#    0.000    0.000    0.000    0.000    0.000    0.000 
#
# Total GULP energy -595298.258779 kJ/mol
# GULP energy per Si atom -12402.047058 kJ/mol
# Density = 1.826401 g / cm^3
# Si number density = 18.305676 Si / 1000 Ang^3
#
#
#
# Elastic Constant Matrix: (Units=GPa)
#
#
# Indices 1 2 3 4 5 6 
#
# 1 80.4988 42.0208 41.5308 0.0000 0.0000 0.0000
# 2 42.0208 124.1097 57.6672 0.0000 0.0000 0.0000
# 3 41.5308 57.6672 128.1522 0.0000 0.0000 0.0000
# 4 0.0000 0.0000 0.0000 32.6057 0.0000 0.0000
# 5 0.0000 0.0000 0.0000 0.0000 22.2762 0.0000
# 6 0.0000 0.0000 0.0000 0.0000 0.0000 26.0695
#
#
#
# Elastic Compliance Matrix: (Units=1/GPa)
#
#
# Indices 1 2 3 4 5 6 
#
# 1 0.016262 -0.003865 -0.003531 0.000000 0.000000 0.000000
# 2 -0.003865 0.011106 -0.003745 0.000000 0.000000 0.000000
# 3 -0.003531 -0.003745 0.010633 0.000000 0.000000 0.000000
# 4 0.000000 0.000000 0.000000 0.030669 0.000000 0.000000
# 5 0.000000 0.000000 0.000000 0.000000 0.044891 0.000000
# 6 0.000000 0.000000 0.000000 0.000000 0.000000 0.038359
#
#
# Mechanical properties :
#
#
# Convention : Reuss Voigt Hill
#
# Bulk Modulus (GPa) = 63.61900 68.35537 65.98718
# Shear Modulus (GPa) = 27.86420 28.95975 28.41198
#
# Velocity S-wave (km/s) = 3.90572 3.98176 3.94393
# Velocity P-wave (km/s) = 7.42756 7.65254 7.54089
#
# Compressibility (1/GPa) = 0.01571857
#
# Stress axis : x y z
#
# Youngs Moduli (GPa) = 61.49368 90.03954 94.05009
#
# Poissons Ratio (x) = 0.34804 0.33206
# Poissons Ratio (y) = 0.23770 0.35222
# Poissons Ratio (z) = 0.21711 0.33720
#
# Static dielectric constant tensor:
#      x y z
#    x 3.353700 0.000000 0.000000 
#    y 0.000000 3.693730 0.000000 
#    z 0.000000 0.000000 3.614090 
# 
# 
# High freq. dielectric constant tensor:
#      x y z
#    x 1.701470 0.000000 0.000000 
#    y 0.000000 1.706590 0.000000 
#    z 0.000000 0.000000 1.714850 
# 
# From -- ./inp_files/20370.got.cif
#   From: 2010.03.12/outbox.cif.g09.slc.cpg/sg59_11_cif.got.tgz:20370.got - 2010.04.16 16:29:54.
