data_PCOD8241759
_publ_section_title
;
Structure prediction by ZEFSAII (Michael W. Deem and Ramdas Pophale) SiO2 
 PCOD8241759
Probable space group: P M M N
;
_chemical_formula_sum "Si O2"
_cell_formula_units_Z 64
_cell_length_a 15.260156
_cell_length_b 9.030629
_cell_length_c 23.961542
_cell_angle_alpha 90.000000
_cell_angle_beta 90.000000
_cell_angle_gamma 90.000000
_cell_volume 3302.111525
_symmetry_space_group_name_H-M "P M M N"
_symmetry_group_IT_number 59
_space_group.IT_coordinate_system_code '2'
_symmetry_cell_setting 'orthorhombic'
loop_
_space_group_symop_operation_xyz
x,y,z
1/2-x,1/2-y,z
1/2+x,-y,-z
-x,1/2+y,-z
-x,-y,-z
1/2+x,1/2+y,-z
1/2-x,y,z
x,1/2-y,z
loop_
_atom_site_type_symbol
_atom_site_label
_atom_site_fract_x
_atom_site_fract_y
_atom_site_fract_z
Si Si1 0.393776 0.418438 0.055189
Si Si2 0.991925 0.424000 0.639851
Si Si3 0.349361 0.576840 0.449934
Si Si4 0.653774 0.425507 0.175114
Si Si5 0.150873 0.918898 0.165074
Si Si6 0.988012 0.926199 0.757712
Si Si7 0.398958 0.918706 0.944836
Si Si8 0.151193 0.422991 0.563781
O O1 0.360734 0.250000 0.060251
O O2 0.350017 0.515963 0.102986
O O3 0.497358 0.428622 0.061497
O O4 0.363576 0.482341 0.995549
O O5 0.986865 0.250000 0.653056
O O6 0.913665 0.474485 0.599129
O O7 0.979246 0.515290 0.695612
O O8 0.085379 0.468489 0.613138
O O9 0.250000 0.531624 0.433724
O O10 0.357987 0.750000 0.460273
O O11 0.379069 0.500553 0.507057
O O12 0.750000 0.474669 0.197009
O O13 0.644827 0.250000 0.172843
O O14 0.579254 0.487915 0.216356
O O15 0.641213 0.484876 0.112144
O O16 0.250000 0.924946 0.187792
O O17 0.116421 0.750000 0.163921
O O18 0.092286 0.016042 0.205979
O O19 0.984977 0.750000 0.757763
O O20 0.368983 0.750000 0.955420
O O21 0.250000 0.470954 0.580930
O O22 0.145238 0.250000 0.552049
#
# Coordination Sequence:
#
# PCOD8241759 Si02
#       8
#     8   8   8   8   8   8   8   8
#     4  10  19  33  55  85 116 144 179 227 279 331
#     4  10  21  36  54  78 110 149 185 222 273 330
#     4   9  18  33  54  80 110 142 179 223 269 322
#     4   9  18  35  58  81 108 143 183 228 278 332
#     4  11  24  41  61  82 107 146 190 230 283 347
#     4  11  23  40  59  83 111 143 189 240 284 324
#     4   9  17  32  54  82 114 148 181 218 274 338
#     4   9  18  33  54  81 114 148 182 223 272 323
#
# _framework density 19.381539
#
# number of rings (size 3 to 8) (size 9 to 14) (size 15 to 20)
#    0.000    2.250    1.250    1.500    0.000    4.000 
#    0.000    2.500    0.000    2.625    0.000    0.000 
#    0.000    0.000    0.000    0.000    0.000    0.000 
#
# Total GULP energy -793670.662107 kJ/mol
# GULP energy per Si atom -12401.104095 kJ/mol
# Density = 1.933743 g / cm^3
# Si number density = 19.381539 Si / 1000 Ang^3
#
#
#
# Elastic Constant Matrix: (Units=GPa)
#
#
# Indices 1 2 3 4 5 6 
#
# 1 87.8617 24.4530 40.6578 0.0000 0.0000 0.0000
# 2 24.4530 58.0661 33.0666 0.0000 0.0000 0.0000
# 3 40.6578 33.0666 102.5827 0.0000 0.0000 0.0000
# 4 0.0000 0.0000 0.0000 26.5900 0.0000 0.0000
# 5 0.0000 0.0000 0.0000 0.0000 6.6254 0.0000
# 6 0.0000 0.0000 0.0000 0.0000 0.0000 19.4763
#
#
#
# Elastic Compliance Matrix: (Units=1/GPa)
#
#
# Indices 1 2 3 4 5 6 
#
# 1 0.014486 -0.003467 -0.004624 0.000000 0.000000 0.000000
# 2 -0.003467 0.021924 -0.005693 0.000000 0.000000 0.000000
# 3 -0.004624 -0.005693 0.013416 0.000000 0.000000 0.000000
# 4 0.000000 0.000000 0.000000 0.037608 0.000000 0.000000
# 5 0.000000 0.000000 0.000000 0.000000 0.150934 0.000000
# 6 0.000000 0.000000 0.000000 0.000000 0.000000 0.051344
#
#
# Mechanical properties :
#
#
# Convention : Reuss Voigt Hill
#
# Bulk Modulus (GPa) = 44.92756 49.42949 47.17853
# Shear Modulus (GPa) = 15.39888 20.56054 17.97971
#
# Velocity S-wave (km/s) = 2.82177 3.26057 3.04908
# Velocity P-wave (km/s) = 5.81785 6.30348 6.06553
#
# Compressibility (1/GPa) = 0.02225805
#
# Stress axis : x y z
#
# Youngs Moduli (GPa) = 69.03120 45.61267 74.53883
#
# Poissons Ratio (x) = 0.15816 0.34465
# Poissons Ratio (y) = 0.23936 0.42432
# Poissons Ratio (z) = 0.31919 0.25966
#
# Static dielectric constant tensor:
#      x y z
#    x 3.773140 0.000000 0.000000 
#    y 0.000000 3.427470 0.000000 
#    z 0.000000 0.000000 3.499280 
# 
# 
# High freq. dielectric constant tensor:
#      x y z
#    x 1.764090 0.000000 0.000000 
#    y 0.000000 1.740200 0.000000 
#    z 0.000000 0.000000 1.750390 
# 
# From -- ./inp_files/32170.got.cif
#   From: 2010.03.12/outbox.cif.g09.slc.cpg/sg59_17_cif.got.tgz:32170.got - 2010.04.16 16:29:54.
