data_PCOD8241615
_publ_section_title
;
Structure prediction by ZEFSAII (Michael W. Deem and Ramdas Pophale) SiO2 
 PCOD8241615
Probable space group: P M M N
;
_chemical_formula_sum "Si O2"
_cell_formula_units_Z 64
_cell_length_a 8.795623
_cell_length_b 19.049217
_cell_length_c 21.471755
_cell_angle_alpha 90.000000
_cell_angle_beta 90.000000
_cell_angle_gamma 90.000000
_cell_volume 3597.586778
_symmetry_space_group_name_H-M "P M M N"
_symmetry_group_IT_number 59
_space_group.IT_coordinate_system_code '2'
_symmetry_cell_setting 'orthorhombic'
loop_
_space_group_symop_operation_xyz
x,y,z
1/2-x,1/2-y,z
1/2+x,-y,-z
-x,1/2+y,-z
-x,-y,-z
1/2+x,1/2+y,-z
1/2-x,y,z
x,1/2-y,z
loop_
_atom_site_type_symbol
_atom_site_label
_atom_site_fract_x
_atom_site_fract_y
_atom_site_fract_z
Si Si1 0.432233 0.465298 0.439200
Si Si2 0.071699 0.589163 0.851366
Si Si3 0.575601 0.668915 0.102593
Si Si4 0.925217 0.831185 0.959898
Si Si5 0.582622 0.863325 0.732548
Si Si6 0.430391 0.944950 0.184473
Si Si7 0.584995 0.479709 0.686567
Si Si8 0.925476 0.171813 0.390527
O O1 0.500000 0.500000 0.500000
O O2 0.250000 0.466400 0.440204
O O3 0.497873 0.511886 0.380568
O O4 0.484174 0.384395 0.432754
O O5 0.250000 0.585287 0.840917
O O6 0.034385 0.621041 0.918559
O O7 0.001171 0.640562 0.799020
O O8 0.006389 0.510636 0.849727
O O9 0.750000 0.651881 0.118626
O O10 0.539405 0.750000 0.114620
O O11 0.467023 0.625384 0.147639
O O12 0.541084 0.649022 0.031346
O O13 0.750000 0.846748 0.943415
O O14 0.963299 0.750000 0.948106
O O15 0.750000 0.828204 0.738164
O O16 0.485225 0.824070 0.680163
O O17 0.603310 0.943185 0.713975
O O18 0.250000 0.957250 0.187146
O O19 0.494479 0.936849 0.256621
O O20 0.750000 0.445966 0.673332
O O21 0.750000 0.149203 0.389662
O O22 0.945956 0.250000 0.419587
#
# Coordination Sequence:
#
# PCOD8241615 Si02
#       8
#     8   8   8   8   8   8   8   8
#     4  10  19  33  54  78 106 140 177 214 256 307
#     4  11  21  32  49  74 103 133 168 211 256 301
#     4   9  19  36  55  74  97 126 163 210 265 318
#     4   9  19  36  53  67  91 130 170 208 255 312
#     4   9  17  31  49  69  97 132 167 202 245 298
#     4  10  19  33  54  77 101 130 166 207 251 304
#     4   7  14  29  48  71  97 124 155 194 237 284
#     4  10  20  33  50  75 106 138 176 219 257 298
#
# _framework density 17.789702999999999
#
# number of rings (size 3 to 8) (size 9 to 14) (size 15 to 20)
#    0.000    2.625    0.000    4.875    0.000    3.000 
#    0.000    3.125    0.000    0.750    0.000    1.750 
#    0.000    0.000    0.000    0.000    0.000    0.000 
#
# Total GULP energy -793097.201926 kJ/mol
# GULP energy per Si atom -12392.143780 kJ/mol
# Density = 1.774921 g / cm^3
# Si number density = 17.789703 Si / 1000 Ang^3
#
#
#
# Elastic Constant Matrix: (Units=GPa)
#
#
# Indices 1 2 3 4 5 6 
#
# 1 93.8325 35.2659 46.2240 0.0000 0.0000 0.0000
# 2 35.2659 70.1415 58.6411 0.0000 0.0000 0.0000
# 3 46.2240 58.6411 128.1902 0.0000 0.0000 0.0000
# 4 0.0000 0.0000 0.0000 20.4291 0.0000 0.0000
# 5 0.0000 0.0000 0.0000 0.0000 29.3033 0.0000
# 6 0.0000 0.0000 0.0000 0.0000 0.0000 26.0290
#
#
#
# Elastic Compliance Matrix: (Units=1/GPa)
#
#
# Indices 1 2 3 4 5 6 
#
# 1 0.013781 -0.004493 -0.002914 0.000000 0.000000 0.000000
# 2 -0.004493 0.024551 -0.009611 0.000000 0.000000 0.000000
# 3 -0.002914 -0.009611 0.013248 0.000000 0.000000 0.000000
# 4 0.000000 0.000000 0.000000 0.048950 0.000000 0.000000
# 5 0.000000 0.000000 0.000000 0.000000 0.034126 0.000000
# 6 0.000000 0.000000 0.000000 0.000000 0.000000 0.038419
#
#
# Mechanical properties :
#
#
# Convention : Reuss Voigt Hill
#
# Bulk Modulus (GPa) = 56.99628 63.60290 60.29959
# Shear Modulus (GPa) = 23.47873 25.28782 24.38327
#
# Velocity S-wave (km/s) = 3.63684 3.77435 3.70623
# Velocity P-wave (km/s) = 7.05294 7.40436 7.23078
#
# Compressibility (1/GPa) = 0.01754501
#
# Stress axis : x y z
#
# Youngs Moduli (GPa) = 72.56141 40.73190 75.48150
#
# Poissons Ratio (x) = 0.18299 0.21997
# Poissons Ratio (y) = 0.32599 0.72544
# Poissons Ratio (z) = 0.21146 0.39147
#
# Static dielectric constant tensor:
#      x y z
#    x 3.249080 0.000000 0.000000 
#    y 0.000000 3.073560 0.000000 
#    z 0.000000 0.000000 3.536730 
# 
# 
# High freq. dielectric constant tensor:
#      x y z
#    x 1.684710 0.000000 0.000000 
#    y 0.000000 1.663760 0.000000 
#    z 0.000000 0.000000 1.686360 
# 
# From -- ./inp_files/29621.got.cif
#   From: 2010.03.12/outbox.cif.g09.slc.cpg/sg59_15_cif.got.tgz:29621.got - 2010.04.16 16:29:54.
