data_PCOD8241423
_publ_section_title
;
Structure prediction by ZEFSAII (Michael W. Deem and Ramdas Pophale) SiO2 
 PCOD8241423
Probable space group: P M M N
;
_chemical_formula_sum "Si O2"
_cell_formula_units_Z 64
_cell_length_a 8.992073
_cell_length_b 14.049142
_cell_length_c 25.819832
_cell_angle_alpha 90.000000
_cell_angle_beta 90.000000
_cell_angle_gamma 90.000000
_cell_volume 3261.842884
_symmetry_space_group_name_H-M "P M M N"
_symmetry_group_IT_number 59
_space_group.IT_coordinate_system_code '2'
_symmetry_cell_setting 'orthorhombic'
loop_
_space_group_symop_operation_xyz
x,y,z
1/2-x,1/2-y,z
1/2+x,-y,-z
-x,1/2+y,-z
-x,-y,-z
1/2+x,1/2+y,-z
1/2-x,y,z
x,1/2-y,z
loop_
_atom_site_type_symbol
_atom_site_label
_atom_site_fract_x
_atom_site_fract_y
_atom_site_fract_z
Si Si1 0.085960 0.637499 0.466468
Si Si2 0.914920 0.637761 0.964777
Si Si3 0.426848 0.354325 0.920978
Si Si4 0.575487 0.138854 0.232139
Si Si5 0.075827 0.359174 0.635814
Si Si6 0.076723 0.860829 0.581246
Si Si7 0.574551 0.534914 0.673441
Si Si8 0.425451 0.542165 0.871763
O O1 0.250000 0.598426 0.450739
O O2 0.096470 0.750000 0.472132
O O3 0.038957 0.599991 0.523435
O O4 0.967360 0.609055 0.422639
O O5 0.750000 0.593659 0.956736
O O6 0.904801 0.750000 0.960664
O O7 0.024268 0.601632 0.920975
O O8 0.980115 0.611705 0.021820
O O9 0.250000 0.347176 0.923210
O O10 0.492711 0.250000 0.906254
O O11 0.478399 0.432176 0.878564
O O12 0.750000 0.120315 0.240096
O O13 0.540907 0.250000 0.225879
O O14 0.489200 0.099146 0.281054
O O15 0.510877 0.085030 0.181496
O O16 0.250000 0.373238 0.642816
O O17 0.028003 0.250000 0.646636
O O18 0.991408 0.427479 0.676404
O O19 0.250000 0.878590 0.594491
O O20 0.037842 0.750000 0.587308
O O21 0.972047 0.919274 0.619203
O O22 0.750000 0.530022 0.678460
O O23 0.250000 0.549878 0.869916
#
# Coordination Sequence:
#
# PCOD8241423 Si02
#       8
#     8   8   8   8   8   8   8   8
#     4   8  15  30  53  81 112 144 176 213 261 314
#     4   9  17  29  47  74 110 148 179 212 262 321
#     4   8  15  29  49  76 111 146 177 212 259 315
#     4  10  22  40  58  77 106 139 172 220 277 325
#     4  10  21  38  60  83 108 140 177 217 262 316
#     4   9  18  34  56  81 112 148 181 218 267 320
#     4  12  25  38  56  80 105 138 180 226 273 321
#     4  10  19  32  54  80 104 137 183 229 268 309
#
# _framework density 19.620811
#
# number of rings (size 3 to 8) (size 9 to 14) (size 15 to 20)
#    0.000    2.500    0.000    4.125    0.000    5.000 
#    0.000    1.875    0.000    3.375    0.000    0.000 
#    0.000    0.000    0.000    0.000    0.000    0.000 
#
# Total GULP energy -793390.573981 kJ/mol
# GULP energy per Si atom -12396.727718 kJ/mol
# Density = 1.957615 g / cm^3
# Si number density = 19.620811 Si / 1000 Ang^3
#
#
#
# Elastic Constant Matrix: (Units=GPa)
#
#
# Indices 1 2 3 4 5 6 
#
# 1 58.7035 38.7110 34.1158 0.0000 0.0000 0.0000
# 2 38.7110 74.3402 52.2608 0.0000 0.0000 0.0000
# 3 34.1158 52.2608 85.3553 0.0000 0.0000 0.0000
# 4 0.0000 0.0000 0.0000 34.7662 0.0000 0.0000
# 5 0.0000 0.0000 0.0000 0.0000 26.4993 0.0000
# 6 0.0000 0.0000 0.0000 0.0000 0.0000 22.7943
#
#
#
# Elastic Compliance Matrix: (Units=1/GPa)
#
#
# Indices 1 2 3 4 5 6 
#
# 1 0.026620 -0.011205 -0.003779 0.000000 0.000000 0.000000
# 2 -0.011205 0.028334 -0.012869 0.000000 0.000000 0.000000
# 3 -0.003779 -0.012869 0.021106 0.000000 0.000000 0.000000
# 4 0.000000 0.000000 0.000000 0.028764 0.000000 0.000000
# 5 0.000000 0.000000 0.000000 0.000000 0.037737 0.000000
# 6 0.000000 0.000000 0.000000 0.000000 0.000000 0.043871
#
#
# Mechanical properties :
#
#
# Convention : Reuss Voigt Hill
#
# Bulk Modulus (GPa) = 49.13478 52.06381 50.59929
# Shear Modulus (GPa) = 20.08665 23.03272 21.55968
#
# Velocity S-wave (km/s) = 3.20307 3.42993 3.31844
# Velocity P-wave (km/s) = 6.22704 6.50219 6.36610
#
# Compressibility (1/GPa) = 0.02035218
#
# Stress axis : x y z
#
# Youngs Moduli (GPa) = 37.56571 35.29388 47.38024
#
# Poissons Ratio (x) = 0.39547 0.17906
# Poissons Ratio (y) = 0.42092 0.60975
# Poissons Ratio (z) = 0.14197 0.45421
#
# Static dielectric constant tensor:
#      x y z
#    x 3.396630 0.000000 0.000000 
#    y 0.000000 3.823010 0.000000 
#    z 0.000000 0.000000 3.628030 
# 
# 
# High freq. dielectric constant tensor:
#      x y z
#    x 1.741120 0.000000 0.000000 
#    y 0.000000 1.775230 0.000000 
#    z 0.000000 0.000000 1.750950 
# 
# From -- ./inp_files/31550.got.cif
#   From: 2010.03.12/outbox.cif.g09.slc.cpg/sg59_16_cif.got.tgz:31550.got - 2010.04.16 16:29:54.
