data_PCOD8241291
_publ_section_title
;
Structure prediction by ZEFSAII (Michael W. Deem and Ramdas Pophale) SiO2 
 PCOD8241291
Probable space group: P M M N
;
_chemical_formula_sum "Si O2"
_cell_formula_units_Z 64
_cell_length_a 8.898832
_cell_length_b 19.143239
_cell_length_c 21.145243
_cell_angle_alpha 90.000000
_cell_angle_beta 90.000000
_cell_angle_gamma 90.000000
_cell_volume 3602.144327
_symmetry_space_group_name_H-M "P M M N"
_symmetry_group_IT_number 59
_space_group.IT_coordinate_system_code '2'
_symmetry_cell_setting 'orthorhombic'
loop_
_space_group_symop_operation_xyz
x,y,z
1/2-x,1/2-y,z
1/2+x,-y,-z
-x,1/2+y,-z
-x,-y,-z
1/2+x,1/2+y,-z
1/2-x,y,z
x,1/2-y,z
loop_
_atom_site_type_symbol
_atom_site_label
_atom_site_fract_x
_atom_site_fract_y
_atom_site_fract_z
Si Si1 0.576076 0.329606 0.463740
Si Si2 0.921246 0.330952 0.609870
Si Si3 0.585375 0.863769 0.770412
Si Si4 0.070722 0.973031 0.935994
Si Si5 0.426657 0.056198 0.690678
Si Si6 0.417809 0.978525 0.185392
Si Si7 0.927080 0.582323 0.641173
Si Si8 0.926114 0.325113 0.110254
O O1 0.750000 0.340613 0.446531
O O2 0.527999 0.250000 0.448977
O O3 0.546133 0.346941 0.536696
O O4 0.475901 0.383262 0.424286
O O5 0.750000 0.352067 0.626352
O O6 0.948255 0.250000 0.624669
O O7 0.036793 0.374092 0.652108
O O8 0.750000 0.829087 0.777024
O O9 0.530814 0.862888 0.697502
O O10 0.472475 0.823378 0.816053
O O11 0.594316 0.943774 0.789771
O O12 0.250000 0.976591 0.938994
O O13 0.009724 0.892945 0.926259
O O14 0.012779 0.022764 0.879601
O O15 0.000000 0.000000 0.000000
O O16 0.250000 0.046837 0.698897
O O17 0.498374 0.065600 0.760482
O O18 0.489719 0.990814 0.651334
O O19 0.250000 0.948062 0.173212
O O20 0.750000 0.567064 0.640932
O O21 0.750000 0.331426 0.108694
O O22 0.977311 0.250000 0.080055
#
# Coordination Sequence:
#
# PCOD8241291 Si02
#       8
#     8   8   8   8   8   8   8   8
#     4   9  19  35  52  70  95 129 169 213 260 311
#     4   9  19  37  57  74  96 129 168 210 261 320
#     4   8  16  29  44  65  93 125 159 195 236 283
#     4  10  19  32  52  77 105 137 172 208 247 295
#     4  11  21  33  53  79 104 130 164 211 260 303
#     4   9  17  32  52  74 101 129 160 199 243 294
#     4  10  20  33  49  71 101 136 172 208 250 303
#     4   9  18  31  47  69  97 130 167 204 241 286
#
# _framework density 17.767195999999998
#
# number of rings (size 3 to 8) (size 9 to 14) (size 15 to 20)
#    0.000    2.625    0.000    3.750    0.000    6.250 
#    0.000    3.750    0.000    0.750    0.000    1.750 
#    0.000    0.000    0.000    0.000    0.000    0.000 
#
# Total GULP energy -793284.774768 kJ/mol
# GULP energy per Si atom -12395.074606 kJ/mol
# Density = 1.772676 g / cm^3
# Si number density = 17.767196 Si / 1000 Ang^3
#
#
#
# Elastic Constant Matrix: (Units=GPa)
#
#
# Indices 1 2 3 4 5 6 
#
# 1 83.3427 35.9394 47.4575 0.0000 0.0000 0.0000
# 2 35.9394 74.0341 53.4877 0.0000 0.0000 0.0000
# 3 47.4575 53.4877 112.6939 0.0000 0.0000 0.0000
# 4 0.0000 0.0000 0.0000 15.4316 0.0000 0.0000
# 5 0.0000 0.0000 0.0000 0.0000 33.0454 0.0000
# 6 0.0000 0.0000 0.0000 0.0000 0.0000 22.6446
#
#
#
# Elastic Compliance Matrix: (Units=1/GPa)
#
#
# Indices 1 2 3 4 5 6 
#
# 1 0.016762 -0.004622 -0.004865 0.000000 0.000000 0.000000
# 2 -0.004622 0.021831 -0.008415 0.000000 0.000000 0.000000
# 3 -0.004865 -0.008415 0.014916 0.000000 0.000000 0.000000
# 4 0.000000 0.000000 0.000000 0.064802 0.000000 0.000000
# 5 0.000000 0.000000 0.000000 0.000000 0.030261 0.000000
# 6 0.000000 0.000000 0.000000 0.000000 0.000000 0.044161
#
#
# Mechanical properties :
#
#
# Convention : Reuss Voigt Hill
#
# Bulk Modulus (GPa) = 56.48201 60.42667 58.45434
# Shear Modulus (GPa) = 21.32750 23.10340 22.21545
#
# Velocity S-wave (km/s) = 3.46842 3.60993 3.53988
# Velocity P-wave (km/s) = 6.92091 7.17353 7.04835
#
# Compressibility (1/GPa) = 0.01770475
#
# Stress axis : x y z
#
# Youngs Moduli (GPa) = 59.65826 45.80706 67.04070
#
# Poissons Ratio (x) = 0.21173 0.32615
# Poissons Ratio (y) = 0.27576 0.56414
# Poissons Ratio (z) = 0.29024 0.38546
#
# Static dielectric constant tensor:
#      x y z
#    x 3.336770 0.000000 0.000000 
#    y 0.000000 3.243530 0.000000 
#    z 0.000000 0.000000 3.373980 
# 
# 
# High freq. dielectric constant tensor:
#      x y z
#    x 1.690030 0.000000 0.000000 
#    y 0.000000 1.667380 0.000000 
#    z 0.000000 0.000000 1.679200 
# 
# From -- ./inp_files/29507.got.cif
#   From: 2010.03.12/outbox.cif.g09.slc.cpg/sg59_15_cif.got.tgz:29507.got - 2010.04.16 16:29:54.
