data_PCOD8241011
_publ_section_title
;
Structure prediction by ZEFSAII (Michael W. Deem and Ramdas Pophale) SiO2 
 PCOD8241011
Probable space group: P M M N
;
_chemical_formula_sum "Si O2"
_cell_formula_units_Z 64
_cell_length_a 29.664555
_cell_length_b 9.372407
_cell_length_c 12.445057
_cell_angle_alpha 90.000000
_cell_angle_beta 90.000000
_cell_angle_gamma 90.000000
_cell_volume 3460.077829
_symmetry_space_group_name_H-M "P M M N"
_symmetry_group_IT_number 59
_space_group.IT_coordinate_system_code '2'
_symmetry_cell_setting 'orthorhombic'
loop_
_space_group_symop_operation_xyz
x,y,z
1/2-x,1/2-y,z
1/2+x,-y,-z
-x,1/2+y,-z
-x,-y,-z
1/2+x,1/2+y,-z
1/2-x,y,z
x,1/2-y,z
loop_
_atom_site_type_symbol
_atom_site_label
_atom_site_fract_x
_atom_site_fract_y
_atom_site_fract_z
Si Si1 0.799911 0.413897 0.930618
Si Si2 0.829638 0.088077 0.165949
Si Si3 0.414879 0.417962 0.882685
Si Si4 0.436237 0.415247 0.332676
Si Si5 0.037473 0.583999 0.712670
Si Si6 0.798248 0.083958 0.396126
Si Si7 0.114039 0.415526 0.116384
Si Si8 0.893401 0.419293 0.473759
O O1 0.750000 0.461609 0.891271
O O2 0.808599 0.250000 0.900540
O O3 0.838315 0.504333 0.871693
O O4 0.800873 0.436282 0.058841
O O5 0.849398 0.250000 0.170185
O O6 0.798420 0.059094 0.268140
O O7 0.870025 0.976184 0.173462
O O8 0.418992 0.250000 0.865366
O O9 0.456524 0.494943 0.823038
O O10 0.413198 0.460197 0.008776
O O11 0.427718 0.250000 0.359583
O O12 0.488915 0.453015 0.336672
O O13 0.417533 0.455322 0.215535
O O14 0.410582 0.510226 0.418191
O O15 0.040712 0.750000 0.742472
O O16 0.074791 0.537564 0.625694
O O17 0.750000 0.019055 0.437920
O O18 0.798768 0.250000 0.422605
O O19 0.842884 0.019006 0.452056
O O20 0.126212 0.250000 0.111778
O O21 0.893854 0.250000 0.488650
#
# Coordination Sequence:
#
# PCOD8241011 Si02
#       8
#     8   8   8   8   8   8   8   8
#     4   9  17  29  50  80 106 134 178 224 260 304
#     4   9  15  28  49  74 107 141 169 205 257 314
#     4  10  19  31  51  79 110 139 169 211 260 312
#     4  10  22  39  57  74 100 140 183 222 262 312
#     4  10  20  36  57  81 105 134 173 218 270 322
#     4   9  16  28  50  78 106 136 167 204 256 313
#     4   9  20  37  52  73 107 145 178 213 263 317
#     4  10  20  35  55  80 108 134 172 219 264 314
#
# _framework density 18.496694999999999
#
# number of rings (size 3 to 8) (size 9 to 14) (size 15 to 20)
#    0.000    2.500    1.250    1.125    0.000    4.250 
#    0.000    0.625    0.000    4.500    0.000    0.000 
#    0.000    0.000    0.000    0.000    0.000    0.000 
#
# Total GULP energy -793365.310420 kJ/mol
# GULP energy per Si atom -12396.332975 kJ/mol
# Density = 1.845460 g / cm^3
# Si number density = 18.496695 Si / 1000 Ang^3
#
#
#
# Elastic Constant Matrix: (Units=GPa)
#
#
# Indices 1 2 3 4 5 6 
#
# 1 142.8170 36.7272 60.2488 0.0000 0.0000 0.0000
# 2 36.7272 42.9546 36.6921 0.0000 0.0000 0.0000
# 3 60.2488 36.6921 89.0414 0.0000 0.0000 0.0000
# 4 0.0000 0.0000 0.0000 26.0483 0.0000 0.0000
# 5 0.0000 0.0000 0.0000 0.0000 16.8912 0.0000
# 6 0.0000 0.0000 0.0000 0.0000 0.0000 24.4720
#
#
#
# Elastic Compliance Matrix: (Units=1/GPa)
#
#
# Indices 1 2 3 4 5 6 
#
# 1 0.010313 -0.004409 -0.005161 0.000000 0.000000 0.000000
# 2 -0.004409 0.037812 -0.012598 0.000000 0.000000 0.000000
# 3 -0.005161 -0.012598 0.019914 0.000000 0.000000 0.000000
# 4 0.000000 0.000000 0.000000 0.038390 0.000000 0.000000
# 5 0.000000 0.000000 0.000000 0.000000 0.059203 0.000000
# 6 0.000000 0.000000 0.000000 0.000000 0.000000 0.040863
#
#
# Mechanical properties :
#
#
# Convention : Reuss Voigt Hill
#
# Bulk Modulus (GPa) = 42.19009 60.23880 51.21444
# Shear Modulus (GPa) = 19.32496 22.89197 21.10846
#
# Velocity S-wave (km/s) = 3.23581 3.52181 3.38183
# Velocity P-wave (km/s) = 6.06792 7.01253 6.55726
#
# Compressibility (1/GPa) = 0.02370225
#
# Stress axis : x y z
#
# Youngs Moduli (GPa) = 96.96293 26.44694 50.21469
#
# Poissons Ratio (x) = 0.11661 0.25918
# Poissons Ratio (y) = 0.42752 0.63260
# Poissons Ratio (z) = 0.50046 0.33318
#
# Static dielectric constant tensor:
#      x y z
#    x 3.605550 0.000000 0.000000 
#    y 0.000000 3.221330 0.000000 
#    z 0.000000 0.000000 3.326530 
# 
# 
# High freq. dielectric constant tensor:
#      x y z
#    x 1.724020 0.000000 0.000000 
#    y 0.000000 1.694530 0.000000 
#    z 0.000000 0.000000 1.704690 
# 
# From -- ./inp_files/15031.got.cif
#   From: 2010.03.12/outbox.cif.g09.slc.cpg/sg59_8_cif.got.tgz:15031.got - 2010.04.16 16:29:54.
