data_PCOD8241251
_publ_section_title
;
Structure prediction by ZEFSAII (Michael W. Deem and Ramdas Pophale) SiO2 
 PCOD8241251
Probable space group: P M M N
;
_chemical_formula_sum "Si O2"
_cell_formula_units_Z 64
_cell_length_a 22.379744
_cell_length_b 9.339373
_cell_length_c 16.548567
_cell_angle_alpha 90.000000
_cell_angle_beta 90.000000
_cell_angle_gamma 90.000000
_cell_volume 3458.861942
_symmetry_space_group_name_H-M "P M M N"
_symmetry_group_IT_number 59
_space_group.IT_coordinate_system_code '2'
_symmetry_cell_setting 'orthorhombic'
loop_
_space_group_symop_operation_xyz
x,y,z
1/2-x,1/2-y,z
1/2+x,-y,-z
-x,1/2+y,-z
-x,-y,-z
1/2+x,1/2+y,-z
1/2-x,y,z
x,1/2-y,z
loop_
_atom_site_type_symbol
_atom_site_label
_atom_site_fract_x
_atom_site_fract_y
_atom_site_fract_z
Si Si1 0.585085 0.412036 0.030344
Si Si2 0.972537 0.412131 0.689350
Si Si3 0.181022 0.907527 0.186505
Si Si4 0.447381 0.083979 0.547602
Si Si5 0.635141 0.587322 0.667140
Si Si6 0.316210 0.412937 0.504418
Si Si7 0.318372 0.088597 0.029801
Si Si8 0.993105 0.088187 0.875544
O O1 0.599040 0.250000 0.053401
O O2 0.541404 0.473080 0.097636
O O3 0.645542 0.503551 0.038526
O O4 0.561610 0.426837 0.938143
O O5 0.947818 0.250000 0.679652
O O6 0.036335 0.423531 0.643407
O O7 0.974853 0.451913 0.784417
O O8 0.930244 0.527216 0.643308
O O9 0.250000 0.883420 0.199535
O O10 0.151062 0.750000 0.171251
O O11 0.155640 0.977530 0.265778
O O12 0.168519 0.013635 0.114058
O O13 0.446542 0.250000 0.516804
O O14 0.379000 0.018981 0.538867
O O15 0.500000 0.000000 0.500000
O O16 0.631362 0.750000 0.699621
O O17 0.680139 0.578895 0.592441
O O18 0.250000 0.481746 0.528563
O O19 0.314500 0.250000 0.534488
O O20 0.250000 0.083057 0.003917
O O21 0.341998 0.250000 0.036649
O O22 0.018977 0.250000 0.879258
#
# Coordination Sequence:
#
# PCOD8241251 Si02
#       8
#     8   8   8   8   8   8   8   8
#     4  10  19  32  52  75 102 135 172 215 267 319
#     4  10  20  33  52  76 104 137 173 218 270 321
#     4  10  20  32  45  65  98 137 175 216 260 311
#     4  10  19  34  55  78 105 138 178 225 272 318
#     4  11  20  30  48  72 101 136 173 215 261 314
#     4   9  18  32  50  74 104 138 176 217 265 320
#     4  10  20  33  50  72  99 135 176 215 258 313
#     4   9  19  34  50  72 102 135 170 214 266 321
#
# _framework density 18.503195999999999
#
# number of rings (size 3 to 8) (size 9 to 14) (size 15 to 20)
#    0.000    2.125    1.250    2.625    0.000    4.000 
#    0.000    0.000    0.000    1.875    0.000    3.500 
#    0.000    0.000    0.000    0.000    0.000    0.000 
#
# Total GULP energy -792885.547130 kJ/mol
# GULP energy per Si atom -12388.836674 kJ/mol
# Density = 1.846108 g / cm^3
# Si number density = 18.503196 Si / 1000 Ang^3
#
#
#
# Elastic Constant Matrix: (Units=GPa)
#
#
# Indices 1 2 3 4 5 6 
#
# 1 129.8272 52.4438 24.8505 0.0000 0.0000 0.0000
# 2 52.4438 115.7200 16.7320 0.0000 0.0000 0.0000
# 3 24.8505 16.7320 37.1696 0.0000 0.0000 0.0000
# 4 0.0000 0.0000 0.0000 20.0023 0.0000 0.0000
# 5 0.0000 0.0000 0.0000 0.0000 23.9174 0.0000
# 6 0.0000 0.0000 0.0000 0.0000 0.0000 28.1582
#
#
#
# Elastic Compliance Matrix: (Units=1/GPa)
#
#
# Indices 1 2 3 4 5 6 
#
# 1 0.010259 -0.003912 -0.005098 0.000000 0.000000 0.000000
# 2 -0.003912 0.010735 -0.002217 0.000000 0.000000 0.000000
# 3 -0.005098 -0.002217 0.031310 0.000000 0.000000 0.000000
# 4 0.000000 0.000000 0.000000 0.049994 0.000000 0.000000
# 5 0.000000 0.000000 0.000000 0.000000 0.041811 0.000000
# 6 0.000000 0.000000 0.000000 0.000000 0.000000 0.035514
#
#
# Mechanical properties :
#
#
# Convention : Reuss Voigt Hill
#
# Bulk Modulus (GPa) = 33.50053 52.30771 42.90412
# Shear Modulus (GPa) = 23.58212 26.99494 25.28853
#
# Velocity S-wave (km/s) = 3.57387 3.82374 3.70092
# Velocity P-wave (km/s) = 5.93082 6.91561 6.44206
#
# Compressibility (1/GPa) = 0.02985027
#
# Stress axis : x y z
#
# Youngs Moduli (GPa) = 97.47950 93.15297 31.93893
#
# Poissons Ratio (x) = 0.36442 0.16281
# Poissons Ratio (y) = 0.38135 0.07081
# Poissons Ratio (z) = 0.49691 0.20651
#
# Static dielectric constant tensor:
#      x y z
#    x 3.771560 0.000000 0.000000 
#    y 0.000000 3.437760 0.000000 
#    z 0.000000 0.000000 3.161160 
# 
# 
# High freq. dielectric constant tensor:
#      x y z
#    x 1.721990 0.000000 0.000000 
#    y 0.000000 1.715220 0.000000 
#    z 0.000000 0.000000 1.686920 
# 
# From -- ./inp_files/28240.got.cif
#   From: 2010.03.12/outbox.cif.g09.slc.cpg/sg59_15_cif.got.tgz:28240.got - 2010.04.16 16:29:54.
