data_PCOD8241304
_publ_section_title
;
Structure prediction by ZEFSAII (Michael W. Deem and Ramdas Pophale) SiO2 
 PCOD8241304
Probable space group: P M M N
;
_chemical_formula_sum "Si O2"
_cell_formula_units_Z 64
_cell_length_a 8.930180
_cell_length_b 19.566558
_cell_length_c 19.977877
_cell_angle_alpha 90.000000
_cell_angle_beta 90.000000
_cell_angle_gamma 90.000000
_cell_volume 3490.792083
_symmetry_space_group_name_H-M "P M M N"
_symmetry_group_IT_number 59
_space_group.IT_coordinate_system_code '2'
_symmetry_cell_setting 'orthorhombic'
loop_
_space_group_symop_operation_xyz
x,y,z
1/2-x,1/2-y,z
1/2+x,-y,-z
-x,1/2+y,-z
-x,-y,-z
1/2+x,1/2+y,-z
1/2-x,y,z
x,1/2-y,z
loop_
_atom_site_type_symbol
_atom_site_label
_atom_site_fract_x
_atom_site_fract_y
_atom_site_fract_z
Si Si1 0.923288 0.671888 0.848374
Si Si2 0.425035 0.554032 0.243194
Si Si3 0.426980 0.912384 0.733034
Si Si4 0.577565 0.830566 0.615733
Si Si5 0.584166 0.330947 0.515884
Si Si6 0.571782 0.174001 0.662900
Si Si7 0.422300 0.902318 0.955932
Si Si8 0.421947 0.535703 0.092020
O O1 0.750000 0.652936 0.841952
O O2 0.952317 0.750000 0.828444
O O3 0.014978 0.622638 0.800333
O O4 0.979123 0.658673 0.924318
O O5 0.250000 0.542560 0.257172
O O6 0.511342 0.488851 0.271663
O O7 0.487022 0.620767 0.281752
O O8 0.456382 0.566888 0.164672
O O9 0.250000 0.914278 0.734831
O O10 0.478846 0.869274 0.669639
O O11 0.750000 0.849764 0.626557
O O12 0.550519 0.750000 0.624676
O O13 0.527870 0.856121 0.542101
O O14 0.750000 0.362305 0.503295
O O15 0.596872 0.250000 0.514785
O O16 0.520861 0.352297 0.589026
O O17 0.750000 0.178009 0.663521
O O18 0.506645 0.250000 0.678364
O O19 0.250000 0.887710 0.939825
O O20 0.467708 0.973111 0.920746
O O21 0.451200 0.906144 0.035827
O O22 0.250000 0.509678 0.087045
#
# Coordination Sequence:
#
# PCOD8241304 Si02
#       8
#     8   8   8   8   8   8   8   8
#     4  11  23  38  55  76 106 144 182 223 273 324
#     4  10  19  34  56  80 109 143 177 217 265 317
#     4  12  24  36  52  77 107 140 180 222 266 317
#     4  10  20  34  53  77 105 139 178 218 263 316
#     4   8  14  28  51  77 104 134 172 217 261 309
#     4   8  15  30  55  84 108 134 172 217 266 318
#     4  10  19  32  52  78 104 136 179 223 264 309
#     4   9  18  32  52  77 106 140 176 216 262 310
#
# _framework density 18.333947999999999
#
# number of rings (size 3 to 8) (size 9 to 14) (size 15 to 20)
#    0.000    2.250    1.250    3.375    0.000    3.750 
#    0.000    1.875    0.000    3.375    0.000    0.000 
#    0.000    0.000    0.000    0.000    0.000    0.000 
#
# Total GULP energy -793494.048303 kJ/mol
# GULP energy per Si atom -12398.344505 kJ/mol
# Density = 1.829222 g / cm^3
# Si number density = 18.333948 Si / 1000 Ang^3
#
#
#
# Elastic Constant Matrix: (Units=GPa)
#
#
# Indices 1 2 3 4 5 6 
#
# 1 83.3109 42.4142 42.1474 0.0000 0.0000 0.0000
# 2 42.4142 81.6978 51.0740 0.0000 0.0000 0.0000
# 3 42.1474 51.0740 122.7273 0.0000 0.0000 0.0000
# 4 0.0000 0.0000 0.0000 29.0043 0.0000 0.0000
# 5 0.0000 0.0000 0.0000 0.0000 23.0831 0.0000
# 6 0.0000 0.0000 0.0000 0.0000 0.0000 18.1875
#
#
#
# Elastic Compliance Matrix: (Units=1/GPa)
#
#
# Indices 1 2 3 4 5 6 
#
# 1 0.017065 -0.007023 -0.002938 0.000000 0.000000 0.000000
# 2 -0.007023 0.019435 -0.005676 0.000000 0.000000 0.000000
# 3 -0.002938 -0.005676 0.011519 0.000000 0.000000 0.000000
# 4 0.000000 0.000000 0.000000 0.034478 0.000000 0.000000
# 5 0.000000 0.000000 0.000000 0.000000 0.043322 0.000000
# 6 0.000000 0.000000 0.000000 0.000000 0.000000 0.054983
#
#
# Mechanical properties :
#
#
# Convention : Reuss Voigt Hill
#
# Bulk Modulus (GPa) = 59.71847 62.11191 60.91519
# Shear Modulus (GPa) = 22.97202 24.19501 23.58351
#
# Velocity S-wave (km/s) = 3.54358 3.63669 3.59044
# Velocity P-wave (km/s) = 7.02751 7.18231 7.10534
#
# Compressibility (1/GPa) = 0.01674524
#
# Stress axis : x y z
#
# Youngs Moduli (GPa) = 58.59998 51.45462 86.81122
#
# Poissons Ratio (x) = 0.36135 0.25504
# Poissons Ratio (y) = 0.41153 0.49275
# Poissons Ratio (z) = 0.17216 0.29206
#
# Static dielectric constant tensor:
#      x y z
#    x 3.335970 0.000000 0.000000 
#    y 0.000000 3.248240 0.000000 
#    z 0.000000 0.000000 3.787170 
# 
# 
# High freq. dielectric constant tensor:
#      x y z
#    x 1.701250 0.000000 0.000000 
#    y 0.000000 1.681590 0.000000 
#    z 0.000000 0.000000 1.723640 
# 
# From -- ./inp_files/29569.got.cif
#   From: 2010.03.12/outbox.cif.g09.slc.cpg/sg59_15_cif.got.tgz:29569.got - 2010.04.16 16:29:54.
