data_PCOD8241341
_publ_section_title
;
Structure prediction by ZEFSAII (Michael W. Deem and Ramdas Pophale) SiO2 
 PCOD8241341
Probable space group: P M M N
;
_chemical_formula_sum "Si O2"
_cell_formula_units_Z 56
_cell_length_a 8.708827
_cell_length_b 23.096233
_cell_length_c 15.413185
_cell_angle_alpha 90.000000
_cell_angle_beta 90.000000
_cell_angle_gamma 90.000000
_cell_volume 3100.224948
_symmetry_space_group_name_H-M "P M M N"
_symmetry_group_IT_number 59
_space_group.IT_coordinate_system_code '2'
_symmetry_cell_setting 'orthorhombic'
loop_
_space_group_symop_operation_xyz
x,y,z
1/2-x,1/2-y,z
1/2+x,-y,-z
-x,1/2+y,-z
-x,-y,-z
1/2+x,1/2+y,-z
1/2-x,y,z
x,1/2-y,z
loop_
_atom_site_type_symbol
_atom_site_label
_atom_site_fract_x
_atom_site_fract_y
_atom_site_fract_z
Si Si1 0.069083 0.576598 0.679070
Si Si2 0.070055 0.938355 0.980808
Si Si3 0.069845 0.250000 0.894284
Si Si4 0.930996 0.449798 0.694502
Si Si5 0.930183 0.863130 0.836104
Si Si6 0.571093 0.366799 0.847470
Si Si7 0.569256 0.250000 0.084820
Si Si8 0.927243 0.061411 0.507040
O O1 0.250000 0.582657 0.698049
O O2 0.024741 0.596884 0.579755
O O3 0.020524 0.510352 0.697656
O O4 0.974267 0.620655 0.738241
O O5 0.250000 0.943652 0.961417
O O6 0.982537 0.915680 0.896707
O O7 0.037111 0.895290 0.059897
O O8 0.000000 0.000000 0.000000
O O9 0.250000 0.250000 0.905031
O O10 0.018202 0.193592 0.840829
O O11 0.998140 0.250000 0.989175
O O12 0.750000 0.463100 0.704677
O O13 0.990412 0.409337 0.772264
O O14 0.965885 0.414465 0.603709
O O15 0.750000 0.852605 0.844744
O O16 0.018651 0.805557 0.861833
O O17 0.750000 0.354161 0.834469
O O18 0.750000 0.250000 0.073992
O O19 0.750000 0.049852 0.498797
O O20 0.000000 0.000000 0.500000
#
# Coordination Sequence:
#
# PCOD8241341 Si02
#       8
#     8   8   4   8   8   8   4   8
#     4  10  19  32  52  81 114 147 180 221 273 323
#     4  11  22  35  53  79 112 146 176 215 266 321
#     4  12  24  38  58  79 102 137 182 225 266 316
#     4   9  17  32  54  82 112 144 181 221 268 324
#     4  12  24  38  56  79 107 142 183 226 269 321
#     4  10  21  36  55  76 105 142 179 220 266 313
#     4  12  24  42  62  79 102 135 180 229 276 326
#     4   8  15  28  49  77 110 143 178 218 264 321
#
# _framework density 18.063206000000001
#
# number of rings (size 3 to 8) (size 9 to 14) (size 15 to 20)
#    0.000    1.714    1.429    4.286    0.000    2.857 
#    0.000    0.000    0.000    0.857    0.000    3.000 
#    0.000    0.000    0.000    0.000    0.000    0.000 
#
# Total GULP energy -694131.995800 kJ/mol
# GULP energy per Si atom -12395.214211 kJ/mol
# Density = 1.802209 g / cm^3
# Si number density = 18.063206 Si / 1000 Ang^3
#
#
#
# Elastic Constant Matrix: (Units=GPa)
#
#
# Indices 1 2 3 4 5 6 
#
# 1 60.1621 14.1818 12.1436 0.0000 0.0000 0.0000
# 2 14.1818 62.8692 0.9336 0.0000 0.0000 0.0000
# 3 12.1436 0.9336 82.9960 0.0000 0.0000 0.0000
# 4 0.0000 0.0000 0.0000 15.3674 0.0000 0.0000
# 5 0.0000 0.0000 0.0000 0.0000 22.1066 0.0000
# 6 0.0000 0.0000 0.0000 0.0000 0.0000 29.9128
#
#
#
# Elastic Compliance Matrix: (Units=1/GPa)
#
#
# Indices 1 2 3 4 5 6 
#
# 1 0.018101 -0.004044 -0.002603 0.000000 0.000000 0.000000
# 2 -0.004044 0.016812 0.000403 0.000000 0.000000 0.000000
# 3 -0.002603 0.000403 0.012425 0.000000 0.000000 0.000000
# 4 0.000000 0.000000 0.000000 0.065073 0.000000 0.000000
# 5 0.000000 0.000000 0.000000 0.000000 0.045235 0.000000
# 6 0.000000 0.000000 0.000000 0.000000 0.000000 0.033431
#
#
# Mechanical properties :
#
#
# Convention : Reuss Voigt Hill
#
# Bulk Modulus (GPa) = 28.69547 28.94947 28.82247
# Shear Modulus (GPa) = 23.23612 25.39524 24.31568
#
# Velocity S-wave (km/s) = 3.59050 3.75361 3.67296
# Velocity P-wave (km/s) = 5.75409 5.90319 5.82912
#
# Compressibility (1/GPa) = 0.03484870
#
# Stress axis : x y z
#
# Youngs Moduli (GPa) = 55.24704 59.47991 80.48231
#
# Poissons Ratio (x) = 0.24056 0.20949
# Poissons Ratio (y) = 0.22344 -0.03241
# Poissons Ratio (z) = 0.14380 -0.02395
#
# Static dielectric constant tensor:
#      x y z
#    x 3.349080 0.000000 0.000000 
#    y 0.000000 3.160230 0.000000 
#    z 0.000000 0.000000 4.125470 
# 
# 
# High freq. dielectric constant tensor:
#      x y z
#    x 1.707460 0.000000 0.000000 
#    y 0.000000 1.672370 0.000000 
#    z 0.000000 0.000000 1.714570 
# 
# From -- ./inp_files/21165.got.cif
#   From: 2010.03.12/outbox.cif.g09.slc.cpg/sg59_11_cif.got.tgz:21165.got - 2010.04.16 16:29:54.
