data_PCOD8241849
_publ_section_title
;
Structure prediction by ZEFSAII (Michael W. Deem and Ramdas Pophale) SiO2 
 PCOD8241849
Probable space group: P M M N
;
_chemical_formula_sum "Si O2"
_cell_formula_units_Z 56
_cell_length_a 14.391804
_cell_length_b 14.079653
_cell_length_c 14.032620
_cell_angle_alpha 90.000000
_cell_angle_beta 90.000000
_cell_angle_gamma 90.000000
_cell_volume 2843.452332
_symmetry_space_group_name_H-M "P M M N"
_symmetry_group_IT_number 59
_space_group.IT_coordinate_system_code '2'
_symmetry_cell_setting 'orthorhombic'
loop_
_space_group_symop_operation_xyz
x,y,z
1/2-x,1/2-y,z
1/2+x,-y,-z
-x,1/2+y,-z
-x,-y,-z
1/2+x,1/2+y,-z
1/2-x,y,z
x,1/2-y,z
loop_
_atom_site_type_symbol
_atom_site_label
_atom_site_fract_x
_atom_site_fract_y
_atom_site_fract_z
Si Si1 0.354058 0.925028 0.367235
Si Si2 0.644933 0.645746 0.981561
Si Si3 0.451263 0.467316 0.860421
Si Si4 0.351400 0.483933 0.179638
Si Si5 0.856620 0.483461 0.420079
Si Si6 0.956262 0.855402 0.321518
Si Si7 0.141183 0.639259 0.760830
O O1 0.250000 0.880097 0.363991
O O2 0.359416 0.017071 0.295478
O O3 0.380746 0.951964 0.473729
O O4 0.430992 0.851645 0.328163
O O5 0.750000 0.644793 0.020287
O O6 0.600698 0.750000 0.994659
O O7 0.587163 0.566617 0.038427
O O8 0.642945 0.620377 0.868521
O O9 0.562969 0.457585 0.864717
O O10 0.416741 0.395357 0.778421
O O11 0.417092 0.574835 0.835928
O O12 0.250000 0.529407 0.152041
O O13 0.750000 0.513636 0.410104
O O14 0.918422 0.576380 0.403792
O O15 0.880099 0.398334 0.346254
O O16 0.916737 0.750000 0.335011
O O17 0.250000 0.628503 0.784843
O O18 0.110654 0.750000 0.768037
#
# Coordination Sequence:
#
# PCOD8241849 Si02
#       7
#     8   8   8   8   8   8   8
#     4   9  18  34  53  71  98 138 177 214 259 304
#     4  10  20  34  54  79 104 133 171 213 260 317
#     4  10  19  34  54  76 105 140 171 210 265 318
#     4   9  19  35  53  73  99 133 175 219 255 296
#     4   9  18  33  52  74 104 140 173 211 261 312
#     4  10  20  32  49  76 106 134 169 212 255 308
#     4   9  18  32  51  78 107 134 173 221 264 311
#
# _framework density 19.694368999999998
#
# number of rings (size 3 to 8) (size 9 to 14) (size 15 to 20)
#    0.000    2.571    0.000    1.714    0.000    2.286 
#    0.000    2.143    0.000    4.714    0.000    8.000 
#    0.000    0.000    0.000    0.000    0.000    0.000 
#
# Total GULP energy -693750.198958 kJ/mol
# GULP energy per Si atom -12388.396410 kJ/mol
# Density = 1.964954 g / cm^3
# Si number density = 19.694369 Si / 1000 Ang^3
#
#
#
# Elastic Constant Matrix: (Units=GPa)
#
#
# Indices 1 2 3 4 5 6 
#
# 1 70.5127 31.4721 12.8079 0.0000 0.0000 0.0000
# 2 31.4721 127.3066 39.3465 0.0000 0.0000 0.0000
# 3 12.8079 39.3465 83.4568 0.0000 0.0000 0.0000
# 4 0.0000 0.0000 0.0000 13.5365 0.0000 0.0000
# 5 0.0000 0.0000 0.0000 0.0000 16.8127 0.0000
# 6 0.0000 0.0000 0.0000 0.0000 0.0000 15.9432
#
#
#
# Elastic Compliance Matrix: (Units=1/GPa)
#
#
# Indices 1 2 3 4 5 6 
#
# 1 0.015975 -0.003736 -0.000690 0.000000 0.000000 0.000000
# 2 -0.003736 0.010069 -0.004174 0.000000 0.000000 0.000000
# 3 -0.000690 -0.004174 0.014056 0.000000 0.000000 0.000000
# 4 0.000000 0.000000 0.000000 0.073874 0.000000 0.000000
# 5 0.000000 0.000000 0.000000 0.000000 0.059479 0.000000
# 6 0.000000 0.000000 0.000000 0.000000 0.000000 0.062723
#
#
# Mechanical properties :
#
#
# Convention : Reuss Voigt Hill
#
# Bulk Modulus (GPa) = 43.66884 49.83658 46.75271
# Shear Modulus (GPa) = 19.15653 22.43511 20.79582
#
# Velocity S-wave (km/s) = 3.12218 3.37881 3.25303
# Velocity P-wave (km/s) = 5.93454 6.37038 6.15632
#
# Compressibility (1/GPa) = 0.02289963
#
# Stress axis : x y z
#
# Youngs Moduli (GPa) = 62.59922 99.31940 71.14471
#
# Poissons Ratio (x) = 0.37104 0.04911
# Poissons Ratio (y) = 0.23386 0.29693
# Poissons Ratio (z) = 0.04321 0.41452
#
# Static dielectric constant tensor:
#      x y z
#    x 3.815120 0.000000 0.000000 
#    y 0.000000 3.319220 0.000000 
#    z 0.000000 0.000000 3.621940 
# 
# 
# High freq. dielectric constant tensor:
#      x y z
#    x 1.780480 0.000000 0.000000 
#    y 0.000000 1.731150 0.000000 
#    z 0.000000 0.000000 1.766080 
# 
# From -- ./inp_files/23243.got.cif
#   From: 2010.03.12/outbox.cif.g09.slc.cpg/sg59_12_cif.got.tgz:23243.got - 2010.04.16 16:29:54.
