data_PCOD8241971
_publ_section_title
;
Structure prediction by ZEFSAII (Michael W. Deem and Ramdas Pophale) SiO2 
 PCOD8241971
Probable space group: P M M N
;
_chemical_formula_sum "Si O2"
_cell_formula_units_Z 56
_cell_length_a 8.812390
_cell_length_b 23.094734
_cell_length_c 13.313993
_cell_angle_alpha 90.000000
_cell_angle_beta 90.000000
_cell_angle_gamma 90.000000
_cell_volume 2709.661232
_symmetry_space_group_name_H-M "P M M N"
_symmetry_group_IT_number 59
_space_group.IT_coordinate_system_code '2'
_symmetry_cell_setting 'orthorhombic'
loop_
_space_group_symop_operation_xyz
x,y,z
1/2-x,1/2-y,z
1/2+x,-y,-z
-x,1/2+y,-z
-x,-y,-z
1/2+x,1/2+y,-z
1/2-x,y,z
x,1/2-y,z
loop_
_atom_site_type_symbol
_atom_site_label
_atom_site_fract_x
_atom_site_fract_y
_atom_site_fract_z
Si Si1 0.076140 0.815630 0.082631
Si Si2 0.069506 0.250000 0.276104
Si Si3 0.920793 0.543179 0.573484
Si Si4 0.422811 0.366027 0.588207
Si Si5 0.432412 0.250000 0.505624
Si Si6 0.430509 0.035674 0.202635
Si Si7 0.571053 0.915472 0.206464
Si Si8 0.926042 0.348378 0.143506
O O1 0.250000 0.830767 0.109635
O O2 0.036236 0.750000 0.116381
O O3 0.965913 0.860375 0.137862
O O4 0.049863 0.819380 0.964048
O O5 0.250000 0.250000 0.268913
O O6 0.010756 0.250000 0.390868
O O7 0.008888 0.308466 0.225003
O O8 0.750000 0.521631 0.585412
O O9 0.933456 0.605148 0.521193
O O10 0.993240 0.545137 0.683808
O O11 0.000000 0.500000 0.500000
O O12 0.250000 0.357143 0.621682
O O13 0.499451 0.303953 0.568957
O O14 0.495021 0.402237 0.680672
O O15 0.250000 0.250000 0.503965
O O16 0.250000 0.039133 0.193159
O O17 0.502689 0.087278 0.137996
O O18 0.488044 0.972981 0.164538
O O19 0.750000 0.927457 0.204976
O O20 0.750000 0.352660 0.172253
#
# Coordination Sequence:
#
# PCOD8241971 Si02
#       8
#     8   4   8   8   4   8   8   8
#     4  10  23  45  67  87 117 159 201 251 312 367
#     4  11  21  37  64  95 126 158 201 251 304 369
#     4  10  19  34  56  83 119 159 200 241 289 351
#     4   9  18  33  54  83 121 158 196 239 291 349
#     4   9  18  33  54  83 122 160 191 239 296 351
#     4  11  23  39  62  93 126 163 204 250 307 365
#     4  11  23  38  61  92 124 161 206 254 302 359
#     4  11  23  42  67  91 121 159 201 254 314 370
#
# _framework density 20.666789999999999
#
# number of rings (size 3 to 8) (size 9 to 14) (size 15 to 20)
#    0.000    1.714    2.143    2.357    1.000    4.857 
#    0.000    0.000    0.000    2.571    0.000    0.000 
#    0.000    0.000    0.000    0.000    0.000    0.000 
#
# Total GULP energy -694309.849986 kJ/mol
# GULP energy per Si atom -12398.390178 kJ/mol
# Density = 2.061975 g / cm^3
# Si number density = 20.666790 Si / 1000 Ang^3
#
#
#
# Elastic Constant Matrix: (Units=GPa)
#
#
# Indices 1 2 3 4 5 6 
#
# 1 69.3508 38.3801 20.0890 0.0000 0.0000 0.0000
# 2 38.3801 137.9200 21.2320 0.0000 0.0000 0.0000
# 3 20.0890 21.2320 44.8646 0.0000 0.0000 0.0000
# 4 0.0000 0.0000 0.0000 33.3207 0.0000 0.0000
# 5 0.0000 0.0000 0.0000 0.0000 24.5338 0.0000
# 6 0.0000 0.0000 0.0000 0.0000 0.0000 32.1387
#
#
#
# Elastic Compliance Matrix: (Units=1/GPa)
#
#
# Indices 1 2 3 4 5 6 
#
# 1 0.018575 -0.004194 -0.006332 0.000000 0.000000 0.000000
# 2 -0.004194 0.008767 -0.002271 0.000000 0.000000 0.000000
# 3 -0.006332 -0.002271 0.026199 0.000000 0.000000 0.000000
# 4 0.000000 0.000000 0.000000 0.030011 0.000000 0.000000
# 5 0.000000 0.000000 0.000000 0.000000 0.040760 0.000000
# 6 0.000000 0.000000 0.000000 0.000000 0.000000 0.031115
#
#
# Mechanical properties :
#
#
# Convention : Reuss Voigt Hill
#
# Bulk Modulus (GPa) = 35.78270 45.72639 40.75455
# Shear Modulus (GPa) = 26.26891 29.49427 27.88159
#
# Velocity S-wave (km/s) = 3.56907 3.78184 3.67700
# Velocity P-wave (km/s) = 5.85970 6.42210 6.14733
#
# Compressibility (1/GPa) = 0.02794647
#
# Stress axis : x y z
#
# Youngs Moduli (GPa) = 53.83610 114.05966 38.16869
#
# Poissons Ratio (x) = 0.47838 0.24170
# Poissons Ratio (y) = 0.22580 0.08668
# Poissons Ratio (z) = 0.34091 0.25904
#
# Static dielectric constant tensor:
#      x y z
#    x 3.679730 0.000000 0.000000 
#    y 0.000000 4.022850 0.000000 
#    z 0.000000 0.000000 3.877370 
# 
# 
# High freq. dielectric constant tensor:
#      x y z
#    x 1.784830 0.000000 0.000000 
#    y 0.000000 1.826010 0.000000 
#    z 0.000000 0.000000 1.806600 
# 
# From -- ./inp_files/21157.got.cif
#   From: 2010.03.12/outbox.cif.g09.slc.cpg/sg59_11_cif.got.tgz:21157.got - 2010.04.16 16:29:54.
