data_PCOD8241017
_publ_section_title
;
Structure prediction by ZEFSAII (Michael W. Deem and Ramdas Pophale) SiO2 
 PCOD8241017
Probable space group: P M M N
;
_chemical_formula_sum "Si O2"
_cell_formula_units_Z 40
_cell_length_a 8.902866
_cell_length_b 10.216076
_cell_length_c 24.339862
_cell_angle_alpha 90.000000
_cell_angle_beta 90.000000
_cell_angle_gamma 90.000000
_cell_volume 2213.767786
_symmetry_space_group_name_H-M "P M M N"
_symmetry_group_IT_number 59
_space_group.IT_coordinate_system_code '2'
_symmetry_cell_setting 'orthorhombic'
loop_
_space_group_symop_operation_xyz
x,y,z
1/2-x,1/2-y,z
1/2+x,-y,-z
-x,1/2+y,-z
-x,-y,-z
1/2+x,1/2+y,-z
1/2-x,y,z
x,1/2-y,z
loop_
_atom_site_type_symbol
_atom_site_label
_atom_site_fract_x
_atom_site_fract_y
_atom_site_fract_z
Si Si1 0.071815 0.601538 0.541467
Si Si2 0.416031 0.595099 0.663292
Si Si3 0.421619 0.404846 0.229255
Si Si4 0.572028 0.250000 0.054082
Si Si5 0.928489 0.250000 0.929700
Si Si6 0.572228 0.497931 0.122420
O O1 0.250000 0.596165 0.536498
O O2 0.015738 0.750000 0.529105
O O3 0.022493 0.556896 0.602903
O O4 0.000000 0.500000 0.500000
O O5 0.250000 0.534591 0.673196
O O6 0.402677 0.750000 0.665897
O O7 0.528542 0.544446 0.710482
O O8 0.250000 0.446394 0.219499
O O9 0.443260 0.250000 0.224027
O O10 0.527828 0.474676 0.185316
O O11 0.750000 0.250000 0.054896
O O12 0.512096 0.377871 0.085477
O O13 0.509947 0.250000 0.992126
O O14 0.750000 0.250000 0.928457
O O15 0.989344 0.375164 0.898758
O O16 0.750000 0.516191 0.117999
#
# Coordination Sequence:
#
# PCOD8241017 Si02
#       6
#     8   8   8   4   4   8
#     4   9  18  32  51  77 108 141 178 218 263 314
#     4   8  15  29  49  73 102 137 175 218 264 312
#     4  10  19  31  51  81 109 134 172 224 273 313
#     4   9  20  37  59  83 107 137 180 221 260 313
#     4  11  23  39  55  79 113 143 174 221 268 313
#     4  11  21  37  58  81 107 143 181 215 262 322
#
# _framework density 18.068742
#
# number of rings (size 3 to 8) (size 9 to 14) (size 15 to 20)
#    0.000    2.400    1.000    3.300    0.000    2.000 
#    0.000    5.000    2.200    0.000    0.000    0.000 
#    0.000    0.000    0.000    0.000    0.000    0.000 
#
# Total GULP energy -495940.786315 kJ/mol
# GULP energy per Si atom -12398.519658 kJ/mol
# Density = 1.802762 g / cm^3
# Si number density = 18.068742 Si / 1000 Ang^3
#
#
#
# Elastic Constant Matrix: (Units=GPa)
#
#
# Indices 1 2 3 4 5 6 
#
# 1 66.5367 33.8093 44.8354 0.0000 0.0000 0.0000
# 2 33.8093 96.1469 58.9988 0.0000 0.0000 0.0000
# 3 44.8354 58.9988 153.0867 0.0000 0.0000 0.0000
# 4 0.0000 0.0000 0.0000 23.3047 0.0000 0.0000
# 5 0.0000 0.0000 0.0000 0.0000 31.2204 0.0000
# 6 0.0000 0.0000 0.0000 0.0000 0.0000 -5.8505
#
#
#
# Elastic Compliance Matrix: (Units=1/GPa)
#
#
# Indices 1 2 3 4 5 6 
#
# 1 0.020127 -0.004532 -0.004148 0.000000 0.000000 0.000000
# 2 -0.004532 0.014643 -0.004316 0.000000 0.000000 0.000000
# 3 -0.004148 -0.004316 0.009410 0.000000 0.000000 0.000000
# 4 0.000000 0.000000 0.000000 0.042910 0.000000 0.000000
# 5 0.000000 0.000000 0.000000 0.000000 0.032030 0.000000
# 6 0.000000 0.000000 0.000000 0.000000 0.000000 -0.170926
#
#
# Mechanical properties :
#
#
# Convention : Reuss Voigt Hill
#
# Bulk Modulus (GPa) = 54.98059 65.67302 60.32680
# Shear Modulus (GPa) = -253.17191 21.61002 -115.78094
#
# Velocity S-wave (km/s) = -11.84990 3.46206 -8.01356
# Velocity P-wave (km/s) = 12.51927 7.23922 7.22239
#
# Compressibility (1/GPa) = 0.01818824
#
# Stress axis : x y z
#
# Youngs Moduli (GPa) = 49.68334 68.29276 106.26463
#
# Poissons Ratio (x) = 0.30952 0.44080
# Poissons Ratio (y) = 0.22518 0.45863
# Poissons Ratio (z) = 0.20609 0.29474
#
# Static dielectric constant tensor:
#      x y z
#    x 3.291100 0.000000 0.000000 
#    y 0.000000 3.592190 0.000000 
#    z 0.000000 0.000000 3.747550 
# 
# 
# High freq. dielectric constant tensor:
#      x y z
#    x 1.694630 0.000000 0.000000 
#    y 0.000000 1.668420 0.000000 
#    z 0.000000 0.000000 1.715850 
# 
# From -- ./inp_files/32414.got.cif
#   From: 2010.03.12/outbox.cif.g09.slc.cpg/sg59_17_cif.got.tgz:32414.got - 2010.04.16 16:29:54.
