data_PCOD8241889
_publ_section_title
;
Structure prediction by ZEFSAII (Michael W. Deem and Ramdas Pophale) SiO2 
 PCOD8241889
Probable space group: P M M N
;
_chemical_formula_sum "Si O2"
_cell_formula_units_Z 48
_cell_length_a 9.032717
_cell_length_b 29.773057
_cell_length_c 9.258655
_cell_angle_alpha 90.000000
_cell_angle_beta 90.000000
_cell_angle_gamma 90.000000
_cell_volume 2489.944885
_symmetry_space_group_name_H-M "P M M N"
_symmetry_group_IT_number 59
_space_group.IT_coordinate_system_code '2'
_symmetry_cell_setting 'orthorhombic'
loop_
_space_group_symop_operation_xyz
x,y,z
1/2-x,1/2-y,z
1/2+x,-y,-z
-x,1/2+y,-z
-x,-y,-z
1/2+x,1/2+y,-z
1/2-x,y,z
x,1/2-y,z
loop_
_atom_site_type_symbol
_atom_site_label
_atom_site_fract_x
_atom_site_fract_y
_atom_site_fract_z
Si Si1 0.573375 0.844855 0.532797
Si Si2 0.911391 0.898115 0.250476
Si Si3 0.421958 0.546026 0.036330
Si Si4 0.077524 0.622732 0.802912
Si Si5 0.911545 0.824497 0.020542
Si Si6 0.086507 0.750000 0.174763
Si Si7 0.916655 0.250000 0.486800
O O1 0.750000 0.839943 0.541341
O O2 0.524113 0.867644 0.380844
O O3 0.512067 0.879760 0.652675
O O4 0.502777 0.795486 0.558169
O O5 0.750000 0.918118 0.296527
O O6 0.886173 0.869632 0.107312
O O7 0.021951 0.936901 0.194481
O O8 0.250000 0.537245 0.055171
O O9 0.500000 0.500000 0.000000
O O10 0.452457 0.579375 0.901932
O O11 0.250000 0.629492 0.771075
O O12 0.013696 0.667118 0.881641
O O13 0.750000 0.805321 0.972972
O O14 0.995750 0.792687 0.128487
O O15 0.250000 0.750000 0.104796
O O16 0.098400 0.750000 0.343761
O O17 0.750000 0.250000 0.419025
#
# Coordination Sequence:
#
# PCOD8241889 Si02
#       7
#     8   8   8   8   8   4   4
#     4  11  22  38  59  85 117 156 197 238 285 340
#     4   9  19  35  57  83 112 145 186 232 280 335
#     4  10  21  38  63  89 115 146 186 234 287 347
#     4  10  22  39  57  83 116 148 184 233 289 342
#     4  10  19  34  55  78 106 144 187 233 280 329
#     4  11  21  32  51  80 111 144 188 238 281 330
#     4  11  23  36  55  82 117 158 196 238 283 334
#
# _framework density 19.277533999999999
#
# number of rings (size 3 to 8) (size 9 to 14) (size 15 to 20)
#    0.000    1.833    1.667    2.500    0.000    5.333 
#    0.000    4.167    0.000    0.000    0.000    0.000 
#    0.000    0.000    0.000    0.000    0.000    0.000 
#
# Total GULP energy -594832.960166 kJ/mol
# GULP energy per Si atom -12392.353337 kJ/mol
# Density = 1.923366 g / cm^3
# Si number density = 19.277534 Si / 1000 Ang^3
#
#
#
# Elastic Constant Matrix: (Units=GPa)
#
#
# Indices 1 2 3 4 5 6 
#
# 1 138.0749 58.7931 42.5460 0.0000 0.0000 0.0000
# 2 58.7931 75.0683 27.3496 0.0000 0.0000 0.0000
# 3 42.5460 27.3496 89.0754 0.0000 0.0000 0.0000
# 4 0.0000 0.0000 0.0000 24.2358 0.0000 0.0000
# 5 0.0000 0.0000 0.0000 0.0000 32.5612 0.0000
# 6 0.0000 0.0000 0.0000 0.0000 0.0000 39.0509
#
#
#
# Elastic Compliance Matrix: (Units=1/GPa)
#
#
# Indices 1 2 3 4 5 6 
#
# 1 0.011576 -0.007940 -0.003091 0.000000 0.000000 0.000000
# 2 -0.007940 0.020445 -0.002485 0.000000 0.000000 0.000000
# 3 -0.003091 -0.002485 0.013466 0.000000 0.000000 0.000000
# 4 0.000000 0.000000 0.000000 0.041261 0.000000 0.000000
# 5 0.000000 0.000000 0.000000 0.000000 0.030711 0.000000
# 6 0.000000 0.000000 0.000000 0.000000 0.000000 0.025608
#
#
# Mechanical properties :
#
#
# Convention : Reuss Voigt Hill
#
# Bulk Modulus (GPa) = 54.18720 62.17735 58.18227
# Shear Modulus (GPa) = 28.36866 30.73825 29.55346
#
# Velocity S-wave (km/s) = 3.84030 3.99747 3.91967
# Velocity P-wave (km/s) = 6.91620 7.32326 7.12264
#
# Compressibility (1/GPa) = 0.01845454
#
# Stress axis : x y z
#
# Youngs Moduli (GPa) = 86.38696 48.91156 74.26146
#
# Poissons Ratio (x) = 0.38835 0.22956
# Poissons Ratio (y) = 0.68590 0.18454
# Poissons Ratio (z) = 0.26704 0.12155
#
# Static dielectric constant tensor:
#      x y z
#    x 3.971540 0.000000 0.000000 
#    y 0.000000 3.301860 0.000000 
#    z 0.000000 0.000000 3.500650 
# 
# 
# High freq. dielectric constant tensor:
#      x y z
#    x 1.768480 0.000000 0.000000 
#    y 0.000000 1.727660 0.000000 
#    z 0.000000 0.000000 1.745320 
# 
# From -- ./inp_files/6365.got.cif
#   From: 2010.03.12/outbox.cif.g09.slc.cpg/sg59_4_cif.got.tgz:6365.got - 2010.04.16 16:29:54.
