data_PCOD8241624
_publ_section_title
;
Structure prediction by ZEFSAII (Michael W. Deem and Ramdas Pophale) SiO2 
 PCOD8241624
Probable space group: P M M N
;
_chemical_formula_sum "Si O2"
_cell_formula_units_Z 64
_cell_length_a 20.004088
_cell_length_b 8.802854
_cell_length_c 20.073050
_cell_angle_alpha 90.000000
_cell_angle_beta 90.000000
_cell_angle_gamma 90.000000
_cell_volume 3534.724920
_symmetry_space_group_name_H-M "P M M N"
_symmetry_group_IT_number 59
_space_group.IT_coordinate_system_code '2'
_symmetry_cell_setting 'orthorhombic'
loop_
_space_group_symop_operation_xyz
x,y,z
1/2-x,1/2-y,z
1/2+x,-y,-z
-x,1/2+y,-z
-x,-y,-z
1/2+x,1/2+y,-z
1/2-x,y,z
x,1/2-y,z
loop_
_atom_site_type_symbol
_atom_site_label
_atom_site_fract_x
_atom_site_fract_y
_atom_site_fract_z
Si Si1 0.920426 0.572913 0.834335
Si Si2 0.595363 0.573425 0.685798
Si Si3 0.325472 0.430448 0.051706
Si Si4 0.673719 0.427885 0.086418
Si Si5 0.954789 0.929451 0.332711
Si Si6 0.434211 0.571084 0.531646
Si Si7 0.825736 0.075224 0.576293
Si Si8 0.932507 0.430334 0.194965
O O1 0.922885 0.750000 0.848833
O O2 0.886970 0.538363 0.762749
O O3 0.874629 0.498405 0.892040
O O4 0.996646 0.510791 0.835119
O O5 0.577276 0.750000 0.676681
O O6 0.532270 0.475230 0.662670
O O7 0.657982 0.526750 0.640835
O O8 0.250000 0.488840 0.065654
O O9 0.327312 0.250000 0.052108
O O10 0.350390 0.488253 0.980187
O O11 0.750000 0.470887 0.104510
O O12 0.665350 0.250000 0.074179
O O13 0.626824 0.483372 0.146565
O O14 0.947991 0.750000 0.333963
O O15 0.917707 0.999480 0.396591
O O16 0.919773 0.994005 0.266459
O O17 0.500000 0.500000 0.500000
O O18 0.444694 0.750000 0.538662
O O19 0.371555 0.528517 0.485614
O O20 0.750000 0.042472 0.554926
O O21 0.836963 0.250000 0.596129
O O22 0.934291 0.250000 0.205216
#
# Coordination Sequence:
#
# PCOD8241624 Si02
#       8
#     8   8   8   8   8   8   8   8
#     4   8  16  30  48  72 100 131 168 209 253 302
#     4  10  19  33  54  77 104 139 178 217 260 313
#     4   9  17  30  48  69  97 133 170 207 250 306
#     4   9  18  33  52  73  98 130 170 214 262 315
#     4  11  21  34  54  80 107 134 171 218 263 314
#     4  11  21  35  58  82 106 140 180 219 261 314
#     4  10  22  38  54  77 110 143 176 218 266 314
#     4   9  18  34  53  73 100 133 169 213 260 311
#
# _framework density 18.106076000000002
#
# number of rings (size 3 to 8) (size 9 to 14) (size 15 to 20)
#    0.000    2.375    1.250    2.625    0.000    2.250 
#    0.000    5.000    0.000    5.250    0.000    0.000 
#    0.000    0.000    0.000    0.000    0.000    0.000 
#
# Total GULP energy -793613.536442 kJ/mol
# GULP energy per Si atom -12400.211507 kJ/mol
# Density = 1.806487 g / cm^3
# Si number density = 18.106076 Si / 1000 Ang^3
#
#
#
# Elastic Constant Matrix: (Units=GPa)
#
#
# Indices 1 2 3 4 5 6 
#
# 1 107.7202 33.4132 87.7548 0.0000 0.0000 0.0000
# 2 33.4132 58.5483 47.7338 0.0000 0.0000 0.0000
# 3 87.7548 47.7338 163.0275 0.0000 0.0000 0.0000
# 4 0.0000 0.0000 0.0000 31.0754 0.0000 0.0000
# 5 0.0000 0.0000 0.0000 0.0000 34.2402 0.0000
# 6 0.0000 0.0000 0.0000 0.0000 0.0000 19.0008
#
#
#
# Elastic Compliance Matrix: (Units=1/GPa)
#
#
# Indices 1 2 3 4 5 6 
#
# 1 0.016907 -0.002928 -0.008244 0.000000 0.000000 0.000000
# 2 -0.002928 0.022943 -0.005141 0.000000 0.000000 0.000000
# 3 -0.008244 -0.005141 0.012077 0.000000 0.000000 0.000000
# 4 0.000000 0.000000 0.000000 0.032180 0.000000 0.000000
# 5 0.000000 0.000000 0.000000 0.000000 0.029205 0.000000
# 6 0.000000 0.000000 0.000000 0.000000 0.000000 0.052629
#
#
# Mechanical properties :
#
#
# Convention : Reuss Voigt Hill
#
# Bulk Modulus (GPa) = 51.81183 74.12218 62.96700
# Shear Modulus (GPa) = 24.39018 27.55623 25.97321
#
# Velocity S-wave (km/s) = 3.67423 3.90543 3.79159
# Velocity P-wave (km/s) = 6.83211 7.83346 7.34986
#
# Compressibility (1/GPa) = 0.01930061
#
# Stress axis : x y z
#
# Youngs Moduli (GPa) = 59.14662 43.58691 82.80432
#
# Poissons Ratio (x) = 0.12762 0.68260
# Poissons Ratio (y) = 0.17318 0.42573
# Poissons Ratio (z) = 0.48758 0.22410
#
# Static dielectric constant tensor:
#      x y z
#    x 3.388280 0.000000 0.000000 
#    y 0.000000 3.191640 0.000000 
#    z 0.000000 0.000000 3.553220 
# 
# 
# High freq. dielectric constant tensor:
#      x y z
#    x 1.687080 0.000000 0.000000 
#    y 0.000000 1.688610 0.000000 
#    z 0.000000 0.000000 1.710880 
# 
# From -- ./inp_files/30891.got.cif
#   From: 2010.03.12/outbox.cif.g09.slc.cpg/sg59_16_cif.got.tgz:30891.got - 2010.04.16 16:29:54.
