data_PCOD8241618
_publ_section_title
;
Structure prediction by ZEFSAII (Michael W. Deem and Ramdas Pophale) SiO2 
 PCOD8241618
Probable space group: P M M N
;
_chemical_formula_sum "Si O2"
_cell_formula_units_Z 64
_cell_length_a 8.805632
_cell_length_b 23.122232
_cell_length_c 17.988338
_cell_angle_alpha 90.000000
_cell_angle_beta 90.000000
_cell_angle_gamma 90.000000
_cell_volume 3662.531137
_symmetry_space_group_name_H-M "P M M N"
_symmetry_group_IT_number 59
_space_group.IT_coordinate_system_code '2'
_symmetry_cell_setting 'orthorhombic'
loop_
_space_group_symop_operation_xyz
x,y,z
1/2-x,1/2-y,z
1/2+x,-y,-z
-x,1/2+y,-z
-x,-y,-z
1/2+x,1/2+y,-z
1/2-x,y,z
x,1/2-y,z
loop_
_atom_site_type_symbol
_atom_site_label
_atom_site_fract_x
_atom_site_fract_y
_atom_site_fract_z
Si Si1 0.925828 0.317722 0.770689
Si Si2 0.429319 0.994937 0.418779
Si Si3 0.429102 0.607398 0.637658
Si Si4 0.431157 0.814564 0.771917
Si Si5 0.572404 0.621804 0.365517
Si Si6 0.918614 0.818626 0.079480
Si Si7 0.924245 0.183880 0.503521
Si Si8 0.918746 0.318823 0.065119
O O1 0.750000 0.332106 0.757340
O O2 0.958879 0.250000 0.759028
O O3 0.029177 0.353482 0.714507
O O4 0.971586 0.337686 0.853536
O O5 0.250000 0.996382 0.427586
O O6 0.484547 0.046814 0.366274
O O7 0.500000 0.000000 0.500000
O O8 0.478480 0.936001 0.380045
O O9 0.250000 0.596227 0.642633
O O10 0.491383 0.641079 0.709977
O O11 0.471531 0.644731 0.565692
O O12 0.250000 0.812066 0.770705
O O13 0.494270 0.750000 0.754919
O O14 0.485786 0.836055 0.853699
O O15 0.750000 0.607982 0.368323
O O16 0.531093 0.669429 0.427229
O O17 0.750000 0.843145 0.093823
O O18 0.915192 0.750000 0.073839
O O19 0.978819 0.844490 0.001313
O O20 0.750000 0.172398 0.526844
O O21 0.948777 0.250000 0.479862
O O22 0.750000 0.344562 0.055171
O O23 0.911068 0.250000 0.060612
#
# Coordination Sequence:
#
# PCOD8241618 Si02
#       8
#     8   8   8   8   8   8   8   8
#     4  10  20  34  52  75 105 138 170 206 252 306
#     4  12  24  40  58  75  96 127 170 219 263 306
#     4  10  19  33  54  77 102 133 171 213 255 300
#     4   8  14  26  47  76 107 138 172 208 247 297
#     4  12  24  37  54  75 100 132 169 212 258 302
#     4   9  16  26  42  67 100 136 172 208 248 294
#     4  10  20  33  51  75 104 137 169 202 248 306
#     4   8  13  23  41  66  98 136 174 206 239 287
#
# _framework density 17.474254999999999
#
# number of rings (size 3 to 8) (size 9 to 14) (size 15 to 20)
#    0.000    2.125    1.250    4.500    0.000    5.500 
#    0.000    0.625    0.000    1.875    0.000    0.875 
#    0.000    0.000    0.000    0.000    0.000    0.000 
#
# Total GULP energy -793581.071997 kJ/mol
# GULP energy per Si atom -12399.704250 kJ/mol
# Density = 1.743448 g / cm^3
# Si number density = 17.474255 Si / 1000 Ang^3
#
#
#
# Elastic Constant Matrix: (Units=GPa)
#
#
# Indices 1 2 3 4 5 6 
#
# 1 74.6069 20.5352 34.6401 0.0000 0.0000 0.0000
# 2 20.5352 62.7498 32.2512 0.0000 0.0000 0.0000
# 3 34.6401 32.2512 123.2596 0.0000 0.0000 0.0000
# 4 0.0000 0.0000 0.0000 7.1733 0.0000 0.0000
# 5 0.0000 0.0000 0.0000 0.0000 20.9081 0.0000
# 6 0.0000 0.0000 0.0000 0.0000 0.0000 21.9671
#
#
#
# Elastic Compliance Matrix: (Units=1/GPa)
#
#
# Indices 1 2 3 4 5 6 
#
# 1 0.016013 -0.003382 -0.003615 0.000000 0.000000 0.000000
# 2 -0.003382 0.019127 -0.004054 0.000000 0.000000 0.000000
# 3 -0.003615 -0.004054 0.010190 0.000000 0.000000 0.000000
# 4 0.000000 0.000000 0.000000 0.139406 0.000000 0.000000
# 5 0.000000 0.000000 0.000000 0.000000 0.047828 0.000000
# 6 0.000000 0.000000 0.000000 0.000000 0.000000 0.045523
#
#
# Mechanical properties :
#
#
# Convention : Reuss Voigt Hill
#
# Bulk Modulus (GPa) = 43.05423 48.38549 45.71986
# Shear Modulus (GPa) = 16.23736 21.55567 18.89651
#
# Velocity S-wave (km/s) = 3.05161 3.51603 3.29202
# Velocity P-wave (km/s) = 6.09168 6.65079 6.37736
#
# Compressibility (1/GPa) = 0.02322652
#
# Stress axis : x y z
#
# Youngs Moduli (GPa) = 62.44887 52.28259 98.13814
#
# Poissons Ratio (x) = 0.17683 0.35479
# Poissons Ratio (y) = 0.21122 0.39786
# Poissons Ratio (z) = 0.22577 0.21196
#
# Static dielectric constant tensor:
#      x y z
#    x 3.240300 0.000000 0.000000 
#    y 0.000000 7.013060 0.000000 
#    z 0.000000 0.000000 3.508340 
# 
# 
# High freq. dielectric constant tensor:
#      x y z
#    x 1.667550 0.000000 0.000000 
#    y 0.000000 1.636420 0.000000 
#    z 0.000000 0.000000 1.685010 
# 
# From -- ./inp_files/26311.got.cif
#   From: 2010.03.12/outbox.cif.g09.slc.cpg/sg59_14_cif.got.tgz:26311.got - 2010.04.16 16:29:54.
