data_PCOD8241346
_publ_section_title
;
Structure prediction by ZEFSAII (Michael W. Deem and Ramdas Pophale) SiO2 
 PCOD8241346
Probable space group: P M M N
;
_chemical_formula_sum "Si O2"
_cell_formula_units_Z 64
_cell_length_a 9.363958
_cell_length_b 18.800643
_cell_length_c 19.917207
_cell_angle_alpha 90.000000
_cell_angle_beta 90.000000
_cell_angle_gamma 90.000000
_cell_volume 3506.393051
_symmetry_space_group_name_H-M "P M M N"
_symmetry_group_IT_number 59
_space_group.IT_coordinate_system_code '2'
_symmetry_cell_setting 'orthorhombic'
loop_
_space_group_symop_operation_xyz
x,y,z
1/2-x,1/2-y,z
1/2+x,-y,-z
-x,1/2+y,-z
-x,-y,-z
1/2+x,1/2+y,-z
1/2-x,y,z
x,1/2-y,z
loop_
_atom_site_type_symbol
_atom_site_label
_atom_site_fract_x
_atom_site_fract_y
_atom_site_fract_z
Si Si1 0.081722 0.667458 0.036339
Si Si2 0.919397 0.083559 0.094192
Si Si3 0.916796 0.072053 0.490150
Si Si4 0.083057 0.071881 0.867165
Si Si5 0.079241 0.829505 0.779288
Si Si6 0.916871 0.168262 0.613434
Si Si7 0.082464 0.922487 0.659391
Si Si8 0.417129 0.427251 0.710077
O O1 0.250000 0.657991 0.046243
O O2 0.042015 0.750000 0.025590
O O3 0.002936 0.637896 0.102017
O O4 0.024722 0.621802 0.973037
O O5 0.750000 0.086655 0.097283
O O6 0.981329 0.126395 0.157726
O O7 0.970263 0.001650 0.098255
O O8 0.750000 0.054786 0.495795
O O9 0.965752 0.129324 0.545037
O O10 0.954361 0.102187 0.416095
O O11 0.000000 0.000000 0.500000
O O12 0.250000 0.084000 0.880215
O O13 0.048729 0.068774 0.788617
O O14 0.250000 0.828561 0.779873
O O15 0.017923 0.750000 0.783369
O O16 0.018366 0.865174 0.711207
O O17 0.750000 0.157463 0.626717
O O18 0.957701 0.250000 0.604219
O O19 0.000641 0.138831 0.677637
O O20 0.250000 0.926738 0.672364
O O21 0.022175 0.001229 0.675014
O O22 0.250000 0.416611 0.696698
#
# Coordination Sequence:
#
# PCOD8241346 Si02
#       8
#     8   8   8   8   8   8   8   8
#     4  10  21  35  51  74 105 137 169 208 255 308
#     4   9  16  30  50  74 103 134 167 206 252 304
#     4  10  19  32  53  76 102 135 170 208 251 300
#     4  10  20  34  55  78 102 132 171 218 259 302
#     4   9  15  24  44  75 106 132 159 198 253 307
#     4  10  22  37  52  76 109 140 173 216 263 307
#     4   9  16  28  47  73 102 130 163 206 251 299
#     4  10  19  34  55  77 102 134 174 216 257 304
#
# _framework density 18.252374
#
# number of rings (size 3 to 8) (size 9 to 14) (size 15 to 20)
#    0.000    2.375    2.500    0.750    0.000    3.500 
#    0.000    5.000    0.000    0.000    0.000    0.000 
#    0.000    3.500    0.000    0.000    0.000    0.000 
#
# Total GULP energy -793575.914457 kJ/mol
# GULP energy per Si atom -12399.623663 kJ/mol
# Density = 1.821083 g / cm^3
# Si number density = 18.252374 Si / 1000 Ang^3
#
#
#
# Elastic Constant Matrix: (Units=GPa)
#
#
# Indices 1 2 3 4 5 6 
#
# 1 24.0170 35.2555 33.1156 0.0000 0.0000 0.0000
# 2 35.2555 130.7493 63.2651 0.0000 0.0000 0.0000
# 3 33.1156 63.2651 107.5702 0.0000 0.0000 0.0000
# 4 0.0000 0.0000 0.0000 37.1993 0.0000 0.0000
# 5 0.0000 0.0000 0.0000 0.0000 23.1227 0.0000
# 6 0.0000 0.0000 0.0000 0.0000 0.0000 22.5400
#
#
#
# Elastic Compliance Matrix: (Units=1/GPa)
#
#
# Indices 1 2 3 4 5 6 
#
# 1 0.089602 -0.015115 -0.018695 0.000000 0.000000 0.000000
# 2 -0.015115 0.013240 -0.003134 0.000000 0.000000 0.000000
# 3 -0.018695 -0.003134 0.016894 0.000000 0.000000 0.000000
# 4 0.000000 0.000000 0.000000 0.026882 0.000000 0.000000
# 5 0.000000 0.000000 0.000000 0.000000 0.043248 0.000000
# 6 0.000000 0.000000 0.000000 0.000000 0.000000 0.044366
#
#
# Mechanical properties :
#
#
# Convention : Reuss Voigt Hill
#
# Bulk Modulus (GPa) = 21.81021 58.40099 40.10560
# Shear Modulus (GPa) = 15.46067 25.28574 20.37320
#
# Velocity S-wave (km/s) = 2.91357 3.72605 3.34457
# Velocity P-wave (km/s) = 4.82635 7.11176 6.07745
#
# Compressibility (1/GPa) = 0.04585008
#
# Stress axis : x y z
#
# Youngs Moduli (GPa) = 11.16050 75.52789 59.19095
#
# Poissons Ratio (x) = 1.14159 1.10655
# Poissons Ratio (y) = 0.16869 0.18549
# Poissons Ratio (z) = 0.20864 0.23669
#
# Static dielectric constant tensor:
#      x y z
#    x 2.900190 0.000000 0.000000 
#    y 0.000000 3.540000 0.000000 
#    z 0.000000 0.000000 3.626690 
# 
# 
# High freq. dielectric constant tensor:
#      x y z
#    x 1.656440 0.000000 0.000000 
#    y 0.000000 1.713030 0.000000 
#    z 0.000000 0.000000 1.722870 
# 
# From -- ./inp_files/29403.got.cif
#   From: 2010.03.12/outbox.cif.g09.slc.cpg/sg59_15_cif.got.tgz:29403.got - 2010.04.16 16:29:54.
