data_PCOD8241199
_publ_section_title
;
Structure prediction by ZEFSAII (Michael W. Deem and Ramdas Pophale) SiO2 
 PCOD8241199
Probable space group: P M M N
;
_chemical_formula_sum "Si O2"
_cell_formula_units_Z 56
_cell_length_a 21.334806
_cell_length_b 8.976698
_cell_length_c 16.653875
_cell_angle_alpha 90.000000
_cell_angle_beta 90.000000
_cell_angle_gamma 90.000000
_cell_volume 3189.485362
_symmetry_space_group_name_H-M "P M M N"
_symmetry_group_IT_number 59
_space_group.IT_coordinate_system_code '2'
_symmetry_cell_setting 'orthorhombic'
loop_
_space_group_symop_operation_xyz
x,y,z
1/2-x,1/2-y,z
1/2+x,-y,-z
-x,1/2+y,-z
-x,-y,-z
1/2+x,1/2+y,-z
1/2-x,y,z
x,1/2-y,z
loop_
_atom_site_type_symbol
_atom_site_label
_atom_site_fract_x
_atom_site_fract_y
_atom_site_fract_z
Si Si1 0.681088 0.423758 0.145648
Si Si2 0.124605 0.419305 0.707363
Si Si3 0.029384 0.423557 0.124955
Si Si4 0.020427 0.921198 0.293888
Si Si5 0.819747 0.926951 0.456525
Si Si6 0.557226 0.572264 0.548857
Si Si7 0.912376 0.421470 0.014744
O O1 0.750000 0.496343 0.150078
O O2 0.684003 0.250000 0.162064
O O3 0.636142 0.488535 0.212959
O O4 0.653872 0.454709 0.056984
O O5 0.143117 0.250000 0.725748
O O6 0.165582 0.483552 0.633753
O O7 0.052328 0.433891 0.683526
O O8 0.036328 0.250000 0.144389
O O9 0.035294 0.514733 0.206527
O O10 0.964419 0.462907 0.081256
O O11 0.084079 0.475833 0.064049
O O12 0.042677 0.750000 0.296769
O O13 0.057613 0.017530 0.359424
O O14 0.750000 0.985570 0.482070
O O15 0.820368 0.750000 0.456430
O O16 0.875258 0.982911 0.514798
O O17 0.500000 0.500000 0.500000
O O18 0.550161 0.750000 0.543846
O O19 0.919944 0.250000 0.988434
#
# Coordination Sequence:
#
# PCOD8241199 Si02
#       7
#     8   8   8   8   8   8   8
#     4  10  20  33  49  73 107 142 173 207 255 311
#     4  10  19  32  51  75 105 140 177 210 253 311
#     4  10  19  32  52  76 100 132 168 211 260 303
#     4  11  21  34  53  79 108 139 174 217 265 313
#     4   9  18  34  54  76 104 139 179 219 260 311
#     4  11  21  35  55  80 108 141 178 221 269 317
#     4   9  18  32  49  72 102 135 169 207 251 302
#
# _framework density 17.557690999999998
#
# number of rings (size 3 to 8) (size 9 to 14) (size 15 to 20)
#    0.000    2.000    2.857    1.714    0.000    2.571 
#    0.000    0.000    0.000    3.429    0.000    0.000 
#    0.000    0.000    0.000    0.000    0.000    0.000 
#
# Total GULP energy -694315.816207 kJ/mol
# GULP energy per Si atom -12398.496718 kJ/mol
# Density = 1.751773 g / cm^3
# Si number density = 17.557691 Si / 1000 Ang^3
#
#
#
# Elastic Constant Matrix: (Units=GPa)
#
#
# Indices 1 2 3 4 5 6 
#
# 1 87.5663 32.5034 46.1079 0.0000 0.0000 0.0000
# 2 32.5034 60.7980 41.2693 0.0000 0.0000 0.0000
# 3 46.1079 41.2693 106.4028 0.0000 0.0000 0.0000
# 4 0.0000 0.0000 0.0000 33.4552 0.0000 0.0000
# 5 0.0000 0.0000 0.0000 0.0000 19.5155 0.0000
# 6 0.0000 0.0000 0.0000 0.0000 0.0000 15.8397
#
#
#
# Elastic Compliance Matrix: (Units=1/GPa)
#
#
# Indices 1 2 3 4 5 6 
#
# 1 0.015920 -0.005196 -0.004883 0.000000 0.000000 0.000000
# 2 -0.005196 0.024022 -0.007065 0.000000 0.000000 0.000000
# 3 -0.004883 -0.007065 0.014255 0.000000 0.000000 0.000000
# 4 0.000000 0.000000 0.000000 0.029891 0.000000 0.000000
# 5 0.000000 0.000000 0.000000 0.000000 0.051241 0.000000
# 6 0.000000 0.000000 0.000000 0.000000 0.000000 0.063133
#
#
# Mechanical properties :
#
#
# Convention : Reuss Voigt Hill
#
# Bulk Modulus (GPa) = 50.23434 54.94759 52.59097
# Shear Modulus (GPa) = 20.88673 22.75451 21.82062
#
# Velocity S-wave (km/s) = 3.45281 3.60389 3.52915
# Velocity P-wave (km/s) = 6.67600 6.97716 6.82824
#
# Compressibility (1/GPa) = 0.01990670
#
# Stress axis : x y z
#
# Youngs Moduli (GPa) = 62.81418 41.62877 70.15236
#
# Poissons Ratio (x) = 0.21632 0.34257
# Poissons Ratio (y) = 0.32640 0.49565
# Poissons Ratio (z) = 0.30674 0.29412
#
# Static dielectric constant tensor:
#      x y z
#    x 3.390510 0.000000 0.000000 
#    y 0.000000 3.194420 0.000000 
#    z 0.000000 0.000000 3.254860 
# 
# 
# High freq. dielectric constant tensor:
#      x y z
#    x 1.661350 0.000000 0.000000 
#    y 0.000000 1.669690 0.000000 
#    z 0.000000 0.000000 1.679310 
# 
# From -- ./inp_files/20914.got.cif
#   From: 2010.03.12/outbox.cif.g09.slc.cpg/sg59_11_cif.got.tgz:20914.got - 2010.04.16 16:29:54.
