data_PCOD8241788
_publ_section_title
;
Structure prediction by ZEFSAII (Michael W. Deem and Ramdas Pophale) SiO2 
 PCOD8241788
Probable space group: P M M N
;
_chemical_formula_sum "Si O2"
_cell_formula_units_Z 56
_cell_length_a 13.952593
_cell_length_b 20.814492
_cell_length_c 9.777102
_cell_angle_alpha 90.000000
_cell_angle_beta 90.000000
_cell_angle_gamma 90.000000
_cell_volume 2839.428178
_symmetry_space_group_name_H-M "P M M N"
_symmetry_group_IT_number 59
_space_group.IT_coordinate_system_code '2'
_symmetry_cell_setting 'orthorhombic'
loop_
_space_group_symop_operation_xyz
x,y,z
1/2-x,1/2-y,z
1/2+x,-y,-z
-x,1/2+y,-z
-x,-y,-z
1/2+x,1/2+y,-z
1/2-x,y,z
x,1/2-y,z
loop_
_atom_site_type_symbol
_atom_site_label
_atom_site_fract_x
_atom_site_fract_y
_atom_site_fract_z
Si Si1 0.643615 0.109442 0.101380
Si Si2 0.637759 0.922131 0.737390
Si Si3 0.358662 0.116767 0.557545
Si Si4 0.440424 0.946735 0.160029
Si Si5 0.545876 0.821348 0.930866
Si Si6 0.494015 0.320713 0.758760
Si Si7 0.856369 0.981469 0.213688
O O1 0.750000 0.140054 0.090039
O O2 0.565750 0.165559 0.108556
O O3 0.636567 0.059410 0.228280
O O4 0.623196 0.060873 0.974632
O O5 0.750000 0.933145 0.731681
O O6 0.599793 0.892544 0.594922
O O7 0.613012 0.873607 0.859668
O O8 0.590516 0.991840 0.754041
O O9 0.250000 0.141542 0.550697
O O10 0.417569 0.171453 0.637297
O O11 0.366566 0.048429 0.635288
O O12 0.429245 0.879535 0.246721
O O13 0.554660 0.954159 0.122515
O O14 0.571706 0.750000 0.877402
O O15 0.559417 0.824971 0.093994
O O16 0.542755 0.250000 0.743707
O O17 0.750000 0.963577 0.152008
#
# Coordination Sequence:
#
# PCOD8241788 Si02
#       7
#     8   8   8   8   8   8   8
#     4  10  19  33  56  84 112 147 186 233 285 334
#     4  11  23  37  56  84 117 152 189 236 292 343
#     4   9  20  35  53  81 114 146 186 232 282 337
#     4  10  19  34  55  83 118 145 188 233 287 335
#     4  10  22  39  56  82 116 149 190 237 285 343
#     4   9  20  36  57  80 109 146 185 229 279 335
#     4   9  17  30  52  80 110 141 181 229 277 328
#
# _framework density 19.722280999999999
#
# number of rings (size 3 to 8) (size 9 to 14) (size 15 to 20)
#    0.000    2.286    1.429    0.857    4.000    4.286 
#    0.000    2.857    0.000    1.286    0.000    0.000 
#    0.000    2.857    0.000    0.000    0.000    0.000 
#
# Total GULP energy -693799.033628 kJ/mol
# GULP energy per Si atom -12389.268458 kJ/mol
# Density = 1.967739 g / cm^3
# Si number density = 19.722281 Si / 1000 Ang^3
#
#
#
# Elastic Constant Matrix: (Units=GPa)
#
#
# Indices 1 2 3 4 5 6 
#
# 1 74.4002 25.7086 15.1019 0.0000 0.0000 0.0000
# 2 25.7086 146.5514 33.1506 0.0000 0.0000 0.0000
# 3 15.1019 33.1506 63.8813 0.0000 0.0000 0.0000
# 4 0.0000 0.0000 0.0000 15.4625 0.0000 0.0000
# 5 0.0000 0.0000 0.0000 0.0000 19.7833 0.0000
# 6 0.0000 0.0000 0.0000 0.0000 0.0000 13.7759
#
#
#
# Elastic Compliance Matrix: (Units=1/GPa)
#
#
# Indices 1 2 3 4 5 6 
#
# 1 0.014628 -0.002021 -0.002409 0.000000 0.000000 0.000000
# 2 -0.002021 0.008010 -0.003679 0.000000 0.000000 0.000000
# 3 -0.002409 -0.003679 0.018133 0.000000 0.000000 0.000000
# 4 0.000000 0.000000 0.000000 0.064673 0.000000 0.000000
# 5 0.000000 0.000000 0.000000 0.000000 0.050548 0.000000
# 6 0.000000 0.000000 0.000000 0.000000 0.000000 0.072590
#
#
# Mechanical properties :
#
#
# Convention : Reuss Voigt Hill
#
# Bulk Modulus (GPa) = 40.72940 48.08391 44.40666
# Shear Modulus (GPa) = 19.76398 23.86246 21.81322
#
# Velocity S-wave (km/s) = 3.16905 3.48217 3.32929
# Velocity P-wave (km/s) = 5.83839 6.37187 6.11096
#
# Compressibility (1/GPa) = 0.02455229
#
# Stress axis : x y z
#
# Youngs Moduli (GPa) = 68.36072 124.83895 55.14858
#
# Poissons Ratio (x) = 0.25232 0.13287
# Poissons Ratio (y) = 0.13817 0.20290
# Poissons Ratio (z) = 0.16471 0.45929
#
# Static dielectric constant tensor:
#      x y z
#    x 3.593480 0.000000 0.000000 
#    y 0.000000 3.743540 0.000000 
#    z 0.000000 0.000000 3.451540 
# 
# 
# High freq. dielectric constant tensor:
#      x y z
#    x 1.754230 0.000000 0.000000 
#    y 0.000000 1.770360 0.000000 
#    z 0.000000 0.000000 1.742180 
# 
# From -- ./inp_files/9355.got.cif
#   From: 2010.03.12/outbox.cif.g09.slc.cpg/sg59_5_cif.got.tgz:9355.got - 2010.04.16 16:29:54.
