data_PCOD8241120
_publ_section_title
;
Structure prediction by ZEFSAII (Michael W. Deem and Ramdas Pophale) SiO2 
 PCOD8241120
Probable space group: P M M N
;
_chemical_formula_sum "Si O2"
_cell_formula_units_Z 64
_cell_length_a 19.588865
_cell_length_b 9.447217
_cell_length_c 20.002738
_cell_angle_alpha 90.000000
_cell_angle_beta 90.000000
_cell_angle_gamma 90.000000
_cell_volume 3701.711864
_symmetry_space_group_name_H-M "P M M N"
_symmetry_group_IT_number 59
_space_group.IT_coordinate_system_code '2'
_symmetry_cell_setting 'orthorhombic'
loop_
_space_group_symop_operation_xyz
x,y,z
1/2-x,1/2-y,z
1/2+x,-y,-z
-x,1/2+y,-z
-x,-y,-z
1/2+x,1/2+y,-z
1/2-x,y,z
x,1/2-y,z
loop_
_atom_site_type_symbol
_atom_site_label
_atom_site_fract_x
_atom_site_fract_y
_atom_site_fract_z
Si Si1 0.328338 0.585038 0.583504
Si Si2 0.430779 0.585526 0.697556
Si Si3 0.671991 0.910609 0.918401
Si Si4 0.328204 0.413691 0.453147
Si Si5 0.391690 0.585479 0.196353
Si Si6 0.563344 0.585466 0.027334
Si Si7 0.413292 0.085437 0.324252
Si Si8 0.450648 0.411871 0.823993
O O1 0.250000 0.551892 0.602501
O O2 0.340107 0.750000 0.569613
O O3 0.375962 0.531194 0.643685
O O4 0.350759 0.503208 0.517154
O O5 0.421057 0.750000 0.712401
O O6 0.506284 0.552006 0.669684
O O7 0.416001 0.506202 0.766949
O O8 0.750000 0.925275 0.939987
O O9 0.654415 0.750000 0.895760
O O10 0.657759 0.016367 0.857860
O O11 0.629217 0.953053 0.983768
O O12 0.250000 0.446191 0.432862
O O13 0.338044 0.250000 0.471320
O O14 0.377325 0.459310 0.392916
O O15 0.373391 0.750000 0.204160
O O16 0.379023 0.508451 0.266723
O O17 0.468621 0.560688 0.172180
O O18 0.543587 0.750000 0.023487
O O19 0.579880 0.544171 0.104110
O O20 0.500000 0.500000 0.000000
O O21 0.400279 0.250000 0.307628
O O22 0.434614 0.250000 0.806071
#
# Coordination Sequence:
#
# PCOD8241120 Si02
#       8
#     8   8   8   8   8   8   8   8
#     4   9  18  33  51  70  95 127 163 204 248 295
#     4   9  18  32  50  72  97 128 164 200 242 295
#     4  10  21  35  51  73 102 136 171 206 248 300
#     4   9  18  32  49  69  94 126 163 201 242 293
#     4  10  19  32  50  73 101 131 164 204 249 295
#     4  10  19  33  54  76  99 130 169 209 250 298
#     4   9  18  32  49  71 100 131 164 201 242 293
#     4   9  18  32  50  75 102 125 159 206 250 291
#
# _framework density 17.289297999999999
#
# number of rings (size 3 to 8) (size 9 to 14) (size 15 to 20)
#    0.000    2.625    1.250    0.375    0.000    3.250 
#    0.000    1.875    0.000    0.750    0.000    0.000 
#    0.000    0.000    0.000    0.000    0.000    0.000 
#
# Total GULP energy -793742.324090 kJ/mol
# GULP energy per Si atom -12402.223814 kJ/mol
# Density = 1.724995 g / cm^3
# Si number density = 17.289298 Si / 1000 Ang^3
#
#
#
# Elastic Constant Matrix: (Units=GPa)
#
#
# Indices 1 2 3 4 5 6 
#
# 1 82.0938 44.1331 78.6404 0.0000 0.0000 0.0000
# 2 44.1331 69.6402 72.6297 0.0000 0.0000 0.0000
# 3 78.6404 72.6297 165.5399 0.0000 0.0000 0.0000
# 4 0.0000 0.0000 0.0000 33.6671 0.0000 0.0000
# 5 0.0000 0.0000 0.0000 0.0000 30.0916 0.0000
# 6 0.0000 0.0000 0.0000 0.0000 0.0000 19.6571
#
#
#
# Elastic Compliance Matrix: (Units=1/GPa)
#
#
# Indices 1 2 3 4 5 6 
#
# 1 0.023652 -0.006030 -0.008590 0.000000 0.000000 0.000000
# 2 -0.006030 0.028010 -0.009425 0.000000 0.000000 0.000000
# 3 -0.008590 -0.009425 0.014257 0.000000 0.000000 0.000000
# 4 0.000000 0.000000 0.000000 0.029703 0.000000 0.000000
# 5 0.000000 0.000000 0.000000 0.000000 0.033232 0.000000
# 6 0.000000 0.000000 0.000000 0.000000 0.000000 0.050872
#
#
# Mechanical properties :
#
#
# Convention : Reuss Voigt Hill
#
# Bulk Modulus (GPa) = 56.08878 78.67561 67.38220
# Shear Modulus (GPa) = 21.38962 24.80787 23.09874
#
# Velocity S-wave (km/s) = 3.52114 3.79208 3.65912
# Velocity P-wave (km/s) = 7.00307 8.04843 7.54388
#
# Compressibility (1/GPa) = 0.01782888
#
# Stress axis : x y z
#
# Youngs Moduli (GPa) = 42.28032 35.70128 70.14183
#
# Poissons Ratio (x) = 0.21527 0.60254
# Poissons Ratio (y) = 0.25494 0.66108
# Poissons Ratio (z) = 0.36320 0.33648
#
# Static dielectric constant tensor:
#      x y z
#    x 3.151070 0.000000 0.000000 
#    y 0.000000 3.230280 0.000000 
#    z 0.000000 0.000000 3.302390 
# 
# 
# High freq. dielectric constant tensor:
#      x y z
#    x 1.653180 0.000000 0.000000 
#    y 0.000000 1.666940 0.000000 
#    z 0.000000 0.000000 1.671970 
# 
# From -- ./inp_files/28294.got.cif
#   From: 2010.03.12/outbox.cif.g09.slc.cpg/sg59_15_cif.got.tgz:28294.got - 2010.04.16 16:29:54.
