data_PCOD8241808
_publ_section_title
;
Structure prediction by ZEFSAII (Michael W. Deem and Ramdas Pophale) SiO2 
 PCOD8241808
Probable space group: P M M N
;
_chemical_formula_sum "Si O2"
_cell_formula_units_Z 48
_cell_length_a 8.955595
_cell_length_b 14.627376
_cell_length_c 18.079507
_cell_angle_alpha 90.000000
_cell_angle_beta 90.000000
_cell_angle_gamma 90.000000
_cell_volume 2368.358564
_symmetry_space_group_name_H-M "P M M N"
_symmetry_group_IT_number 59
_space_group.IT_coordinate_system_code '2'
_symmetry_cell_setting 'orthorhombic'
loop_
_space_group_symop_operation_xyz
x,y,z
1/2-x,1/2-y,z
1/2+x,-y,-z
-x,1/2+y,-z
-x,-y,-z
1/2+x,1/2+y,-z
1/2-x,y,z
x,1/2-y,z
loop_
_atom_site_type_symbol
_atom_site_label
_atom_site_fract_x
_atom_site_fract_y
_atom_site_fract_z
Si Si1 0.917395 0.750000 0.098105
Si Si2 0.422212 0.750000 0.240919
Si Si3 0.927394 0.439484 0.215835
Si Si4 0.072222 0.250000 0.247974
Si Si5 0.426205 0.250000 0.420525
Si Si6 0.922293 0.406330 0.512876
Si Si7 0.420063 0.045281 0.931947
Si Si8 0.923075 0.074685 0.682310
O O1 0.750000 0.750000 0.133926
O O2 0.938927 0.845257 0.054745
O O3 0.052463 0.750000 0.154656
O O4 0.250000 0.750000 0.263216
O O5 0.495012 0.841987 0.272017
O O6 0.750000 0.428244 0.219795
O O7 0.979206 0.504601 0.146836
O O8 0.002524 0.339607 0.208686
O O9 0.984741 0.485056 0.292946
O O10 0.250000 0.250000 0.236352
O O11 0.028554 0.250000 0.334573
O O12 0.250000 0.250000 0.429834
O O13 0.492313 0.163280 0.461244
O O14 0.750000 0.406713 0.489356
O O15 0.942193 0.388899 0.599452
O O16 0.000000 0.500000 0.500000
O O17 0.250000 0.015805 0.937024
O O18 0.500000 0.000000 0.000000
O O19 0.750000 0.053465 0.699978
#
# Coordination Sequence:
#
# PCOD8241808 Si02
#       8
#     4   4   8   4   4   8   8   8
#     4  10  20  40  62  88 124 157 190 239 296 347
#     4  10  19  33  58  88 115 150 194 237 289 354
#     4  11  23  40  63  92 122 156 205 259 306 362
#     4  11  25  43  63  86 119 163 208 257 309 370
#     4  11  24  42  61  86 120 162 212 259 312 373
#     4  11  23  39  59  85 121 161 205 258 312 371
#     4  10  23  41  64  93 128 163 201 248 300 359
#     4  10  21  37  58  87 122 159 201 250 306 368
#
# _framework density 20.267201
#
# number of rings (size 3 to 8) (size 9 to 14) (size 15 to 20)
#    0.000    1.500    1.667    3.000    0.000   10.667 
#    0.000    2.500    0.000    0.000    0.000    0.000 
#    0.000    0.000    0.000    0.000    0.000    0.000 
#
# Total GULP energy -594922.668363 kJ/mol
# GULP energy per Si atom -12394.222258 kJ/mol
# Density = 2.022107 g / cm^3
# Si number density = 20.267201 Si / 1000 Ang^3
#
#
#
# Elastic Constant Matrix: (Units=GPa)
#
#
# Indices 1 2 3 4 5 6 
#
# 1 79.6238 51.5566 45.4713 0.0000 0.0000 0.0000
# 2 51.5566 158.5084 44.0651 0.0000 0.0000 0.0000
# 3 45.4713 44.0651 87.4324 0.0000 0.0000 0.0000
# 4 0.0000 0.0000 0.0000 35.2991 0.0000 0.0000
# 5 0.0000 0.0000 0.0000 0.0000 35.1003 0.0000
# 6 0.0000 0.0000 0.0000 0.0000 0.0000 35.6617
#
#
#
# Elastic Compliance Matrix: (Units=1/GPa)
#
#
# Indices 1 2 3 4 5 6 
#
# 1 0.020017 -0.004206 -0.008291 0.000000 0.000000 0.000000
# 2 -0.004206 0.008221 -0.001956 0.000000 0.000000 0.000000
# 3 -0.008291 -0.001956 0.016735 0.000000 0.000000 0.000000
# 4 0.000000 0.000000 0.000000 0.028329 0.000000 0.000000
# 5 0.000000 0.000000 0.000000 0.000000 0.028490 0.000000
# 6 0.000000 0.000000 0.000000 0.000000 0.000000 0.028041
#
#
# Mechanical properties :
#
#
# Convention : Reuss Voigt Hill
#
# Bulk Modulus (GPa) = 62.23590 67.52788 64.88189
# Shear Modulus (GPa) = 30.47053 33.51031 31.99042
#
# Velocity S-wave (km/s) = 3.88163 4.07064 3.97726
# Velocity P-wave (km/s) = 7.13188 7.44880 7.29206
#
# Compressibility (1/GPa) = 0.01606790
#
# Stress axis : x y z
#
# Youngs Moduli (GPa) = 49.95761 121.64674 59.75601
#
# Poissons Ratio (x) = 0.51164 0.49541
# Poissons Ratio (y) = 0.21012 0.11686
# Poissons Ratio (z) = 0.41417 0.23790
#
# Static dielectric constant tensor:
#      x y z
#    x 3.735650 0.000000 0.000000 
#    y 0.000000 3.962750 0.000000 
#    z 0.000000 0.000000 3.301100 
# 
# 
# High freq. dielectric constant tensor:
#      x y z
#    x 1.790660 0.000000 0.000000 
#    y 0.000000 1.813000 0.000000 
#    z 0.000000 0.000000 1.783640 
# 
# From -- ./inp_files/25680.got.cif
#   From: 2010.03.12/outbox.cif.g09.slc.cpg/sg59_13_cif.got.tgz:25680.got - 2010.04.16 16:29:54.
