data_PCOD8241895
_publ_section_title
;
Structure prediction by ZEFSAII (Michael W. Deem and Ramdas Pophale) SiO2 
 PCOD8241895
Probable space group: P M M N
;
_chemical_formula_sum "Si O2"
_cell_formula_units_Z 48
_cell_length_a 18.307708
_cell_length_b 16.537246
_cell_length_c 8.216209
_cell_angle_alpha 90.000000
_cell_angle_beta 90.000000
_cell_angle_gamma 90.000000
_cell_volume 2487.531803
_symmetry_space_group_name_H-M "P M M N"
_symmetry_group_IT_number 59
_space_group.IT_coordinate_system_code '2'
_symmetry_cell_setting 'orthorhombic'
loop_
_space_group_symop_operation_xyz
x,y,z
1/2-x,1/2-y,z
1/2+x,-y,-z
-x,1/2+y,-z
-x,-y,-z
1/2+x,1/2+y,-z
1/2-x,y,z
x,1/2-y,z
loop_
_atom_site_type_symbol
_atom_site_label
_atom_site_fract_x
_atom_site_fract_y
_atom_site_fract_z
Si Si1 0.083684 0.906091 0.119554
Si Si2 0.836407 0.538572 0.060069
Si Si3 0.545985 0.961808 0.644955
Si Si4 0.666074 0.998857 0.423801
Si Si5 0.955349 0.843594 0.907114
Si Si6 0.666129 0.338868 0.582205
O O1 0.119626 0.848827 0.253974
O O2 0.037702 0.977081 0.204759
O O3 0.027696 0.853430 0.015078
O O4 0.146534 0.949966 0.013405
O O5 0.750000 0.557132 0.039448
O O6 0.859706 0.533256 0.249413
O O7 0.884575 0.608885 0.977252
O O8 0.524967 0.875303 0.723403
O O9 0.500000 0.000000 0.500000
O O10 0.627350 0.951801 0.572172
O O11 0.750000 0.981135 0.450073
O O12 0.646551 0.094598 0.444634
O O13 0.934075 0.750000 0.897812
O O14 0.750000 0.347873 0.634063
O O15 0.649899 0.250000 0.508517
#
# Coordination Sequence:
#
# PCOD8241895 Si02
#       6
#     8   8   8   8   8   8
#     4  10  19  34  55  79 107 143 183 221 268 330
#     4  10  20  37  60  82 108 145 186 224 266 325
#     4  10  19  35  56  76 103 141 182 222 264 325
#     4   9  18  33  54  77 103 142 186 224 266 323
#     4  11  23  37  56  83 113 143 180 232 285 327
#     4   9  17  30  49  76 109 141 177 226 279 325
#
# _framework density 19.296234999999999
#
# number of rings (size 3 to 8) (size 9 to 14) (size 15 to 20)
#    0.000    2.167    0.000    5.000    0.000    4.333 
#    0.000   11.667    0.000    5.000    0.000    0.000 
#    0.000    0.000    0.000    0.000    0.000    0.000 
#
# Total GULP energy -594835.988438 kJ/mol
# GULP energy per Si atom -12392.416426 kJ/mol
# Density = 1.925232 g / cm^3
# Si number density = 19.296235 Si / 1000 Ang^3
#
#
#
# Elastic Constant Matrix: (Units=GPa)
#
#
# Indices 1 2 3 4 5 6 
#
# 1 76.2815 38.5205 36.5782 0.0000 0.0000 0.0000
# 2 38.5205 107.1194 45.9592 0.0000 0.0000 0.0000
# 3 36.5782 45.9592 102.3454 0.0000 0.0000 0.0000
# 4 0.0000 0.0000 0.0000 23.0219 0.0000 0.0000
# 5 0.0000 0.0000 0.0000 0.0000 33.1157 0.0000
# 6 0.0000 0.0000 0.0000 0.0000 0.0000 24.0063
#
#
#
# Elastic Compliance Matrix: (Units=1/GPa)
#
#
# Indices 1 2 3 4 5 6 
#
# 1 0.017372 -0.004438 -0.004216 0.000000 0.000000 0.000000
# 2 -0.004438 0.012697 -0.004116 0.000000 0.000000 0.000000
# 3 -0.004216 -0.004116 0.013126 0.000000 0.000000 0.000000
# 4 0.000000 0.000000 0.000000 0.043437 0.000000 0.000000
# 5 0.000000 0.000000 0.000000 0.000000 0.030197 0.000000
# 6 0.000000 0.000000 0.000000 0.000000 0.000000 0.041656
#
#
# Mechanical properties :
#
#
# Convention : Reuss Voigt Hill
#
# Bulk Modulus (GPa) = 56.63866 58.65134 57.64500
# Shear Modulus (GPa) = 26.32837 27.00799 26.66818
#
# Velocity S-wave (km/s) = 3.69783 3.74525 3.72161
# Velocity P-wave (km/s) = 6.90274 7.01169 6.95743
#
# Compressibility (1/GPa) = 0.01765578
#
# Stress axis : x y z
#
# Youngs Moduli (GPa) = 57.56359 78.75776 76.18682
#
# Poissons Ratio (x) = 0.34955 0.32118
# Poissons Ratio (y) = 0.25549 0.31355
# Poissons Ratio (z) = 0.24267 0.32413
#
# Static dielectric constant tensor:
#      x y z
#    x 3.749040 0.000000 0.000000 
#    y 0.000000 3.454280 0.000000 
#    z 0.000000 0.000000 3.893430 
# 
# 
# High freq. dielectric constant tensor:
#      x y z
#    x 1.760200 0.000000 0.000000 
#    y 0.000000 1.725630 0.000000 
#    z 0.000000 0.000000 1.756110 
# 
# From -- ./inp_files/10386.got.cif
#   From: 2010.03.12/outbox.cif.g09.slc.cpg/sg59_6_cif.got.tgz:10386.got - 2010.04.16 16:29:54.
