data_PCOD8241919
_publ_section_title
;
Structure prediction by ZEFSAII (Michael W. Deem and Ramdas Pophale) SiO2 
 PCOD8241919
Probable space group: P M M N
;
_chemical_formula_sum "Si O2"
_cell_formula_units_Z 64
_cell_length_a 13.767765
_cell_length_b 20.282810
_cell_length_c 11.317302
_cell_angle_alpha 90.000000
_cell_angle_beta 90.000000
_cell_angle_gamma 90.000000
_cell_volume 3160.344832
_symmetry_space_group_name_H-M "P M M N"
_symmetry_group_IT_number 59
_space_group.IT_coordinate_system_code '2'
_symmetry_cell_setting 'orthorhombic'
loop_
_space_group_symop_operation_xyz
x,y,z
1/2-x,1/2-y,z
1/2+x,-y,-z
-x,1/2+y,-z
-x,-y,-z
1/2+x,1/2+y,-z
1/2-x,y,z
x,1/2-y,z
loop_
_atom_site_type_symbol
_atom_site_label
_atom_site_fract_x
_atom_site_fract_y
_atom_site_fract_z
Si Si1 0.634716 0.065689 0.573990
Si Si2 0.637946 0.173690 0.983747
Si Si3 0.984042 0.443186 0.096079
Si Si4 0.134963 0.439305 0.278752
Si Si5 0.445594 0.825271 0.265478
Si Si6 0.356944 0.366884 0.686619
Si Si7 0.858975 0.019577 0.321157
Si Si8 0.136628 0.320704 0.430006
O O1 0.750000 0.070056 0.577677
O O2 0.587632 0.132664 0.621561
O O3 0.599805 0.055379 0.438735
O O4 0.598759 0.006514 0.658845
O O5 0.750000 0.158101 0.016566
O O6 0.612143 0.250000 0.016202
O O7 0.625767 0.162085 0.844030
O O8 0.565254 0.123611 0.048674
O O9 0.921156 0.468155 0.205552
O O10 0.091534 0.430350 0.147384
O O11 0.000000 0.500000 0.000000
O O12 0.250000 0.438364 0.266747
O O13 0.089740 0.379798 0.355929
O O14 0.441562 0.750000 0.305611
O O15 0.555734 0.846310 0.225026
O O16 0.250000 0.348507 0.739284
O O17 0.358943 0.442611 0.649822
O O18 0.380611 0.326524 0.568987
O O19 0.750000 0.044437 0.294789
O O20 0.250000 0.323121 0.403025
O O21 0.092992 0.250000 0.389260
#
# Coordination Sequence:
#
# PCOD8241919 Si02
#       8
#     8   8   8   8   8   8   8   8
#     4  10  20  37  60  88 121 157 194 246 313 376
#     4  10  23  46  68  84 115 165 217 265 311 366
#     4  12  25  39  60  92 119 159 212 266 310 354
#     4  10  21  37  59  88 121 158 197 241 302 369
#     4  11  23  37  60  90 116 153 205 255 306 362
#     4  10  19  34  55  85 126 162 186 223 288 370
#     4  10  21  37  60  87 120 157 196 249 313 369
#     4   9  17  31  52  80 117 158 193 222 269 350
#
# _framework density 20.250955000000001
#
# number of rings (size 3 to 8) (size 9 to 14) (size 15 to 20)
#    0.000    1.750    1.250    3.375    1.750    5.000 
#    0.000    1.250    0.000    1.500    0.000    0.000 
#    0.000    0.000    0.000    0.000    0.000    0.000 
#
# Total GULP energy -793310.361604 kJ/mol
# GULP energy per Si atom -12395.474400 kJ/mol
# Density = 2.020486 g / cm^3
# Si number density = 20.250955 Si / 1000 Ang^3
#
#
#
# Elastic Constant Matrix: (Units=GPa)
#
#
# Indices 1 2 3 4 5 6 
#
# 1 72.1085 48.0651 45.4796 0.0000 0.0000 0.0000
# 2 48.0651 127.4120 54.0484 0.0000 0.0000 0.0000
# 3 45.4796 54.0484 96.9502 0.0000 0.0000 0.0000
# 4 0.0000 0.0000 0.0000 30.3834 0.0000 0.0000
# 5 0.0000 0.0000 0.0000 0.0000 37.8701 0.0000
# 6 0.0000 0.0000 0.0000 0.0000 0.0000 26.5973
#
#
#
# Elastic Compliance Matrix: (Units=1/GPa)
#
#
# Indices 1 2 3 4 5 6 
#
# 1 0.021992 -0.005134 -0.007454 0.000000 0.000000 0.000000
# 2 -0.005134 0.011478 -0.003990 0.000000 0.000000 0.000000
# 3 -0.007454 -0.003990 0.016036 0.000000 0.000000 0.000000
# 4 0.000000 0.000000 0.000000 0.032913 0.000000 0.000000
# 5 0.000000 0.000000 0.000000 0.000000 0.026406 0.000000
# 6 0.000000 0.000000 0.000000 0.000000 0.000000 0.037598
#
#
# Mechanical properties :
#
#
# Convention : Reuss Voigt Hill
#
# Bulk Modulus (GPa) = 61.16852 65.73965 63.45409
# Shear Modulus (GPa) = 27.02279 28.89535 27.95907
#
# Velocity S-wave (km/s) = 3.65690 3.78148 3.71971
# Velocity P-wave (km/s) = 6.93552 7.18325 7.06047
#
# Compressibility (1/GPa) = 0.01634828
#
# Stress axis : x y z
#
# Youngs Moduli (GPa) = 45.47191 87.12240 62.35986
#
# Poissons Ratio (x) = 0.44729 0.46484
# Poissons Ratio (y) = 0.23346 0.24884
# Poissons Ratio (z) = 0.33895 0.34766
#
# Static dielectric constant tensor:
#      x y z
#    x 3.876310 0.000000 0.000000 
#    y 0.000000 3.860690 0.000000 
#    z 0.000000 0.000000 3.511620 
# 
# 
# High freq. dielectric constant tensor:
#      x y z
#    x 1.800190 0.000000 0.000000 
#    y 0.000000 1.797550 0.000000 
#    z 0.000000 0.000000 1.766740 
# 
# From -- ./inp_files/17209.got.cif
#   From: 2010.03.12/outbox.cif.g09.slc.cpg/sg59_9_cif.got.tgz:17209.got - 2010.04.16 16:29:54.
