data_PCOD8241965
_publ_section_title
;
Structure prediction by ZEFSAII (Michael W. Deem and Ramdas Pophale) SiO2 
 PCOD8241965
Probable space group: P M M N
;
_chemical_formula_sum "Si O2"
_cell_formula_units_Z 48
_cell_length_a 17.546160
_cell_length_b 13.994782
_cell_length_c 10.245333
_cell_angle_alpha 90.000000
_cell_angle_beta 90.000000
_cell_angle_gamma 90.000000
_cell_volume 2515.789509
_symmetry_space_group_name_H-M "P M M N"
_symmetry_group_IT_number 59
_space_group.IT_coordinate_system_code '2'
_symmetry_cell_setting 'orthorhombic'
loop_
_space_group_symop_operation_xyz
x,y,z
1/2-x,1/2-y,z
1/2+x,-y,-z
-x,1/2+y,-z
-x,-y,-z
1/2+x,1/2+y,-z
1/2-x,y,z
x,1/2-y,z
loop_
_atom_site_type_symbol
_atom_site_label
_atom_site_fract_x
_atom_site_fract_y
_atom_site_fract_z
Si Si1 0.161412 0.972185 0.046581
Si Si2 0.840391 0.355916 0.706421
Si Si3 0.079544 0.358339 0.153444
Si Si4 0.402480 0.860975 0.808992
Si Si5 0.162497 0.357372 0.420105
Si Si6 0.838520 0.043982 0.441586
O O1 0.250000 0.995284 0.062493
O O2 0.128181 0.912617 0.168732
O O3 0.116349 0.072750 0.044349
O O4 0.149718 0.911762 0.916070
O O5 0.750000 0.351709 0.714180
O O6 0.875717 0.250000 0.710063
O O7 0.866636 0.405831 0.573793
O O8 0.102142 0.250000 0.117227
O O9 0.110936 0.384352 0.296685
O O10 0.989503 0.372086 0.150527
O O11 0.378528 0.750000 0.795890
O O12 0.389900 0.914942 0.673094
O O13 0.250000 0.368712 0.373710
O O14 0.145352 0.250000 0.470279
O O15 0.146694 0.430299 0.539441
O O16 0.750000 0.065814 0.411708
#
# Coordination Sequence:
#
# PCOD8241965 Si02
#       6
#     8   8   8   8   8   8
#     4  11  21  37  59  83 109 146 194 237 280 330
#     4   9  17  30  51  78 107 139 184 235 273 317
#     4  10  21  38  59  83 113 148 190 234 284 339
#     4  11  24  38  55  82 120 156 181 223 291 352
#     4   9  17  33  58  84 109 142 189 240 282 325
#     4  10  19  34  56  83 111 146 189 232 280 333
#
# _framework density 19.079497
#
# number of rings (size 3 to 8) (size 9 to 14) (size 15 to 20)
#    0.000    2.000    1.667    2.500    0.000    4.333 
#    0.000    0.833    0.000    3.000    0.000    0.000 
#    0.000    0.000    0.000    0.000    0.000    0.000 
#
# Total GULP energy -595279.589310 kJ/mol
# GULP energy per Si atom -12401.658111 kJ/mol
# Density = 1.903607 g / cm^3
# Si number density = 19.079497 Si / 1000 Ang^3
#
#
#
# Elastic Constant Matrix: (Units=GPa)
#
#
# Indices 1 2 3 4 5 6 
#
# 1 39.3353 25.4387 8.1761 0.0000 0.0000 0.0000
# 2 25.4387 130.6848 41.7841 0.0000 0.0000 0.0000
# 3 8.1761 41.7841 90.6746 0.0000 0.0000 0.0000
# 4 0.0000 0.0000 0.0000 31.5365 0.0000 0.0000
# 5 0.0000 0.0000 0.0000 0.0000 21.5488 0.0000
# 6 0.0000 0.0000 0.0000 0.0000 0.0000 26.4424
#
#
#
# Elastic Compliance Matrix: (Units=1/GPa)
#
#
# Indices 1 2 3 4 5 6 
#
# 1 0.029084 -0.005656 -0.000016 0.000000 0.000000 0.000000
# 2 -0.005656 0.010074 -0.004132 0.000000 0.000000 0.000000
# 3 -0.000016 -0.004132 0.012934 0.000000 0.000000 0.000000
# 4 0.000000 0.000000 0.000000 0.031709 0.000000 0.000000
# 5 0.000000 0.000000 0.000000 0.000000 0.046406 0.000000
# 6 0.000000 0.000000 0.000000 0.000000 0.000000 0.037818
#
#
# Mechanical properties :
#
#
# Convention : Reuss Voigt Hill
#
# Bulk Modulus (GPa) = 30.78534 45.72138 38.25336
# Shear Modulus (GPa) = 25.19366 28.25860 26.72613
#
# Velocity S-wave (km/s) = 3.63775 3.85268 3.74676
# Velocity P-wave (km/s) = 5.81504 6.61865 6.22981
#
# Compressibility (1/GPa) = 0.03248300
#
# Stress axis : x y z
#
# Youngs Moduli (GPa) = 34.38344 99.26278 77.31490
#
# Poissons Ratio (x) = 0.56146 0.00124
# Poissons Ratio (y) = 0.19448 0.31949
# Poissons Ratio (z) = 0.00055 0.41019
#
# Static dielectric constant tensor:
#      x y z
#    x 3.261200 0.000000 0.000000 
#    y 0.000000 3.872850 0.000000 
#    z 0.000000 0.000000 3.298450 
# 
# 
# High freq. dielectric constant tensor:
#      x y z
#    x 1.721200 0.000000 0.000000 
#    y 0.000000 1.761830 0.000000 
#    z 0.000000 0.000000 1.722710 
# 
# From -- ./inp_files/8989.got.cif
#   From: 2010.03.12/outbox.cif.g09.slc.cpg/sg59_5_cif.got.tgz:8989.got - 2010.04.16 16:29:54.
