data_PCOD8241891
_publ_section_title
;
Structure prediction by ZEFSAII (Michael W. Deem and Ramdas Pophale) SiO2 
 PCOD8241891
Probable space group: P M M N
;
_chemical_formula_sum "Si O2"
_cell_formula_units_Z 64
_cell_length_a 14.491421
_cell_length_b 24.996625
_cell_length_c 9.239297
_cell_angle_alpha 90.000000
_cell_angle_beta 90.000000
_cell_angle_gamma 90.000000
_cell_volume 3346.811684
_symmetry_space_group_name_H-M "P M M N"
_symmetry_group_IT_number 59
_space_group.IT_coordinate_system_code '2'
_symmetry_cell_setting 'orthorhombic'
loop_
_space_group_symop_operation_xyz
x,y,z
1/2-x,1/2-y,z
1/2+x,-y,-z
-x,1/2+y,-z
-x,-y,-z
1/2+x,1/2+y,-z
1/2-x,y,z
x,1/2-y,z
loop_
_atom_site_type_symbol
_atom_site_label
_atom_site_fract_x
_atom_site_fract_y
_atom_site_fract_z
Si Si1 0.990822 0.310152 0.632159
Si Si2 0.646228 0.137603 0.827689
Si Si3 0.144967 0.925691 0.645702
Si Si4 0.572871 0.309479 0.327176
Si Si5 0.514432 0.651086 0.946456
Si Si6 0.648971 0.687708 0.176820
Si Si7 0.353439 0.969087 0.331287
Si Si8 0.008603 0.035085 0.146176
O O1 0.991340 0.250000 0.691582
O O2 0.893824 0.334643 0.683962
O O3 0.997744 0.314043 0.460828
O O4 0.081325 0.338750 0.701673
O O5 0.750000 0.158933 0.860235
O O6 0.648966 0.075028 0.794595
O O7 0.579959 0.149637 0.961440
O O8 0.250000 0.942642 0.669411
O O9 0.140174 0.860894 0.665226
O O10 0.111721 0.944452 0.485222
O O11 0.088845 0.956292 0.771611
O O12 0.622249 0.250000 0.331745
O O13 0.507547 0.311631 0.188875
O O14 0.547267 0.592203 0.902091
O O15 0.601157 0.678060 0.023200
O O16 0.750000 0.659856 0.183046
O O17 0.662660 0.750000 0.204588
O O18 0.250000 0.992795 0.350601
O O19 0.422702 0.013320 0.269738
O O20 0.000000 0.000000 0.000000
#
# Coordination Sequence:
#
# PCOD8241891 Si02
#       8
#     8   8   8   8   8   8   8   8
#     4   9  18  33  55  81 110 145 189 233 273 330
#     4  10  19  34  55  78 109 148 188 228 275 334
#     4  10  22  39  60  85 114 151 191 231 279 339
#     4  10  20  35  56  85 119 151 181 223 280 338
#     4  10  21  35  55  81 115 145 187 226 283 338
#     4   9  18  35  57  79 107 145 186 229 279 333
#     4  10  20  37  58  81 108 145 192 236 282 330
#     4  11  22  37  57  81 110 149 187 236 284 331
#
# _framework density 19.122678000000001
#
# number of rings (size 3 to 8) (size 9 to 14) (size 15 to 20)
#    0.000    2.125    2.500    0.750    0.000    4.000 
#    0.000    1.875    0.000    3.000    0.000    0.000 
#    0.000    0.000    0.000    0.000    0.000    0.000 
#
# Total GULP energy -793047.506296 kJ/mol
# GULP energy per Si atom -12391.367286 kJ/mol
# Density = 1.907915 g / cm^3
# Si number density = 19.122678 Si / 1000 Ang^3
#
#
#
# Elastic Constant Matrix: (Units=GPa)
#
#
# Indices 1 2 3 4 5 6 
#
# 1 125.1353 36.9271 43.6752 0.0000 0.0000 0.0000
# 2 36.9271 63.4746 39.7574 0.0000 0.0000 0.0000
# 3 43.6752 39.7574 111.1298 0.0000 0.0000 0.0000
# 4 0.0000 0.0000 0.0000 29.4415 0.0000 0.0000
# 5 0.0000 0.0000 0.0000 0.0000 18.1831 0.0000
# 6 0.0000 0.0000 0.0000 0.0000 0.0000 21.4508
#
#
#
# Elastic Compliance Matrix: (Units=1/GPa)
#
#
# Indices 1 2 3 4 5 6 
#
# 1 0.010126 -0.004380 -0.002413 0.000000 0.000000 0.000000
# 2 -0.004380 0.022198 -0.006220 0.000000 0.000000 0.000000
# 3 -0.002413 -0.006220 0.012172 0.000000 0.000000 0.000000
# 4 0.000000 0.000000 0.000000 0.033966 0.000000 0.000000
# 5 0.000000 0.000000 0.000000 0.000000 0.054996 0.000000
# 6 0.000000 0.000000 0.000000 0.000000 0.000000 0.046618
#
#
# Mechanical properties :
#
#
# Convention : Reuss Voigt Hill
#
# Bulk Modulus (GPa) = 54.13929 60.05101 57.09515
# Shear Modulus (GPa) = 23.55616 25.77375 24.66495
#
# Velocity S-wave (km/s) = 3.51357 3.67524 3.59531
# Velocity P-wave (km/s) = 6.69576 7.03428 6.86711
#
# Compressibility (1/GPa) = 0.01847087
#
# Stress axis : x y z
#
# Youngs Moduli (GPa) = 98.75689 45.04832 82.15505
#
# Poissons Ratio (x) = 0.19729 0.19822
# Poissons Ratio (y) = 0.43252 0.51104
# Poissons Ratio (z) = 0.23828 0.28022
#
# Static dielectric constant tensor:
#      x y z
#    x 3.536520 0.000000 0.000000 
#    y 0.000000 3.464730 0.000000 
#    z 0.000000 0.000000 3.651240 
# 
# 
# High freq. dielectric constant tensor:
#      x y z
#    x 1.728060 0.000000 0.000000 
#    y 0.000000 1.731720 0.000000 
#    z 0.000000 0.000000 1.756510 
# 
# From -- ./inp_files/9603.got.cif
#   From: 2010.03.12/outbox.cif.g09.slc.cpg/sg59_5_cif.got.tgz:9603.got - 2010.04.16 16:29:54.
