data_PCOD8241518
_publ_section_title
;
Structure prediction by ZEFSAII (Michael W. Deem and Ramdas Pophale) SiO2 
 PCOD8241518
Probable space group: P M M N
;
_chemical_formula_sum "Si O2"
_cell_formula_units_Z 48
_cell_length_a 8.985713
_cell_length_b 16.282811
_cell_length_c 17.269718
_cell_angle_alpha 90.000000
_cell_angle_beta 90.000000
_cell_angle_gamma 90.000000
_cell_volume 2526.778490
_symmetry_space_group_name_H-M "P M M N"
_symmetry_group_IT_number 59
_space_group.IT_coordinate_system_code '2'
_symmetry_cell_setting 'orthorhombic'
loop_
_space_group_symop_operation_xyz
x,y,z
1/2-x,1/2-y,z
1/2+x,-y,-z
-x,1/2+y,-z
-x,-y,-z
1/2+x,1/2+y,-z
1/2-x,y,z
x,1/2-y,z
loop_
_atom_site_type_symbol
_atom_site_label
_atom_site_fract_x
_atom_site_fract_y
_atom_site_fract_z
Si Si1 0.072968 0.250000 0.566027
Si Si2 0.426753 0.067099 0.166146
Si Si3 0.073185 0.102149 0.847152
Si Si4 0.926578 0.750000 0.258945
Si Si5 0.426249 0.340666 0.317244
Si Si6 0.073740 0.414168 0.476471
Si Si7 0.572974 0.841724 0.985738
O O1 0.250000 0.250000 0.563082
O O2 0.010306 0.250000 0.653787
O O3 0.016601 0.334438 0.525287
O O4 0.250000 0.058334 0.165428
O O5 0.483226 0.124511 0.235682
O O6 0.499958 0.980377 0.182185
O O7 0.486876 0.103575 0.085144
O O8 0.250000 0.094806 0.846527
O O9 0.016132 0.170832 0.787526
O O10 0.014317 0.121722 0.933490
O O11 0.750000 0.750000 0.260981
O O12 0.250000 0.333830 0.316514
O O13 0.495154 0.250000 0.328724
O O14 0.475336 0.398958 0.387764
O O15 0.250000 0.423526 0.486217
O O16 0.000000 0.500000 0.500000
O O17 0.750000 0.839157 0.985366
O O18 0.509643 0.750000 0.975782
#
# Coordination Sequence:
#
# PCOD8241518 Si02
#       7
#     4   8   8   4   8   8   8
#     4   9  18  34  55  76 100 136 177 209 247 309
#     4  10  20  31  50  77 102 126 161 206 250 294
#     4  10  19  33  52  72  98 130 166 207 245 287
#     4   9  18  32  51  72  94 128 171 205 237 287
#     4   9  17  33  54  75 100 133 170 205 243 296
#     4  10  20  35  56  79 104 134 171 214 258 305
#     4   9  16  30  51  73  96 129 170 204 236 285
#
# _framework density 18.996521999999999
#
# number of rings (size 3 to 8) (size 9 to 14) (size 15 to 20)
#    0.000    2.500    1.667    1.000    2.333    2.000 
#    0.000    0.833    0.000    5.000    0.000    0.000 
#    0.000    0.000    0.000    0.000    0.000    0.000 
#
# Total GULP energy -595061.536985 kJ/mol
# GULP energy per Si atom -12397.115354 kJ/mol
# Density = 1.895328 g / cm^3
# Si number density = 18.996522 Si / 1000 Ang^3
#
#
#
# Elastic Constant Matrix: (Units=GPa)
#
#
# Indices 1 2 3 4 5 6 
#
# 1 13.7003 23.5940 17.5568 0.0000 0.0000 0.0000
# 2 23.5940 166.2059 70.0290 0.0000 0.0000 0.0000
# 3 17.5568 70.0290 160.1897 0.0000 0.0000 0.0000
# 4 0.0000 0.0000 0.0000 32.9322 0.0000 0.0000
# 5 0.0000 0.0000 0.0000 0.0000 11.1068 0.0000
# 6 0.0000 0.0000 0.0000 0.0000 0.0000 27.4501
#
#
#
# Elastic Compliance Matrix: (Units=1/GPa)
#
#
# Indices 1 2 3 4 5 6 
#
# 1 0.100936 -0.011850 -0.005882 0.000000 0.000000 0.000000
# 2 -0.011850 0.008766 -0.002534 0.000000 0.000000 0.000000
# 3 -0.005882 -0.002534 0.007995 0.000000 0.000000 0.000000
# 4 0.000000 0.000000 0.000000 0.030365 0.000000 0.000000
# 5 0.000000 0.000000 0.000000 0.000000 0.090035 0.000000
# 6 0.000000 0.000000 0.000000 0.000000 0.000000 0.036430
#
#
# Mechanical properties :
#
#
# Convention : Reuss Voigt Hill
#
# Bulk Modulus (GPa) = 12.95910 62.49506 37.72708
# Shear Modulus (GPa) = 14.67216 29.55889 22.11552
#
# Velocity S-wave (km/s) = 2.78215 3.94892 3.41572
# Velocity P-wave (km/s) = 4.14212 7.33222 5.95477
#
# Compressibility (1/GPa) = 0.07716586
#
# Stress axis : x y z
#
# Youngs Moduli (GPa) = 9.90722 114.07310 125.08051
#
# Poissons Ratio (x) = 1.35178 0.73575
# Poissons Ratio (y) = 0.11740 0.31689
# Poissons Ratio (z) = 0.05828 0.28901
#
# Static dielectric constant tensor:
#      x y z
#    x 2.842500 0.000000 0.000000 
#    y 0.000000 3.605260 0.000000 
#    z 0.000000 0.000000 3.858630 
# 
# 
# High freq. dielectric constant tensor:
#      x y z
#    x 1.672070 0.000000 0.000000 
#    y 0.000000 1.754070 0.000000 
#    z 0.000000 0.000000 1.757100 
# 
# From -- ./inp_files/25615.got.cif
#   From: 2010.03.12/outbox.cif.g09.slc.cpg/sg59_13_cif.got.tgz:25615.got - 2010.04.16 16:29:54.
