data_PCOD8241664
_publ_section_title
;
Structure prediction by ZEFSAII (Michael W. Deem and Ramdas Pophale) SiO2 
 PCOD8241664
Probable space group: P M M N
;
_chemical_formula_sum "Si O2"
_cell_formula_units_Z 64
_cell_length_a 24.099778
_cell_length_b 9.394078
_cell_length_c 15.233685
_cell_angle_alpha 90.000000
_cell_angle_beta 90.000000
_cell_angle_gamma 90.000000
_cell_volume 3448.833076
_symmetry_space_group_name_H-M "P M M N"
_symmetry_group_IT_number 59
_space_group.IT_coordinate_system_code '2'
_symmetry_cell_setting 'orthorhombic'
loop_
_space_group_symop_operation_xyz
x,y,z
1/2-x,1/2-y,z
1/2+x,-y,-z
-x,1/2+y,-z
-x,-y,-z
1/2+x,1/2+y,-z
1/2-x,y,z
x,1/2-y,z
loop_
_atom_site_type_symbol
_atom_site_label
_atom_site_fract_x
_atom_site_fract_y
_atom_site_fract_z
Si Si1 0.186048 0.919164 0.013644
Si Si2 0.111085 0.583759 0.169302
Si Si3 0.186615 0.412986 0.685104
Si Si4 0.002740 0.083725 0.910389
Si Si5 0.629015 0.410729 0.453005
Si Si6 0.374503 0.416684 0.859004
Si Si7 0.587879 0.083033 0.642214
Si Si8 0.992013 0.413091 0.412316
O O1 0.250000 0.965020 0.017578
O O2 0.179672 0.750000 0.002998
O O3 0.157108 0.979138 0.102985
O O4 0.156535 0.993411 0.932515
O O5 0.112006 0.750000 0.154222
O O6 0.125182 0.549252 0.271543
O O7 0.048933 0.529116 0.147945
O O8 0.250000 0.437155 0.712997
O O9 0.173469 0.250000 0.664419
O O10 0.175183 0.496062 0.594770
O O11 0.148637 0.467621 0.765025
O O12 0.998253 0.250000 0.932305
O O13 0.059970 0.049996 0.859942
O O14 0.000000 0.000000 0.000000
O O15 0.651083 0.250000 0.457939
O O16 0.619116 0.465876 0.553190
O O17 0.573565 0.419391 0.392582
O O18 0.361980 0.250000 0.874716
O O19 0.572332 0.250000 0.635866
O O20 0.530770 0.994300 0.657760
O O21 0.011738 0.250000 0.422795
O O22 0.000000 0.500000 0.500000
#
# Coordination Sequence:
#
# PCOD8241664 Si02
#       8
#     8   8   8   8   8   8   8   8
#     4  10  20  35  56  79 104 140 182 221 263 312
#     4   9  18  33  53  79 111 142 176 217 258 315
#     4  10  22  38  55  76 102 136 180 224 266 322
#     4  10  19  33  54  80 110 142 175 214 268 322
#     4   9  19  34  51  76 105 133 171 218 264 308
#     4  10  21  36  56  81 106 137 177 220 271 324
#     4   9  18  33  54  77 106 141 176 215 262 311
#     4   9  17  30  48  74 104 133 169 211 255 308
#
# _framework density 18.557001
#
# number of rings (size 3 to 8) (size 9 to 14) (size 15 to 20)
#    0.000    2.500    1.250    1.500    1.750    4.000 
#    0.000    1.875    0.000    2.250    0.000    0.000 
#    0.000    0.000    0.000    0.000    0.000    0.000 
#
# Total GULP energy -793192.281231 kJ/mol
# GULP energy per Si atom -12393.629394 kJ/mol
# Density = 1.851476 g / cm^3
# Si number density = 18.557001 Si / 1000 Ang^3
#
#
#
# Elastic Constant Matrix: (Units=GPa)
#
#
# Indices 1 2 3 4 5 6 
#
# 1 90.9357 19.7180 45.2769 0.0000 0.0000 0.0000
# 2 19.7180 42.0799 25.5614 0.0000 0.0000 0.0000
# 3 45.2769 25.5614 118.2144 0.0000 0.0000 0.0000
# 4 0.0000 0.0000 0.0000 25.1752 0.0000 0.0000
# 5 0.0000 0.0000 0.0000 0.0000 25.8401 0.0000
# 6 0.0000 0.0000 0.0000 0.0000 0.0000 26.1925
#
#
#
# Elastic Compliance Matrix: (Units=1/GPa)
#
#
# Indices 1 2 3 4 5 6 
#
# 1 0.014105 -0.003831 -0.004574 0.000000 0.000000 0.000000
# 2 -0.003831 0.028398 -0.004673 0.000000 0.000000 0.000000
# 3 -0.004574 -0.004673 0.011222 0.000000 0.000000 0.000000
# 4 0.000000 0.000000 0.000000 0.039722 0.000000 0.000000
# 5 0.000000 0.000000 0.000000 0.000000 0.038699 0.000000
# 6 0.000000 0.000000 0.000000 0.000000 0.000000 0.038179
#
#
# Mechanical properties :
#
#
# Convention : Reuss Voigt Hill
#
# Bulk Modulus (GPa) = 36.27335 48.03805 42.15570
# Shear Modulus (GPa) = 24.31080 26.15316 25.23198
#
# Velocity S-wave (km/s) = 3.62340 3.75819 3.69141
# Velocity P-wave (km/s) = 6.09055 6.69141 6.39804
#
# Compressibility (1/GPa) = 0.02756845
#
# Stress axis : x y z
#
# Youngs Moduli (GPa) = 70.89793 35.21354 89.11450
#
# Poissons Ratio (x) = 0.13490 0.40760
# Poissons Ratio (y) = 0.27160 0.41645
# Poissons Ratio (z) = 0.32428 0.16456
#
# Static dielectric constant tensor:
#      x y z
#    x 4.066340 0.000000 0.000000 
#    y 0.000000 3.472070 0.000000 
#    z 0.000000 0.000000 3.593040 
# 
# 
# High freq. dielectric constant tensor:
#      x y z
#    x 1.711390 0.000000 0.000000 
#    y 0.000000 1.702870 0.000000 
#    z 0.000000 0.000000 1.719650 
# 
# From -- ./inp_files/24665.got.cif
#   From: 2010.03.12/outbox.cif.g09.slc.cpg/sg59_13_cif.got.tgz:24665.got - 2010.04.16 16:29:54.
