data_PCOD8241287
_publ_section_title
;
Structure prediction by ZEFSAII (Michael W. Deem and Ramdas Pophale) SiO2 
 PCOD8241287
Probable space group: P M M N
;
_chemical_formula_sum "Si O2"
_cell_formula_units_Z 48
_cell_length_a 8.741657
_cell_length_b 33.124068
_cell_length_c 9.169818
_cell_angle_alpha 90.000000
_cell_angle_beta 90.000000
_cell_angle_gamma 90.000000
_cell_volume 2655.205539
_symmetry_space_group_name_H-M "P M M N"
_symmetry_group_IT_number 59
_space_group.IT_coordinate_system_code '2'
_symmetry_cell_setting 'orthorhombic'
loop_
_space_group_symop_operation_xyz
x,y,z
1/2-x,1/2-y,z
1/2+x,-y,-z
-x,1/2+y,-z
-x,-y,-z
1/2+x,1/2+y,-z
1/2-x,y,z
x,1/2-y,z
loop_
_atom_site_type_symbol
_atom_site_label
_atom_site_fract_x
_atom_site_fract_y
_atom_site_fract_z
Si Si1 0.431456 0.541766 0.551712
Si Si2 0.431689 0.628491 0.062925
Si Si3 0.581854 0.665489 0.635425
Si Si4 0.929498 0.205732 0.113010
Si Si5 0.578562 0.916723 0.812291
Si Si6 0.431123 0.385558 0.623935
O O1 0.500000 0.500000 0.500000
O O2 0.250000 0.539608 0.557173
O O3 0.493508 0.549805 0.715051
O O4 0.481217 0.575609 0.436282
O O5 0.250000 0.627811 0.083212
O O6 0.516616 0.623515 0.214099
O O7 0.491714 0.671107 0.995275
O O8 0.481784 0.591538 0.958919
O O9 0.750000 0.685388 0.631906
O O10 0.470691 0.696269 0.718359
O O11 0.587745 0.623503 0.719275
O O12 0.525883 0.654327 0.472047
O O13 0.750000 0.206476 0.102339
O O14 0.995973 0.250000 0.070087
O O15 0.750000 0.931588 0.852643
O O16 0.250000 0.393865 0.616000
#
# Coordination Sequence:
#
# PCOD8241287 Si02
#       6
#     8   8   8   8   8   8
#     4  11  21  35  55  79 105 134 170 211 256 303
#     4  10  19  32  52  77 104 137 175 212 255 308
#     4   8  16  30  49  71  95 126 165 205 245 294
#     4   9  18  32  50  73 101 132 168 210 254 301
#     4   9  17  32  52  74 101 134 170 207 249 299
#     4  10  20  35  53  75 103 134 169 210 257 305
#
# _framework density 18.077697000000001
#
# number of rings (size 3 to 8) (size 9 to 14) (size 15 to 20)
#    0.000    2.500    0.000    4.000    0.000    5.667 
#    0.000    1.667    0.000    3.000    0.000    0.000 
#    0.000    0.000    0.000    0.000    0.000    0.000 
#
# Total GULP energy -594969.014460 kJ/mol
# GULP energy per Si atom -12395.187801 kJ/mol
# Density = 1.803655 g / cm^3
# Si number density = 18.077697 Si / 1000 Ang^3
#
#
#
# Elastic Constant Matrix: (Units=GPa)
#
#
# Indices 1 2 3 4 5 6 
#
# 1 75.0513 22.4084 14.9564 0.0000 0.0000 0.0000
# 2 22.4084 69.8355 24.3857 0.0000 0.0000 0.0000
# 3 14.9564 24.3857 101.5878 0.0000 0.0000 0.0000
# 4 0.0000 0.0000 0.0000 17.6977 0.0000 0.0000
# 5 0.0000 0.0000 0.0000 0.0000 34.0849 0.0000
# 6 0.0000 0.0000 0.0000 0.0000 0.0000 22.4958
#
#
#
# Elastic Compliance Matrix: (Units=1/GPa)
#
#
# Indices 1 2 3 4 5 6 
#
# 1 0.014856 -0.004369 -0.001138 0.000000 0.000000 0.000000
# 2 -0.004369 0.016915 -0.003417 0.000000 0.000000 0.000000
# 3 -0.001138 -0.003417 0.010832 0.000000 0.000000 0.000000
# 4 0.000000 0.000000 0.000000 0.056505 0.000000 0.000000
# 5 0.000000 0.000000 0.000000 0.000000 0.029338 0.000000
# 6 0.000000 0.000000 0.000000 0.000000 0.000000 0.044453
#
#
# Mechanical properties :
#
#
# Convention : Reuss Voigt Hill
#
# Bulk Modulus (GPa) = 40.39996 41.10840 40.75418
# Shear Modulus (GPa) = 25.12594 27.17062 26.14828
#
# Velocity S-wave (km/s) = 3.73216 3.88105 3.80733
# Velocity P-wave (km/s) = 6.40067 6.54772 6.47461
#
# Compressibility (1/GPa) = 0.02475250
#
# Stress axis : x y z
#
# Youngs Moduli (GPa) = 67.31454 59.12074 92.32315
#
# Poissons Ratio (x) = 0.25832 0.10509
# Poissons Ratio (y) = 0.29412 0.31547
# Poissons Ratio (z) = 0.07662 0.20201
#
# Static dielectric constant tensor:
#      x y z
#    x 3.444360 0.000000 0.000000 
#    y 0.000000 3.438990 0.000000 
#    z 0.000000 0.000000 3.471910 
# 
# 
# High freq. dielectric constant tensor:
#      x y z
#    x 1.708160 0.000000 0.000000 
#    y 0.000000 1.678050 0.000000 
#    z 0.000000 0.000000 1.697510 
# 
# From -- ./inp_files/6232.got.cif
#   From: 2010.03.12/outbox.cif.g09.slc.cpg/sg59_4_cif.got.tgz:6232.got - 2010.04.16 16:29:54.
