data_PCOD8241519
_publ_section_title
;
Structure prediction by ZEFSAII (Michael W. Deem and Ramdas Pophale) SiO2 
 PCOD8241519
Probable space group: P M M N
;
_chemical_formula_sum "Si O2"
_cell_formula_units_Z 64
_cell_length_a 9.208650
_cell_length_b 19.098585
_cell_length_c 20.387954
_cell_angle_alpha 90.000000
_cell_angle_beta 90.000000
_cell_angle_gamma 90.000000
_cell_volume 3585.674013
_symmetry_space_group_name_H-M "P M M N"
_symmetry_group_IT_number 59
_space_group.IT_coordinate_system_code '2'
_symmetry_cell_setting 'orthorhombic'
loop_
_space_group_symop_operation_xyz
x,y,z
1/2-x,1/2-y,z
1/2+x,-y,-z
-x,1/2+y,-z
-x,-y,-z
1/2+x,1/2+y,-z
1/2-x,y,z
x,1/2-y,z
loop_
_atom_site_type_symbol
_atom_site_label
_atom_site_fract_x
_atom_site_fract_y
_atom_site_fract_z
Si Si1 0.581784 0.169834 0.914867
Si Si2 0.413820 0.166740 0.415145
Si Si3 0.913960 0.333374 0.540402
Si Si4 0.080683 0.933679 0.971443
Si Si5 0.078292 0.408699 0.799706
Si Si6 0.418982 0.331088 0.668787
Si Si7 0.921934 0.064772 0.175318
Si Si8 0.920616 0.169244 0.285635
O O1 0.750000 0.161938 0.896188
O O2 0.534774 0.250000 0.922052
O O3 0.489245 0.134933 0.858299
O O4 0.547724 0.133883 0.984486
O O5 0.250000 0.137040 0.414732
O O6 0.412223 0.250000 0.418668
O O7 0.498395 0.136158 0.478202
O O8 0.496813 0.141991 0.350026
O O9 0.750000 0.362513 0.538579
O O10 0.914528 0.250000 0.537798
O O11 0.991307 0.359174 0.606700
O O12 0.250000 0.952491 0.969877
O O13 0.022893 0.917963 0.898051
O O14 0.000000 0.000000 0.000000
O O15 0.250000 0.404209 0.808098
O O16 0.028639 0.375765 0.730935
O O17 0.021494 0.488386 0.802702
O O18 0.250000 0.342422 0.653263
O O19 0.452516 0.250000 0.683704
O O20 0.750000 0.066398 0.177561
O O21 0.981169 0.123761 0.224877
O O22 0.750000 0.158274 0.297847
O O23 0.956335 0.250000 0.270218
#
# Coordination Sequence:
#
# PCOD8241519 Si02
#       8
#     8   8   8   8   8   8   8   8
#     4  10  21  34  50  76 106 133 165 209 257 300
#     4   9  16  27  45  69  98 129 160 200 248 296
#     4   9  16  26  43  68  96 127 162 200 244 293
#     4  10  19  34  54  74  99 132 169 208 251 300
#     4  10  19  33  52  72  98 134 173 208 246 299
#     4   9  17  28  43  66  95 126 161 202 246 290
#     4   9  18  32  52  75  98 128 167 208 248 296
#     4   9  17  30  49  73  99 127 162 205 252 301
#
# _framework density 17.848806
#
# number of rings (size 3 to 8) (size 9 to 14) (size 15 to 20)
#    0.000    2.625    1.250    1.125    0.000    4.750 
#    0.000    5.000    0.000    0.750    0.000    1.750 
#    0.000    0.000    0.000    0.000    0.000    0.000 
#
# Total GULP energy -793596.420895 kJ/mol
# GULP energy per Si atom -12399.944076 kJ/mol
# Density = 1.780818 g / cm^3
# Si number density = 17.848806 Si / 1000 Ang^3
#
#
#
# Elastic Constant Matrix: (Units=GPa)
#
#
# Indices 1 2 3 4 5 6 
#
# 1 66.2822 31.6779 65.2144 0.0000 0.0000 0.0000
# 2 31.6779 88.9510 72.1524 0.0000 0.0000 0.0000
# 3 65.2144 72.1524 196.1116 0.0000 0.0000 0.0000
# 4 0.0000 0.0000 0.0000 5.1004 0.0000 0.0000
# 5 0.0000 0.0000 0.0000 0.0000 30.1404 0.0000
# 6 0.0000 0.0000 0.0000 0.0000 0.0000 14.1868
#
#
#
# Elastic Compliance Matrix: (Units=1/GPa)
#
#
# Indices 1 2 3 4 5 6 
#
# 1 0.022910 -0.002821 -0.006580 0.000000 0.000000 0.000000
# 2 -0.002821 0.016372 -0.005085 0.000000 0.000000 0.000000
# 3 -0.006580 -0.005085 0.009158 0.000000 0.000000 0.000000
# 4 0.000000 0.000000 0.000000 0.196063 0.000000 0.000000
# 5 0.000000 0.000000 0.000000 0.000000 0.033178 0.000000
# 6 0.000000 0.000000 0.000000 0.000000 0.000000 0.070488
#
#
# Mechanical properties :
#
#
# Convention : Reuss Voigt Hill
#
# Bulk Modulus (GPa) = 51.37122 76.60379 63.98750
# Shear Modulus (GPa) = 13.03335 22.03886 17.53611
#
# Velocity S-wave (km/s) = 2.70517 3.51772 3.13786
# Velocity P-wave (km/s) = 6.21297 7.71430 7.00398
#
# Compressibility (1/GPa) = 0.01946615
#
# Stress axis : x y z
#
# Youngs Moduli (GPa) = 43.64968 61.08093 109.19045
#
# Poissons Ratio (x) = 0.17232 0.71852
# Poissons Ratio (y) = 0.12314 0.55526
# Poissons Ratio (z) = 0.28723 0.31061
#
# Static dielectric constant tensor:
#      x y z
#    x 3.237920 0.000000 0.000000 
#    y 0.000000 3.288620 0.000000 
#    z 0.000000 0.000000 3.660650 
# 
# 
# High freq. dielectric constant tensor:
#      x y z
#    x 1.677270 0.000000 0.000000 
#    y 0.000000 1.661340 0.000000 
#    z 0.000000 0.000000 1.706330 
# 
# From -- ./inp_files/29504.got.cif
#   From: 2010.03.12/outbox.cif.g09.slc.cpg/sg59_15_cif.got.tgz:29504.got - 2010.04.16 16:29:54.
