data_PCOD8241565
_publ_section_title
;
Structure prediction by ZEFSAII (Michael W. Deem and Ramdas Pophale) SiO2 
 PCOD8241565
Probable space group: P M M N
;
_chemical_formula_sum "Si O2"
_cell_formula_units_Z 56
_cell_length_a 13.319344
_cell_length_b 13.389118
_cell_length_c 17.110623
_cell_angle_alpha 90.000000
_cell_angle_beta 90.000000
_cell_angle_gamma 90.000000
_cell_volume 3051.410436
_symmetry_space_group_name_H-M "P M M N"
_symmetry_group_IT_number 59
_space_group.IT_coordinate_system_code '2'
_symmetry_cell_setting 'orthorhombic'
loop_
_space_group_symop_operation_xyz
x,y,z
1/2-x,1/2-y,z
1/2+x,-y,-z
-x,1/2+y,-z
-x,-y,-z
1/2+x,1/2+y,-z
1/2-x,y,z
x,1/2-y,z
loop_
_atom_site_type_symbol
_atom_site_label
_atom_site_fract_x
_atom_site_fract_y
_atom_site_fract_z
Si Si1 0.634156 0.461948 0.324300
Si Si2 0.860848 0.360001 0.750913
Si Si3 0.639175 0.365737 0.482944
Si Si4 0.133990 0.860077 0.982983
Si Si5 0.011665 0.363951 0.610865
Si Si6 0.866661 0.990616 0.887999
Si Si7 0.537696 0.365191 0.175303
O O1 0.750000 0.466430 0.297457
O O2 0.615984 0.379476 0.391246
O O3 0.605651 0.567720 0.364623
O O4 0.565510 0.433260 0.250003
O O5 0.750000 0.380921 0.717534
O O6 0.868141 0.250000 0.788322
O O7 0.888450 0.435104 0.818087
O O8 0.934097 0.371850 0.680038
O O9 0.750000 0.413484 0.501892
O O10 0.644537 0.250000 0.503319
O O11 0.547598 0.408859 0.535353
O O12 0.250000 0.853937 0.004316
O O13 0.085323 0.750000 0.001608
O O14 0.121479 0.883113 0.891110
O O15 0.091009 0.951533 0.035124
O O16 0.049658 0.250000 0.597535
O O17 0.750000 0.958742 0.896100
O O18 0.932158 0.893430 0.866746
O O19 0.532574 0.250000 0.202196
#
# Coordination Sequence:
#
# PCOD8241565 Si02
#       7
#     8   8   8   8   8   8   8
#     4  11  22  36  53  75 105 142 182 218 256 304
#     4   9  16  28  50  78 103 128 162 208 259 308
#     4   9  18  33  55  81 104 130 170 219 263 305
#     4   9  18  33  55  81 104 130 170 219 263 305
#     4  10  19  33  53  77 106 135 168 214 266 316
#     4  10  19  33  53  77 106 135 168 214 266 316
#     4  11  22  36  53  75 105 142 182 218 256 304
#
# _framework density 18.352170000000001
#
# number of rings (size 3 to 8) (size 9 to 14) (size 15 to 20)
#    0.000    2.143    1.429    2.571    0.000    5.429 
#    0.000    0.000    0.000    0.000    0.000    4.000 
#    0.000    0.000    0.000    0.000    0.000    0.000 
#
# Total GULP energy -693923.097038 kJ/mol
# GULP energy per Si atom -12391.483876 kJ/mol
# Density = 1.831040 g / cm^3
# Si number density = 18.352170 Si / 1000 Ang^3
#
#
#
# Elastic Constant Matrix: (Units=GPa)
#
#
# Indices 1 2 3 4 5 6 
#
# 1 56.4119 39.6987 36.5050 0.0000 0.0000 0.0000
# 2 39.6987 57.0640 22.4412 0.0000 0.0000 0.0000
# 3 36.5050 22.4412 67.6085 0.0000 0.0000 0.0000
# 4 0.0000 0.0000 0.0000 31.9120 0.0000 0.0000
# 5 0.0000 0.0000 0.0000 0.0000 29.8984 0.0000
# 6 0.0000 0.0000 0.0000 0.0000 0.0000 26.2496
#
#
#
# Elastic Compliance Matrix: (Units=1/GPa)
#
#
# Indices 1 2 3 4 5 6 
#
# 1 0.046799 -0.026016 -0.016633 0.000000 0.000000 0.000000
# 2 -0.026016 0.034618 0.002557 0.000000 0.000000 0.000000
# 3 -0.016633 0.002557 0.022924 0.000000 0.000000 0.000000
# 4 0.000000 0.000000 0.000000 0.031336 0.000000 0.000000
# 5 0.000000 0.000000 0.000000 0.000000 0.033447 0.000000
# 6 0.000000 0.000000 0.000000 0.000000 0.000000 0.038096
#
#
# Mechanical properties :
#
#
# Convention : Reuss Voigt Hill
#
# Bulk Modulus (GPa) = 41.40003 42.04157 41.72080
# Shear Modulus (GPa) = 16.92305 23.10796 20.01550
#
# Velocity S-wave (km/s) = 3.03995 3.55229 3.30606
# Velocity P-wave (km/s) = 5.91011 6.30737 6.11197
#
# Compressibility (1/GPa) = 0.02415457
#
# Stress axis : x y z
#
# Youngs Moduli (GPa) = 21.36819 28.88701 43.62324
#
# Poissons Ratio (x) = 0.75152 0.72560
# Poissons Ratio (y) = 0.55591 -0.11153
# Poissons Ratio (z) = 0.35542 -0.07385
#
# Static dielectric constant tensor:
#      x y z
#    x 3.761120 0.000000 0.000000 
#    y 0.000000 3.216070 0.000000 
#    z 0.000000 0.000000 3.455700 
# 
# 
# High freq. dielectric constant tensor:
#      x y z
#    x 1.697490 0.000000 0.000000 
#    y 0.000000 1.699090 0.000000 
#    z 0.000000 0.000000 1.720000 
# 
# From -- ./inp_files/22492.got.cif
#   From: 2010.03.12/outbox.cif.g09.slc.cpg/sg59_12_cif.got.tgz:22492.got - 2010.04.16 16:29:54.
