data_PCOD8241638
_publ_section_title
;
Structure prediction by ZEFSAII (Michael W. Deem and Ramdas Pophale) SiO2 
 PCOD8241638
Probable space group: P M M N
;
_chemical_formula_sum "Si O2"
_cell_formula_units_Z 64
_cell_length_a 8.687194
_cell_length_b 18.146540
_cell_length_c 21.685546
_cell_angle_alpha 90.000000
_cell_angle_beta 90.000000
_cell_angle_gamma 90.000000
_cell_volume 3418.563976
_symmetry_space_group_name_H-M "P M M N"
_symmetry_group_IT_number 59
_space_group.IT_coordinate_system_code '2'
_symmetry_cell_setting 'orthorhombic'
loop_
_space_group_symop_operation_xyz
x,y,z
1/2-x,1/2-y,z
1/2+x,-y,-z
-x,1/2+y,-z
-x,-y,-z
1/2+x,1/2+y,-z
1/2-x,y,z
x,1/2-y,z
loop_
_atom_site_type_symbol
_atom_site_label
_atom_site_fract_x
_atom_site_fract_y
_atom_site_fract_z
Si Si1 0.568474 0.921596 0.375461
Si Si2 0.432490 0.976688 0.064699
Si Si3 0.429337 0.165211 0.261212
Si Si4 0.430331 0.953026 0.818483
Si Si5 0.931554 0.169366 0.872101
Si Si6 0.069190 0.912539 0.248794
Si Si7 0.569072 0.918671 0.614209
Si Si8 0.432881 0.332651 0.506252
O O1 0.750000 0.914011 0.368197
O O2 0.488745 0.885909 0.315267
O O3 0.506297 0.875990 0.433891
O O4 0.524242 0.006165 0.383197
O O5 0.250000 0.977633 0.061759
O O6 0.494231 0.894388 0.082226
O O7 0.486252 0.034149 0.116357
O O8 0.500000 0.000000 0.000000
O O9 0.250000 0.155115 0.246667
O O10 0.478026 0.250000 0.263098
O O11 0.525788 0.127516 0.206393
O O12 0.471978 0.130415 0.326866
O O13 0.250000 0.959842 0.829201
O O14 0.485946 0.011080 0.767367
O O15 0.750000 0.173519 0.879270
O O16 0.003693 0.250000 0.887764
O O17 0.974148 0.149172 0.801629
O O18 0.250000 0.928750 0.249763
O O19 0.750000 0.936501 0.610713
O O20 0.509477 0.874490 0.554630
O O21 0.250000 0.329681 0.506074
O O22 0.501069 0.250000 0.506817
#
# Coordination Sequence:
#
# PCOD8241638 Si02
#       8
#     8   8   8   8   8   8   8   8
#     4  11  21  32  51  78 107 139 176 225 277 329
#     4  10  20  36  60  86 115 152 191 229 270 323
#     4  10  20  34  55  82 109 140 181 229 281 334
#     4  11  21  35  56  81 112 145 180 223 271 326
#     4   8  16  32  55  82 109 139 179 228 275 316
#     4  10  19  33  54  78 106 141 180 222 271 329
#     4  10  19  34  57  77 100 139 184 226 273 334
#     4   9  19  35  52  73 103 140 182 226 276 335
#
# _framework density 18.721311
#
# number of rings (size 3 to 8) (size 9 to 14) (size 15 to 20)
#    0.000    2.125    1.250    3.750    0.000    2.250 
#    0.000    1.250    0.000   19.125    0.000    0.000 
#    0.000    0.000    0.000    0.000    0.000    0.000 
#
# Total GULP energy -793639.227437 kJ/mol
# GULP energy per Si atom -12400.612929 kJ/mol
# Density = 1.867870 g / cm^3
# Si number density = 18.721311 Si / 1000 Ang^3
#
#
#
# Elastic Constant Matrix: (Units=GPa)
#
#
# Indices 1 2 3 4 5 6 
#
# 1 56.1865 29.5726 33.9297 0.0000 0.0000 0.0000
# 2 29.5726 123.7093 71.0867 0.0000 0.0000 0.0000
# 3 33.9297 71.0867 158.2687 0.0000 0.0000 0.0000
# 4 0.0000 0.0000 0.0000 23.9984 0.0000 0.0000
# 5 0.0000 0.0000 0.0000 0.0000 29.1089 0.0000
# 6 0.0000 0.0000 0.0000 0.0000 0.0000 17.3574
#
#
#
# Elastic Compliance Matrix: (Units=1/GPa)
#
#
# Indices 1 2 3 4 5 6 
#
# 1 0.021425 -0.003346 -0.003090 0.000000 0.000000 0.000000
# 2 -0.003346 0.011418 -0.004411 0.000000 0.000000 0.000000
# 3 -0.003090 -0.004411 0.008962 0.000000 0.000000 0.000000
# 4 0.000000 0.000000 0.000000 0.041669 0.000000 0.000000
# 5 0.000000 0.000000 0.000000 0.000000 0.034354 0.000000
# 6 0.000000 0.000000 0.000000 0.000000 0.000000 0.057612
#
#
# Mechanical properties :
#
#
# Convention : Reuss Voigt Hill
#
# Bulk Modulus (GPa) = 49.72500 67.48252 58.60376
# Shear Modulus (GPa) = 24.52916 27.66463 26.09689
#
# Velocity S-wave (km/s) = 3.62363 3.84827 3.73764
# Velocity P-wave (km/s) = 6.64273 7.47460 7.07091
#
# Compressibility (1/GPa) = 0.02011061
#
# Stress axis : x y z
#
# Youngs Moduli (GPa) = 46.67428 87.58051 111.58031
#
# Poissons Ratio (x) = 0.29303 0.34482
# Poissons Ratio (y) = 0.15617 0.49220
# Poissons Ratio (z) = 0.14424 0.38633
#
# Static dielectric constant tensor:
#      x y z
#    x 3.203180 0.000000 0.000000 
#    y 0.000000 3.554850 0.000000 
#    z 0.000000 0.000000 3.529920 
# 
# 
# High freq. dielectric constant tensor:
#      x y z
#    x 1.706250 0.000000 0.000000 
#    y 0.000000 1.726660 0.000000 
#    z 0.000000 0.000000 1.730870 
# 
# From -- ./inp_files/29488.got.cif
#   From: 2010.03.12/outbox.cif.g09.slc.cpg/sg59_15_cif.got.tgz:29488.got - 2010.04.16 16:29:54.
