data_PCOD8241879
_publ_section_title
;
Structure prediction by ZEFSAII (Michael W. Deem and Ramdas Pophale) SiO2 
 PCOD8241879
Probable space group: P M M N
;
_chemical_formula_sum "Si O2"
_cell_formula_units_Z 64
_cell_length_a 8.762461
_cell_length_b 18.263285
_cell_length_c 21.679635
_cell_angle_alpha 90.000000
_cell_angle_beta 90.000000
_cell_angle_gamma 90.000000
_cell_volume 3469.420661
_symmetry_space_group_name_H-M "P M M N"
_symmetry_group_IT_number 59
_space_group.IT_coordinate_system_code '2'
_symmetry_cell_setting 'orthorhombic'
loop_
_space_group_symop_operation_xyz
x,y,z
1/2-x,1/2-y,z
1/2+x,-y,-z
-x,1/2+y,-z
-x,-y,-z
1/2+x,1/2+y,-z
1/2-x,y,z
x,1/2-y,z
loop_
_atom_site_type_symbol
_atom_site_label
_atom_site_fract_x
_atom_site_fract_y
_atom_site_fract_z
Si Si1 0.430051 0.930462 0.383443
Si Si2 0.430993 0.975503 0.064094
Si Si3 0.428368 0.164944 0.258565
Si Si4 0.428878 0.951480 0.821163
Si Si5 0.929821 0.169456 0.870565
Si Si6 0.071267 0.917747 0.246776
Si Si7 0.930828 0.904630 0.613302
Si Si8 0.569900 0.333376 0.505704
O O1 0.250000 0.932993 0.390774
O O2 0.471948 0.895568 0.316688
O O3 0.499780 0.880546 0.437634
O O4 0.495509 0.012625 0.389257
O O5 0.250000 0.976412 0.060079
O O6 0.490575 0.893562 0.082830
O O7 0.484334 0.033210 0.115075
O O8 0.500000 0.000000 0.000000
O O9 0.250000 0.149190 0.249033
O O10 0.467055 0.250000 0.257116
O O11 0.521771 0.128133 0.202913
O O12 0.485713 0.132567 0.323506
O O13 0.250000 0.954230 0.833765
O O14 0.476459 0.010144 0.769630
O O15 0.750000 0.174688 0.877766
O O16 0.001943 0.250000 0.884891
O O17 0.971538 0.147785 0.799996
O O18 0.250000 0.938185 0.240996
O O19 0.750000 0.903269 0.608560
O O20 0.997436 0.858426 0.557725
O O21 0.750000 0.343407 0.500934
O O22 0.524041 0.250000 0.518530
#
# Coordination Sequence:
#
# PCOD8241879 Si02
#       8
#     8   8   8   8   8   8   8   8
#     4   9  17  31  52  74  98 132 174 216 261 318
#     4  10  20  36  59  83 112 149 188 225 262 312
#     4  10  20  35  56  79 103 135 177 224 275 326
#     4  11  21  34  54  80 111 141 174 215 263 321
#     4   8  15  28  51  83 110 134 170 218 266 308
#     4   9  16  31  54  76 103 137 174 216 262 317
#     4  10  19  34  55  73  95 132 179 220 263 325
#     4  10  21  34  47  70 104 136 170 219 275 323
#
# _framework density 18.446884000000001
#
# number of rings (size 3 to 8) (size 9 to 14) (size 15 to 20)
#    0.000    2.375    1.250    3.000    0.000    2.000 
#    0.000    3.750    0.000   11.625    0.000    0.000 
#    0.000    0.000    0.000    0.000    0.000    0.000 
#
# Total GULP energy -793477.878753 kJ/mol
# GULP energy per Si atom -12398.091856 kJ/mol
# Density = 1.840490 g / cm^3
# Si number density = 18.446884 Si / 1000 Ang^3
#
#
#
# Elastic Constant Matrix: (Units=GPa)
#
#
# Indices 1 2 3 4 5 6 
#
# 1 41.7424 37.3322 36.6650 0.0000 0.0000 0.0000
# 2 37.3322 100.8005 42.2964 0.0000 0.0000 0.0000
# 3 36.6650 42.2964 110.3462 0.0000 0.0000 0.0000
# 4 0.0000 0.0000 0.0000 25.0288 0.0000 0.0000
# 5 0.0000 0.0000 0.0000 0.0000 27.5405 0.0000
# 6 0.0000 0.0000 0.0000 0.0000 0.0000 17.1123
#
#
#
# Elastic Compliance Matrix: (Units=1/GPa)
#
#
# Indices 1 2 3 4 5 6 
#
# 1 0.043190 -0.011886 -0.009795 0.000000 0.000000 0.000000
# 2 -0.011886 0.015093 -0.001836 0.000000 0.000000 0.000000
# 3 -0.009795 -0.001836 0.013021 0.000000 0.000000 0.000000
# 4 0.000000 0.000000 0.000000 0.039954 0.000000 0.000000
# 5 0.000000 0.000000 0.000000 0.000000 0.036310 0.000000
# 6 0.000000 0.000000 0.000000 0.000000 0.000000 0.058438
#
#
# Mechanical properties :
#
#
# Convention : Reuss Voigt Hill
#
# Bulk Modulus (GPa) = 41.20248 53.94182 47.57215
# Shear Modulus (GPa) = 19.14766 23.04270 21.09518
#
# Velocity S-wave (km/s) = 3.22528 3.53815 3.38533
# Velocity P-wave (km/s) = 6.02114 6.78207 6.41290
#
# Compressibility (1/GPa) = 0.02427038
#
# Stress axis : x y z
#
# Youngs Moduli (GPa) = 23.15353 66.25639 76.80077
#
# Poissons Ratio (x) = 0.78750 0.75226
# Poissons Ratio (y) = 0.27520 0.14100
# Poissons Ratio (z) = 0.22679 0.12164
#
# Static dielectric constant tensor:
#      x y z
#    x 3.106290 0.000000 0.000000 
#    y 0.000000 3.699850 0.000000 
#    z 0.000000 0.000000 4.665950 
# 
# 
# High freq. dielectric constant tensor:
#      x y z
#    x 1.683580 0.000000 0.000000 
#    y 0.000000 1.717180 0.000000 
#    z 0.000000 0.000000 1.718590 
# 
# From -- ./inp_files/29487.got.cif
#   From: 2010.03.12/outbox.cif.g09.slc.cpg/sg59_15_cif.got.tgz:29487.got - 2010.04.16 16:29:54.
