data_PCOD8241277
_publ_section_title
;
Structure prediction by ZEFSAII (Michael W. Deem and Ramdas Pophale) SiO2 
 PCOD8241277
Probable space group: P M M N
;
_chemical_formula_sum "Si O2"
_cell_formula_units_Z 48
_cell_length_a 29.467148
_cell_length_b 8.899357
_cell_length_c 9.935166
_cell_angle_alpha 90.000000
_cell_angle_beta 90.000000
_cell_angle_gamma 90.000000
_cell_volume 2605.384716
_symmetry_space_group_name_H-M "P M M N"
_symmetry_group_IT_number 59
_space_group.IT_coordinate_system_code '2'
_symmetry_cell_setting 'orthorhombic'
loop_
_space_group_symop_operation_xyz
x,y,z
1/2-x,1/2-y,z
1/2+x,-y,-z
-x,1/2+y,-z
-x,-y,-z
1/2+x,1/2+y,-z
1/2-x,y,z
x,1/2-y,z
loop_
_atom_site_type_symbol
_atom_site_label
_atom_site_fract_x
_atom_site_fract_y
_atom_site_fract_z
Si Si1 0.125416 0.928316 0.018094
Si Si2 0.881430 0.429379 0.288000
Si Si3 0.699419 0.428718 0.779900
Si Si4 0.970715 0.074956 0.887854
Si Si5 0.475391 0.427467 0.625081
Si Si6 0.800833 0.071507 0.478993
O O1 0.129159 0.750000 0.013658
O O2 0.125434 0.988358 0.864744
O O3 0.166751 0.997319 0.105209
O O4 0.080694 0.982612 0.097111
O O5 0.886352 0.250000 0.294067
O O6 0.926298 0.500728 0.351470
O O7 0.838046 0.488041 0.373030
O O8 0.750000 0.483308 0.815185
O O9 0.696472 0.250000 0.781835
O O10 0.686030 0.484705 0.629590
O O11 0.972860 0.250000 0.914527
O O12 0.990591 0.030378 0.744753
O O13 0.000000 0.000000 0.000000
O O14 0.500000 0.500000 0.500000
O O15 0.469667 0.250000 0.606296
O O16 0.750000 0.013513 0.440636
O O17 0.800520 0.250000 0.476608
#
# Coordination Sequence:
#
# PCOD8241277 Si02
#       6
#     8   8   8   8   8   8
#     4   9  17  28  45  71 100 131 165 203 255 309
#     4  10  19  32  52  76 106 137 170 216 261 308
#     4   8  14  25  42  67 100 133 165 205 252 304
#     4  10  20  35  54  75 103 137 171 211 259 311
#     4  11  24  38  54  77 106 140 178 220 264 317
#     4   8  15  27  45  72 104 137 172 211 257 305
#
# _framework density 18.423382
#
# number of rings (size 3 to 8) (size 9 to 14) (size 15 to 20)
#    0.000    2.667    1.667    1.500    2.333    1.333 
#    0.000    3.333    0.000    0.500    0.000    0.000 
#    0.000    0.667    0.000    0.000    0.000    0.000 
#
# Total GULP energy -594936.980846 kJ/mol
# GULP energy per Si atom -12394.520434 kJ/mol
# Density = 1.838145 g / cm^3
# Si number density = 18.423382 Si / 1000 Ang^3
#
#
#
# Elastic Constant Matrix: (Units=GPa)
#
#
# Indices 1 2 3 4 5 6 
#
# 1 182.7213 25.7816 118.0459 0.0000 0.0000 0.0000
# 2 25.7816 18.5324 34.1813 0.0000 0.0000 0.0000
# 3 118.0459 34.1813 167.3499 0.0000 0.0000 0.0000
# 4 0.0000 0.0000 0.0000 15.2284 0.0000 0.0000
# 5 0.0000 0.0000 0.0000 0.0000 46.0890 0.0000
# 6 0.0000 0.0000 0.0000 0.0000 0.0000 20.2905
#
#
#
# Elastic Compliance Matrix: (Units=1/GPa)
#
#
# Indices 1 2 3 4 5 6 
#
# 1 0.010079 -0.001458 -0.006812 0.000000 0.000000 0.000000
# 2 -0.001458 0.086785 -0.016697 0.000000 0.000000 0.000000
# 3 -0.006812 -0.016697 0.014191 0.000000 0.000000 0.000000
# 4 0.000000 0.000000 0.000000 0.065667 0.000000 0.000000
# 5 0.000000 0.000000 0.000000 0.000000 0.021697 0.000000
# 6 0.000000 0.000000 0.000000 0.000000 0.000000 0.049284
#
#
# Mechanical properties :
#
#
# Convention : Reuss Voigt Hill
#
# Bulk Modulus (GPa) = 16.36117 80.51346 48.43732
# Shear Modulus (GPa) = 15.72271 29.02789 22.37530
#
# Velocity S-wave (km/s) = 2.92449 3.97369 3.48876
# Velocity P-wave (km/s) = 4.50593 8.05297 6.52509
#
# Compressibility (1/GPa) = 0.06112031
#
# Stress axis : x y z
#
# Youngs Moduli (GPa) = 99.21198 11.52279 70.46667
#
# Poissons Ratio (x) = 0.01680 0.48003
# Poissons Ratio (y) = 0.14464 1.17661
# Poissons Ratio (z) = 0.67584 0.19240
#
# Static dielectric constant tensor:
#      x y z
#    x 3.808800 0.000000 0.000000 
#    y 0.000000 2.894230 0.000000 
#    z 0.000000 0.000000 3.702880 
# 
# 
# High freq. dielectric constant tensor:
#      x y z
#    x 1.729810 0.000000 0.000000 
#    y 0.000000 1.656090 0.000000 
#    z 0.000000 0.000000 1.727190 
# 
# From -- ./inp_files/6319.got.cif
#   From: 2010.03.12/outbox.cif.g09.slc.cpg/sg59_4_cif.got.tgz:6319.got - 2010.04.16 16:29:54.
