data_PCOD8241210
_publ_section_title
;
Structure prediction by ZEFSAII (Michael W. Deem and Ramdas Pophale) SiO2 
 PCOD8241210
Probable space group: P M M N
;
_chemical_formula_sum "Si O2"
_cell_formula_units_Z 64
_cell_length_a 8.941711
_cell_length_b 24.027017
_cell_length_c 16.227652
_cell_angle_alpha 90.000000
_cell_angle_beta 90.000000
_cell_angle_gamma 90.000000
_cell_volume 3486.391632
_symmetry_space_group_name_H-M "P M M N"
_symmetry_group_IT_number 59
_space_group.IT_coordinate_system_code '2'
_symmetry_cell_setting 'orthorhombic'
loop_
_space_group_symop_operation_xyz
x,y,z
1/2-x,1/2-y,z
1/2+x,-y,-z
-x,1/2+y,-z
-x,-y,-z
1/2+x,1/2+y,-z
1/2-x,y,z
x,1/2-y,z
loop_
_atom_site_type_symbol
_atom_site_label
_atom_site_fract_x
_atom_site_fract_y
_atom_site_fract_z
Si Si1 0.423901 0.186418 0.293727
Si Si2 0.926217 0.442781 0.027567
Si Si3 0.576429 0.379528 0.619448
Si Si4 0.579399 0.594712 0.122450
Si Si5 0.425882 0.312299 0.482662
Si Si6 0.082567 0.187479 0.752053
Si Si7 0.427507 0.523735 0.262047
Si Si8 0.574077 0.084084 0.213931
O O1 0.250000 0.172098 0.281799
O O2 0.456156 0.250000 0.266718
O O3 0.471948 0.177870 0.388401
O O4 0.522515 0.145814 0.237903
O O5 0.750000 0.446452 0.017729
O O6 0.972766 0.425788 0.119419
O O7 0.000000 0.500000 0.000000
O O8 0.993531 0.397828 0.963963
O O9 0.750000 0.378785 0.600484
O O10 0.495162 0.362942 0.534967
O O11 0.538018 0.333108 0.686788
O O12 0.527470 0.439777 0.656825
O O13 0.750000 0.574647 0.108676
O O14 0.570816 0.654964 0.162765
O O15 0.501577 0.548890 0.180217
O O16 0.250000 0.315257 0.493193
O O17 0.480137 0.250000 0.510652
O O18 0.250000 0.180939 0.714128
O O19 0.044084 0.250000 0.774960
O O20 0.250000 0.523429 0.250756
O O21 0.490491 0.461247 0.272073
O O22 0.750000 0.078034 0.227589
#
# Coordination Sequence:
#
# PCOD8241210 Si02
#       8
#     8   8   8   8   8   8   8   8
#     4   9  20  40  63  84 107 139 180 222 268 323
#     4  11  22  35  54  80 108 137 175 220 267 319
#     4  10  20  31  48  79 111 140 179 224 267 314
#     4  10  19  32  51  76 105 137 178 223 265 311
#     4   9  18  34  56  80 106 140 182 224 266 318
#     4   9  18  32  49  70 102 144 182 216 259 314
#     4  10  20  34  52  75 109 147 180 217 265 320
#     4  11  23  37  57  84 110 138 178 224 273 324
#
# _framework density 18.357088000000001
#
# number of rings (size 3 to 8) (size 9 to 14) (size 15 to 20)
#    0.000    2.125    1.250    3.000    0.000    6.250 
#    0.000    2.500    0.000    2.250    0.000    0.000 
#    0.000    0.000    0.000    0.000    0.000    0.000 
#
# Total GULP energy -793505.328105 kJ/mol
# GULP energy per Si atom -12398.520752 kJ/mol
# Density = 1.831531 g / cm^3
# Si number density = 18.357088 Si / 1000 Ang^3
#
#
#
# Elastic Constant Matrix: (Units=GPa)
#
#
# Indices 1 2 3 4 5 6 
#
# 1 71.0061 39.1591 44.9632 0.0000 0.0000 0.0000
# 2 39.1591 106.9817 50.6112 0.0000 0.0000 0.0000
# 3 44.9632 50.6112 94.3216 0.0000 0.0000 0.0000
# 4 0.0000 0.0000 0.0000 26.1948 0.0000 0.0000
# 5 0.0000 0.0000 0.0000 0.0000 31.9628 0.0000
# 6 0.0000 0.0000 0.0000 0.0000 0.0000 29.6207
#
#
#
# Elastic Compliance Matrix: (Units=1/GPa)
#
#
# Indices 1 2 3 4 5 6 
#
# 1 0.021394 -0.004029 -0.008037 0.000000 0.000000 0.000000
# 2 -0.004029 0.013286 -0.005208 0.000000 0.000000 0.000000
# 3 -0.008037 -0.005208 0.017228 0.000000 0.000000 0.000000
# 4 0.000000 0.000000 0.000000 0.038175 0.000000 0.000000
# 5 0.000000 0.000000 0.000000 0.000000 0.031286 0.000000
# 6 0.000000 0.000000 0.000000 0.000000 0.000000 0.033760
#
#
# Mechanical properties :
#
#
# Convention : Reuss Voigt Hill
#
# Bulk Modulus (GPa) = 57.60406 60.19739 58.90072
# Shear Modulus (GPa) = 25.57990 26.72739 26.15364
#
# Velocity S-wave (km/s) = 3.73696 3.81986 3.77864
# Velocity P-wave (km/s) = 7.07585 7.23317 7.15494
#
# Compressibility (1/GPa) = 0.01735989
#
# Stress axis : x y z
#
# Youngs Moduli (GPa) = 46.74118 75.26604 58.04517
#
# Poissons Ratio (x) = 0.30325 0.46650
# Poissons Ratio (y) = 0.18832 0.30233
# Poissons Ratio (z) = 0.37565 0.39202
#
# Static dielectric constant tensor:
#      x y z
#    x 3.451320 0.000000 0.000000 
#    y 0.000000 13.928730 0.000000 
#    z 0.000000 0.000000 3.894990 
# 
# 
# High freq. dielectric constant tensor:
#      x y z
#    x 1.716470 0.000000 0.000000 
#    y 0.000000 1.705910 0.000000 
#    z 0.000000 0.000000 1.701520 
# 
# From -- ./inp_files/21502.got.cif
#   From: 2010.03.12/outbox.cif.g09.slc.cpg/sg59_11_cif.got.tgz:21502.got - 2010.04.16 16:29:54.
