data_PCOD8241727
_publ_section_title
;
Structure prediction by ZEFSAII (Michael W. Deem and Ramdas Pophale) SiO2 
 PCOD8241727
Probable space group: P M M N
;
_chemical_formula_sum "Si O2"
_cell_formula_units_Z 64
_cell_length_a 8.763511
_cell_length_b 23.953222
_cell_length_c 15.136227
_cell_angle_alpha 90.000000
_cell_angle_beta 90.000000
_cell_angle_gamma 90.000000
_cell_volume 3177.310866
_symmetry_space_group_name_H-M "P M M N"
_symmetry_group_IT_number 59
_space_group.IT_coordinate_system_code '2'
_symmetry_cell_setting 'orthorhombic'
loop_
_space_group_symop_operation_xyz
x,y,z
1/2-x,1/2-y,z
1/2+x,-y,-z
-x,1/2+y,-z
-x,-y,-z
1/2+x,1/2+y,-z
1/2-x,y,z
x,1/2-y,z
loop_
_atom_site_type_symbol
_atom_site_label
_atom_site_fract_x
_atom_site_fract_y
_atom_site_fract_z
Si Si1 0.431426 0.112850 0.353232
Si Si2 0.428214 0.641785 0.958220
Si Si3 0.068685 0.997600 0.278962
Si Si4 0.068758 0.185994 0.515157
Si Si5 0.569121 0.312286 0.856134
Si Si6 0.069220 0.625519 0.318958
Si Si7 0.077127 0.311343 0.196080
Si Si8 0.071129 0.471935 0.085274
O O1 0.250000 0.114994 0.357694
O O2 0.489461 0.048632 0.341893
O O3 0.497640 0.144271 0.439691
O O4 0.489888 0.145958 0.267746
O O5 0.250000 0.626659 0.960625
O O6 0.466424 0.690958 0.889443
O O7 0.528806 0.592407 0.918054
O O8 0.489438 0.658188 0.054828
O O9 0.250000 0.999595 0.274299
O O10 0.007334 0.002988 0.178008
O O11 0.013960 0.939092 0.321538
O O12 0.250000 0.185458 0.514567
O O13 0.010381 0.250000 0.502049
O O14 0.011020 0.162051 0.607216
O O15 0.750000 0.308143 0.859954
O O16 0.499560 0.250000 0.848504
O O17 0.514750 0.349258 0.774182
O O18 0.250000 0.630213 0.330848
O O19 0.250000 0.327875 0.168858
O O20 0.075558 0.250000 0.239446
O O21 0.250000 0.481538 0.080669
O O22 0.000000 0.500000 0.000000
#
# Coordination Sequence:
#
# PCOD8241727 Si02
#       8
#     8   8   8   8   8   8   8   8
#     4   9  17  34  58  81 109 148 188 226 270 334
#     4  11  21  34  53  80 112 146 186 233 286 337
#     4   9  18  34  57  82 110 145 188 229 273 334
#     4  10  21  37  58  84 111 142 183 231 284 338
#     4   9  18  33  52  74 105 148 192 227 269 334
#     4  10  20  36  59  82 105 141 186 231 278 333
#     4  10  19  33  55  81 109 147 192 231 272 330
#     4  11  21  36  57  81 111 149 192 235 275 329
#
# _framework density 20.142818999999999
#
# number of rings (size 3 to 8) (size 9 to 14) (size 15 to 20)
#    0.000    2.125    1.250    2.625    0.000    5.500 
#    0.000    4.375    0.000    4.500    0.000    0.000 
#    0.000    0.000    0.000    0.000    0.000    0.000 
#
# Total GULP energy -793336.578201 kJ/mol
# GULP energy per Si atom -12395.884034 kJ/mol
# Density = 2.009697 g / cm^3
# Si number density = 20.142819 Si / 1000 Ang^3
#
#
#
# Elastic Constant Matrix: (Units=GPa)
#
#
# Indices 1 2 3 4 5 6 
#
# 1 20.6624 17.9378 16.7218 0.0000 0.0000 0.0000
# 2 17.9378 140.0892 58.4892 0.0000 0.0000 0.0000
# 3 16.7218 58.4892 130.4633 0.0000 0.0000 0.0000
# 4 0.0000 0.0000 0.0000 40.8519 0.0000 0.0000
# 5 0.0000 0.0000 0.0000 0.0000 23.0617 0.0000
# 6 0.0000 0.0000 0.0000 0.0000 0.0000 21.9577
#
#
#
# Elastic Compliance Matrix: (Units=1/GPa)
#
#
# Indices 1 2 3 4 5 6 
#
# 1 0.056942 -0.005221 -0.004958 0.000000 0.000000 0.000000
# 2 -0.005221 0.009261 -0.003483 0.000000 0.000000 0.000000
# 3 -0.004958 -0.003483 0.009862 0.000000 0.000000 0.000000
# 4 0.000000 0.000000 0.000000 0.024479 0.000000 0.000000
# 5 0.000000 0.000000 0.000000 0.000000 0.043362 0.000000
# 6 0.000000 0.000000 0.000000 0.000000 0.000000 0.045542
#
#
# Mechanical properties :
#
#
# Convention : Reuss Voigt Hill
#
# Bulk Modulus (GPa) = 20.51637 53.05693 36.78665
# Shear Modulus (GPa) = 21.45764 30.37868 25.91816
#
# Velocity S-wave (km/s) = 3.26740 3.88772 3.59098
# Velocity P-wave (km/s) = 4.94389 6.82276 5.95786
#
# Compressibility (1/GPa) = 0.04874157
#
# Stress axis : x y z
#
# Youngs Moduli (GPa) = 17.56178 107.98071 101.40206
#
# Poissons Ratio (x) = 0.56380 0.50271
# Poissons Ratio (y) = 0.09170 0.35314
# Poissons Ratio (z) = 0.08706 0.37606
#
# Static dielectric constant tensor:
#      x y z
#    x 3.153170 0.000000 0.000000 
#    y 0.000000 4.308930 0.000000 
#    z 0.000000 0.000000 3.805560 
# 
# 
# High freq. dielectric constant tensor:
#      x y z
#    x 1.735320 0.000000 0.000000 
#    y 0.000000 1.805720 0.000000 
#    z 0.000000 0.000000 1.792290 
# 
# From -- ./inp_files/21594.got.cif
#   From: 2010.03.12/outbox.cif.g09.slc.cpg/sg59_11_cif.got.tgz:21594.got - 2010.04.16 16:29:54.
