data_PCOD8241964
_publ_section_title
;
Structure prediction by ZEFSAII (Michael W. Deem and Ramdas Pophale) SiO2 
 PCOD8241964
Probable space group: P M M N
;
_chemical_formula_sum "Si O2"
_cell_formula_units_Z 64
_cell_length_a 19.518490
_cell_length_b 8.615551
_cell_length_c 18.946247
_cell_angle_alpha 90.000000
_cell_angle_beta 90.000000
_cell_angle_gamma 90.000000
_cell_volume 3186.049133
_symmetry_space_group_name_H-M "P M M N"
_symmetry_group_IT_number 59
_space_group.IT_coordinate_system_code '2'
_symmetry_cell_setting 'orthorhombic'
loop_
_space_group_symop_operation_xyz
x,y,z
1/2-x,1/2-y,z
1/2+x,-y,-z
-x,1/2+y,-z
-x,-y,-z
1/2+x,1/2+y,-z
1/2-x,y,z
x,1/2-y,z
loop_
_atom_site_type_symbol
_atom_site_label
_atom_site_fract_x
_atom_site_fract_y
_atom_site_fract_z
Si Si1 0.325026 0.425309 0.681547
Si Si2 0.633740 0.069424 0.186458
Si Si3 0.940191 0.431738 0.637991
Si Si4 0.077538 0.930151 0.578382
Si Si5 0.670776 0.566253 0.545392
Si Si6 0.824979 0.434302 0.034021
Si Si7 0.946660 0.067675 0.944607
Si Si8 0.991326 0.068297 0.791341
O O1 0.250000 0.436419 0.645121
O O2 0.353619 0.250000 0.673917
O O3 0.315652 0.472709 0.763170
O O4 0.379330 0.545061 0.649550
O O5 0.651910 0.250000 0.191350
O O6 0.642897 0.005177 0.107372
O O7 0.557702 0.037350 0.213725
O O8 0.939836 0.250000 0.623278
O O9 0.866775 0.502769 0.615668
O O10 0.947303 0.468863 0.721357
O O11 0.001476 0.500637 0.589245
O O12 0.070149 0.750000 0.560029
O O13 0.123049 0.013439 0.519192
O O14 0.750000 0.504071 0.540773
O O15 0.672285 0.750000 0.547064
O O16 0.750000 0.507175 0.022960
O O17 0.820806 0.250000 0.036896
O O18 0.871794 0.489917 0.969176
O O19 0.954320 0.250000 0.951115
O O20 0.953332 0.015282 0.863269
O O21 0.000000 0.000000 0.000000
O O22 0.010939 0.250000 0.793890
#
# Coordination Sequence:
#
# PCOD8241964 Si02
#       8
#     8   8   8   8   8   8   8   8
#     4  11  23  37  53  79 120 164 199 238 292 352
#     4  11  20  32  54  81 112 152 197 243 291 353
#     4  11  23  41  64  90 123 160 202 251 299 354
#     4  12  24  39  63  93 123 157 199 245 293 352
#     4  11  25  45  67  91 121 158 199 247 305 360
#     4   9  18  32  51  79 114 149 190 241 294 347
#     4  10  19  34  56  82 112 150 194 240 291 344
#     4  10  21  36  57  85 118 153 196 247 298 354
#
# _framework density 20.087574
#
# number of rings (size 3 to 8) (size 9 to 14) (size 15 to 20)
#    0.000    1.375    2.500    3.750    0.000    4.500 
#    0.000    0.625    0.000    3.375    0.000    0.000 
#    0.000    0.000    0.000    0.000    0.000    0.000 
#
# Total GULP energy -793338.857912 kJ/mol
# GULP energy per Si atom -12395.919655 kJ/mol
# Density = 2.004185 g / cm^3
# Si number density = 20.087574 Si / 1000 Ang^3
#
#
#
# Elastic Constant Matrix: (Units=GPa)
#
#
# Indices 1 2 3 4 5 6 
#
# 1 127.5265 34.0022 66.5313 0.0000 0.0000 0.0000
# 2 34.0022 60.6365 23.5353 0.0000 0.0000 0.0000
# 3 66.5313 23.5353 124.4631 0.0000 0.0000 0.0000
# 4 0.0000 0.0000 0.0000 26.3767 0.0000 0.0000
# 5 0.0000 0.0000 0.0000 0.0000 28.2143 0.0000
# 6 0.0000 0.0000 0.0000 0.0000 0.0000 25.4305
#
#
#
# Elastic Compliance Matrix: (Units=1/GPa)
#
#
# Indices 1 2 3 4 5 6 
#
# 1 0.011934 -0.004550 -0.005519 0.000000 0.000000 0.000000
# 2 -0.004550 0.019533 -0.001261 0.000000 0.000000 0.000000
# 3 -0.005519 -0.001261 0.011223 0.000000 0.000000 0.000000
# 4 0.000000 0.000000 0.000000 0.037912 0.000000 0.000000
# 5 0.000000 0.000000 0.000000 0.000000 0.035443 0.000000
# 6 0.000000 0.000000 0.000000 0.000000 0.000000 0.039323
#
#
# Mechanical properties :
#
#
# Convention : Reuss Voigt Hill
#
# Bulk Modulus (GPa) = 49.92666 62.30708 56.11687
# Shear Modulus (GPa) = 27.07028 28.57479 27.82253
#
# Velocity S-wave (km/s) = 3.67497 3.77571 3.72568
# Velocity P-wave (km/s) = 6.55100 7.07764 6.81941
#
# Compressibility (1/GPa) = 0.02002938
#
# Stress axis : x y z
#
# Youngs Moduli (GPa) = 83.79530 51.19629 89.10189
#
# Poissons Ratio (x) = 0.23294 0.49174
# Poissons Ratio (y) = 0.38126 0.11239
# Poissons Ratio (z) = 0.46245 0.06458
#
# Static dielectric constant tensor:
#      x y z
#    x 3.516780 0.000000 0.000000 
#    y 0.000000 3.537570 0.000000 
#    z 0.000000 0.000000 5.230590 
# 
# 
# High freq. dielectric constant tensor:
#      x y z
#    x 1.782250 0.000000 0.000000 
#    y 0.000000 1.771010 0.000000 
#    z 0.000000 0.000000 1.790750 
# 
# From -- ./inp_files/28266.got.cif
#   From: 2010.03.12/outbox.cif.g09.slc.cpg/sg59_15_cif.got.tgz:28266.got - 2010.04.16 16:29:54.
