data_PCOD8241444
_publ_section_title
;
Structure prediction by ZEFSAII (Michael W. Deem and Ramdas Pophale) SiO2 
 PCOD8241444
Probable space group: P M M N
;
_chemical_formula_sum "Si O2"
_cell_formula_units_Z 64
_cell_length_a 8.796529
_cell_length_b 19.870421
_cell_length_c 20.104249
_cell_angle_alpha 90.000000
_cell_angle_beta 90.000000
_cell_angle_gamma 90.000000
_cell_volume 3514.036451
_symmetry_space_group_name_H-M "P M M N"
_symmetry_group_IT_number 59
_space_group.IT_coordinate_system_code '2'
_symmetry_cell_setting 'orthorhombic'
loop_
_space_group_symop_operation_xyz
x,y,z
1/2-x,1/2-y,z
1/2+x,-y,-z
-x,1/2+y,-z
-x,-y,-z
1/2+x,1/2+y,-z
1/2-x,y,z
x,1/2-y,z
loop_
_atom_site_type_symbol
_atom_site_label
_atom_site_fract_x
_atom_site_fract_y
_atom_site_fract_z
Si Si1 0.425238 0.172874 0.576635
Si Si2 0.574743 0.917801 0.301596
Si Si3 0.928335 0.429502 0.979333
Si Si4 0.430758 0.173806 0.079287
Si Si5 0.429118 0.088316 0.199275
Si Si6 0.071387 0.929819 0.522135
Si Si7 0.929272 0.944235 0.657975
Si Si8 0.927772 0.439831 0.829346
O O1 0.250000 0.165105 0.555160
O O2 0.478742 0.250000 0.573918
O O3 0.448927 0.146930 0.651797
O O4 0.526840 0.130548 0.526145
O O5 0.750000 0.940202 0.299394
O O6 0.517154 0.898130 0.227505
O O7 0.476406 0.978405 0.332054
O O8 0.750000 0.435148 0.991947
O O9 0.964021 0.411815 0.902436
O O10 0.000000 0.500000 0.000000
O O11 0.997758 0.368477 0.020104
O O12 0.250000 0.168125 0.074555
O O13 0.487267 0.250000 0.072341
O O14 0.492308 0.146305 0.150582
O O15 0.250000 0.087834 0.193662
O O16 0.476407 0.098947 0.276355
O O17 0.489082 0.016464 0.173400
O O18 0.250000 0.939272 0.522144
O O19 0.014987 0.911102 0.595991
O O20 0.000000 0.000000 0.500000
O O21 0.750000 0.942044 0.644993
O O22 0.750000 0.436068 0.812559
#
# Coordination Sequence:
#
# PCOD8241444 Si02
#       8
#     8   8   8   8   8   8   8   8
#     4  10  22  40  59  81 113 150 185 229 288 347
#     4  10  19  32  54  83 111 140 181 231 278 332
#     4  11  21  35  56  82 113 148 190 237 287 338
#     4  10  20  36  57  81 112 149 189 233 283 342
#     4   8  15  31  52  77 107 140 180 221 272 332
#     4  12  23  36  57  85 115 149 191 236 284 334
#     4  10  19  33  55  81 113 146 182 231 280 330
#     4   9  18  33  53  76 108 143 179 228 280 333
#
# _framework density 18.212674
#
# number of rings (size 3 to 8) (size 9 to 14) (size 15 to 20)
#    0.000    2.000    2.500    3.000    0.000    2.000 
#    0.000    1.875    0.000    4.500    0.000    0.000 
#    0.000    0.000    0.000    0.000    0.000    0.000 
#
# Total GULP energy -793515.314853 kJ/mol
# GULP energy per Si atom -12398.676795 kJ/mol
# Density = 1.817122 g / cm^3
# Si number density = 18.212674 Si / 1000 Ang^3
#
#
#
# Elastic Constant Matrix: (Units=GPa)
#
#
# Indices 1 2 3 4 5 6 
#
# 1 84.6035 46.2750 58.3774 0.0000 0.0000 0.0000
# 2 46.2750 113.0749 76.4616 0.0000 0.0000 0.0000
# 3 58.3774 76.4616 157.4541 0.0000 0.0000 0.0000
# 4 0.0000 0.0000 0.0000 27.4489 0.0000 0.0000
# 5 0.0000 0.0000 0.0000 0.0000 33.9627 0.0000
# 6 0.0000 0.0000 0.0000 0.0000 0.0000 22.8970
#
#
#
# Elastic Compliance Matrix: (Units=1/GPa)
#
#
# Indices 1 2 3 4 5 6 
#
# 1 0.017028 -0.004019 -0.004361 0.000000 0.000000 0.000000
# 2 -0.004019 0.014116 -0.005365 0.000000 0.000000 0.000000
# 3 -0.004361 -0.005365 0.010573 0.000000 0.000000 0.000000
# 4 0.000000 0.000000 0.000000 0.036431 0.000000 0.000000
# 5 0.000000 0.000000 0.000000 0.000000 0.029444 0.000000
# 6 0.000000 0.000000 0.000000 0.000000 0.000000 0.043674
#
#
# Mechanical properties :
#
#
# Convention : Reuss Voigt Hill
#
# Bulk Modulus (GPa) = 70.29245 79.70672 74.99958
# Shear Modulus (GPa) = 27.24806 28.46297 27.85551
#
# Velocity S-wave (km/s) = 3.87215 3.95753 3.91507
# Velocity P-wave (km/s) = 7.65967 8.04625 7.85534
#
# Compressibility (1/GPa) = 0.01422628
#
# Stress axis : x y z
#
# Youngs Moduli (GPa) = 58.72823 70.84015 94.57787
#
# Poissons Ratio (x) = 0.28473 0.41248
# Poissons Ratio (y) = 0.23604 0.50740
# Poissons Ratio (z) = 0.25613 0.38005
#
# Static dielectric constant tensor:
#      x y z
#    x 3.329410 0.000000 0.000000 
#    y 0.000000 3.250000 0.000000 
#    z 0.000000 0.000000 3.780210 
# 
# 
# High freq. dielectric constant tensor:
#      x y z
#    x 1.700110 0.000000 0.000000 
#    y 0.000000 1.673320 0.000000 
#    z 0.000000 0.000000 1.725400 
# 
# From -- ./inp_files/29465.got.cif
#   From: 2010.03.12/outbox.cif.g09.slc.cpg/sg59_15_cif.got.tgz:29465.got - 2010.04.16 16:29:54.
