data_PCOD8241192
_publ_section_title
;
Structure prediction by ZEFSAII (Michael W. Deem and Ramdas Pophale) SiO2 
 PCOD8241192
Probable space group: P M M N
;
_chemical_formula_sum "Si O2"
_cell_formula_units_Z 48
_cell_length_a 8.744517
_cell_length_b 27.057759
_cell_length_c 10.416677
_cell_angle_alpha 90.000000
_cell_angle_beta 90.000000
_cell_angle_gamma 90.000000
_cell_volume 2464.659044
_symmetry_space_group_name_H-M "P M M N"
_symmetry_group_IT_number 59
_space_group.IT_coordinate_system_code '2'
_symmetry_cell_setting 'orthorhombic'
loop_
_space_group_symop_operation_xyz
x,y,z
1/2-x,1/2-y,z
1/2+x,-y,-z
-x,1/2+y,-z
-x,-y,-z
1/2+x,1/2+y,-z
1/2-x,y,z
x,1/2-y,z
loop_
_atom_site_type_symbol
_atom_site_label
_atom_site_fract_x
_atom_site_fract_y
_atom_site_fract_z
Si Si1 0.930727 0.027570 0.120800
Si Si2 0.431427 0.364707 0.125042
Si Si3 0.568136 0.805572 0.625437
Si Si4 0.568084 0.694459 0.124323
Si Si5 0.067764 0.361328 0.625331
Si Si6 0.568843 0.973296 0.378002
O O1 0.750000 0.025432 0.109601
O O2 0.986133 0.083293 0.124949
O O3 0.987897 0.000448 0.249578
O O4 0.000000 0.000000 0.000000
O O5 0.250000 0.373032 0.124603
O O6 0.487500 0.334566 0.249016
O O7 0.487473 0.334431 0.001358
O O8 0.750000 0.803752 0.621779
O O9 0.501753 0.750000 0.628431
O O10 0.503832 0.833566 0.500336
O O11 0.750000 0.696153 0.128133
O O12 0.501764 0.750000 0.121247
O O13 0.503342 0.666564 0.249417
O O14 0.250000 0.360620 0.626326
O O15 0.006863 0.417281 0.625906
O O16 0.750000 0.974383 0.389753
O O17 0.500000 0.000000 0.500000
#
# Coordination Sequence:
#
# PCOD8241192 Si02
#       6
#     8   8   8   8   8   8
#     4  11  23  38  56  79 108 142 182 224 268 319
#     4  10  19  32  51  75 104 135 170 214 262 312
#     4   9  16  26  44  72 102 131 165 206 254 309
#     4   9  16  27  46  72 101 133 169 212 261 309
#     4   9  16  27  44  68  99 130 163 209 261 307
#     4  10  21  36  54  78 107 139 176 220 268 319
#
# _framework density 19.475311000000001
#
# number of rings (size 3 to 8) (size 9 to 14) (size 15 to 20)
#    0.000    2.333    0.000    3.500    0.000    9.333 
#    0.000    0.000    0.000    2.000    0.000    0.000 
#    0.000    6.667    0.000    0.000    0.000    0.000 
#
# Total GULP energy -595270.449448 kJ/mol
# GULP energy per Si atom -12401.467697 kJ/mol
# Density = 1.943098 g / cm^3
# Si number density = 19.475311 Si / 1000 Ang^3
#
#
#
# Elastic Constant Matrix: (Units=GPa)
#
#
# Indices 1 2 3 4 5 6 
#
# 1 19.6473 23.9285 26.6008 0.0000 0.0000 0.0000
# 2 23.9285 218.8221 124.5327 0.0000 0.0000 0.0000
# 3 26.6008 124.5327 227.8824 0.0000 0.0000 0.0000
# 4 0.0000 0.0000 0.0000 48.4938 0.0000 0.0000
# 5 0.0000 0.0000 0.0000 0.0000 14.2651 0.0000
# 6 0.0000 0.0000 0.0000 0.0000 0.0000 26.2182
#
#
#
# Elastic Compliance Matrix: (Units=1/GPa)
#
#
# Indices 1 2 3 4 5 6 
#
# 1 0.062668 -0.003904 -0.005182 0.000000 0.000000 0.000000
# 2 -0.003904 0.006876 -0.003302 0.000000 0.000000 0.000000
# 3 -0.005182 -0.003302 0.006798 0.000000 0.000000 0.000000
# 4 0.000000 0.000000 0.000000 0.020621 0.000000 0.000000
# 5 0.000000 0.000000 0.000000 0.000000 0.070101 0.000000
# 6 0.000000 0.000000 0.000000 0.000000 0.000000 0.038141
#
#
# Mechanical properties :
#
#
# Convention : Reuss Voigt Hill
#
# Bulk Modulus (GPa) = 19.39251 90.71956 55.05603
# Shear Modulus (GPa) = 20.22907 37.21473 28.72190
#
# Velocity S-wave (km/s) = 3.22639 4.37609 3.84446
# Velocity P-wave (km/s) = 4.88452 8.49803 6.93091
#
# Compressibility (1/GPa) = 0.05156631
#
# Stress axis : x y z
#
# Youngs Moduli (GPa) = 15.95710 145.43550 147.11289
#
# Poissons Ratio (x) = 0.56775 0.76233
# Poissons Ratio (y) = 0.06229 0.48574
# Poissons Ratio (z) = 0.08269 0.48020
#
# Static dielectric constant tensor:
#      x y z
#    x 2.960290 0.000000 0.000000 
#    y 0.000000 3.664720 0.000000 
#    z 0.000000 0.000000 3.871430 
# 
# 
# High freq. dielectric constant tensor:
#      x y z
#    x 1.695360 0.000000 0.000000 
#    y 0.000000 1.781010 0.000000 
#    z 0.000000 0.000000 1.781190 
# 
# From -- ./inp_files/14378.got.cif
#   From: 2010.03.12/outbox.cif.g09.slc.cpg/sg59_8_cif.got.tgz:14378.got - 2010.04.16 16:29:54.
