data_PCOD8241555
_publ_section_title
;
Structure prediction by ZEFSAII (Michael W. Deem and Ramdas Pophale) SiO2 
 PCOD8241555
Probable space group: P M M N
;
_chemical_formula_sum "Si O2"
_cell_formula_units_Z 56
_cell_length_a 18.051782
_cell_length_b 9.182994
_cell_length_c 19.060367
_cell_angle_alpha 90.000000
_cell_angle_beta 90.000000
_cell_angle_gamma 90.000000
_cell_volume 3159.625712
_symmetry_space_group_name_H-M "P M M N"
_symmetry_group_IT_number 59
_space_group.IT_coordinate_system_code '2'
_symmetry_cell_setting 'orthorhombic'
loop_
_space_group_symop_operation_xyz
x,y,z
1/2-x,1/2-y,z
1/2+x,-y,-z
-x,1/2+y,-z
-x,-y,-z
1/2+x,1/2+y,-z
1/2-x,y,z
x,1/2-y,z
loop_
_atom_site_type_symbol
_atom_site_label
_atom_site_fract_x
_atom_site_fract_y
_atom_site_fract_z
Si Si1 0.609475 0.416142 0.269344
Si Si2 0.519244 0.576343 0.072101
Si Si3 0.069367 0.919850 0.582950
Si Si4 0.917781 0.081722 0.570822
Si Si5 0.664516 0.081243 0.708107
Si Si6 0.168466 0.418675 0.856225
Si Si7 0.953125 0.919183 0.799351
O O1 0.632926 0.250000 0.258232
O O2 0.620336 0.466141 0.350614
O O3 0.662602 0.508213 0.219814
O O4 0.523537 0.441128 0.250502
O O5 0.509676 0.750000 0.066465
O O6 0.603939 0.529534 0.090971
O O7 0.463650 0.512766 0.130081
O O8 0.500000 0.500000 0.000000
O O9 0.052452 0.750000 0.589699
O O10 0.108976 0.958478 0.508705
O O11 0.990780 0.995526 0.590178
O O12 0.939514 0.250000 0.574033
O O13 0.854006 0.044107 0.626785
O O14 0.750000 0.045667 0.720571
O O15 0.646304 0.250000 0.724081
O O16 0.618838 0.979406 0.760194
O O17 0.250000 0.454269 0.888176
O O18 0.158396 0.250000 0.841752
O O19 0.940981 0.750000 0.818863
#
# Coordination Sequence:
#
# PCOD8241555 Si02
#       7
#     8   8   8   8   8   8   8
#     4   9  17  29  48  74 102 130 166 211 254 299
#     4  10  20  36  59  84 109 137 170 208 250 298
#     4   9  16  28  45  69  97 126 166 217 262 305
#     4   9  17  28  45  67  94 129 171 215 264 311
#     4  10  20  33  48  69 100 137 178 223 268 314
#     4   9  19  35  54  77 105 136 168 203 247 300
#     4  10  19  33  53  76 102 132 170 212 254 305
#
# _framework density 17.723617999999998
#
# number of rings (size 3 to 8) (size 9 to 14) (size 15 to 20)
#    0.000    2.571    1.429    0.857    0.000    2.286 
#    0.000    1.429    0.000    5.143    0.000    0.000 
#    0.000    0.000    0.000    0.000    0.000    0.000 
#
# Total GULP energy -694146.867987 kJ/mol
# GULP energy per Si atom -12395.479785 kJ/mol
# Density = 1.768328 g / cm^3
# Si number density = 17.723618 Si / 1000 Ang^3
#
#
#
# Elastic Constant Matrix: (Units=GPa)
#
#
# Indices 1 2 3 4 5 6 
#
# 1 80.7682 35.4466 47.8985 0.0000 0.0000 0.0000
# 2 35.4466 59.9987 48.7216 0.0000 0.0000 0.0000
# 3 47.8985 48.7216 135.1579 0.0000 0.0000 0.0000
# 4 0.0000 0.0000 0.0000 29.1486 0.0000 0.0000
# 5 0.0000 0.0000 0.0000 0.0000 19.6390 0.0000
# 6 0.0000 0.0000 0.0000 0.0000 0.0000 21.8058
#
#
#
# Elastic Compliance Matrix: (Units=1/GPa)
#
#
# Indices 1 2 3 4 5 6 
#
# 1 0.017856 -0.007650 -0.003570 0.000000 0.000000 0.000000
# 2 -0.007650 0.026842 -0.006965 0.000000 0.000000 0.000000
# 3 -0.003570 -0.006965 0.011175 0.000000 0.000000 0.000000
# 4 0.000000 0.000000 0.000000 0.034307 0.000000 0.000000
# 5 0.000000 0.000000 0.000000 0.000000 0.050919 0.000000
# 6 0.000000 0.000000 0.000000 0.000000 0.000000 0.045859
#
#
# Mechanical properties :
#
#
# Convention : Reuss Voigt Hill
#
# Bulk Modulus (GPa) = 51.27526 60.00646 55.64086
# Shear Modulus (GPa) = 21.75528 23.70923 22.73226
#
# Velocity S-wave (km/s) = 3.50733 3.66145 3.58522
# Velocity P-wave (km/s) = 6.73759 7.19759 6.97138
#
# Compressibility (1/GPa) = 0.01950258
#
# Stress axis : x y z
#
# Youngs Moduli (GPa) = 56.00481 37.25452 89.48703
#
# Poissons Ratio (x) = 0.28499 0.31949
# Poissons Ratio (y) = 0.42842 0.62329
# Poissons Ratio (z) = 0.19995 0.25948
#
# Static dielectric constant tensor:
#      x y z
#    x 3.157780 0.000000 0.000000 
#    y 0.000000 3.323170 0.000000 
#    z 0.000000 0.000000 3.497890 
# 
# 
# High freq. dielectric constant tensor:
#      x y z
#    x 1.659240 0.000000 0.000000 
#    y 0.000000 1.687060 0.000000 
#    z 0.000000 0.000000 1.689980 
# 
# From -- ./inp_files/30596.got.cif
#   From: 2010.03.12/outbox.cif.g09.slc.cpg/sg59_16_cif.got.tgz:30596.got - 2010.04.16 16:29:54.
