data_PCOD8241493
_publ_section_title
;
Structure prediction by ZEFSAII (Michael W. Deem and Ramdas Pophale) SiO2 
 PCOD8241493
Probable space group: P M M N
;
_chemical_formula_sum "Si O2"
_cell_formula_units_Z 64
_cell_length_a 22.751047
_cell_length_b 9.234075
_cell_length_c 17.585545
_cell_angle_alpha 90.000000
_cell_angle_beta 90.000000
_cell_angle_gamma 90.000000
_cell_volume 3694.457011
_symmetry_space_group_name_H-M "P M M N"
_symmetry_group_IT_number 59
_space_group.IT_coordinate_system_code '2'
_symmetry_cell_setting 'orthorhombic'
loop_
_space_group_symop_operation_xyz
x,y,z
1/2-x,1/2-y,z
1/2+x,-y,-z
-x,1/2+y,-z
-x,-y,-z
1/2+x,1/2+y,-z
1/2-x,y,z
x,1/2-y,z
loop_
_atom_site_type_symbol
_atom_site_label
_atom_site_fract_x
_atom_site_fract_y
_atom_site_fract_z
Si Si1 0.909824 0.085264 0.178048
Si Si2 0.549152 0.077454 0.337890
Si Si3 0.940770 0.918004 0.481726
Si Si4 0.413503 0.415662 0.353327
Si Si5 0.134906 0.582059 0.097205
Si Si6 0.184401 0.917879 0.259050
Si Si7 0.184709 0.577358 0.936716
Si Si8 0.520663 0.915450 0.926514
O O1 0.890535 0.250000 0.188855
O O2 0.918370 0.018749 0.261972
O O3 0.858993 0.009232 0.127086
O O4 0.971516 0.073902 0.136825
O O5 0.554039 0.250000 0.348461
O O6 0.480178 0.031889 0.335491
O O7 0.584251 0.996993 0.406346
O O8 0.953371 0.750000 0.464364
O O9 0.899419 0.933547 0.556234
O O10 0.000000 0.000000 0.500000
O O11 0.407249 0.250000 0.327923
O O12 0.365542 0.503633 0.306911
O O13 0.116924 0.750000 0.088744
O O14 0.177002 0.556419 0.168888
O O15 0.077158 0.487992 0.110879
O O16 0.166478 0.525134 0.020792
O O17 0.250000 0.973610 0.280686
O O18 0.178324 0.750000 0.278613
O O19 0.250000 0.520519 0.918714
O O20 0.181829 0.750000 0.935363
O O21 0.533762 0.750000 0.949101
O O22 0.500000 0.000000 0.000000
#
# Coordination Sequence:
#
# PCOD8241493 Si02
#       8
#     8   8   8   8   8   8   8   8
#     4   9  17  29  46  70  98 127 161 199 240 288
#     4   9  17  30  49  74 102 128 159 201 251 298
#     4   9  17  30  49  74 101 126 157 191 234 293
#     4   9  18  32  49  70  97 131 164 196 245 305
#     4  10  19  33  50  71  98 128 165 207 251 293
#     4  10  21  34  49  72 101 133 171 214 253 291
#     4   9  16  28  48  69  90 124 168 205 237 279
#     4  11  20  32  49  71  99 129 162 201 248 297
#
# _framework density 17.323249000000001
#
# number of rings (size 3 to 8) (size 9 to 14) (size 15 to 20)
#    0.000    2.500    1.250    2.625    0.000    5.750 
#    0.000    1.250    0.000    1.875    0.000    1.750 
#    0.000    0.000    0.000    0.000    0.000    0.000 
#
# Total GULP energy -793189.014390 kJ/mol
# GULP energy per Si atom -12393.578350 kJ/mol
# Density = 1.728382 g / cm^3
# Si number density = 17.323249 Si / 1000 Ang^3
#
#
#
# Elastic Constant Matrix: (Units=GPa)
#
#
# Indices 1 2 3 4 5 6 
#
# 1 98.4580 30.2164 48.1234 0.0000 0.0000 0.0000
# 2 30.2164 56.6637 39.8770 0.0000 0.0000 0.0000
# 3 48.1234 39.8770 138.5459 0.0000 0.0000 0.0000
# 4 0.0000 0.0000 0.0000 24.6979 0.0000 0.0000
# 5 0.0000 0.0000 0.0000 0.0000 18.5350 0.0000
# 6 0.0000 0.0000 0.0000 0.0000 0.0000 19.4097
#
#
#
# Elastic Compliance Matrix: (Units=1/GPa)
#
#
# Indices 1 2 3 4 5 6 
#
# 1 0.013190 -0.004777 -0.003207 0.000000 0.000000 0.000000
# 2 -0.004777 0.023861 -0.005208 0.000000 0.000000 0.000000
# 3 -0.003207 -0.005208 0.009831 0.000000 0.000000 0.000000
# 4 0.000000 0.000000 0.000000 0.040489 0.000000 0.000000
# 5 0.000000 0.000000 0.000000 0.000000 0.053952 0.000000
# 6 0.000000 0.000000 0.000000 0.000000 0.000000 0.051521
#
#
# Mechanical properties :
#
#
# Convention : Reuss Voigt Hill
#
# Bulk Modulus (GPa) = 48.78663 58.90014 53.84339
# Shear Modulus (GPa) = 22.11804 24.22525 23.17164
#
# Velocity S-wave (km/s) = 3.57709 3.74361 3.66129
# Velocity P-wave (km/s) = 6.72937 7.26365 7.00161
#
# Compressibility (1/GPa) = 0.02049742
#
# Stress axis : x y z
#
# Youngs Moduli (GPa) = 75.81542 41.90968 101.72196
#
# Poissons Ratio (x) = 0.20021 0.32617
# Poissons Ratio (y) = 0.36218 0.52981
# Poissons Ratio (z) = 0.24310 0.21828
#
# Static dielectric constant tensor:
#      x y z
#    x 3.150250 0.000000 0.000000 
#    y 0.000000 3.394690 0.000000 
#    z 0.000000 0.000000 3.379620 
# 
# 
# High freq. dielectric constant tensor:
#      x y z
#    x 1.644920 0.000000 0.000000 
#    y 0.000000 1.644450 0.000000 
#    z 0.000000 0.000000 1.681000 
# 
# From -- ./inp_files/28423.got.cif
#   From: 2010.03.12/outbox.cif.g09.slc.cpg/sg59_15_cif.got.tgz:28423.got - 2010.04.16 16:29:54.
