data_PCOD8241480
_publ_section_title
;
Structure prediction by ZEFSAII (Michael W. Deem and Ramdas Pophale) SiO2 
 PCOD8241480
Probable space group: P M M N
;
_chemical_formula_sum "Si O2"
_cell_formula_units_Z 40
_cell_length_a 18.217116
_cell_length_b 7.829351
_cell_length_c 14.580270
_cell_angle_alpha 90.000000
_cell_angle_beta 90.000000
_cell_angle_gamma 90.000000
_cell_volume 2079.557598
_symmetry_space_group_name_H-M "P M M N"
_symmetry_group_IT_number 59
_space_group.IT_coordinate_system_code '2'
_symmetry_cell_setting 'orthorhombic'
loop_
_space_group_symop_operation_xyz
x,y,z
1/2-x,1/2-y,z
1/2+x,-y,-z
-x,1/2+y,-z
-x,-y,-z
1/2+x,1/2+y,-z
1/2-x,y,z
x,1/2-y,z
loop_
_atom_site_type_symbol
_atom_site_label
_atom_site_fract_x
_atom_site_fract_y
_atom_site_fract_z
Si Si1 0.162912 0.750000 0.508526
Si Si2 0.082763 0.446635 0.988307
Si Si3 0.407334 0.051141 0.190331
Si Si4 0.834375 0.939583 0.368766
Si Si5 0.079077 0.941246 0.797183
Si Si6 0.336970 0.750000 0.302255
O O1 0.250000 0.750000 0.504620
O O2 0.134285 0.579264 0.559864
O O3 0.131401 0.750000 0.405647
O O4 0.088227 0.250000 0.963755
O O5 0.115245 0.543644 0.899309
O O6 0.121648 0.485065 0.086082
O O7 0.000000 0.500000 0.000000
O O8 0.392395 0.250000 0.216453
O O9 0.493513 0.008817 0.198436
O O10 0.363778 0.924492 0.255819
O O11 0.750000 0.981612 0.345031
O O12 0.841985 0.750000 0.412403
O O13 0.879772 0.938494 0.274467
O O14 0.090147 0.750000 0.761769
O O15 0.250000 0.750000 0.300393
#
# Coordination Sequence:
#
# PCOD8241480 Si02
#       6
#     4   8   8   8   8   4
#     4   9  20  40  57  79 109 142 193 236 276 349
#     4   9  17  29  50  82 111 149 186 219 262 328
#     4   9  21  37  56  84 116 144 189 234 275 327
#     4  10  20  35  58  84 112 148 184 226 283 339
#     4  10  19  32  57  86 117 151 186 224 277 330
#     4  11  24  40  63  81 102 150 195 236 291 333
#
# _framework density 19.234860000000001
#
# number of rings (size 3 to 8) (size 9 to 14) (size 15 to 20)
#    0.000    2.400    1.000    2.400    8.400    1.200 
#    0.000    4.000    0.000    1.200    0.000    0.000 
#    0.000    0.000    0.000    0.000    0.000    0.000 
#
# Total GULP energy -495716.008254 kJ/mol
# GULP energy per Si atom -12392.900206 kJ/mol
# Density = 1.919108 g / cm^3
# Si number density = 19.234860 Si / 1000 Ang^3
#
#
#
# Elastic Constant Matrix: (Units=GPa)
#
#
# Indices 1 2 3 4 5 6 
#
# 1 41.5255 34.8634 36.9262 0.0000 0.0000 0.0000
# 2 34.8634 117.4090 72.5923 0.0000 0.0000 0.0000
# 3 36.9262 72.5923 155.1157 0.0000 0.0000 0.0000
# 4 0.0000 0.0000 0.0000 30.2940 0.0000 0.0000
# 5 0.0000 0.0000 0.0000 0.0000 37.5535 0.0000
# 6 0.0000 0.0000 0.0000 0.0000 0.0000 25.7309
#
#
#
# Elastic Compliance Matrix: (Units=1/GPa)
#
#
# Indices 1 2 3 4 5 6 
#
# 1 0.034447 -0.007259 -0.004803 0.000000 0.000000 0.000000
# 2 -0.007259 0.013515 -0.004597 0.000000 0.000000 0.000000
# 3 -0.004803 -0.004597 0.009741 0.000000 0.000000 0.000000
# 4 0.000000 0.000000 0.000000 0.033010 0.000000 0.000000
# 5 0.000000 0.000000 0.000000 0.000000 0.026629 0.000000
# 6 0.000000 0.000000 0.000000 0.000000 0.000000 0.038864
#
#
# Mechanical properties :
#
#
# Convention : Reuss Voigt Hill
#
# Bulk Modulus (GPa) = 41.00785 66.97931 53.99358
# Shear Modulus (GPa) = 25.29696 30.02688 27.66192
#
# Velocity S-wave (km/s) = 3.63045 3.95532 3.79636
# Velocity P-wave (km/s) = 6.24014 7.46705 6.88100
#
# Compressibility (1/GPa) = 0.02438558
#
# Stress axis : x y z
#
# Youngs Moduli (GPa) = 29.02996 73.99300 102.65406
#
# Poissons Ratio (x) = 0.53711 0.49307
# Poissons Ratio (y) = 0.21073 0.47187
# Poissons Ratio (z) = 0.13944 0.34013
#
# Static dielectric constant tensor:
#      x y z
#    x 3.068130 0.000000 0.000000 
#    y 0.000000 3.902750 0.000000 
#    z 0.000000 0.000000 3.830560 
# 
# 
# High freq. dielectric constant tensor:
#      x y z
#    x 1.698960 0.000000 0.000000 
#    y 0.000000 1.764720 0.000000 
#    z 0.000000 0.000000 1.753830 
# 
# From -- ./inp_files/18163.got.cif
#   From: 2010.03.12/outbox.cif.g09.slc.cpg/sg59_10_cif.got.tgz:18163.got - 2010.04.16 16:29:54.
