data_PCOD8241410
_publ_section_title
;
Structure prediction by ZEFSAII (Michael W. Deem and Ramdas Pophale) SiO2 
 PCOD8241410
Probable space group: P M M N
;
_chemical_formula_sum "Si O2"
_cell_formula_units_Z 48
_cell_length_a 18.171306
_cell_length_b 15.186888
_cell_length_c 9.253161
_cell_angle_alpha 90.000000
_cell_angle_beta 90.000000
_cell_angle_gamma 90.000000
_cell_volume 2553.554026
_symmetry_space_group_name_H-M "P M M N"
_symmetry_group_IT_number 59
_space_group.IT_coordinate_system_code '2'
_symmetry_cell_setting 'orthorhombic'
loop_
_space_group_symop_operation_xyz
x,y,z
1/2-x,1/2-y,z
1/2+x,-y,-z
-x,1/2+y,-z
-x,-y,-z
1/2+x,1/2+y,-z
1/2-x,y,z
x,1/2-y,z
loop_
_atom_site_type_symbol
_atom_site_label
_atom_site_fract_x
_atom_site_fract_y
_atom_site_fract_z
Si Si1 0.662951 0.089818 0.474623
Si Si2 0.573839 0.944973 0.978385
Si Si3 0.452927 0.250000 0.993116
Si Si4 0.882390 0.250000 0.956110
Si Si5 0.837503 0.250000 0.282551
Si Si6 0.168921 0.250000 0.754666
Si Si7 0.335317 0.923312 0.203108
Si Si8 0.665733 0.938667 0.272001
O O1 0.750000 0.096970 0.483917
O O2 0.633221 0.167391 0.373490
O O3 0.631821 0.096427 0.637223
O O4 0.635878 0.999837 0.400125
O O5 0.556634 0.844185 0.923445
O O6 0.622340 0.992189 0.857269
O O7 0.617257 0.947398 0.129150
O O8 0.500000 0.000000 0.000000
O O9 0.531899 0.250000 0.914505
O O10 0.390200 0.250000 0.877195
O O11 0.843996 0.163176 0.894476
O O12 0.876876 0.250000 0.128761
O O13 0.750000 0.250000 0.258804
O O14 0.250000 0.250000 0.828817
O O15 0.160530 0.160516 0.662266
O O16 0.250000 0.949061 0.210174
O O17 0.750000 0.964402 0.231928
#
# Coordination Sequence:
#
# PCOD8241410 Si02
#       8
#     8   8   4   4   4   4   8   8
#     4   9  19  34  53  81 117 147 188 239 288 340
#     4  11  21  37  58  82 116 151 194 239 286 342
#     4  10  22  37  56  84 121 149 187 238 300 329
#     4  12  21  35  61  87 125 152 193 239 290 353
#     4  10  19  32  53  82 113 153 193 234 280 341
#     4   8  16  32  58  81 103 142 199 241 276 329
#     4  11  22  37  59  88 117 153 192 240 295 347
#     4   9  17  33  57  82 106 143 191 239 280 336
#
# _framework density 18.797332000000001
#
# number of rings (size 3 to 8) (size 9 to 14) (size 15 to 20)
#    0.000    2.000    1.667    2.750    0.000    3.333 
#    0.000    1.667    0.000    2.000    0.000    0.000 
#    0.000    0.000    0.000    0.000    0.000    0.000 
#
# Total GULP energy -594849.009105 kJ/mol
# GULP energy per Si atom -12392.687690 kJ/mol
# Density = 1.875455 g / cm^3
# Si number density = 18.797332 Si / 1000 Ang^3
#
#
#
# Elastic Constant Matrix: (Units=GPa)
#
#
# Indices 1 2 3 4 5 6 
#
# 1 72.0440 38.6184 23.6412 0.0000 0.0000 0.0000
# 2 38.6184 177.1651 68.4724 0.0000 0.0000 0.0000
# 3 23.6412 68.4724 125.2729 0.0000 0.0000 0.0000
# 4 0.0000 0.0000 0.0000 18.5715 0.0000 0.0000
# 5 0.0000 0.0000 0.0000 0.0000 -35.6598 0.0000
# 6 0.0000 0.0000 0.0000 0.0000 0.0000 25.4121
#
#
#
# Elastic Compliance Matrix: (Units=1/GPa)
#
#
# Indices 1 2 3 4 5 6 
#
# 1 0.015909 -0.002925 -0.001403 0.000000 0.000000 0.000000
# 2 -0.002925 0.007694 -0.003653 0.000000 0.000000 0.000000
# 3 -0.001403 -0.003653 0.010244 0.000000 0.000000 0.000000
# 4 0.000000 0.000000 0.000000 0.053846 0.000000 0.000000
# 5 0.000000 0.000000 0.000000 0.000000 -0.028043 0.000000
# 6 0.000000 0.000000 0.000000 0.000000 0.000000 0.039351
#
#
# Mechanical properties :
#
#
# Convention : Reuss Voigt Hill
#
# Bulk Modulus (GPa) = 55.91867 70.66067 63.28967
# Shear Modulus (GPa) = 41.34709 17.91477 29.63093
#
# Velocity S-wave (km/s) = 4.69510 3.09050 3.97462
# Velocity P-wave (km/s) = 7.69446 7.09981 7.40311
#
# Compressibility (1/GPa) = 0.01788312
#
# Stress axis : x y z
#
# Youngs Moduli (GPa) = 62.85724 129.96867 97.61514
#
# Poissons Ratio (x) = 0.38022 0.13698
# Poissons Ratio (y) = 0.18389 0.35663
# Poissons Ratio (z) = 0.08821 0.47483
#
# Static dielectric constant tensor:
#      x y z
#    x 3.420700 0.000000 0.000000 
#    y 0.000000 4.206160 0.000000 
#    z 0.000000 0.000000 3.345480 
# 
# 
# High freq. dielectric constant tensor:
#      x y z
#    x 1.719850 0.000000 0.000000 
#    y 0.000000 1.755280 0.000000 
#    z 0.000000 0.000000 1.701690 
# 
# From -- ./inp_files/9104.got.cif
#   From: 2010.03.12/outbox.cif.g09.slc.cpg/sg59_5_cif.got.tgz:9104.got - 2010.04.16 16:29:54.
