data_PCOD8241062
_publ_section_title
;
Structure prediction by ZEFSAII (Michael W. Deem and Ramdas Pophale) SiO2 
 PCOD8241062
Probable space group: P M M N
;
_chemical_formula_sum "Si O2"
_cell_formula_units_Z 64
_cell_length_a 8.926069
_cell_length_b 28.192108
_cell_length_c 15.535588
_cell_angle_alpha 90.000000
_cell_angle_beta 90.000000
_cell_angle_gamma 90.000000
_cell_volume 3909.448401
_symmetry_space_group_name_H-M "P M M N"
_symmetry_group_IT_number 59
_space_group.IT_coordinate_system_code '2'
_symmetry_cell_setting 'orthorhombic'
loop_
_space_group_symop_operation_xyz
x,y,z
1/2-x,1/2-y,z
1/2+x,-y,-z
-x,1/2+y,-z
-x,-y,-z
1/2+x,1/2+y,-z
1/2-x,y,z
x,1/2-y,z
loop_
_atom_site_type_symbol
_atom_site_label
_atom_site_fract_x
_atom_site_fract_y
_atom_site_fract_z
Si Si1 0.577202 0.543109 0.398839
Si Si2 0.421867 0.194361 0.498562
Si Si3 0.076491 0.447239 0.402345
Si Si4 0.918394 0.193706 0.007397
Si Si5 0.573738 0.856947 0.333177
Si Si6 0.075208 0.194413 0.180518
Si Si7 0.927182 0.145625 0.340725
Si Si8 0.425680 0.305161 0.835087
O O1 0.750000 0.528254 0.389532
O O2 0.543395 0.558870 0.496507
O O3 0.475915 0.498977 0.370537
O O4 0.535412 0.587196 0.337328
O O5 0.250000 0.178087 0.483149
O O6 0.432967 0.250000 0.512554
O O7 0.492150 0.169512 0.582986
O O8 0.516420 0.179586 0.416275
O O9 0.250000 0.441020 0.380587
O O10 0.984421 0.407847 0.351513
O O11 0.750000 0.173632 0.015788
O O12 0.917822 0.250000 0.004513
O O13 0.992153 0.174683 0.919533
O O14 0.016886 0.176487 0.087974
O O15 0.750000 0.847846 0.334178
O O16 0.508005 0.834526 0.245823
O O17 0.250000 0.183056 0.187969
O O18 0.042918 0.250000 0.193704
O O19 0.985792 0.165373 0.251071
O O20 0.750000 0.145721 0.340014
O O21 0.250000 0.313698 0.847983
O O22 0.460773 0.250000 0.818765
#
# Coordination Sequence:
#
# PCOD8241062 Si02
#       8
#     8   8   8   8   8   8   8   8
#     4   9  17  31  50  70  94 122 159 206 252 287
#     4  10  19  32  48  66  94 133 171 201 233 277
#     4  10  19  33  51  69  92 122 162 205 247 291
#     4   9  17  30  47  68  96 127 158 198 245 284
#     4   9  16  29  48  71  96 127 165 203 238 279
#     4  10  20  34  52  72  95 126 164 202 239 284
#     4  12  23  33  47  69  98 129 162 198 243 291
#     4   9  16  27  46  71  97 128 166 201 233 276
#
# _framework density 16.370597
#
# number of rings (size 3 to 8) (size 9 to 14) (size 15 to 20)
#    0.000    2.250    1.250    3.000    0.000    6.000 
#    0.000    1.250    0.000    1.500    0.000    0.875 
#    0.000    0.000    0.000    0.000    0.000    0.000 
#
# Total GULP energy -793683.650243 kJ/mol
# GULP energy per Si atom -12401.307035 kJ/mol
# Density = 1.633334 g / cm^3
# Si number density = 16.370597 Si / 1000 Ang^3
#
#
#
# Elastic Constant Matrix: (Units=GPa)
#
#
# Indices 1 2 3 4 5 6 
#
# 1 85.9597 40.0362 45.1883 0.0000 0.0000 0.0000
# 2 40.0362 71.9787 46.0013 0.0000 0.0000 0.0000
# 3 45.1883 46.0013 112.9309 0.0000 0.0000 0.0000
# 4 0.0000 0.0000 0.0000 12.1552 0.0000 0.0000
# 5 0.0000 0.0000 0.0000 0.0000 14.8426 0.0000
# 6 0.0000 0.0000 0.0000 0.0000 0.0000 22.9885
#
#
#
# Elastic Compliance Matrix: (Units=1/GPa)
#
#
# Indices 1 2 3 4 5 6 
#
# 1 0.016923 -0.006875 -0.003971 0.000000 0.000000 0.000000
# 2 -0.006875 0.021576 -0.006038 0.000000 0.000000 0.000000
# 3 -0.003971 -0.006038 0.012903 0.000000 0.000000 0.000000
# 4 0.000000 0.000000 0.000000 0.082269 0.000000 0.000000
# 5 0.000000 0.000000 0.000000 0.000000 0.067374 0.000000
# 6 0.000000 0.000000 0.000000 0.000000 0.000000 0.043500
#
#
# Mechanical properties :
#
#
# Convention : Reuss Voigt Hill
#
# Bulk Modulus (GPa) = 56.70722 59.25789 57.98255
# Shear Modulus (GPa) = 17.59380 19.30683 18.45032
#
# Velocity S-wave (km/s) = 3.28185 3.43791 3.36078
# Velocity P-wave (km/s) = 7.00540 7.21355 7.11023
#
# Compressibility (1/GPa) = 0.01763444
#
# Stress axis : x y z
#
# Youngs Moduli (GPa) = 59.09110 46.34844 77.49922
#
# Poissons Ratio (x) = 0.31865 0.30776
# Poissons Ratio (y) = 0.40625 0.46791
# Poissons Ratio (z) = 0.23466 0.27984
#
# Static dielectric constant tensor:
#      x y z
#    x 3.065210 0.000000 0.000000 
#    y 0.000000 2.969640 0.000000 
#    z 0.000000 0.000000 3.148350 
# 
# 
# High freq. dielectric constant tensor:
#      x y z
#    x 1.625300 0.000000 0.000000 
#    y 0.000000 1.611040 0.000000 
#    z 0.000000 0.000000 1.621610 
# 
# From -- ./inp_files/21883.got.cif
#   From: 2010.03.12/outbox.cif.g09.slc.cpg/sg59_11_cif.got.tgz:21883.got - 2010.04.16 16:29:54.
