data_PCOD8241218
_publ_section_title
;
Structure prediction by ZEFSAII (Michael W. Deem and Ramdas Pophale) SiO2 
 PCOD8241218
Probable space group: P M M N
;
_chemical_formula_sum "Si O2"
_cell_formula_units_Z 64
_cell_length_a 28.927998
_cell_length_b 8.971631
_cell_length_c 12.710753
_cell_angle_alpha 90.000000
_cell_angle_beta 90.000000
_cell_angle_gamma 90.000000
_cell_volume 3298.838550
_symmetry_space_group_name_H-M "P M M N"
_symmetry_group_IT_number 59
_space_group.IT_coordinate_system_code '2'
_symmetry_cell_setting 'orthorhombic'
loop_
_space_group_symop_operation_xyz
x,y,z
1/2-x,1/2-y,z
1/2+x,-y,-z
-x,1/2+y,-z
-x,-y,-z
1/2+x,1/2+y,-z
1/2-x,y,z
x,1/2-y,z
loop_
_atom_site_type_symbol
_atom_site_label
_atom_site_fract_x
_atom_site_fract_y
_atom_site_fract_z
Si Si1 0.560751 0.426201 0.251422
Si Si2 0.952553 0.076198 0.020369
Si Si3 0.839793 0.426583 0.289497
Si Si4 0.867315 0.425309 0.882875
Si Si5 0.302706 0.575190 0.489977
Si Si6 0.520451 0.927327 0.603710
Si Si7 0.802112 0.072806 0.069371
Si Si8 0.376027 0.073273 0.338293
O O1 0.558531 0.250000 0.256030
O O2 0.607399 0.481959 0.309904
O O3 0.513672 0.486661 0.304066
O O4 0.566200 0.482732 0.131970
O O5 0.961126 0.250000 0.027300
O O6 0.917798 0.035758 0.927144
O O7 0.000000 0.000000 0.000000
O O8 0.838626 0.250000 0.277889
O O9 0.809002 0.475934 0.388741
O O10 0.820263 0.494816 0.180263
O O11 0.860761 0.250000 0.862431
O O12 0.860871 0.511221 0.774496
O O13 0.830939 0.485647 0.969232
O O14 0.250000 0.539744 0.456291
O O15 0.313671 0.750000 0.476856
O O16 0.338264 0.482931 0.420457
O O17 0.519381 0.750000 0.591402
O O18 0.572573 0.982953 0.628736
O O19 0.500000 0.000000 0.500000
O O20 0.750000 0.018904 0.052498
O O21 0.806450 0.250000 0.073599
O O22 0.374971 0.250000 0.333911
#
# Coordination Sequence:
#
# PCOD8241218 Si02
#       8
#     8   8   8   8   8   8   8   8
#     4   9  16  29  50  75 107 144 177 217 275 335
#     4  10  19  32  51  76 107 144 185 225 273 328
#     4   9  15  28  53  85 115 139 173 229 290 339
#     4  10  20  35  55  81 112 148 191 237 280 332
#     4  10  21  37  60  88 112 141 189 244 292 342
#     4  10  21  36  55  80 110 148 192 234 280 336
#     4   9  16  28  50  82 115 142 176 230 289 336
#     4  11  24  40  57  80 115 156 193 233 287 349
#
# _framework density 19.400766999999998
#
# number of rings (size 3 to 8) (size 9 to 14) (size 15 to 20)
#    0.000    2.250    1.250    2.250    0.000    5.750 
#    0.000    1.875    0.000    1.500    0.000    0.000 
#    0.000    0.000    0.000    0.000    0.000    0.000 
#
# Total GULP energy -793344.342869 kJ/mol
# GULP energy per Si atom -12396.005357 kJ/mol
# Density = 1.935661 g / cm^3
# Si number density = 19.400767 Si / 1000 Ang^3
#
#
#
# Elastic Constant Matrix: (Units=GPa)
#
#
# Indices 1 2 3 4 5 6 
#
# 1 148.6063 32.2999 64.5743 0.0000 0.0000 0.0000
# 2 32.2999 24.7622 32.8446 0.0000 0.0000 0.0000
# 3 64.5743 32.8446 136.9491 0.0000 0.0000 0.0000
# 4 0.0000 0.0000 0.0000 19.8005 0.0000 0.0000
# 5 0.0000 0.0000 0.0000 0.0000 37.1582 0.0000
# 6 0.0000 0.0000 0.0000 0.0000 0.0000 24.3997
#
#
#
# Elastic Compliance Matrix: (Units=1/GPa)
#
#
# Indices 1 2 3 4 5 6 
#
# 1 0.009860 -0.009818 -0.002295 0.000000 0.000000 0.000000
# 2 -0.009818 0.069000 -0.011919 0.000000 0.000000 0.000000
# 3 -0.002295 -0.011919 0.011242 0.000000 0.000000 0.000000
# 4 0.000000 0.000000 0.000000 0.050504 0.000000 0.000000
# 5 0.000000 0.000000 0.000000 0.000000 0.026912 0.000000
# 6 0.000000 0.000000 0.000000 0.000000 0.000000 0.040984
#
#
# Mechanical properties :
#
#
# Convention : Reuss Voigt Hill
#
# Bulk Modulus (GPa) = 23.78714 63.30615 43.54665
# Shear Modulus (GPa) = 18.47888 28.31161 23.39524
#
# Velocity S-wave (km/s) = 3.08958 3.82423 3.47636
# Velocity P-wave (km/s) = 5.00149 7.22504 6.21354
#
# Compressibility (1/GPa) = 0.04203952
#
# Stress axis : x y z
#
# Youngs Moduli (GPa) = 101.41687 14.49272 88.94860
#
# Poissons Ratio (x) = 0.14229 0.20410
# Poissons Ratio (y) = 0.99573 1.06017
# Poissons Ratio (z) = 0.23271 0.17274
#
# Static dielectric constant tensor:
#      x y z
#    x 3.807350 0.000000 0.000000 
#    y 0.000000 3.115650 0.000000 
#    z 0.000000 0.000000 3.289090 
# 
# 
# High freq. dielectric constant tensor:
#      x y z
#    x 1.772250 0.000000 0.000000 
#    y 0.000000 1.700600 0.000000 
#    z 0.000000 0.000000 1.767370 
# 
# From -- ./inp_files/19294.got.cif
#   From: 2010.03.12/outbox.cif.g09.slc.cpg/sg59_10_cif.got.tgz:19294.got - 2010.04.16 16:29:54.
