data_PCOD8241811
_publ_section_title
;
Structure prediction by ZEFSAII (Michael W. Deem and Ramdas Pophale) SiO2 
 PCOD8241811
Probable space group: P M M N
;
_chemical_formula_sum "Si O2"
_cell_formula_units_Z 64
_cell_length_a 16.386123
_cell_length_b 18.207309
_cell_length_c 11.138987
_cell_angle_alpha 90.000000
_cell_angle_beta 90.000000
_cell_angle_gamma 90.000000
_cell_volume 3323.285635
_symmetry_space_group_name_H-M "P M M N"
_symmetry_group_IT_number 59
_space_group.IT_coordinate_system_code '2'
_symmetry_cell_setting 'orthorhombic'
loop_
_space_group_symop_operation_xyz
x,y,z
1/2-x,1/2-y,z
1/2+x,-y,-z
-x,1/2+y,-z
-x,-y,-z
1/2+x,1/2+y,-z
1/2-x,y,z
x,1/2-y,z
loop_
_atom_site_type_symbol
_atom_site_label
_atom_site_fract_x
_atom_site_fract_y
_atom_site_fract_z
Si Si1 0.975331 0.834271 0.074692
Si Si2 0.075272 0.451403 0.316533
Si Si3 0.004402 0.392218 0.667811
Si Si4 0.659055 0.085205 0.279052
Si Si5 0.045302 0.833621 0.570895
Si Si6 0.661122 0.553648 0.446747
Si Si7 0.156583 0.423443 0.067724
Si Si8 0.577575 0.050785 0.034756
O O1 0.971963 0.750000 0.036357
O O2 0.984317 0.841177 0.217242
O O3 0.892763 0.872877 0.026524
O O4 0.057921 0.869122 0.018322
O O5 0.144866 0.466788 0.414558
O O6 0.115110 0.418571 0.197235
O O7 0.026356 0.527074 0.292835
O O8 0.016854 0.389122 0.366960
O O9 0.093100 0.392554 0.605560
O O10 0.943825 0.355187 0.570007
O O11 0.750000 0.100379 0.226838
O O12 0.629079 0.156655 0.353579
O O13 0.594971 0.061986 0.175349
O O14 0.660456 0.020946 0.374301
O O15 0.015074 0.750000 0.581790
O O16 0.750000 0.591858 0.436554
O O17 0.250000 0.396575 0.072504
O O18 0.154718 0.508835 0.023901
O O19 0.500000 0.000000 0.000000
#
# Coordination Sequence:
#
# PCOD8241811 Si02
#       8
#     8   8   8   8   8   8   8   8
#     4  11  24  40  62  88 119 160 203 253 304 358
#     4  11  20  38  62  87 115 156 206 249 291 361
#     4  11  20  39  63  86 115 156 205 250 288 364
#     4  11  21  34  56  87 119 152 192 243 301 356
#     4  11  22  37  59  88 120 155 196 245 303 365
#     4  10  19  33  58  91 120 146 188 247 303 350
#     4  11  23  38  61  89 121 159 202 251 301 358
#     4  10  20  36  59  85 116 154 206 248 289 353
#
# _framework density 19.258050000000001
#
# number of rings (size 3 to 8) (size 9 to 14) (size 15 to 20)
#    0.000    1.250    3.750    4.875    0.000    4.000 
#    0.000    0.000    0.000   13.125    0.000    0.000 
#    0.000    0.000    0.000    0.000    0.000    0.000 
#
# Total GULP energy -793244.350417 kJ/mol
# GULP energy per Si atom -12394.442975 kJ/mol
# Density = 1.921422 g / cm^3
# Si number density = 19.258050 Si / 1000 Ang^3
#
#
#
# Elastic Constant Matrix: (Units=GPa)
#
#
# Indices 1 2 3 4 5 6 
#
# 1 78.6533 33.5284 40.3359 0.0000 0.0000 0.0000
# 2 33.5284 103.1711 28.7743 0.0000 0.0000 0.0000
# 3 40.3359 28.7743 136.1629 0.0000 0.0000 0.0000
# 4 0.0000 0.0000 0.0000 21.8461 0.0000 0.0000
# 5 0.0000 0.0000 0.0000 0.0000 25.0665 0.0000
# 6 0.0000 0.0000 0.0000 0.0000 0.0000 13.4613
#
#
#
# Elastic Compliance Matrix: (Units=1/GPa)
#
#
# Indices 1 2 3 4 5 6 
#
# 1 0.016593 -0.004273 -0.004012 0.000000 0.000000 0.000000
# 2 -0.004273 0.011400 -0.001143 0.000000 0.000000 0.000000
# 3 -0.004012 -0.001143 0.008774 0.000000 0.000000 0.000000
# 4 0.000000 0.000000 0.000000 0.045775 0.000000 0.000000
# 5 0.000000 0.000000 0.000000 0.000000 0.039894 0.000000
# 6 0.000000 0.000000 0.000000 0.000000 0.000000 0.074287
#
#
# Mechanical properties :
#
#
# Convention : Reuss Voigt Hill
#
# Bulk Modulus (GPa) = 55.83518 58.14051 56.98784
# Shear Modulus (GPa) = 22.56811 26.43137 24.49974
#
# Velocity S-wave (km/s) = 3.42699 3.70872 3.57064
# Velocity P-wave (km/s) = 6.68693 6.97103 6.83046
#
# Compressibility (1/GPa) = 0.01790986
#
# Stress axis : x y z
#
# Youngs Moduli (GPa) = 60.26493 87.71742 113.96857
#
# Poissons Ratio (x) = 0.37485 0.45729
# Poissons Ratio (y) = 0.25754 0.13029
# Poissons Ratio (z) = 0.24181 0.10028
#
# Static dielectric constant tensor:
#      x y z
#    x 3.884160 0.000000 0.000000 
#    y 0.000000 3.350080 0.000000 
#    z 0.000000 0.000000 3.801170 
# 
# 
# High freq. dielectric constant tensor:
#      x y z
#    x 1.739030 0.000000 0.000000 
#    y 0.000000 1.721580 0.000000 
#    z 0.000000 0.000000 1.770510 
# 
# From -- ./inp_files/17945.got.cif
#   From: 2010.03.12/outbox.cif.g09.slc.cpg/sg59_9_cif.got.tgz:17945.got - 2010.04.16 16:29:54.
