data_PCOD8241681
_publ_section_title
;
Structure prediction by ZEFSAII (Michael W. Deem and Ramdas Pophale) SiO2 
 PCOD8241681
Probable space group: P M M N
;
_chemical_formula_sum "Si O2"
_cell_formula_units_Z 48
_cell_length_a 31.303822
_cell_length_b 8.816981
_cell_length_c 9.120309
_cell_angle_alpha 90.000000
_cell_angle_beta 90.000000
_cell_angle_gamma 90.000000
_cell_volume 2517.252744
_symmetry_space_group_name_H-M "P M M N"
_symmetry_group_IT_number 59
_space_group.IT_coordinate_system_code '2'
_symmetry_cell_setting 'orthorhombic'
loop_
_space_group_symop_operation_xyz
x,y,z
1/2-x,1/2-y,z
1/2+x,-y,-z
-x,1/2+y,-z
-x,-y,-z
1/2+x,1/2+y,-z
1/2-x,y,z
x,1/2-y,z
loop_
_atom_site_type_symbol
_atom_site_label
_atom_site_fract_x
_atom_site_fract_y
_atom_site_fract_z
Si Si1 0.039168 0.069565 0.912109
Si Si2 0.382380 0.928507 0.076568
Si Si3 0.296054 0.420786 0.421683
Si Si4 0.119665 0.927450 0.411156
Si Si5 0.203054 0.421406 0.073457
Si Si6 0.537990 0.430990 0.407694
O O1 0.034915 0.250000 0.909247
O O2 0.037182 0.004386 0.750286
O O3 0.083637 0.021613 0.983685
O O4 0.000000 0.000000 0.000000
O O5 0.390518 0.750000 0.057669
O O6 0.387479 0.984526 0.244671
O O7 0.334858 0.969267 0.016470
O O8 0.250000 0.485969 0.477148
O O9 0.301163 0.250000 0.478491
O O10 0.336122 0.514402 0.482838
O O11 0.296370 0.426673 0.247554
O O12 0.122779 0.750000 0.407300
O O13 0.081331 0.983507 0.512689
O O14 0.250000 0.475389 0.015412
O O15 0.194140 0.250000 0.019458
O O16 0.500000 0.500000 0.500000
O O17 0.533948 0.250000 0.397631
#
# Coordination Sequence:
#
# PCOD8241681 Si02
#       6
#     8   8   8   8   8   8
#     4  12  25  41  60  82 108 141 181 225 276 331
#     4  10  19  33  54  82 113 144 181 224 271 324
#     4   8  14  25  44  72 105 140 178 218 259 306
#     4   9  19  33  52  79 110 142 177 218 264 316
#     4   8  14  26  45  72 107 145 183 222 265 314
#     4  11  23  40  60  83 111 143 180 223 271 325
#
# _framework density 19.068407000000001
#
# number of rings (size 3 to 8) (size 9 to 14) (size 15 to 20)
#    0.000    2.333    0.000    4.500    0.000    4.000 
#    0.000    3.333    0.000    1.000    0.000    4.667 
#    0.000    0.000    0.000    0.000    0.000    0.000 
#
# Total GULP energy -594977.222349 kJ/mol
# GULP energy per Si atom -12395.358799 kJ/mol
# Density = 1.902501 g / cm^3
# Si number density = 19.068407 Si / 1000 Ang^3
#
#
#
# Elastic Constant Matrix: (Units=GPa)
#
#
# Indices 1 2 3 4 5 6 
#
# 1 192.0560 60.7652 73.3219 0.0000 0.0000 0.0000
# 2 60.7652 73.0348 41.9959 0.0000 0.0000 0.0000
# 3 73.3219 41.9959 91.4221 0.0000 0.0000 0.0000
# 4 0.0000 0.0000 0.0000 24.3368 0.0000 0.0000
# 5 0.0000 0.0000 0.0000 0.0000 20.5056 0.0000
# 6 0.0000 0.0000 0.0000 0.0000 0.0000 40.8702
#
#
#
# Elastic Compliance Matrix: (Units=1/GPa)
#
#
# Indices 1 2 3 4 5 6 
#
# 1 0.008361 -0.004214 -0.004770 0.000000 0.000000 0.000000
# 2 -0.004214 0.020730 -0.006143 0.000000 0.000000 0.000000
# 3 -0.004770 -0.006143 0.017586 0.000000 0.000000 0.000000
# 4 0.000000 0.000000 0.000000 0.041090 0.000000 0.000000
# 5 0.000000 0.000000 0.000000 0.000000 0.048767 0.000000
# 6 0.000000 0.000000 0.000000 0.000000 0.000000 0.024468
#
#
# Mechanical properties :
#
#
# Convention : Reuss Voigt Hill
#
# Bulk Modulus (GPa) = 60.88937 78.74211 69.81574
# Shear Modulus (GPa) = 25.41543 29.17119 27.29331
#
# Velocity S-wave (km/s) = 3.65479 3.91553 3.78741
# Velocity P-wave (km/s) = 7.05772 7.86295 7.47119
#
# Compressibility (1/GPa) = 0.01642323
#
# Stress axis : x y z
#
# Youngs Moduli (GPa) = 119.60197 48.23856 56.86322
#
# Poissons Ratio (x) = 0.20325 0.27125
# Poissons Ratio (y) = 0.50395 0.34933
# Poissons Ratio (z) = 0.57052 0.29635
#
# Static dielectric constant tensor:
#      x y z
#    x 4.275610 0.000000 0.000000 
#    y 0.000000 3.595400 0.000000 
#    z 0.000000 0.000000 3.539370 
# 
# 
# High freq. dielectric constant tensor:
#      x y z
#    x 1.767800 0.000000 0.000000 
#    y 0.000000 1.739950 0.000000 
#    z 0.000000 0.000000 1.701560 
# 
# From -- ./inp_files/6312.got.cif
#   From: 2010.03.12/outbox.cif.g09.slc.cpg/sg59_4_cif.got.tgz:6312.got - 2010.04.16 16:29:54.
