data_PCOD8241073
_publ_section_title
;
Structure prediction by ZEFSAII (Michael W. Deem and Ramdas Pophale) SiO2 
 PCOD8241073
Probable space group: P M M N
;
_chemical_formula_sum "Si O2"
_cell_formula_units_Z 48
_cell_length_a 20.095530
_cell_length_b 9.488315
_cell_length_c 15.321347
_cell_angle_alpha 90.000000
_cell_angle_beta 90.000000
_cell_angle_gamma 90.000000
_cell_volume 2921.362887
_symmetry_space_group_name_H-M "P M M N"
_symmetry_group_IT_number 59
_space_group.IT_coordinate_system_code '2'
_symmetry_cell_setting 'orthorhombic'
loop_
_space_group_symop_operation_xyz
x,y,z
1/2-x,1/2-y,z
1/2+x,-y,-z
-x,1/2+y,-z
-x,-y,-z
1/2+x,1/2+y,-z
1/2-x,y,z
x,1/2-y,z
loop_
_atom_site_type_symbol
_atom_site_label
_atom_site_fract_x
_atom_site_fract_y
_atom_site_fract_z
Si Si1 0.930068 0.589966 0.072503
Si Si2 0.107700 0.409034 0.744561
Si Si3 0.936907 0.085132 0.532350
Si Si4 0.547421 0.088018 0.727277
Si Si5 0.325188 0.914125 0.601744
Si Si6 0.943051 0.588007 0.885409
O O1 0.960517 0.750000 0.079400
O O2 0.876769 0.573061 0.151370
O O3 0.985274 0.471874 0.088269
O O4 0.898681 0.571314 0.974767
O O5 0.121576 0.250000 0.713472
O O6 0.156079 0.509593 0.691386
O O7 0.030874 0.448883 0.726028
O O8 0.952995 0.250000 0.521102
O O9 0.921815 0.049397 0.633351
O O10 0.872576 0.037616 0.477432
O O11 0.000000 0.000000 0.500000
O O12 0.559332 0.250000 0.750735
O O13 0.585313 0.997302 0.802076
O O14 0.250000 0.953234 0.575216
O O15 0.333316 0.750000 0.620253
O O16 0.949315 0.750000 0.857099
#
# Coordination Sequence:
#
# PCOD8241073 Si02
#       6
#     8   8   8   8   8   8
#     4   8  15  26  38  57  89 120 146 179 218 262
#     4   9  16  28  45  64  88 119 152 186 224 271
#     4  10  19  32  49  67  91 122 156 194 236 280
#     4   9  17  28  42  63  91 119 149 188 229 270
#     4  10  21  34  47  67  94 121 152 193 237 281
#     4   9  15  23  38  61  88 118 147 179 220 266
#
# _framework density 16.430686999999999
#
# number of rings (size 3 to 8) (size 9 to 14) (size 15 to 20)
#    0.000    2.833    1.667    1.500    0.000    4.333 
#    0.000    0.000    0.000    0.000    0.000    1.167 
#    0.000    4.000    0.000    0.000    0.000    0.000 
#
# Total GULP energy -594719.683469 kJ/mol
# GULP energy per Si atom -12389.993406 kJ/mol
# Density = 1.639329 g / cm^3
# Si number density = 16.430687 Si / 1000 Ang^3
#
#
#
# Elastic Constant Matrix: (Units=GPa)
#
#
# Indices 1 2 3 4 5 6 
#
# 1 61.5676 30.7784 51.5057 0.0000 0.0000 0.0000
# 2 30.7784 64.8376 62.0463 0.0000 0.0000 0.0000
# 3 51.5057 62.0463 164.4420 0.0000 0.0000 0.0000
# 4 0.0000 0.0000 0.0000 31.4181 0.0000 0.0000
# 5 0.0000 0.0000 0.0000 0.0000 14.3858 0.0000
# 6 0.0000 0.0000 0.0000 0.0000 0.0000 13.6495
#
#
#
# Elastic Compliance Matrix: (Units=1/GPa)
#
#
# Indices 1 2 3 4 5 6 
#
# 1 0.023625 -0.006470 -0.004959 0.000000 0.000000 0.000000
# 2 -0.006470 0.025911 -0.007750 0.000000 0.000000 0.000000
# 3 -0.004959 -0.007750 0.010559 0.000000 0.000000 0.000000
# 4 0.000000 0.000000 0.000000 0.031829 0.000000 0.000000
# 5 0.000000 0.000000 0.000000 0.000000 0.069513 0.000000
# 6 0.000000 0.000000 0.000000 0.000000 0.000000 0.073263
#
#
# Mechanical properties :
#
#
# Convention : Reuss Voigt Hill
#
# Bulk Modulus (GPa) = 46.00355 64.38978 55.19667
# Shear Modulus (GPa) = 17.83798 21.65846 19.74822
#
# Velocity S-wave (km/s) = 3.29850 3.63460 3.47062
# Velocity P-wave (km/s) = 6.52427 7.54239 7.05173
#
# Compressibility (1/GPa) = 0.02173745
#
# Stress axis : x y z
#
# Youngs Moduli (GPa) = 42.32855 38.59399 94.71040
#
# Poissons Ratio (x) = 0.24969 0.46963
# Poissons Ratio (y) = 0.27385 0.73402
# Poissons Ratio (z) = 0.20989 0.29911
#
# Static dielectric constant tensor:
#      x y z
#    x 2.617750 0.000000 0.000000 
#    y 0.000000 3.148000 0.000000 
#    z 0.000000 0.000000 3.724570 
# 
# 
# High freq. dielectric constant tensor:
#      x y z
#    x 1.555180 0.000000 0.000000 
#    y 0.000000 1.638360 0.000000 
#    z 0.000000 0.000000 1.658320 
# 
# From -- ./inp_files/20743.got.cif
#   From: 2010.03.12/outbox.cif.g09.slc.cpg/sg59_11_cif.got.tgz:20743.got - 2010.04.16 16:29:54.
