data_PCOD8241312
_publ_section_title
;
Structure prediction by ZEFSAII (Michael W. Deem and Ramdas Pophale) SiO2 
 PCOD8241312
Probable space group: P M M N
;
_chemical_formula_sum "Si O2"
_cell_formula_units_Z 48
_cell_length_a 18.116449
_cell_length_b 8.830928
_cell_length_c 15.624883
_cell_angle_alpha 90.000000
_cell_angle_beta 90.000000
_cell_angle_gamma 90.000000
_cell_volume 2499.747793
_symmetry_space_group_name_H-M "P M M N"
_symmetry_group_IT_number 59
_space_group.IT_coordinate_system_code '2'
_symmetry_cell_setting 'orthorhombic'
loop_
_space_group_symop_operation_xyz
x,y,z
1/2-x,1/2-y,z
1/2+x,-y,-z
-x,1/2+y,-z
-x,-y,-z
1/2+x,1/2+y,-z
1/2-x,y,z
x,1/2-y,z
loop_
_atom_site_type_symbol
_atom_site_label
_atom_site_fract_x
_atom_site_fract_y
_atom_site_fract_z
Si Si1 0.332596 0.429996 0.843795
Si Si2 0.406739 0.428543 0.319652
Si Si3 0.932518 0.928486 0.311183
Si Si4 0.079673 0.070921 0.009106
Si Si5 0.422390 0.424325 0.503612
Si Si6 0.664668 0.074633 0.837557
O O1 0.250000 0.497540 0.838766
O O2 0.329614 0.250000 0.842118
O O3 0.379419 0.490247 0.763211
O O4 0.370002 0.488089 0.930998
O O5 0.401904 0.250000 0.301033
O O6 0.490781 0.482165 0.305413
O O7 0.378077 0.470180 0.416981
O O8 0.351792 0.517232 0.257758
O O9 0.949223 0.750000 0.300150
O O10 0.888950 0.960339 0.401990
O O11 0.072004 0.250000 0.007763
O O12 0.115576 0.020775 0.097573
O O13 0.000000 0.000000 0.000000
O O14 0.500000 0.500000 0.500000
O O15 0.439581 0.250000 0.495607
O O16 0.750000 0.046830 0.858671
O O17 0.643240 0.250000 0.845217
#
# Coordination Sequence:
#
# PCOD8241312 Si02
#       6
#     8   8   8   8   8   8
#     4   9  18  32  51  76 104 134 167 204 251 306
#     4  10  19  32  52  78 107 138 176 221 268 319
#     4   9  16  30  53  78 106 139 176 217 258 308
#     4  11  22  37  59  84 109 137 173 217 264 319
#     4   8  15  27  46  75 105 135 172 214 260 306
#     4  11  24  40  56  76 105 142 183 226 274 325
#
# _framework density 19.201937000000001
#
# number of rings (size 3 to 8) (size 9 to 14) (size 15 to 20)
#    0.000    2.333    0.000    3.000    0.000    4.000 
#    0.000    1.667    0.000    5.500    0.000    0.000 
#    0.000    0.000    0.000    0.000    0.000    0.000 
#
# Total GULP energy -594822.117997 kJ/mol
# GULP energy per Si atom -12392.127458 kJ/mol
# Density = 1.915823 g / cm^3
# Si number density = 19.201937 Si / 1000 Ang^3
#
#
#
# Elastic Constant Matrix: (Units=GPa)
#
#
# Indices 1 2 3 4 5 6 
#
# 1 74.5449 28.0034 31.1632 0.0000 0.0000 0.0000
# 2 28.0034 48.2110 30.5508 0.0000 0.0000 0.0000
# 3 31.1632 30.5508 130.7678 0.0000 0.0000 0.0000
# 4 0.0000 0.0000 0.0000 23.8085 0.0000 0.0000
# 5 0.0000 0.0000 0.0000 0.0000 16.7994 0.0000
# 6 0.0000 0.0000 0.0000 0.0000 0.0000 23.5378
#
#
#
# Elastic Compliance Matrix: (Units=1/GPa)
#
#
# Indices 1 2 3 4 5 6 
#
# 1 0.017648 -0.008904 -0.002126 0.000000 0.000000 0.000000
# 2 -0.008904 0.028839 -0.004616 0.000000 0.000000 0.000000
# 3 -0.002126 -0.004616 0.009232 0.000000 0.000000 0.000000
# 4 0.000000 0.000000 0.000000 0.042002 0.000000 0.000000
# 5 0.000000 0.000000 0.000000 0.000000 0.059526 0.000000
# 6 0.000000 0.000000 0.000000 0.000000 0.000000 0.042485
#
#
# Mechanical properties :
#
#
# Convention : Reuss Voigt Hill
#
# Bulk Modulus (GPa) = 40.93531 48.10649 44.52090
# Shear Modulus (GPa) = 20.90608 23.74957 22.32782
#
# Velocity S-wave (km/s) = 3.30320 3.52068 3.41367
# Velocity P-wave (km/s) = 5.99273 6.45246 6.22684
#
# Compressibility (1/GPa) = 0.02442879
#
# Stress axis : x y z
#
# Youngs Moduli (GPa) = 56.66310 34.67537 108.31896
#
# Poissons Ratio (x) = 0.30875 0.23023
# Poissons Ratio (y) = 0.50453 0.49996
# Poissons Ratio (z) = 0.12044 0.16005
#
# Static dielectric constant tensor:
#      x y z
#    x 3.252700 0.000000 0.000000 
#    y 0.000000 3.341490 0.000000 
#    z 0.000000 0.000000 4.351580 
# 
# 
# High freq. dielectric constant tensor:
#      x y z
#    x 1.720020 0.000000 0.000000 
#    y 0.000000 1.734290 0.000000 
#    z 0.000000 0.000000 1.776460 
# 
# From -- ./inp_files/27364.got.cif
#   From: 2010.03.12/outbox.cif.g09.slc.cpg/sg59_14_cif.got.tgz:27364.got - 2010.04.16 16:29:54.
