data_PCOD8241830
_publ_section_title
;
Structure prediction by ZEFSAII (Michael W. Deem and Ramdas Pophale) SiO2 
 PCOD8241830
Probable space group: P M M N
;
_chemical_formula_sum "Si O2"
_cell_formula_units_Z 48
_cell_length_a 9.859208
_cell_length_b 8.688359
_cell_length_c 29.246011
_cell_angle_alpha 90.000000
_cell_angle_beta 90.000000
_cell_angle_gamma 90.000000
_cell_volume 2505.223204
_symmetry_space_group_name_H-M "P M M N"
_symmetry_group_IT_number 59
_space_group.IT_coordinate_system_code '2'
_symmetry_cell_setting 'orthorhombic'
loop_
_space_group_symop_operation_xyz
x,y,z
1/2-x,1/2-y,z
1/2+x,-y,-z
-x,1/2+y,-z
-x,-y,-z
1/2+x,1/2+y,-z
1/2-x,y,z
x,1/2-y,z
loop_
_atom_site_type_symbol
_atom_site_label
_atom_site_fract_x
_atom_site_fract_y
_atom_site_fract_z
Si Si1 0.525598 0.432366 0.104234
Si Si2 0.907686 0.931771 0.460045
Si Si3 0.250000 0.431552 0.061225
Si Si4 0.406262 0.431279 0.384378
Si Si5 0.600470 0.567189 0.719117
Si Si6 0.098371 0.933062 0.795470
Si Si7 0.750000 0.932074 0.041173
O O1 0.547306 0.250000 0.102530
O O2 0.376514 0.486901 0.090879
O O3 0.555833 0.496533 0.154873
O O4 0.618914 0.508840 0.066753
O O5 0.750000 0.991318 0.461597
O O6 0.907297 0.750000 0.465171
O O7 0.000000 0.000000 0.500000
O O8 0.981246 0.978769 0.413212
O O9 0.250000 0.250000 0.056045
O O10 0.250000 0.502005 0.010183
O O11 0.250000 0.474454 0.397669
O O12 0.426957 0.250000 0.391650
O O13 0.436846 0.482010 0.332359
O O14 0.750000 0.505600 0.731730
O O15 0.598943 0.750000 0.721815
O O16 0.496350 0.495609 0.755807
O O17 0.250000 0.987766 0.784493
O O18 0.086764 0.750000 0.795645
O O19 0.750000 0.750000 0.040305
#
# Coordination Sequence:
#
# PCOD8241830 Si02
#       7
#     8   8   4   8   8   8   4
#     4  10  19  34  53  76 102 131 169 217 264 310
#     4  11  24  39  56  81 111 144 185 228 267 312
#     4   9  20  33  51  77 101 129 171 217 262 313
#     4   9  18  34  55  81 112 143 176 215 262 317
#     4   8  15  27  46  75 108 135 162 207 263 311
#     4   9  16  26  44  72 101 129 164 208 258 309
#     4  11  21  35  51  71 101 137 173 209 258 321
#
# _framework density 19.159967999999999
#
# number of rings (size 3 to 8) (size 9 to 14) (size 15 to 20)
#    0.000    2.500    0.833    2.750    1.167    4.333 
#    0.000    2.917    0.000    1.000    0.000    0.000 
#    0.000    0.000    0.000    0.000    0.000    0.000 
#
# Total GULP energy -594988.353974 kJ/mol
# GULP energy per Si atom -12395.590708 kJ/mol
# Density = 1.911636 g / cm^3
# Si number density = 19.159968 Si / 1000 Ang^3
#
#
#
# Elastic Constant Matrix: (Units=GPa)
#
#
# Indices 1 2 3 4 5 6 
#
# 1 180.1122 24.8486 97.0922 0.0000 0.0000 0.0000
# 2 24.8486 27.4443 16.2853 0.0000 0.0000 0.0000
# 3 97.0922 16.2853 148.2616 0.0000 0.0000 0.0000
# 4 0.0000 0.0000 0.0000 21.5747 0.0000 0.0000
# 5 0.0000 0.0000 0.0000 0.0000 46.2279 0.0000
# 6 0.0000 0.0000 0.0000 0.0000 0.0000 23.0729
#
#
#
# Elastic Compliance Matrix: (Units=1/GPa)
#
#
# Indices 1 2 3 4 5 6 
#
# 1 0.009201 -0.005087 -0.005467 0.000000 0.000000 0.000000
# 2 -0.005087 0.041790 -0.001259 0.000000 0.000000 0.000000
# 3 -0.005467 -0.001259 0.010463 0.000000 0.000000 0.000000
# 4 0.000000 0.000000 0.000000 0.046351 0.000000 0.000000
# 5 0.000000 0.000000 0.000000 0.000000 0.021632 0.000000
# 6 0.000000 0.000000 0.000000 0.000000 0.000000 0.043341
#
#
# Mechanical properties :
#
#
# Convention : Reuss Voigt Hill
#
# Bulk Modulus (GPa) = 26.43465 70.25228 48.34346
# Shear Modulus (GPa) = 23.92207 32.68121 28.30164
#
# Velocity S-wave (km/s) = 3.53731 4.13450 3.84751
# Velocity P-wave (km/s) = 5.52360 7.71608 6.70999
#
# Compressibility (1/GPa) = 0.03782914
#
# Stress axis : x y z
#
# Youngs Moduli (GPa) = 108.68769 23.92903 95.57473
#
# Poissons Ratio (x) = 0.12172 0.52246
# Poissons Ratio (y) = 0.55286 0.12035
# Poissons Ratio (z) = 0.59414 0.03013
#
# Static dielectric constant tensor:
#      x y z
#    x 3.870760 0.000000 0.000000 
#    y 0.000000 3.040030 0.000000 
#    z 0.000000 0.000000 3.806580 
# 
# 
# High freq. dielectric constant tensor:
#      x y z
#    x 1.758730 0.000000 0.000000 
#    y 0.000000 1.693640 0.000000 
#    z 0.000000 0.000000 1.760660 
# 
# From -- ./inp_files/33095.got.cif
#   From: 2010.03.12/outbox.cif.g09.slc.cpg/sg59_17_cif.got.tgz:33095.got - 2010.04.16 16:29:54.
