data_PCOD8241780
_publ_section_title
;
Structure prediction by ZEFSAII (Michael W. Deem and Ramdas Pophale) SiO2 
 PCOD8241780
Probable space group: P M M N
;
_chemical_formula_sum "Si O2"
_cell_formula_units_Z 40
_cell_length_a 7.785976
_cell_length_b 9.092393
_cell_length_c 29.399736
_cell_angle_alpha 90.000000
_cell_angle_beta 90.000000
_cell_angle_gamma 90.000000
_cell_volume 2081.300029
_symmetry_space_group_name_H-M "P M M N"
_symmetry_group_IT_number 59
_space_group.IT_coordinate_system_code '2'
_symmetry_cell_setting 'orthorhombic'
loop_
_space_group_symop_operation_xyz
x,y,z
1/2-x,1/2-y,z
1/2+x,-y,-z
-x,1/2+y,-z
-x,-y,-z
1/2+x,1/2+y,-z
1/2-x,y,z
x,1/2-y,z
loop_
_atom_site_type_symbol
_atom_site_label
_atom_site_fract_x
_atom_site_fract_y
_atom_site_fract_z
Si Si1 0.049664 0.412221 0.455761
Si Si2 0.554097 0.076726 0.953824
Si Si3 0.945720 0.419159 0.360665
Si Si4 0.750000 0.925464 0.213178
Si Si5 0.942878 0.922429 0.734972
Si Si6 0.250000 0.423933 0.889778
O O1 0.250000 0.397979 0.452374
O O2 0.964881 0.250000 0.459919
O O3 0.000000 0.500000 0.500000
O O4 0.985815 0.495213 0.409454
O O5 0.750000 0.034802 0.940271
O O6 0.535509 0.250000 0.961219
O O7 0.423365 0.020011 0.914844
O O8 0.500000 0.000000 0.000000
O O9 0.750000 0.443194 0.346921
O O10 0.995746 0.250000 0.368018
O O11 0.052374 0.479406 0.317535
O O12 0.750000 0.750000 0.216789
O O13 0.750000 0.983770 0.161447
O O14 0.576675 0.985778 0.235596
O O15 0.750000 0.948988 0.753690
O O16 0.993270 0.750000 0.736885
O O17 0.250000 0.250000 0.889102
#
# Coordination Sequence:
#
# PCOD8241780 Si02
#       6
#     8   8   8   4   8   4
#     4  10  20  33  50  75 105 137 175 219 270 330
#     4  10  19  33  56  83 110 145 188 232 277 327
#     4   9  16  30  55  81 103 134 179 227 276 333
#     4  11  23  39  59  85 119 157 195 239 290 347
#     4  10  20  37  62  87 112 146 192 244 292 341
#     4   9  20  37  55  79 115 155 191 227 278 343
#
# _framework density 19.218757
#
# number of rings (size 3 to 8) (size 9 to 14) (size 15 to 20)
#    0.000    2.200    2.000    1.500    0.000    4.800 
#    0.000    5.000    0.000    2.400    0.000    0.000 
#    0.000    0.000    0.000    0.000    0.000    0.000 
#
# Total GULP energy -495773.493321 kJ/mol
# GULP energy per Si atom -12394.337333 kJ/mol
# Density = 1.917501 g / cm^3
# Si number density = 19.218757 Si / 1000 Ang^3
#
#
#
# Elastic Constant Matrix: (Units=GPa)
#
#
# Indices 1 2 3 4 5 6 
#
# 1 138.1586 34.5160 76.9464 0.0000 0.0000 0.0000
# 2 34.5160 45.2694 44.0579 0.0000 0.0000 0.0000
# 3 76.9464 44.0579 170.8230 0.0000 0.0000 0.0000
# 4 0.0000 0.0000 0.0000 27.6729 0.0000 0.0000
# 5 0.0000 0.0000 0.0000 0.0000 31.9496 0.0000
# 6 0.0000 0.0000 0.0000 0.0000 0.0000 23.6649
#
#
#
# Elastic Compliance Matrix: (Units=1/GPa)
#
#
# Indices 1 2 3 4 5 6 
#
# 1 0.010293 -0.004454 -0.003488 0.000000 0.000000 0.000000
# 2 -0.004454 0.031420 -0.006098 0.000000 0.000000 0.000000
# 3 -0.003488 -0.006098 0.008998 0.000000 0.000000 0.000000
# 4 0.000000 0.000000 0.000000 0.036136 0.000000 0.000000
# 5 0.000000 0.000000 0.000000 0.000000 0.031299 0.000000
# 6 0.000000 0.000000 0.000000 0.000000 0.000000 0.042257
#
#
# Mechanical properties :
#
#
# Convention : Reuss Voigt Hill
#
# Bulk Modulus (GPa) = 44.18348 73.92129 59.05239
# Shear Modulus (GPa) = 25.50681 29.90620 27.70651
#
# Velocity S-wave (km/s) = 3.64700 3.94902 3.80101
# Velocity P-wave (km/s) = 6.38544 7.70322 7.07508
#
# Compressibility (1/GPa) = 0.02263289
#
# Stress axis : x y z
#
# Youngs Moduli (GPa) = 97.15095 31.82673 111.13850
#
# Poissons Ratio (x) = 0.14174 0.38764
# Poissons Ratio (y) = 0.43267 0.67768
# Poissons Ratio (z) = 0.33885 0.19407
#
# Static dielectric constant tensor:
#      x y z
#    x 3.813360 0.000000 0.000000 
#    y 0.000000 3.144780 0.000000 
#    z 0.000000 0.000000 3.806870 
# 
# 
# High freq. dielectric constant tensor:
#      x y z
#    x 1.764630 0.000000 0.000000 
#    y 0.000000 1.700200 0.000000 
#    z 0.000000 0.000000 1.755930 
# 
# From -- ./inp_files/32430.got.cif
#   From: 2010.03.12/outbox.cif.g09.slc.cpg/sg59_17_cif.got.tgz:32430.got - 2010.04.16 16:29:54.
