data_PCOD8241024
_publ_section_title
;
Structure prediction by ZEFSAII (Michael W. Deem and Ramdas Pophale) SiO2 
 PCOD8241024
Probable space group: P M M N
;
_chemical_formula_sum "Si O2"
_cell_formula_units_Z 40
_cell_length_a 22.340870
_cell_length_b 8.908648
_cell_length_c 11.280401
_cell_angle_alpha 90.000000
_cell_angle_beta 90.000000
_cell_angle_gamma 90.000000
_cell_volume 2245.103770
_symmetry_space_group_name_H-M "P M M N"
_symmetry_group_IT_number 59
_space_group.IT_coordinate_system_code '2'
_symmetry_cell_setting 'orthorhombic'
loop_
_space_group_symop_operation_xyz
x,y,z
1/2-x,1/2-y,z
1/2+x,-y,-z
-x,1/2+y,-z
-x,-y,-z
1/2+x,1/2+y,-z
1/2-x,y,z
x,1/2-y,z
loop_
_atom_site_type_symbol
_atom_site_label
_atom_site_fract_x
_atom_site_fract_y
_atom_site_fract_z
Si Si1 0.905303 0.424787 0.790564
Si Si2 0.986598 0.077036 0.122900
Si Si3 0.141032 0.920946 0.946650
Si Si4 0.750000 0.427940 0.419703
Si Si5 0.750000 0.575169 0.167142
Si Si6 0.815987 0.920364 0.612434
O O1 0.911240 0.250000 0.766368
O O2 0.878224 0.459869 0.919509
O O3 0.863277 0.494470 0.691836
O O4 0.971922 0.496869 0.778291
O O5 0.005231 0.250000 0.115458
O O6 0.915211 0.060262 0.144172
O O7 0.000000 0.000000 0.000000
O O8 0.165084 0.750000 0.940290
O O9 0.191869 0.036990 0.910102
O O10 0.750000 0.250000 0.429479
O O11 0.750000 0.475430 0.284151
O O12 0.690717 0.495164 0.485157
O O13 0.750000 0.750000 0.199662
O O14 0.750000 0.923027 0.674811
O O15 0.837487 0.750000 0.590947
#
# Coordination Sequence:
#
# PCOD8241024 Si02
#       6
#     8   8   8   4   4   8
#     4  10  19  31  52  79 108 139 170 207 254 304
#     4   9  17  31  50  72 102 138 172 207 250 303
#     4   9  20  35  50  73 105 140 173 205 247 302
#     4  10  20  37  56  71  96 133 171 211 259 310
#     4  12  24  35  52  75 100 133 171 215 255 298
#     4   9  19  33  51  76 104 131 167 212 253 298
#
# _framework density 17.816548999999998
#
# number of rings (size 3 to 8) (size 9 to 14) (size 15 to 20)
#    0.600    1.800    0.000    4.500    1.400    4.800 
#    0.000    0.000    0.000    1.200    0.000    0.000 
#    0.000    0.000    0.000    0.000    0.000    0.000 
#
# Total GULP energy -495715.033456 kJ/mol
# GULP energy per Si atom -12392.875836 kJ/mol
# Density = 1.777600 g / cm^3
# Si number density = 17.816549 Si / 1000 Ang^3
#
#
#
# Elastic Constant Matrix: (Units=GPa)
#
#
# Indices 1 2 3 4 5 6 
#
# 1 75.3489 40.3817 15.4955 0.0000 0.0000 0.0000
# 2 40.3817 134.5983 27.8297 0.0000 0.0000 0.0000
# 3 15.4955 27.8297 44.0850 0.0000 0.0000 0.0000
# 4 0.0000 0.0000 0.0000 28.1815 0.0000 0.0000
# 5 0.0000 0.0000 0.0000 0.0000 -4.5994 0.0000
# 6 0.0000 0.0000 0.0000 0.0000 0.0000 31.8457
#
#
#
# Elastic Compliance Matrix: (Units=1/GPa)
#
#
# Indices 1 2 3 4 5 6 
#
# 1 0.016155 -0.004224 -0.003012 0.000000 0.000000 0.000000
# 2 -0.004224 0.009649 -0.004607 0.000000 0.000000 0.000000
# 3 -0.003012 -0.004607 0.026650 0.000000 0.000000 0.000000
# 4 0.000000 0.000000 0.000000 0.035484 0.000000 0.000000
# 5 0.000000 0.000000 0.000000 0.000000 -0.217418 0.000000
# 6 0.000000 0.000000 0.000000 0.000000 0.000000 0.031401
#
#
# Mechanical properties :
#
#
# Convention : Reuss Voigt Hill
#
# Bulk Modulus (GPa) = 34.75922 46.82733 40.79327
# Shear Modulus (GPa) = -77.15609 22.44056 -27.35776
#
# Velocity S-wave (km/s) = -6.58786 3.55284 -3.92283
# Velocity P-wave (km/s) = 6.18988 6.57042 1.55816
#
# Compressibility (1/GPa) = 0.02876934
#
# Stress axis : x y z
#
# Youngs Moduli (GPa) = 61.90142 103.63503 37.52332
#
# Poissons Ratio (x) = 0.43775 0.11301
# Poissons Ratio (y) = 0.26147 0.17286
# Poissons Ratio (z) = 0.18643 0.47741
#
# Static dielectric constant tensor:
#      x y z
#    x 3.546400 0.000000 0.000000 
#    y 0.000000 3.584420 0.000000 
#    z 0.000000 0.000000 2.933340 
# 
# 
# High freq. dielectric constant tensor:
#      x y z
#    x 1.685640 0.000000 0.000000 
#    y 0.000000 1.707580 0.000000 
#    z 0.000000 0.000000 1.650340 
# 
# From -- ./inp_files/18151.got.cif
#   From: 2010.03.12/outbox.cif.g09.slc.cpg/sg59_10_cif.got.tgz:18151.got - 2010.04.16 16:29:54.
