data_PCOD8241107
_publ_section_title
;
Structure prediction by ZEFSAII (Michael W. Deem and Ramdas Pophale) SiO2 
 PCOD8241107
Probable space group: P M M N
;
_chemical_formula_sum "Si O2"
_cell_formula_units_Z 56
_cell_length_a 9.476935
_cell_length_b 19.690136
_cell_length_c 17.497548
_cell_angle_alpha 90.000000
_cell_angle_beta 90.000000
_cell_angle_gamma 90.000000
_cell_volume 3265.079884
_symmetry_space_group_name_H-M "P M M N"
_symmetry_group_IT_number 59
_space_group.IT_coordinate_system_code '2'
_symmetry_cell_setting 'orthorhombic'
loop_
_space_group_symop_operation_xyz
x,y,z
1/2-x,1/2-y,z
1/2+x,-y,-z
-x,1/2+y,-z
-x,-y,-z
1/2+x,1/2+y,-z
1/2-x,y,z
x,1/2-y,z
loop_
_atom_site_type_symbol
_atom_site_label
_atom_site_fract_x
_atom_site_fract_y
_atom_site_fract_z
Si Si1 0.914432 0.542475 0.391967
Si Si2 0.090214 0.417301 0.446286
Si Si3 0.912998 0.172169 0.044629
Si Si4 0.912391 0.673694 0.688541
Si Si5 0.584392 0.672391 0.105397
Si Si6 0.083751 0.436155 0.775163
Si Si7 0.584370 0.088305 0.192120
O O1 0.750000 0.526199 0.381794
O O2 0.943743 0.593539 0.463229
O O3 0.973133 0.572916 0.311993
O O4 0.987592 0.471395 0.408500
O O5 0.250000 0.445009 0.438169
O O6 0.071806 0.346920 0.400791
O O7 0.750000 0.160846 0.023236
O O8 0.940530 0.250000 0.069855
O O9 0.960976 0.122946 0.112857
O O10 0.006336 0.152185 0.972255
O O11 0.750000 0.668233 0.714643
O O12 0.969187 0.750000 0.697386
O O13 0.004317 0.623932 0.739140
O O14 0.750000 0.660973 0.091720
O O15 0.551507 0.750000 0.128771
O O16 0.521976 0.623886 0.171918
O O17 0.250000 0.428175 0.775503
O O18 0.039832 0.509316 0.809422
O O19 0.750000 0.097348 0.207016
#
# Coordination Sequence:
#
# PCOD8241107 Si02
#       7
#     8   8   8   8   8   8   8
#     4   9  16  29  49  69  91 121 155 194 235 274
#     4   9  17  29  46  68  93 123 159 192 229 277
#     4   9  18  32  48  67  92 122 157 195 236 285
#     4  10  20  32  45  67 102 134 159 195 240 284
#     4   9  18  33  51  69  92 124 158 193 240 293
#     4   9  17  30  49  73  97 120 155 202 241 276
#     4  10  19  32  50  71  95 125 162 200 237 281
#
# _framework density 17.151188999999999
#
# number of rings (size 3 to 8) (size 9 to 14) (size 15 to 20)
#    0.000    2.714    1.429    0.429    0.000    2.000 
#    0.000    3.571    0.000    4.286    0.000    0.000 
#    0.000    3.429    0.000    0.000    0.000    0.000 
#
# Total GULP energy -694161.598378 kJ/mol
# GULP energy per Si atom -12395.742828 kJ/mol
# Density = 1.711215 g / cm^3
# Si number density = 17.151189 Si / 1000 Ang^3
#
#
#
# Elastic Constant Matrix: (Units=GPa)
#
#
# Indices 1 2 3 4 5 6 
#
# 1 32.3446 26.0059 36.2982 0.0000 0.0000 0.0000
# 2 26.0059 98.8491 77.0887 0.0000 0.0000 0.0000
# 3 36.2982 77.0887 156.3865 0.0000 0.0000 0.0000
# 4 0.0000 0.0000 0.0000 25.4839 0.0000 0.0000
# 5 0.0000 0.0000 0.0000 0.0000 24.1988 0.0000
# 6 0.0000 0.0000 0.0000 0.0000 0.0000 15.3262
#
#
#
# Elastic Compliance Matrix: (Units=1/GPa)
#
#
# Indices 1 2 3 4 5 6 
#
# 1 0.043787 -0.005838 -0.007285 0.000000 0.000000 0.000000
# 2 -0.005838 0.017213 -0.007130 0.000000 0.000000 0.000000
# 3 -0.007285 -0.007130 0.011600 0.000000 0.000000 0.000000
# 4 0.000000 0.000000 0.000000 0.039241 0.000000 0.000000
# 5 0.000000 0.000000 0.000000 0.000000 0.041324 0.000000
# 6 0.000000 0.000000 0.000000 0.000000 0.000000 0.065248
#
#
# Mechanical properties :
#
#
# Convention : Reuss Voigt Hill
#
# Bulk Modulus (GPa) = 31.15943 62.92953 47.04448
# Shear Modulus (GPa) = 18.54491 22.88094 20.71292
#
# Velocity S-wave (km/s) = 3.29182 3.65646 3.47892
# Velocity P-wave (km/s) = 5.71446 7.38898 6.60500
#
# Compressibility (1/GPa) = 0.03209301
#
# Stress axis : x y z
#
# Youngs Moduli (GPa) = 22.83782 58.09725 86.20820
#
# Poissons Ratio (x) = 0.33919 0.62805
# Poissons Ratio (y) = 0.13333 0.61463
# Poissons Ratio (z) = 0.16638 0.41421
#
# Static dielectric constant tensor:
#      x y z
#    x 3.065050 0.000000 0.000000 
#    y 0.000000 3.212470 0.000000 
#    z 0.000000 0.000000 3.522410 
# 
# 
# High freq. dielectric constant tensor:
#      x y z
#    x 1.644940 0.000000 0.000000 
#    y 0.000000 1.646960 0.000000 
#    z 0.000000 0.000000 1.672660 
# 
# From -- ./inp_files/21005.got.cif
#   From: 2010.03.12/outbox.cif.g09.slc.cpg/sg59_11_cif.got.tgz:21005.got - 2010.04.16 16:29:54.
