data_PCOD8241790
_publ_section_title
;
Structure prediction by ZEFSAII (Michael W. Deem and Ramdas Pophale) SiO2 
 PCOD8241790
Probable space group: P M M N
;
_chemical_formula_sum "Si O2"
_cell_formula_units_Z 64
_cell_length_a 29.314752
_cell_length_b 9.077246
_cell_length_c 12.490187
_cell_angle_alpha 90.000000
_cell_angle_beta 90.000000
_cell_angle_gamma 90.000000
_cell_volume 3323.603980
_symmetry_space_group_name_H-M "P M M N"
_symmetry_group_IT_number 59
_space_group.IT_coordinate_system_code '2'
_symmetry_cell_setting 'orthorhombic'
loop_
_space_group_symop_operation_xyz
x,y,z
1/2-x,1/2-y,z
1/2+x,-y,-z
-x,1/2+y,-z
-x,-y,-z
1/2+x,1/2+y,-z
1/2-x,y,z
x,1/2-y,z
loop_
_atom_site_type_symbol
_atom_site_label
_atom_site_fract_x
_atom_site_fract_y
_atom_site_fract_z
Si Si1 0.111499 0.919635 0.470032
Si Si2 0.466197 0.579297 0.310357
Si Si3 0.199804 0.420877 0.403319
Si Si4 0.168831 0.082865 0.170658
Si Si5 0.558507 0.421117 0.313625
Si Si6 0.916640 0.081013 0.900513
Si Si7 0.897624 0.574061 0.112150
Si Si8 0.798638 0.580266 0.059286
O O1 0.120802 0.750000 0.447913
O O2 0.076999 0.979714 0.378888
O O3 0.091019 0.948662 0.586377
O O4 0.160185 0.998401 0.467700
O O5 0.475787 0.750000 0.339842
O O6 0.508729 0.480021 0.344334
O O7 0.458383 0.561624 0.182637
O O8 0.250000 0.475517 0.441385
O O9 0.194084 0.250000 0.428617
O O10 0.197202 0.451700 0.276662
O O11 0.149191 0.250000 0.171461
O O12 0.127676 0.968172 0.165119
O O13 0.201242 0.060945 0.068676
O O14 0.555612 0.250000 0.282500
O O15 0.577801 0.513947 0.215645
O O16 0.911392 0.250000 0.936126
O O17 0.924053 0.982575 0.006294
O O18 0.899289 0.750000 0.110856
O O19 0.845055 0.512612 0.109935
O O20 0.750000 0.509236 0.099661
O O21 0.798153 0.750000 0.091722
#
# Coordination Sequence:
#
# PCOD8241790 Si02
#       8
#     8   8   8   8   8   8   8   8
#     4  10  22  41  60  83 115 150 189 236 288 339
#     4  10  21  38  61  87 114 144 183 233 289 346
#     4  10  20  33  54  86 119 152 192 234 276 329
#     4   9  16  28  49  79 115 149 180 223 275 329
#     4  11  24  40  60  82 108 146 193 241 287 339
#     4  10  19  33  56  84 117 149 179 224 277 336
#     4  10  21  37  57  81 114 152 189 231 282 338
#     4   8  14  27  50  78 105 138 181 225 270 321
#
# _framework density 19.256205000000001
#
# number of rings (size 3 to 8) (size 9 to 14) (size 15 to 20)
#    0.000    2.250    1.250    2.625    0.000    4.750 
#    0.000    0.625    0.000   14.625    0.000    0.000 
#    0.000    0.000    0.000    0.000    0.000    0.000 
#
# Total GULP energy -793355.531871 kJ/mol
# GULP energy per Si atom -12396.180185 kJ/mol
# Density = 1.921238 g / cm^3
# Si number density = 19.256205 Si / 1000 Ang^3
#
#
#
# Elastic Constant Matrix: (Units=GPa)
#
#
# Indices 1 2 3 4 5 6 
#
# 1 123.2781 51.1245 40.3359 0.0000 0.0000 0.0000
# 2 51.1245 77.5758 42.4343 0.0000 0.0000 0.0000
# 3 40.3359 42.4343 65.6711 0.0000 0.0000 0.0000
# 4 0.0000 0.0000 0.0000 24.4671 0.0000 0.0000
# 5 0.0000 0.0000 0.0000 0.0000 15.3249 0.0000
# 6 0.0000 0.0000 0.0000 0.0000 0.0000 26.8704
#
#
#
# Elastic Compliance Matrix: (Units=1/GPa)
#
#
# Indices 1 2 3 4 5 6 
#
# 1 0.011630 -0.005811 -0.003389 0.000000 0.000000 0.000000
# 2 -0.005811 0.022841 -0.011190 0.000000 0.000000 0.000000
# 3 -0.003389 -0.011190 0.024539 0.000000 0.000000 0.000000
# 4 0.000000 0.000000 0.000000 0.040871 0.000000 0.000000
# 5 0.000000 0.000000 0.000000 0.000000 0.065253 0.000000
# 6 0.000000 0.000000 0.000000 0.000000 0.000000 0.037216
#
#
# Mechanical properties :
#
#
# Convention : Reuss Voigt Hill
#
# Bulk Modulus (GPa) = 54.84986 59.36826 57.10906
# Shear Modulus (GPa) = 20.06361 22.17451 21.11906
#
# Velocity S-wave (km/s) = 3.23140 3.39713 3.31530
# Velocity P-wave (km/s) = 6.51680 6.80331 6.66159
#
# Compressibility (1/GPa) = 0.01823159
#
# Stress axis : x y z
#
# Youngs Moduli (GPa) = 85.98157 43.78042 40.75121
#
# Poissons Ratio (x) = 0.25442 0.13809
# Poissons Ratio (y) = 0.49966 0.45600
# Poissons Ratio (z) = 0.29135 0.48990
#
# Static dielectric constant tensor:
#      x y z
#    x 3.660440 0.000000 0.000000 
#    y 0.000000 3.384230 0.000000 
#    z 0.000000 0.000000 3.387210 
# 
# 
# High freq. dielectric constant tensor:
#      x y z
#    x 1.752860 0.000000 0.000000 
#    y 0.000000 1.733360 0.000000 
#    z 0.000000 0.000000 1.737530 
# 
# From -- ./inp_files/19264.got.cif
#   From: 2010.03.12/outbox.cif.g09.slc.cpg/sg59_10_cif.got.tgz:19264.got - 2010.04.16 16:29:54.
