data_PCOD8241988
_publ_section_title
;
Structure prediction by ZEFSAII (Michael W. Deem and Ramdas Pophale) SiO2 
 PCOD8241988
Probable space group: P M M N
;
_chemical_formula_sum "Si O2"
_cell_formula_units_Z 64
_cell_length_a 20.000827
_cell_length_b 9.215836
_cell_length_c 17.303701
_cell_angle_alpha 90.000000
_cell_angle_beta 90.000000
_cell_angle_gamma 90.000000
_cell_volume 3189.493292
_symmetry_space_group_name_H-M "P M M N"
_symmetry_group_IT_number 59
_space_group.IT_coordinate_system_code '2'
_symmetry_cell_setting 'orthorhombic'
loop_
_space_group_symop_operation_xyz
x,y,z
1/2-x,1/2-y,z
1/2+x,-y,-z
-x,1/2+y,-z
-x,-y,-z
1/2+x,1/2+y,-z
1/2-x,y,z
x,1/2-y,z
loop_
_atom_site_type_symbol
_atom_site_label
_atom_site_fract_x
_atom_site_fract_y
_atom_site_fract_z
Si Si1 0.826661 0.418831 0.737777
Si Si2 0.935826 0.911051 0.812778
Si Si3 0.990236 0.407638 0.342005
Si Si4 0.095160 0.917476 0.418705
Si Si5 0.677161 0.920714 0.128233
Si Si6 0.865209 0.914903 0.295472
Si Si7 0.968108 0.924812 0.074219
Si Si8 0.823827 0.912492 0.463464
O O1 0.750000 0.468934 0.738627
O O2 0.834655 0.250000 0.757794
O O3 0.864356 0.507521 0.806087
O O4 0.855099 0.450341 0.652225
O O5 0.928988 0.750000 0.852648
O O6 0.956599 0.887059 0.725315
O O7 0.989665 0.014025 0.854261
O O8 0.971081 0.250000 0.376584
O O9 0.927420 0.481981 0.304240
O O10 0.023588 0.504990 0.408471
O O11 0.079910 0.750000 0.428013
O O12 0.126226 0.973345 0.498760
O O13 0.750000 0.982165 0.097454
O O14 0.678649 0.750000 0.118835
O O15 0.673991 0.963771 0.218723
O O16 0.610224 0.975264 0.083031
O O17 0.890913 0.750000 0.285011
O O18 0.819472 0.931540 0.371005
O O19 0.974220 0.750000 0.070707
O O20 0.000000 0.000000 0.000000
O O21 0.750000 0.940619 0.496493
O O22 0.847961 0.750000 0.484657
#
# Coordination Sequence:
#
# PCOD8241988 Si02
#       8
#     8   8   8   8   8   8   8   8
#     4   9  18  33  54  80 109 145 192 243 293 342
#     4  10  20  35  56  83 115 148 187 232 280 340
#     4  10  20  34  54  80 110 143 184 235 288 341
#     4  10  20  34  53  75 105 147 195 242 291 347
#     4   9  18  35  62  92 117 147 192 239 282 336
#     4  10  19  34  57  82 109 143 187 235 288 345
#     4  11  22  38  63  91 120 154 189 230 282 340
#     4  10  21  35  51  74 106 143 184 237 298 353
#
# _framework density 20.065884
#
# number of rings (size 3 to 8) (size 9 to 14) (size 15 to 20)
#    0.000    2.125    1.250    2.250    0.000    5.000 
#    0.000    0.625    0.000    6.375    0.000    0.000 
#    0.000    0.000    0.000    0.000    0.000    0.000 
#
# Total GULP energy -793130.182806 kJ/mol
# GULP energy per Si atom -12392.659106 kJ/mol
# Density = 2.002021 g / cm^3
# Si number density = 20.065884 Si / 1000 Ang^3
#
#
#
# Elastic Constant Matrix: (Units=GPa)
#
#
# Indices 1 2 3 4 5 6 
#
# 1 115.5981 47.2466 27.6259 0.0000 0.0000 0.0000
# 2 47.2466 101.6678 29.0172 0.0000 0.0000 0.0000
# 3 27.6259 29.0172 64.5236 0.0000 0.0000 0.0000
# 4 0.0000 0.0000 0.0000 27.9370 0.0000 0.0000
# 5 0.0000 0.0000 0.0000 0.0000 16.1756 0.0000
# 6 0.0000 0.0000 0.0000 0.0000 0.0000 22.7263
#
#
#
# Elastic Compliance Matrix: (Units=1/GPa)
#
#
# Indices 1 2 3 4 5 6 
#
# 1 0.011100 -0.004362 -0.002791 0.000000 0.000000 0.000000
# 2 -0.004362 0.012998 -0.003978 0.000000 0.000000 0.000000
# 3 -0.002791 -0.003978 0.018482 0.000000 0.000000 0.000000
# 4 0.000000 0.000000 0.000000 0.035795 0.000000 0.000000
# 5 0.000000 0.000000 0.000000 0.000000 0.061822 0.000000
# 6 0.000000 0.000000 0.000000 0.000000 0.000000 0.044002
#
#
# Mechanical properties :
#
#
# Convention : Reuss Voigt Hill
#
# Bulk Modulus (GPa) = 49.21495 54.39654 51.80574
# Shear Modulus (GPa) = 23.44837 25.22775 24.33806
#
# Velocity S-wave (km/s) = 3.42214 3.54961 3.48646
# Velocity P-wave (km/s) = 6.33993 6.63080 6.48699
#
# Compressibility (1/GPa) = 0.02031903
#
# Stress axis : x y z
#
# Youngs Moduli (GPa) = 90.08631 76.93258 54.10626
#
# Poissons Ratio (x) = 0.33558 0.15101
# Poissons Ratio (y) = 0.39295 0.21523
# Poissons Ratio (z) = 0.25144 0.30604
#
# Static dielectric constant tensor:
#      x y z
#    x 3.922090 0.000000 0.000000 
#    y 0.000000 3.723290 0.000000 
#    z 0.000000 0.000000 3.498830 
# 
# 
# High freq. dielectric constant tensor:
#      x y z
#    x 1.789180 0.000000 0.000000 
#    y 0.000000 1.774340 0.000000 
#    z 0.000000 0.000000 1.761230 
# 
# From -- ./inp_files/28308.got.cif
#   From: 2010.03.12/outbox.cif.g09.slc.cpg/sg59_15_cif.got.tgz:28308.got - 2010.04.16 16:29:54.
