data_PCOD8241162
_publ_section_title
;
Structure prediction by ZEFSAII (Michael W. Deem and Ramdas Pophale) SiO2 
 PCOD8241162
Probable space group: P M M N
;
_chemical_formula_sum "Si O2"
_cell_formula_units_Z 64
_cell_length_a 22.460533
_cell_length_b 9.373308
_cell_length_c 16.396768
_cell_angle_alpha 90.000000
_cell_angle_beta 90.000000
_cell_angle_gamma 90.000000
_cell_volume 3452.003265
_symmetry_space_group_name_H-M "P M M N"
_symmetry_group_IT_number 59
_space_group.IT_coordinate_system_code '2'
_symmetry_cell_setting 'orthorhombic'
loop_
_space_group_symop_operation_xyz
x,y,z
1/2-x,1/2-y,z
1/2+x,-y,-z
-x,1/2+y,-z
-x,-y,-z
1/2+x,1/2+y,-z
1/2-x,y,z
x,1/2-y,z
loop_
_atom_site_type_symbol
_atom_site_label
_atom_site_fract_x
_atom_site_fract_y
_atom_site_fract_z
Si Si1 0.458090 0.585095 0.896189
Si Si2 0.088117 0.584280 0.719937
Si Si3 0.681703 0.407195 0.514655
Si Si4 0.993648 0.584730 0.583779
Si Si5 0.820171 0.914095 0.362803
Si Si6 0.317365 0.080972 0.169934
Si Si7 0.865809 0.916580 0.655805
Si Si8 0.912751 0.917386 0.958890
O O1 0.446243 0.750000 0.914806
O O2 0.444568 0.545053 0.803448
O O3 0.526928 0.545257 0.910212
O O4 0.413908 0.496501 0.954406
O O5 0.105976 0.750000 0.717209
O O6 0.147632 0.488400 0.713985
O O7 0.045728 0.541666 0.645258
O O8 0.750000 0.383869 0.494851
O O9 0.650418 0.250000 0.516386
O O10 0.654666 0.504623 0.442916
O O11 0.676592 0.488960 0.599551
O O12 0.995777 0.750000 0.560912
O O13 0.933221 0.547439 0.631777
O O14 0.000000 0.500000 0.500000
O O15 0.750000 0.929596 0.350458
O O16 0.839127 0.750000 0.370614
O O17 0.250000 0.017601 0.166224
O O18 0.314217 0.250000 0.166753
O O19 0.351500 0.034575 0.252215
O O20 0.356507 0.025500 0.093545
O O21 0.850706 0.750000 0.643251
O O22 0.907198 0.750000 0.975367
#
# Coordination Sequence:
#
# PCOD8241162 Si02
#       8
#     8   8   8   8   8   8   8   8
#     4   9  18  33  54  78 102 131 167 208 253 301
#     4  10  20  35  54  75 102 134 168 206 252 306
#     4  10  20  33  49  70  98 133 172 211 251 296
#     4  10  21  34  49  73 104 137 171 211 257 301
#     4  10  21  36  53  73  97 126 164 210 254 296
#     4   9  17  30  51  78 105 135 171 210 255 308
#     4  10  19  32  51  74 101 134 174 215 253 299
#     4   9  17  32  54  78 104 133 167 207 251 302
#
# _framework density 18.539959
#
# number of rings (size 3 to 8) (size 9 to 14) (size 15 to 20)
#    0.000    2.375    0.000    2.625    0.000    8.500 
#    0.000    1.250    0.000    6.375    0.000    0.000 
#    0.000    0.000    0.000    0.000    0.000    0.000 
#
# Total GULP energy -793541.706940 kJ/mol
# GULP energy per Si atom -12399.089171 kJ/mol
# Density = 1.849776 g / cm^3
# Si number density = 18.539959 Si / 1000 Ang^3
#
#
#
# Elastic Constant Matrix: (Units=GPa)
#
#
# Indices 1 2 3 4 5 6 
#
# 1 89.7500 40.8870 64.5546 0.0000 0.0000 0.0000
# 2 40.8870 76.1251 54.7001 0.0000 0.0000 0.0000
# 3 64.5546 54.7001 131.6771 0.0000 0.0000 0.0000
# 4 0.0000 0.0000 0.0000 30.9635 0.0000 0.0000
# 5 0.0000 0.0000 0.0000 0.0000 33.3684 0.0000
# 6 0.0000 0.0000 0.0000 0.0000 0.0000 23.9103
#
#
#
# Elastic Compliance Matrix: (Units=1/GPa)
#
#
# Indices 1 2 3 4 5 6 
#
# 1 0.018384 -0.004844 -0.007001 0.000000 0.000000 0.000000
# 2 -0.004844 0.020002 -0.005934 0.000000 0.000000 0.000000
# 3 -0.007001 -0.005934 0.013492 0.000000 0.000000 0.000000
# 4 0.000000 0.000000 0.000000 0.032296 0.000000 0.000000
# 5 0.000000 0.000000 0.000000 0.000000 0.029968 0.000000
# 6 0.000000 0.000000 0.000000 0.000000 0.000000 0.041823
#
#
# Mechanical properties :
#
#
# Convention : Reuss Voigt Hill
#
# Bulk Modulus (GPa) = 61.27415 68.64840 64.96127
# Shear Modulus (GPa) = 25.38549 26.80915 26.09732
#
# Velocity S-wave (km/s) = 3.70433 3.80678 3.75590
# Velocity P-wave (km/s) = 7.17060 7.51198 7.34327
#
# Compressibility (1/GPa) = 0.01632010
#
# Stress axis : x y z
#
# Youngs Moduli (GPa) = 54.39490 49.99479 74.12028
#
# Poissons Ratio (x) = 0.24217 0.51889
# Poissons Ratio (y) = 0.26348 0.43986
# Poissons Ratio (z) = 0.38080 0.29669
#
# Static dielectric constant tensor:
#      x y z
#    x 3.500760 0.000000 0.000000 
#    y 0.000000 3.352850 0.000000 
#    z 0.000000 0.000000 3.454550 
# 
# 
# High freq. dielectric constant tensor:
#      x y z
#    x 1.719520 0.000000 0.000000 
#    y 0.000000 1.704450 0.000000 
#    z 0.000000 0.000000 1.715500 
# 
# From -- ./inp_files/21570.got.cif
#   From: 2010.03.12/outbox.cif.g09.slc.cpg/sg59_11_cif.got.tgz:21570.got - 2010.04.16 16:29:54.
