data_PCOD8241179
_publ_section_title
;
Structure prediction by ZEFSAII (Michael W. Deem and Ramdas Pophale) SiO2 
 PCOD8241179
Probable space group: P M M N
;
_chemical_formula_sum "Si O2"
_cell_formula_units_Z 64
_cell_length_a 20.291888
_cell_length_b 8.864830
_cell_length_c 19.903740
_cell_angle_alpha 90.000000
_cell_angle_beta 90.000000
_cell_angle_gamma 90.000000
_cell_volume 3580.367103
_symmetry_space_group_name_H-M "P M M N"
_symmetry_group_IT_number 59
_space_group.IT_coordinate_system_code '2'
_symmetry_cell_setting 'orthorhombic'
loop_
_space_group_symop_operation_xyz
x,y,z
1/2-x,1/2-y,z
1/2+x,-y,-z
-x,1/2+y,-z
-x,-y,-z
1/2+x,1/2+y,-z
1/2-x,y,z
x,1/2-y,z
loop_
_atom_site_type_symbol
_atom_site_label
_atom_site_fract_x
_atom_site_fract_y
_atom_site_fract_z
Si Si1 0.176618 0.429365 0.444209
Si Si2 0.458036 0.426251 0.838939
Si Si3 0.561425 0.571666 0.311727
Si Si4 0.575022 0.573770 0.664250
Si Si5 0.176764 0.429307 0.594625
Si Si6 0.824955 0.923785 0.937963
Si Si7 0.933209 0.427605 0.027682
Si Si8 0.590457 0.921584 0.814677
O O1 0.250000 0.488826 0.426481
O O2 0.176395 0.250000 0.439838
O O3 0.124303 0.496688 0.391207
O O4 0.157267 0.482214 0.519431
O O5 0.448977 0.250000 0.852249
O O6 0.429912 0.475252 0.766179
O O7 0.419240 0.516968 0.896355
O O8 0.535174 0.466334 0.843061
O O9 0.555847 0.750000 0.318595
O O10 0.495622 0.503434 0.343548
O O11 0.623904 0.505775 0.352443
O O12 0.564795 0.750000 0.652071
O O13 0.606893 0.540571 0.737309
O O14 0.250000 0.489531 0.613164
O O15 0.177046 0.250000 0.597701
O O16 0.750000 0.978057 0.946200
O O17 0.833410 0.750000 0.959926
O O18 0.844527 0.943839 0.859618
O O19 0.870413 0.026709 0.984120
O O20 0.942277 0.250000 0.026131
O O21 0.000000 0.500000 0.000000
O O22 0.563594 0.750000 0.820672
#
# Coordination Sequence:
#
# PCOD8241179 Si02
#       8
#     8   8   8   8   8   8   8   8
#     4   8  14  25  43  68  97 129 168 211 249 291
#     4  10  19  32  51  75 100 128 165 209 254 303
#     4   9  18  31  48  72 100 128 164 209 254 300
#     4   9  17  28  45  72 102 131 164 203 249 296
#     4   8  14  27  47  69  94 128 170 212 252 295
#     4  10  21  36  53  76 106 137 172 213 253 298
#     4  12  23  36  57  80 102 133 172 212 255 307
#     4   9  17  30  48  70  99 134 167 202 248 299
#
# _framework density 17.875263
#
# number of rings (size 3 to 8) (size 9 to 14) (size 15 to 20)
#    0.000    2.625    1.250    2.250    0.000    1.750 
#    0.000    3.125    0.000    3.000    0.000    5.250 
#    0.000    0.000    0.000    0.000    0.000    0.000 
#
# Total GULP energy -793435.025996 kJ/mol
# GULP energy per Si atom -12397.422281 kJ/mol
# Density = 1.783458 g / cm^3
# Si number density = 17.875263 Si / 1000 Ang^3
#
#
#
# Elastic Constant Matrix: (Units=GPa)
#
#
# Indices 1 2 3 4 5 6 
#
# 1 133.3626 36.1925 92.9281 0.0000 0.0000 0.0000
# 2 36.1925 50.4072 35.8545 0.0000 0.0000 0.0000
# 3 92.9281 35.8545 135.4767 0.0000 0.0000 0.0000
# 4 0.0000 0.0000 0.0000 17.4389 0.0000 0.0000
# 5 0.0000 0.0000 0.0000 0.0000 33.3715 0.0000
# 6 0.0000 0.0000 0.0000 0.0000 0.0000 22.6692
#
#
#
# Elastic Compliance Matrix: (Units=1/GPa)
#
#
# Indices 1 2 3 4 5 6 
#
# 1 0.015076 -0.004273 -0.009210 0.000000 0.000000 0.000000
# 2 -0.004273 0.025650 -0.003857 0.000000 0.000000 0.000000
# 3 -0.009210 -0.003857 0.014720 0.000000 0.000000 0.000000
# 4 0.000000 0.000000 0.000000 0.057343 0.000000 0.000000
# 5 0.000000 0.000000 0.000000 0.000000 0.029966 0.000000
# 6 0.000000 0.000000 0.000000 0.000000 0.000000 0.044113
#
#
# Mechanical properties :
#
#
# Convention : Reuss Voigt Hill
#
# Bulk Modulus (GPa) = 48.15905 72.13296 60.14600
# Shear Modulus (GPa) = 21.88476 24.98068 23.43272
#
# Velocity S-wave (km/s) = 3.50280 3.74237 3.62457
# Velocity P-wave (km/s) = 6.58481 7.68862 7.15802
#
# Compressibility (1/GPa) = 0.02076453
#
# Stress axis : x y z
#
# Youngs Moduli (GPa) = 66.33230 38.98582 67.93670
#
# Poissons Ratio (x) = 0.16660 0.62569
# Poissons Ratio (y) = 0.28346 0.26205
# Poissons Ratio (z) = 0.61092 0.15038
#
# Static dielectric constant tensor:
#      x y z
#    x 3.337260 0.000000 0.000000 
#    y 0.000000 3.042130 0.000000 
#    z 0.000000 0.000000 3.650690 
# 
# 
# High freq. dielectric constant tensor:
#      x y z
#    x 1.677210 0.000000 0.000000 
#    y 0.000000 1.663630 0.000000 
#    z 0.000000 0.000000 1.702760 
# 
# From -- ./inp_files/31030.got.cif
#   From: 2010.03.12/outbox.cif.g09.slc.cpg/sg59_16_cif.got.tgz:31030.got - 2010.04.16 16:29:54.
