data_PCOD8241541
_publ_section_title
;
Structure prediction by ZEFSAII (Michael W. Deem and Ramdas Pophale) SiO2 
 PCOD8241541
Probable space group: P M M N
;
_chemical_formula_sum "Si O2"
_cell_formula_units_Z 64
_cell_length_a 9.669159
_cell_length_b 24.950058
_cell_length_c 14.459591
_cell_angle_alpha 90.000000
_cell_angle_beta 90.000000
_cell_angle_gamma 90.000000
_cell_volume 3488.319616
_symmetry_space_group_name_H-M "P M M N"
_symmetry_group_IT_number 59
_space_group.IT_coordinate_system_code '2'
_symmetry_cell_setting 'orthorhombic'
loop_
_space_group_symop_operation_xyz
x,y,z
1/2-x,1/2-y,z
1/2+x,-y,-z
-x,1/2+y,-z
-x,-y,-z
1/2+x,1/2+y,-z
1/2-x,y,z
x,1/2-y,z
loop_
_atom_site_type_symbol
_atom_site_label
_atom_site_fract_x
_atom_site_fract_y
_atom_site_fract_z
Si Si1 0.590374 0.189996 0.807301
Si Si2 0.909844 0.446887 0.482356
Si Si3 0.591714 0.403955 0.673368
Si Si4 0.412116 0.335846 0.984615
Si Si5 0.090318 0.600468 0.714672
Si Si6 0.097976 0.014339 0.763992
Si Si7 0.098670 0.454625 0.967687
Si Si8 0.090964 0.309979 0.189421
O O1 0.750000 0.177914 0.832735
O O2 0.574933 0.250000 0.766498
O O3 0.536345 0.148886 0.727580
O O4 0.501125 0.187247 0.900642
O O5 0.750000 0.465297 0.477044
O O6 0.928283 0.401439 0.562571
O O7 0.955036 0.416999 0.388472
O O8 0.000000 0.500000 0.500000
O O9 0.750000 0.412510 0.701237
O O10 0.513000 0.458197 0.699191
O O11 0.250000 0.329128 0.959346
O O12 0.450538 0.307462 0.080869
O O13 0.453237 0.397429 0.002007
O O14 0.250000 0.618531 0.718067
O O15 0.062208 0.548474 0.779812
O O16 0.000565 0.649886 0.750468
O O17 0.250000 0.017296 0.716352
O O18 0.100567 0.047365 0.857747
O O19 0.250000 0.467298 0.008230
O O20 0.000000 0.500000 0.000000
O O21 0.250000 0.328619 0.198011
O O22 0.069977 0.250000 0.229074
#
# Coordination Sequence:
#
# PCOD8241541 Si02
#       8
#     8   8   8   8   8   8   8   8
#     4  10  21  36  54  79 111 146 184 227 273 322
#     4  10  20  35  57  85 113 142 180 222 272 330
#     4  10  20  34  54  81 111 142 178 219 268 325
#     4  10  20  36  57  80 107 143 187 229 272 324
#     4  10  21  36  56  83 113 143 181 227 275 330
#     4  10  19  33  52  78 112 142 173 220 272 322
#     4  10  20  31  47  74 108 145 181 218 267 322
#     4  10  22  39  57  79 109 145 187 233 275 319
#
# _framework density 18.346943
#
# number of rings (size 3 to 8) (size 9 to 14) (size 15 to 20)
#    0.000    2.000    2.500    1.125    0.000    3.500 
#    0.000    0.625    0.000    2.250    0.000    0.000 
#    0.000    0.000    0.000    0.000    0.000    0.000 
#
# Total GULP energy -793287.105416 kJ/mol
# GULP energy per Si atom -12395.111022 kJ/mol
# Density = 1.830518 g / cm^3
# Si number density = 18.346943 Si / 1000 Ang^3
#
#
#
# Elastic Constant Matrix: (Units=GPa)
#
#
# Indices 1 2 3 4 5 6 
#
# 1 65.4328 54.4230 39.2551 0.0000 0.0000 0.0000
# 2 54.4230 114.3910 48.1946 0.0000 0.0000 0.0000
# 3 39.2551 48.1946 87.0894 0.0000 0.0000 0.0000
# 4 0.0000 0.0000 0.0000 19.6429 0.0000 0.0000
# 5 0.0000 0.0000 0.0000 0.0000 23.2483 0.0000
# 6 0.0000 0.0000 0.0000 0.0000 0.0000 29.2035
#
#
#
# Elastic Compliance Matrix: (Units=1/GPa)
#
#
# Indices 1 2 3 4 5 6 
#
# 1 0.028130 -0.010486 -0.006877 0.000000 0.000000 0.000000
# 2 -0.010486 0.015309 -0.003745 0.000000 0.000000 0.000000
# 3 -0.006877 -0.003745 0.016655 0.000000 0.000000 0.000000
# 4 0.000000 0.000000 0.000000 0.050909 0.000000 0.000000
# 5 0.000000 0.000000 0.000000 0.000000 0.043014 0.000000
# 6 0.000000 0.000000 0.000000 0.000000 0.000000 0.034242
#
#
# Mechanical properties :
#
#
# Convention : Reuss Voigt Hill
#
# Bulk Modulus (GPa) = 55.93558 61.18430 58.55994
# Shear Modulus (GPa) = 21.14762 22.75497 21.95130
#
# Velocity S-wave (km/s) = 3.39875 3.52555 3.46273
# Velocity P-wave (km/s) = 6.77908 7.07061 6.92638
#
# Compressibility (1/GPa) = 0.01787771
#
# Stress axis : x y z
#
# Youngs Moduli (GPa) = 35.54942 65.32235 60.04345
#
# Poissons Ratio (x) = 0.68497 0.41289
# Poissons Ratio (y) = 0.37277 0.22488
# Poissons Ratio (z) = 0.24446 0.24465
#
# Static dielectric constant tensor:
#      x y z
#    x 3.449350 0.000000 0.000000 
#    y 0.000000 3.487870 0.000000 
#    z 0.000000 0.000000 3.688100 
# 
# 
# High freq. dielectric constant tensor:
#      x y z
#    x 1.708700 0.000000 0.000000 
#    y 0.000000 1.710190 0.000000 
#    z 0.000000 0.000000 1.705590 
# 
# From -- ./inp_files/21580.got.cif
#   From: 2010.03.12/outbox.cif.g09.slc.cpg/sg59_11_cif.got.tgz:21580.got - 2010.04.16 16:29:54.
