data_PCOD8241881
_publ_section_title
;
Structure prediction by ZEFSAII (Michael W. Deem and Ramdas Pophale) SiO2 
 PCOD8241881
Probable space group: P M M N
;
_chemical_formula_sum "Si O2"
_cell_formula_units_Z 64
_cell_length_a 18.003129
_cell_length_b 9.153163
_cell_length_c 21.555824
_cell_angle_alpha 90.000000
_cell_angle_beta 90.000000
_cell_angle_gamma 90.000000
_cell_volume 3552.088836
_symmetry_space_group_name_H-M "P M M N"
_symmetry_group_IT_number 59
_space_group.IT_coordinate_system_code '2'
_symmetry_cell_setting 'orthorhombic'
loop_
_space_group_symop_operation_xyz
x,y,z
1/2-x,1/2-y,z
1/2+x,-y,-z
-x,1/2+y,-z
-x,-y,-z
1/2+x,1/2+y,-z
1/2-x,y,z
x,1/2-y,z
loop_
_atom_site_type_symbol
_atom_site_label
_atom_site_fract_x
_atom_site_fract_y
_atom_site_fract_z
Si Si1 0.979219 0.577100 0.436749
Si Si2 0.586611 0.076453 0.883111
Si Si3 0.570234 0.422076 0.122930
Si Si4 0.046669 0.416249 0.326989
Si Si5 0.666948 0.076714 0.007508
Si Si6 0.332220 0.079440 0.630656
Si Si7 0.104301 0.584365 0.740793
Si Si8 0.164007 0.082190 0.227446
O O1 0.984562 0.750000 0.444997
O O2 0.895957 0.524904 0.416885
O O3 0.000000 0.500000 0.500000
O O4 0.037577 0.525438 0.384705
O O5 0.580395 0.250000 0.880352
O O6 0.505652 0.009169 0.880297
O O7 0.636911 0.023350 0.826581
O O8 0.625154 0.021262 0.946237
O O9 0.552486 0.250000 0.118401
O O10 0.622718 0.478512 0.067785
O O11 0.612485 0.458574 0.187152
O O12 0.047050 0.250000 0.352204
O O13 0.122728 0.455215 0.291875
O O14 0.981297 0.439975 0.277443
O O15 0.750000 0.010263 0.008712
O O16 0.671197 0.250000 0.007891
O O17 0.250000 0.038970 0.604792
O O18 0.341286 0.250000 0.639897
O O19 0.341674 0.012166 0.698849
O O20 0.129059 0.750000 0.729591
O O21 0.250000 0.053610 0.239868
O O22 0.147499 0.250000 0.208429
#
# Coordination Sequence:
#
# PCOD8241881 Si02
#       8
#     8   8   8   8   8   8   8   8
#     4  10  20  35  57  82 107 143 182 215 255 305
#     4  11  21  33  52  76 105 139 177 222 271 324
#     4  10  19  34  55  76 100 134 178 223 266 322
#     4   9  17  33  53  76 106 135 169 215 258 307
#     4   9  19  34  50  71 101 137 177 224 276 325
#     4   9  19  35  54  78 109 141 173 212 258 310
#     4   9  17  30  51  77 102 131 169 216 261 307
#     4  10  20  35  56  80 106 139 178 221 270 321
#
# _framework density 18.017568000000001
#
# number of rings (size 3 to 8) (size 9 to 14) (size 15 to 20)
#    0.000    2.375    1.250    1.500    0.000    3.000 
#    0.000    2.500    0.000    5.625    0.000    0.000 
#    0.000    0.000    0.000    0.000    0.000    0.000 
#
# Total GULP energy -793627.936347 kJ/mol
# GULP energy per Si atom -12400.436505 kJ/mol
# Density = 1.797656 g / cm^3
# Si number density = 18.017568 Si / 1000 Ang^3
#
#
#
# Elastic Constant Matrix: (Units=GPa)
#
#
# Indices 1 2 3 4 5 6 
#
# 1 109.2742 39.6653 64.9102 0.0000 0.0000 0.0000
# 2 39.6653 52.9964 49.7900 0.0000 0.0000 0.0000
# 3 64.9102 49.7900 141.6258 0.0000 0.0000 0.0000
# 4 0.0000 0.0000 0.0000 28.2925 0.0000 0.0000
# 5 0.0000 0.0000 0.0000 0.0000 20.6623 0.0000
# 6 0.0000 0.0000 0.0000 0.0000 0.0000 19.7408
#
#
#
# Elastic Compliance Matrix: (Units=1/GPa)
#
#
# Indices 1 2 3 4 5 6 
#
# 1 0.013980 -0.006635 -0.004075 0.000000 0.000000 0.000000
# 2 -0.006635 0.031325 -0.007971 0.000000 0.000000 0.000000
# 3 -0.004075 -0.007971 0.011731 0.000000 0.000000 0.000000
# 4 0.000000 0.000000 0.000000 0.035345 0.000000 0.000000
# 5 0.000000 0.000000 0.000000 0.000000 0.048397 0.000000
# 6 0.000000 0.000000 0.000000 0.000000 0.000000 0.050657
#
#
# Mechanical properties :
#
#
# Convention : Reuss Voigt Hill
#
# Bulk Modulus (GPa) = 50.83176 68.06971 59.45074
# Shear Modulus (GPa) = 21.24449 23.70783 22.47616
#
# Velocity S-wave (km/s) = 3.43753 3.63136 3.53577
# Velocity P-wave (km/s) = 6.63544 7.44607 7.05241
#
# Compressibility (1/GPa) = 0.01967274
#
# Stress axis : x y z
#
# Youngs Moduli (GPa) = 71.52924 31.92386 85.24570
#
# Poissons Ratio (x) = 0.21183 0.34735
# Poissons Ratio (y) = 0.47462 0.67952
# Poissons Ratio (z) = 0.29146 0.25448
#
# Static dielectric constant tensor:
#      x y z
#    x 3.511340 0.000000 0.000000 
#    y 0.000000 3.227340 0.000000 
#    z 0.000000 0.000000 3.434570 
# 
# 
# High freq. dielectric constant tensor:
#      x y z
#    x 1.698630 0.000000 0.000000 
#    y 0.000000 1.683980 0.000000 
#    z 0.000000 0.000000 1.696990 
# 
# From -- ./inp_files/30678.got.cif
#   From: 2010.03.12/outbox.cif.g09.slc.cpg/sg59_16_cif.got.tgz:30678.got - 2010.04.16 16:29:54.
