data_PCOD8241244
_publ_section_title
;
Structure prediction by ZEFSAII (Michael W. Deem and Ramdas Pophale) SiO2 
 PCOD8241244
Probable space group: P M M N
;
_chemical_formula_sum "Si O2"
_cell_formula_units_Z 64
_cell_length_a 18.686548
_cell_length_b 8.650833
_cell_length_c 20.750683
_cell_angle_alpha 90.000000
_cell_angle_beta 90.000000
_cell_angle_gamma 90.000000
_cell_volume 3354.435186
_symmetry_space_group_name_H-M "P M M N"
_symmetry_group_IT_number 59
_space_group.IT_coordinate_system_code '2'
_symmetry_cell_setting 'orthorhombic'
loop_
_space_group_symop_operation_xyz
x,y,z
1/2-x,1/2-y,z
1/2+x,-y,-z
-x,1/2+y,-z
-x,-y,-z
1/2+x,1/2+y,-z
1/2-x,y,z
x,1/2-y,z
loop_
_atom_site_type_symbol
_atom_site_label
_atom_site_fract_x
_atom_site_fract_y
_atom_site_fract_z
Si Si1 0.430029 0.428791 0.111732
Si Si2 0.922156 0.573232 0.608689
Si Si3 0.167475 0.570777 0.500360
Si Si4 0.588094 0.574122 0.247435
Si Si5 0.092871 0.930466 0.882342
Si Si6 0.559164 0.925983 0.749323
Si Si7 0.922753 0.569699 0.388266
Si Si8 0.170193 0.433260 0.001614
O O1 0.433544 0.250000 0.094443
O O2 0.511389 0.492687 0.109206
O O3 0.396888 0.454794 0.184004
O O4 0.379824 0.508352 0.057841
O O5 0.913950 0.750000 0.585589
O O6 0.871852 0.464530 0.566666
O O7 0.895768 0.554971 0.683431
O O8 0.005210 0.528224 0.600942
O O9 0.250000 0.524227 0.492906
O O10 0.158046 0.750000 0.517125
O O11 0.133923 0.469850 0.557044
O O12 0.606309 0.750000 0.229862
O O13 0.620318 0.468049 0.190389
O O14 0.503057 0.551689 0.252144
O O15 0.615681 0.530655 0.319431
O O16 0.099605 0.750000 0.895184
O O17 0.142477 0.019779 0.931832
O O18 0.527086 0.750000 0.752385
O O19 0.943208 0.750000 0.391118
O O20 0.250000 0.499488 0.011183
O O21 0.171142 0.250000 0.006603
#
# Coordination Sequence:
#
# PCOD8241244 Si02
#       8
#     8   8   8   8   8   8   8   8
#     4   8  15  30  51  75 100 127 163 204 248 294
#     4  10  19  33  56  82 108 137 170 211 256 306
#     4  11  24  39  53  72 103 141 178 217 259 303
#     4   9  17  30  51  79 105 128 160 205 254 302
#     4  10  19  32  52  74  99 131 166 207 248 294
#     4   8  15  29  50  77 105 131 163 206 251 296
#     4  10  20  35  57  82 106 133 168 211 257 308
#     4  10  20  33  49  70  99 133 167 206 250 296
#
# _framework density 19.079218999999998
#
# number of rings (size 3 to 8) (size 9 to 14) (size 15 to 20)
#    0.000    2.500    0.000    3.375    0.000    3.250 
#    0.000    3.750    0.000    3.000    0.000    0.000 
#    0.000    0.000    0.000    0.000    0.000    0.000 
#
# Total GULP energy -793157.810115 kJ/mol
# GULP energy per Si atom -12393.090783 kJ/mol
# Density = 1.903579 g / cm^3
# Si number density = 19.079219 Si / 1000 Ang^3
#
#
#
# Elastic Constant Matrix: (Units=GPa)
#
#
# Indices 1 2 3 4 5 6 
#
# 1 68.5090 16.1251 42.5867 0.0000 0.0000 0.0000
# 2 16.1251 30.1302 19.1841 0.0000 0.0000 0.0000
# 3 42.5867 19.1841 136.4443 0.0000 0.0000 0.0000
# 4 0.0000 0.0000 0.0000 22.8129 0.0000 0.0000
# 5 0.0000 0.0000 0.0000 0.0000 3.6577 0.0000
# 6 0.0000 0.0000 0.0000 0.0000 0.0000 19.4534
#
#
#
# Elastic Compliance Matrix: (Units=1/GPa)
#
#
# Indices 1 2 3 4 5 6 
#
# 1 0.019428 -0.007179 -0.005055 0.000000 0.000000 0.000000
# 2 -0.007179 0.039106 -0.003257 0.000000 0.000000 0.000000
# 3 -0.005055 -0.003257 0.009365 0.000000 0.000000 0.000000
# 4 0.000000 0.000000 0.000000 0.043835 0.000000 0.000000
# 5 0.000000 0.000000 0.000000 0.000000 0.273398 0.000000
# 6 0.000000 0.000000 0.000000 0.000000 0.000000 0.051405
#
#
# Mechanical properties :
#
#
# Convention : Reuss Voigt Hill
#
# Bulk Modulus (GPa) = 27.08865 43.43058 35.25962
# Shear Modulus (GPa) = 10.42047 19.66397 15.04222
#
# Velocity S-wave (km/s) = 2.33956 3.21385 2.81091
# Velocity P-wave (km/s) = 4.63971 6.04851 5.39033
#
# Compressibility (1/GPa) = 0.03691583
#
# Stress axis : x y z
#
# Youngs Moduli (GPa) = 51.47082 25.57177 106.78504
#
# Poissons Ratio (x) = 0.18359 0.53975
# Poissons Ratio (y) = 0.36953 0.34784
# Poissons Ratio (z) = 0.26016 0.08330
#
# Static dielectric constant tensor:
#      x y z
#    x 3.228530 0.000000 0.000000 
#    y 0.000000 3.336130 0.000000 
#    z 0.000000 0.000000 3.928830 
# 
# 
# High freq. dielectric constant tensor:
#      x y z
#    x 1.692870 0.000000 0.000000 
#    y 0.000000 1.732290 0.000000 
#    z 0.000000 0.000000 1.768070 
# 
# From -- ./inp_files/30801.got.cif
#   From: 2010.03.12/outbox.cif.g09.slc.cpg/sg59_16_cif.got.tgz:30801.got - 2010.04.16 16:29:54.
