data_PCOD8241331
_publ_section_title
;
Structure prediction by ZEFSAII (Michael W. Deem and Ramdas Pophale) SiO2 
 PCOD8241331
Probable space group: P M M N
;
_chemical_formula_sum "Si O2"
_cell_formula_units_Z 48
_cell_length_a 27.903471
_cell_length_b 8.919540
_cell_length_c 10.296331
_cell_angle_alpha 90.000000
_cell_angle_beta 90.000000
_cell_angle_gamma 90.000000
_cell_volume 2562.613932
_symmetry_space_group_name_H-M "P M M N"
_symmetry_group_IT_number 59
_space_group.IT_coordinate_system_code '2'
_symmetry_cell_setting 'orthorhombic'
loop_
_space_group_symop_operation_xyz
x,y,z
1/2-x,1/2-y,z
1/2+x,-y,-z
-x,1/2+y,-z
-x,-y,-z
1/2+x,1/2+y,-z
1/2-x,y,z
x,1/2-y,z
loop_
_atom_site_type_symbol
_atom_site_label
_atom_site_fract_x
_atom_site_fract_y
_atom_site_fract_z
Si Si1 0.050416 0.923607 0.155148
Si Si2 0.555564 0.921709 0.113467
Si Si3 0.638309 0.572578 0.746467
Si Si4 0.805420 0.422919 0.977060
Si Si5 0.655790 0.923984 0.226253
Si Si6 0.695992 0.928234 0.499345
O O1 0.062244 0.750000 0.170867
O O2 0.994629 0.959679 0.184989
O O3 0.083598 0.013674 0.256368
O O4 0.063435 0.971010 0.008697
O O5 0.554616 0.750000 0.062784
O O6 0.598609 0.948151 0.214134
O O7 0.637917 0.750000 0.746132
O O8 0.663680 0.518164 0.876968
O O9 0.666024 0.508008 0.621088
O O10 0.750000 0.445753 0.942954
O O11 0.820590 0.250000 0.967488
O O12 0.815125 0.481267 0.121465
O O13 0.669619 0.750000 0.208248
O O14 0.671164 0.984293 0.367210
O O15 0.750000 0.991777 0.507139
O O16 0.696507 0.750000 0.504133
#
# Coordination Sequence:
#
# PCOD8241331 Si02
#       6
#     8   8   8   8   8   8
#     4  10  19  32  52  79 113 144 176 223 275 324
#     4   9  18  32  53  82 110 141 178 220 273 330
#     4  11  21  35  55  79 107 143 188 227 266 318
#     4  11  23  36  52  79 111 139 175 226 279 327
#     4  10  19  35  59  83 106 137 181 227 272 324
#     4   9  19  35  55  79 107 141 182 228 274 320
#
# _framework density 18.730875000000001
#
# number of rings (size 3 to 8) (size 9 to 14) (size 15 to 20)
#    0.000    2.000    1.667    2.500    0.000    3.333 
#    0.000    2.500    0.000    4.000    0.000    0.000 
#    0.000    0.000    0.000    0.000    0.000    0.000 
#
# Total GULP energy -595290.502444 kJ/mol
# GULP energy per Si atom -12401.885468 kJ/mol
# Density = 1.868824 g / cm^3
# Si number density = 18.730875 Si / 1000 Ang^3
#
#
#
# Elastic Constant Matrix: (Units=GPa)
#
#
# Indices 1 2 3 4 5 6 
#
# 1 114.8759 30.4437 41.8189 0.0000 0.0000 0.0000
# 2 30.4437 59.5769 21.5947 0.0000 0.0000 0.0000
# 3 41.8189 21.5947 93.8046 0.0000 0.0000 0.0000
# 4 0.0000 0.0000 0.0000 8.4138 0.0000 0.0000
# 5 0.0000 0.0000 0.0000 0.0000 35.7530 0.0000
# 6 0.0000 0.0000 0.0000 0.0000 0.0000 28.4950
#
#
#
# Elastic Compliance Matrix: (Units=1/GPa)
#
#
# Indices 1 2 3 4 5 6 
#
# 1 0.011325 -0.004317 -0.004055 0.000000 0.000000 0.000000
# 2 -0.004317 0.019959 -0.002670 0.000000 0.000000 0.000000
# 3 -0.004055 -0.002670 0.013083 0.000000 0.000000 0.000000
# 4 0.000000 0.000000 0.000000 0.118852 0.000000 0.000000
# 5 0.000000 0.000000 0.000000 0.000000 0.027970 0.000000
# 6 0.000000 0.000000 0.000000 0.000000 0.000000 0.035094
#
#
# Mechanical properties :
#
#
# Convention : Reuss Voigt Hill
#
# Bulk Modulus (GPa) = 44.87856 50.66355 47.77106
# Shear Modulus (GPa) = 19.54691 26.15905 22.85298
#
# Velocity S-wave (km/s) = 3.23393 3.74113 3.49674
# Velocity P-wave (km/s) = 6.16085 6.76523 6.47010
#
# Compressibility (1/GPa) = 0.02228235
#
# Stress axis : x y z
#
# Youngs Moduli (GPa) = 88.29705 50.10259 76.43571
#
# Poissons Ratio (x) = 0.21632 0.30995
# Poissons Ratio (y) = 0.38122 0.20408
# Poissons Ratio (z) = 0.35805 0.13377
#
# Static dielectric constant tensor:
#      x y z
#    x 3.821460 0.000000 0.000000 
#    y 0.000000 3.318950 0.000000 
#    z 0.000000 0.000000 3.336640 
# 
# 
# High freq. dielectric constant tensor:
#      x y z
#    x 1.748370 0.000000 0.000000 
#    y 0.000000 1.714350 0.000000 
#    z 0.000000 0.000000 1.704190 
# 
# From -- ./inp_files/6315.got.cif
#   From: 2010.03.12/outbox.cif.g09.slc.cpg/sg59_4_cif.got.tgz:6315.got - 2010.04.16 16:29:54.
