data_PCOD8241523
_publ_section_title
;
Structure prediction by ZEFSAII (Michael W. Deem and Ramdas Pophale) SiO2 
 PCOD8241523
Probable space group: P M M N
;
_chemical_formula_sum "Si O2"
_cell_formula_units_Z 64
_cell_length_a 31.247133
_cell_length_b 8.990800
_cell_length_c 12.174357
_cell_angle_alpha 90.000000
_cell_angle_beta 90.000000
_cell_angle_gamma 90.000000
_cell_volume 3420.223965
_symmetry_space_group_name_H-M "P M M N"
_symmetry_group_IT_number 59
_space_group.IT_coordinate_system_code '2'
_symmetry_cell_setting 'orthorhombic'
loop_
_space_group_symop_operation_xyz
x,y,z
1/2-x,1/2-y,z
1/2+x,-y,-z
-x,1/2+y,-z
-x,-y,-z
1/2+x,1/2+y,-z
1/2-x,y,z
x,1/2-y,z
loop_
_atom_site_type_symbol
_atom_site_label
_atom_site_fract_x
_atom_site_fract_y
_atom_site_fract_z
Si Si1 0.201739 0.419816 0.244198
Si Si2 0.371432 0.076988 0.405524
Si Si3 0.371499 0.425226 0.882461
Si Si4 0.546047 0.574296 0.976348
Si Si5 0.200969 0.925162 0.023501
Si Si6 0.562966 0.421114 0.752974
Si Si7 0.484006 0.419822 0.606774
Si Si8 0.891196 0.925732 0.354742
O O1 0.250000 0.454713 0.279071
O O2 0.195767 0.250000 0.205084
O O3 0.174262 0.454998 0.351658
O O4 0.186707 0.523762 0.144750
O O5 0.384644 0.250000 0.397973
O O6 0.367255 0.026039 0.532864
O O7 0.406782 0.982165 0.342594
O O8 0.364147 0.250000 0.893696
O O9 0.369009 0.484274 0.756460
O O10 0.418252 0.466645 0.932086
O O11 0.331589 0.504563 0.938298
O O12 0.538489 0.750000 0.970245
O O13 0.566727 0.517233 0.862919
O O14 0.500000 0.500000 0.000000
O O15 0.250000 0.977425 0.999759
O O16 0.197109 0.750000 0.016591
O O17 0.574801 0.250000 0.778248
O O18 0.514654 0.435980 0.710968
O O19 0.500000 0.500000 0.500000
O O20 0.478008 0.250000 0.571797
O O21 0.439043 0.491469 0.641665
O O22 0.893320 0.750000 0.343846
#
# Coordination Sequence:
#
# PCOD8241523 Si02
#       8
#     8   8   8   8   8   8   8   8
#     4   9  18  33  54  80 107 134 168 213 264 320
#     4  10  19  33  54  78 105 138 175 216 266 318
#     4  10  21  38  58  80 109 148 189 230 277 329
#     4  11  23  38  56  79 111 148 188 232 280 332
#     4  10  21  37  58  84 111 140 178 226 279 334
#     4  11  22  34  52  79 109 139 178 225 270 320
#     4  10  19  33  52  74 104 141 179 220 262 311
#     4   9  18  34  54  75 105 141 178 222 267 314
#
# _framework density 18.712225
#
# number of rings (size 3 to 8) (size 9 to 14) (size 15 to 20)
#    0.000    2.000    1.250    2.625    0.000    7.750 
#    0.000    1.875    0.000    2.250    0.000    1.750 
#    0.000    0.000    0.000    0.000    0.000    0.000 
#
# Total GULP energy -793476.632925 kJ/mol
# GULP energy per Si atom -12398.072389 kJ/mol
# Density = 1.866963 g / cm^3
# Si number density = 18.712225 Si / 1000 Ang^3
#
#
#
# Elastic Constant Matrix: (Units=GPa)
#
#
# Indices 1 2 3 4 5 6 
#
# 1 111.4076 41.5809 76.4221 0.0000 0.0000 0.0000
# 2 41.5809 63.0894 48.8989 0.0000 0.0000 0.0000
# 3 76.4221 48.8989 162.7020 0.0000 0.0000 0.0000
# 4 0.0000 0.0000 0.0000 20.3340 0.0000 0.0000
# 5 0.0000 0.0000 0.0000 0.0000 34.5631 0.0000
# 6 0.0000 0.0000 0.0000 0.0000 0.0000 27.5047
#
#
#
# Elastic Compliance Matrix: (Units=1/GPa)
#
#
# Indices 1 2 3 4 5 6 
#
# 1 0.014630 -0.005627 -0.005181 0.000000 0.000000 0.000000
# 2 -0.005627 0.022828 -0.004218 0.000000 0.000000 0.000000
# 3 -0.005181 -0.004218 0.009847 0.000000 0.000000 0.000000
# 4 0.000000 0.000000 0.000000 0.049179 0.000000 0.000000
# 5 0.000000 0.000000 0.000000 0.000000 0.028933 0.000000
# 6 0.000000 0.000000 0.000000 0.000000 0.000000 0.036357
#
#
# Mechanical properties :
#
#
# Convention : Reuss Voigt Hill
#
# Bulk Modulus (GPa) = 57.95562 74.55586 66.25574
# Shear Modulus (GPa) = 25.30665 27.83351 26.57008
#
# Velocity S-wave (km/s) = 3.68151 3.86093 3.77229
# Velocity P-wave (km/s) = 7.00790 7.73341 7.37957
#
# Compressibility (1/GPa) = 0.01725458
#
# Stress axis : x y z
#
# Youngs Moduli (GPa) = 68.35290 43.80534 101.55138
#
# Poissons Ratio (x) = 0.24649 0.52610
# Poissons Ratio (y) = 0.38462 0.42833
# Poissons Ratio (z) = 0.35411 0.18476
#
# Static dielectric constant tensor:
#      x y z
#    x 29.786040 0.000000 0.000000 
#    y 0.000000 3.351490 0.000000 
#    z 0.000000 0.000000 3.640050 
# 
# 
# High freq. dielectric constant tensor:
#      x y z
#    x 1.726730 0.000000 0.000000 
#    y 0.000000 1.712440 0.000000 
#    z 0.000000 0.000000 1.732740 
# 
# From -- ./inp_files/19322.got.cif
#   From: 2010.03.12/outbox.cif.g09.slc.cpg/sg59_10_cif.got.tgz:19322.got - 2010.04.16 16:29:54.
