data_PCOD8241728
_publ_section_title
;
Structure prediction by ZEFSAII (Michael W. Deem and Ramdas Pophale) SiO2 
 PCOD8241728
Probable space group: P M M N
;
_chemical_formula_sum "Si O2"
_cell_formula_units_Z 40
_cell_length_a 18.018516
_cell_length_b 8.467824
_cell_length_c 13.865682
_cell_angle_alpha 90.000000
_cell_angle_beta 90.000000
_cell_angle_gamma 90.000000
_cell_volume 2115.592790
_symmetry_space_group_name_H-M "P M M N"
_symmetry_group_IT_number 59
_space_group.IT_coordinate_system_code '2'
_symmetry_cell_setting 'orthorhombic'
loop_
_space_group_symop_operation_xyz
x,y,z
1/2-x,1/2-y,z
1/2+x,-y,-z
-x,1/2+y,-z
-x,-y,-z
1/2+x,1/2+y,-z
1/2-x,y,z
x,1/2-y,z
loop_
_atom_site_type_symbol
_atom_site_label
_atom_site_fract_x
_atom_site_fract_y
_atom_site_fract_z
Si Si1 0.169432 0.563591 0.196455
Si Si2 0.957769 0.065655 0.293108
Si Si3 0.834671 0.934074 0.415273
Si Si4 0.097708 0.565605 0.394267
Si Si5 0.978797 0.062384 0.896383
O O1 0.250000 0.490538 0.168516
O O2 0.172408 0.750000 0.186717
O O3 0.151427 0.518080 0.306363
O O4 0.104692 0.499822 0.126396
O O5 0.974577 0.250000 0.298039
O O6 0.874707 0.027848 0.328631
O O7 0.013661 0.975187 0.364859
O O8 0.965256 0.006405 0.183256
O O9 0.750000 0.994749 0.421586
O O10 0.837811 0.750000 0.391633
O O11 0.876681 0.965152 0.515075
O O12 0.102421 0.750000 0.419980
O O13 0.983183 0.250000 0.892279
O O14 0.000000 0.000000 0.000000
#
# Coordination Sequence:
#
# PCOD8241728 Si02
#       5
#     8   8   8   8   8
#     4   8  15  29  51  79 106 132 168 216 265 312
#     4  11  22  37  57  79 106 141 182 225 269 321
#     4  11  23  37  53  77 111 147 183 225 270 316
#     4  10  19  33  55  81 110 143 179 219 266 323
#     4  10  20  36  58  81 106 138 177 223 275 328
#
# _framework density 18.907229000000001
#
# number of rings (size 3 to 8) (size 9 to 14) (size 15 to 20)
#    0.000    2.000    0.000    6.000    0.000    2.400 
#    0.000    1.000    0.000   15.600    0.000    0.000 
#    0.000    0.000    0.000    0.000    0.000    0.000 
#
# Total GULP energy -496017.044554 kJ/mol
# GULP energy per Si atom -12400.426114 kJ/mol
# Density = 1.886420 g / cm^3
# Si number density = 18.907229 Si / 1000 Ang^3
#
#
#
# Elastic Constant Matrix: (Units=GPa)
#
#
# Indices 1 2 3 4 5 6 
#
# 1 97.6521 18.2835 65.7600 0.0000 0.0000 0.0000
# 2 18.2835 55.7782 22.4186 0.0000 0.0000 0.0000
# 3 65.7600 22.4186 131.2967 0.0000 0.0000 0.0000
# 4 0.0000 0.0000 0.0000 33.0053 0.0000 0.0000
# 5 0.0000 0.0000 0.0000 0.0000 17.6764 0.0000
# 6 0.0000 0.0000 0.0000 0.0000 0.0000 21.9520
#
#
#
# Elastic Compliance Matrix: (Units=1/GPa)
#
#
# Indices 1 2 3 4 5 6 
#
# 1 0.015684 -0.002130 -0.007492 0.000000 0.000000 0.000000
# 2 -0.002130 0.019538 -0.002269 0.000000 0.000000 0.000000
# 3 -0.007492 -0.002269 0.011756 0.000000 0.000000 0.000000
# 4 0.000000 0.000000 0.000000 0.030298 0.000000 0.000000
# 5 0.000000 0.000000 0.000000 0.000000 0.056573 0.000000
# 6 0.000000 0.000000 0.000000 0.000000 0.000000 0.045554
#
#
# Mechanical properties :
#
#
# Convention : Reuss Voigt Hill
#
# Bulk Modulus (GPa) = 43.10982 55.29457 49.20219
# Shear Modulus (GPa) = 23.70591 26.41107 25.05849
#
# Velocity S-wave (km/s) = 3.54475 3.74154 3.64447
# Velocity P-wave (km/s) = 6.29316 6.92634 6.61733
#
# Compressibility (1/GPa) = 0.02319657
#
# Stress axis : x y z
#
# Youngs Moduli (GPa) = 63.75809 51.18112 85.06235
#
# Poissons Ratio (x) = 0.10902 0.63727
# Poissons Ratio (y) = 0.13581 0.19303
# Poissons Ratio (z) = 0.47766 0.11615
#
# Static dielectric constant tensor:
#      x y z
#    x 3.833420 0.000000 0.000000 
#    y 0.000000 3.343440 0.000000 
#    z 0.000000 0.000000 3.320120 
# 
# 
# High freq. dielectric constant tensor:
#      x y z
#    x 1.738820 0.000000 0.000000 
#    y 0.000000 1.729520 0.000000 
#    z 0.000000 0.000000 1.722360 
# 
# From -- ./inp_files/20107.got.cif
#   From: 2010.03.12/outbox.cif.g09.slc.cpg/sg59_11_cif.got.tgz:20107.got - 2010.04.16 16:29:54.
