data_PCOD8241223
_publ_section_title
;
Structure prediction by ZEFSAII (Michael W. Deem and Ramdas Pophale) SiO2 
 PCOD8241223
Probable space group: P M M N
;
_chemical_formula_sum "Si O2"
_cell_formula_units_Z 48
_cell_length_a 8.967924
_cell_length_b 18.058978
_cell_length_c 16.431802
_cell_angle_alpha 90.000000
_cell_angle_beta 90.000000
_cell_angle_gamma 90.000000
_cell_volume 2661.155675
_symmetry_space_group_name_H-M "P M M N"
_symmetry_group_IT_number 59
_space_group.IT_coordinate_system_code '2'
_symmetry_cell_setting 'orthorhombic'
loop_
_space_group_symop_operation_xyz
x,y,z
1/2-x,1/2-y,z
1/2+x,-y,-z
-x,1/2+y,-z
-x,-y,-z
1/2+x,1/2+y,-z
1/2-x,y,z
x,1/2-y,z
loop_
_atom_site_type_symbol
_atom_site_label
_atom_site_fract_x
_atom_site_fract_y
_atom_site_fract_z
Si Si1 0.927118 0.079255 0.511878
Si Si2 0.578832 0.045916 0.232229
Si Si3 0.927139 0.332430 0.355012
Si Si4 0.421022 0.395283 0.675485
Si Si5 0.924491 0.477931 0.916719
Si Si6 0.078289 0.832693 0.174055
O O1 0.750000 0.070125 0.512920
O O2 0.983145 0.131651 0.438914
O O3 0.982103 0.117275 0.594867
O O4 0.000000 0.000000 0.500000
O O5 0.750000 0.053110 0.203640
O O6 0.520155 0.119596 0.277334
O O7 0.561283 0.979865 0.296575
O O8 0.477963 0.033721 0.153339
O O9 0.750000 0.330524 0.356087
O O10 0.994337 0.250000 0.346661
O O11 0.250000 0.375644 0.657047
O O12 0.480233 0.340662 0.745136
O O13 0.750000 0.486847 0.927800
O O14 0.969737 0.393384 0.893375
O O15 0.000000 0.500000 0.000000
O O16 0.250000 0.846111 0.198360
O O17 0.053690 0.750000 0.138202
#
# Coordination Sequence:
#
# PCOD8241223 Si02
#       6
#     8   8   8   8   8   8
#     4  11  20  32  51  76 105 143 186 228 268 312
#     4   9  17  33  54  75 100 132 171 215 258 311
#     4   9  18  33  52  74 101 137 181 223 262 306
#     4  10  19  32  51  78 105 136 177 218 266 320
#     4  10  20  35  57  83 106 135 171 212 257 313
#     4   9  19  36  56  79 107 139 176 217 263 316
#
# _framework density 18.037275999999999
#
# number of rings (size 3 to 8) (size 9 to 14) (size 15 to 20)
#    0.000    2.333    1.667    1.500    0.000    2.333 
#    0.000    2.500    0.000    9.000    0.000    0.000 
#    0.000    0.000    0.000    0.000    0.000    0.000 
#
# Total GULP energy -595227.081727 kJ/mol
# GULP energy per Si atom -12400.564203 kJ/mol
# Density = 1.799622 g / cm^3
# Si number density = 18.037276 Si / 1000 Ang^3
#
#
#
# Elastic Constant Matrix: (Units=GPa)
#
#
# Indices 1 2 3 4 5 6 
#
# 1 71.1437 36.5622 53.4392 0.0000 0.0000 0.0000
# 2 36.5622 133.0707 71.8589 0.0000 0.0000 0.0000
# 3 53.4392 71.8589 142.2171 0.0000 0.0000 0.0000
# 4 0.0000 0.0000 0.0000 21.4953 0.0000 0.0000
# 5 0.0000 0.0000 0.0000 0.0000 34.7284 0.0000
# 6 0.0000 0.0000 0.0000 0.0000 0.0000 21.8691
#
#
#
# Elastic Compliance Matrix: (Units=1/GPa)
#
#
# Indices 1 2 3 4 5 6 
#
# 1 0.019953 -0.001971 -0.006501 0.000000 0.000000 0.000000
# 2 -0.001971 0.010529 -0.004579 0.000000 0.000000 0.000000
# 3 -0.006501 -0.004579 0.011788 0.000000 0.000000 0.000000
# 4 0.000000 0.000000 0.000000 0.046522 0.000000 0.000000
# 5 0.000000 0.000000 0.000000 0.000000 0.028795 0.000000
# 6 0.000000 0.000000 0.000000 0.000000 0.000000 0.045727
#
#
# Mechanical properties :
#
#
# Convention : Reuss Voigt Hill
#
# Bulk Modulus (GPa) = 61.85818 74.46135 68.15976
# Shear Modulus (GPa) = 25.66648 27.92329 26.79489
#
# Velocity S-wave (km/s) = 3.77632 3.93884 3.85844
# Velocity P-wave (km/s) = 7.30638 7.87766 7.59739
#
# Compressibility (1/GPa) = 0.01616601
#
# Stress axis : x y z
#
# Youngs Moduli (GPa) = 50.11884 94.97212 84.83000
#
# Poissons Ratio (x) = 0.18723 0.55150
# Poissons Ratio (y) = 0.09881 0.38848
# Poissons Ratio (z) = 0.32583 0.43492
#
# Static dielectric constant tensor:
#      x y z
#    x 3.291120 0.000000 0.000000 
#    y 0.000000 3.499220 0.000000 
#    z 0.000000 0.000000 3.333320 
# 
# 
# High freq. dielectric constant tensor:
#      x y z
#    x 1.689550 0.000000 0.000000 
#    y 0.000000 1.693600 0.000000 
#    z 0.000000 0.000000 1.692490 
# 
# From -- ./inp_files/20342.got.cif
#   From: 2010.03.12/outbox.cif.g09.slc.cpg/sg59_11_cif.got.tgz:20342.got - 2010.04.16 16:29:54.
