data_PCOD8241928
_publ_section_title
;
Structure prediction by ZEFSAII (Michael W. Deem and Ramdas Pophale) SiO2 
 PCOD8241928
Probable space group: P M M N
;
_chemical_formula_sum "Si O2"
_cell_formula_units_Z 64
_cell_length_a 14.975219
_cell_length_b 9.036771
_cell_length_c 23.945305
_cell_angle_alpha 90.000000
_cell_angle_beta 90.000000
_cell_angle_gamma 90.000000
_cell_volume 3240.461250
_symmetry_space_group_name_H-M "P M M N"
_symmetry_group_IT_number 59
_space_group.IT_coordinate_system_code '2'
_symmetry_cell_setting 'orthorhombic'
loop_
_space_group_symop_operation_xyz
x,y,z
1/2-x,1/2-y,z
1/2+x,-y,-z
-x,1/2+y,-z
-x,-y,-z
1/2+x,1/2+y,-z
1/2-x,y,z
x,1/2-y,z
loop_
_atom_site_type_symbol
_atom_site_label
_atom_site_fract_x
_atom_site_fract_y
_atom_site_fract_z
Si Si1 0.152364 0.074782 0.780657
Si Si2 0.495235 0.077189 0.416828
Si Si3 0.648733 0.082423 0.001801
Si Si4 0.002789 0.926150 0.298826
Si Si5 0.855023 0.077809 0.506784
Si Si6 0.150177 0.083145 0.230181
Si Si7 0.088204 0.413551 0.894986
Si Si8 0.615351 0.415604 0.879475
O O1 0.250000 0.031316 0.757533
O O2 0.139386 0.250000 0.785233
O O3 0.143073 0.011198 0.844003
O O4 0.079115 0.011302 0.738310
O O5 0.479629 0.250000 0.406685
O O6 0.586972 0.048121 0.450965
O O7 0.509351 0.994084 0.359304
O O8 0.404714 0.015223 0.445211
O O9 0.750000 0.071077 0.022804
O O10 0.613969 0.250000 0.998182
O O11 0.588225 0.003066 0.047568
O O12 0.639002 0.013573 0.939950
O O13 0.003062 0.750000 0.303414
O O14 0.094037 0.978418 0.270653
O O15 0.750000 0.029475 0.499479
O O16 0.859316 0.250000 0.523232
O O17 0.250000 0.084137 0.254607
O O18 0.110940 0.250000 0.229410
O O19 0.155070 0.021302 0.167412
O O20 0.125353 0.250000 0.908766
O O21 0.989499 0.405635 0.870775
O O22 0.657107 0.250000 0.874405
#
# Coordination Sequence:
#
# PCOD8241928 Si02
#       8
#     8   8   8   8   8   8   8   8
#     4   9  18  34  56  82 111 144 187 238 286 337
#     4  10  21  37  59  90 125 158 196 246 291 329
#     4  10  21  34  49  75 109 141 178 228 285 346
#     4  11  22  39  61  85 117 158 199 236 282 343
#     4   9  19  38  63  90 123 164 203 237 282 340
#     4  11  24  40  59  84 113 146 188 241 296 345
#     4  10  19  34  56  79 104 140 185 231 284 344
#     4  10  20  37  58  79 105 142 185 229 285 351
#
# _framework density 19.750274000000001
#
# number of rings (size 3 to 8) (size 9 to 14) (size 15 to 20)
#    0.000    2.000    1.250    2.250    0.000    5.000 
#    0.000    0.000    0.000    1.875    0.000    0.000 
#    0.000    0.000    0.000    0.000    0.000    0.000 
#
# Total GULP energy -793436.003185 kJ/mol
# GULP energy per Si atom -12397.437550 kJ/mol
# Density = 1.970532 g / cm^3
# Si number density = 19.750274 Si / 1000 Ang^3
#
#
#
# Elastic Constant Matrix: (Units=GPa)
#
#
# Indices 1 2 3 4 5 6 
#
# 1 115.2164 32.6383 41.5842 0.0000 0.0000 0.0000
# 2 32.6383 75.9277 51.9946 0.0000 0.0000 0.0000
# 3 41.5842 51.9946 128.6690 0.0000 0.0000 0.0000
# 4 0.0000 0.0000 0.0000 34.0437 0.0000 0.0000
# 5 0.0000 0.0000 0.0000 0.0000 10.2142 0.0000
# 6 0.0000 0.0000 0.0000 0.0000 0.0000 20.5702
#
#
#
# Elastic Compliance Matrix: (Units=1/GPa)
#
#
# Indices 1 2 3 4 5 6 
#
# 1 0.010287 -0.002966 -0.002126 0.000000 0.000000 0.000000
# 2 -0.002966 0.019065 -0.006745 0.000000 0.000000 0.000000
# 3 -0.002126 -0.006745 0.011185 0.000000 0.000000 0.000000
# 4 0.000000 0.000000 0.000000 0.029374 0.000000 0.000000
# 5 0.000000 0.000000 0.000000 0.000000 0.097903 0.000000
# 6 0.000000 0.000000 0.000000 0.000000 0.000000 0.048614
#
#
# Mechanical properties :
#
#
# Convention : Reuss Voigt Hill
#
# Bulk Modulus (GPa) = 59.30708 63.58303 61.44506
# Shear Modulus (GPa) = 20.34818 25.87202 23.11010
#
# Velocity S-wave (km/s) = 3.21327 3.62326 3.42441
# Velocity P-wave (km/s) = 6.62272 7.05460 6.84207
#
# Compressibility (1/GPa) = 0.01686139
#
# Stress axis : x y z
#
# Youngs Moduli (GPa) = 97.21140 52.45346 89.40758
#
# Poissons Ratio (x) = 0.15558 0.19008
# Poissons Ratio (y) = 0.28833 0.60308
# Poissons Ratio (z) = 0.20667 0.35381
#
# Static dielectric constant tensor:
#      x y z
#    x 3.682660 0.000000 0.000000 
#    y 0.000000 3.461090 0.000000 
#    z 0.000000 0.000000 3.541630 
# 
# 
# High freq. dielectric constant tensor:
#      x y z
#    x 1.779500 0.000000 0.000000 
#    y 0.000000 1.750670 0.000000 
#    z 0.000000 0.000000 1.769160 
# 
# From -- ./inp_files/32250.got.cif
#   From: 2010.03.12/outbox.cif.g09.slc.cpg/sg59_17_cif.got.tgz:32250.got - 2010.04.16 16:29:54.
