data_PCOD8241237
_publ_section_title
;
Structure prediction by ZEFSAII (Michael W. Deem and Ramdas Pophale) SiO2 
 PCOD8241237
Probable space group: P M M N
;
_chemical_formula_sum "Si O2"
_cell_formula_units_Z 32
_cell_length_a 8.862343
_cell_length_b 18.876613
_cell_length_c 11.393431
_cell_angle_alpha 90.000000
_cell_angle_beta 90.000000
_cell_angle_gamma 90.000000
_cell_volume 1906.018683
_symmetry_space_group_name_H-M "P M M N"
_symmetry_group_IT_number 59
_space_group.IT_coordinate_system_code '2'
_symmetry_cell_setting 'orthorhombic'
loop_
_space_group_symop_operation_xyz
x,y,z
1/2-x,1/2-y,z
1/2+x,-y,-z
-x,1/2+y,-z
-x,-y,-z
1/2+x,1/2+y,-z
1/2-x,y,z
x,1/2-y,z
loop_
_atom_site_type_symbol
_atom_site_label
_atom_site_fract_x
_atom_site_fract_y
_atom_site_fract_z
Si Si1 0.072061 0.908886 0.183818
Si Si2 0.575202 0.830833 0.989051
Si Si3 0.578358 0.452321 0.147605
Si Si4 0.080688 0.020776 0.618536
O O1 0.250000 0.903761 0.190094
O O2 0.004126 0.841545 0.115741
O O3 0.017792 0.977899 0.106778
O O4 0.005686 0.913934 0.316342
O O5 0.750000 0.850526 0.000680
O O6 0.551835 0.750000 0.949772
O O7 0.498582 0.879535 0.890445
O O8 0.750000 0.456428 0.098426
O O9 0.580263 0.454233 0.290812
O O10 0.250000 0.045303 0.588994
O O11 0.000000 0.000000 0.500000
#
# Coordination Sequence:
#
# PCOD8241237 Si02
#       4
#     8   8   8   8
#     4  10  19  32  52  74 101 132 165 205 248 294
#     4  11  22  34  49  72 103 135 167 204 249 298
#     4   9  19  33  51  74 101 130 165 205 247 294
#     4   9  18  31  51  77 101 127 163 209 249 288
#
# _framework density 16.788921999999999
#
# number of rings (size 3 to 8) (size 9 to 14) (size 15 to 20)
#    1.500    0.750    0.000    4.500    0.000    2.000 
#    0.000    0.000    0.000    1.500    0.000    7.000 
#    0.000    0.000    0.000    0.000    0.000    0.000 
#
# Total GULP energy -396503.880305 kJ/mol
# GULP energy per Si atom -12390.746260 kJ/mol
# Density = 1.675071 g / cm^3
# Si number density = 16.788922 Si / 1000 Ang^3
#
#
#
# Elastic Constant Matrix: (Units=GPa)
#
#
# Indices 1 2 3 4 5 6 
#
# 1 162.8173 37.9474 27.5422 0.0000 0.0000 0.0000
# 2 37.9474 57.7055 7.5363 0.0000 0.0000 0.0000
# 3 27.5422 7.5363 46.0252 0.0000 0.0000 0.0000
# 4 0.0000 0.0000 0.0000 15.0955 0.0000 0.0000
# 5 0.0000 0.0000 0.0000 0.0000 33.4172 0.0000
# 6 0.0000 0.0000 0.0000 0.0000 0.0000 24.7971
#
#
#
# Elastic Compliance Matrix: (Units=1/GPa)
#
#
# Indices 1 2 3 4 5 6 
#
# 1 0.007903 -0.004679 -0.003963 0.000000 0.000000 0.000000
# 2 -0.004679 0.020479 -0.000553 0.000000 0.000000 0.000000
# 3 -0.003963 -0.000553 0.024189 0.000000 0.000000 0.000000
# 4 0.000000 0.000000 0.000000 0.066245 0.000000 0.000000
# 5 0.000000 0.000000 0.000000 0.000000 0.029925 0.000000
# 6 0.000000 0.000000 0.000000 0.000000 0.000000 0.040327
#
#
# Mechanical properties :
#
#
# Convention : Reuss Voigt Hill
#
# Bulk Modulus (GPa) = 29.25677 45.84443 37.55060
# Shear Modulus (GPa) = 22.84646 27.56341 25.20493
#
# Velocity S-wave (km/s) = 3.69291 4.05626 3.87884
# Velocity P-wave (km/s) = 5.97056 7.02163 6.51732
#
# Compressibility (1/GPa) = 0.03418012
#
# Stress axis : x y z
#
# Youngs Moduli (GPa) = 126.53679 48.83102 41.34057
#
# Poissons Ratio (x) = 0.22850 0.16383
# Poissons Ratio (y) = 0.59211 0.02286
# Poissons Ratio (z) = 0.50146 0.02701
#
# Static dielectric constant tensor:
#      x y z
#    x 3.277250 0.000000 0.000000 
#    y 0.000000 2.806590 0.000000 
#    z 0.000000 0.000000 3.018270 
# 
# 
# High freq. dielectric constant tensor:
#      x y z
#    x 1.672200 0.000000 0.000000 
#    y 0.000000 1.604840 0.000000 
#    z 0.000000 0.000000 1.637420 
# 
# From -- ./inp_files/13756.got.cif
#   From: 2010.03.12/outbox.cif.g09.slc.cpg/sg59_7_cif.got.tgz:13756.got - 2010.04.16 16:29:54.
