data_PCOD8241901
_publ_section_title
;
Structure prediction by ZEFSAII (Michael W. Deem and Ramdas Pophale) SiO2 
 PCOD8241901
Probable space group: P M M N
;
_chemical_formula_sum "Si O2"
_cell_formula_units_Z 64
_cell_length_a 9.264321
_cell_length_b 19.701926
_cell_length_c 19.876524
_cell_angle_alpha 90.000000
_cell_angle_beta 90.000000
_cell_angle_gamma 90.000000
_cell_volume 3627.961883
_symmetry_space_group_name_H-M "P M M N"
_symmetry_group_IT_number 59
_space_group.IT_coordinate_system_code '2'
_symmetry_cell_setting 'orthorhombic'
loop_
_space_group_symop_operation_xyz
x,y,z
1/2-x,1/2-y,z
1/2+x,-y,-z
-x,1/2+y,-z
-x,-y,-z
1/2+x,1/2+y,-z
1/2-x,y,z
x,1/2-y,z
loop_
_atom_site_type_symbol
_atom_site_label
_atom_site_fract_x
_atom_site_fract_y
_atom_site_fract_z
Si Si1 0.917933 0.404201 0.452273
Si Si2 0.417123 0.329561 0.339037
Si Si3 0.419259 0.825942 0.175845
Si Si4 0.917066 0.081998 0.942539
Si Si5 0.913737 0.558301 0.422218
Si Si6 0.416549 0.949811 0.911887
Si Si7 0.918057 0.080520 0.234733
Si Si8 0.584068 0.571545 0.269420
O O1 0.750000 0.385018 0.453979
O O2 0.946060 0.478025 0.420484
O O3 0.001654 0.349791 0.407363
O O4 0.979294 0.402089 0.528031
O O5 0.250000 0.350472 0.345058
O O6 0.435814 0.250000 0.327661
O O7 0.486402 0.366276 0.274944
O O8 0.250000 0.827644 0.189876
O O9 0.481044 0.750000 0.182759
O O10 0.453979 0.850673 0.099754
O O11 0.491787 0.873605 0.230400
O O12 0.750000 0.063539 0.937219
O O13 0.961715 0.092338 0.021032
O O14 0.999165 0.020065 0.908124
O O15 0.750000 0.570466 0.446859
O O16 0.938694 0.587175 0.348037
O O17 0.250000 0.970436 0.914367
O O18 0.446976 0.906103 0.844745
O O19 0.750000 0.090883 0.254169
O O20 0.968119 0.004376 0.252556
O O21 0.750000 0.579606 0.248015
#
# Coordination Sequence:
#
# PCOD8241901 Si02
#       8
#     8   8   8   8   8   8   8   8
#     4  10  19  34  56  82 108 137 174 217 262 314
#     4  11  24  39  55  78 110 147 183 220 268 326
#     4  10  21  35  50  73 108 145 182 223 267 321
#     4   9  17  30  49  75 104 138 175 215 268 319
#     4   9  18  33  53  80 110 136 169 217 267 313
#     4   9  17  30  51  78 106 132 171 224 269 313
#     4  10  19  34  55  81 109 138 178 228 273 319
#     4  10  19  34  55  80 109 139 177 223 268 318
#
# _framework density 17.64076
#
# number of rings (size 3 to 8) (size 9 to 14) (size 15 to 20)
#    0.000    2.250    2.500    0.750    0.000    3.250 
#    0.000    1.250    0.000    3.000    0.000    0.000 
#    0.000    0.000    0.000    0.000    0.000    0.000 
#
# Total GULP energy -793588.658487 kJ/mol
# GULP energy per Si atom -12399.822789 kJ/mol
# Density = 1.760061 g / cm^3
# Si number density = 17.640760 Si / 1000 Ang^3
#
#
#
# Elastic Constant Matrix: (Units=GPa)
#
#
# Indices 1 2 3 4 5 6 
#
# 1 79.2358 52.9170 53.4177 0.0000 0.0000 0.0000
# 2 52.9170 96.7711 57.6614 0.0000 0.0000 0.0000
# 3 53.4177 57.6614 112.8234 0.0000 0.0000 0.0000
# 4 0.0000 0.0000 0.0000 22.8388 0.0000 0.0000
# 5 0.0000 0.0000 0.0000 0.0000 29.5944 0.0000
# 6 0.0000 0.0000 0.0000 0.0000 0.0000 25.0354
#
#
#
# Elastic Compliance Matrix: (Units=1/GPa)
#
#
# Indices 1 2 3 4 5 6 
#
# 1 0.022627 -0.008612 -0.006312 0.000000 0.000000 0.000000
# 2 -0.008612 0.018137 -0.005191 0.000000 0.000000 0.000000
# 3 -0.006312 -0.005191 0.014505 0.000000 0.000000 0.000000
# 4 0.000000 0.000000 0.000000 0.043785 0.000000 0.000000
# 5 0.000000 0.000000 0.000000 0.000000 0.033790 0.000000
# 6 0.000000 0.000000 0.000000 0.000000 0.000000 0.039944
#
#
# Mechanical properties :
#
#
# Convention : Reuss Voigt Hill
#
# Bulk Modulus (GPa) = 66.49910 68.53584 67.51747
# Shear Modulus (GPa) = 22.93249 23.81600 23.37425
#
# Velocity S-wave (km/s) = 3.60942 3.67830 3.64402
# Velocity P-wave (km/s) = 7.42622 7.54818 7.48745
#
# Compressibility (1/GPa) = 0.01503780
#
# Stress axis : x y z
#
# Youngs Moduli (GPa) = 44.19435 55.13730 68.94199
#
# Poissons Ratio (x) = 0.47487 0.43513
# Poissons Ratio (y) = 0.38062 0.35791
# Poissons Ratio (z) = 0.27894 0.28625
#
# Static dielectric constant tensor:
#      x y z
#    x 3.295750 0.000000 0.000000 
#    y 0.000000 3.061230 0.000000 
#    z 0.000000 0.000000 3.525980 
# 
# 
# High freq. dielectric constant tensor:
#      x y z
#    x 1.682780 0.000000 0.000000 
#    y 0.000000 1.650310 0.000000 
#    z 0.000000 0.000000 1.698500 
# 
# From -- ./inp_files/29378.got.cif
#   From: 2010.03.12/outbox.cif.g09.slc.cpg/sg59_15_cif.got.tgz:29378.got - 2010.04.16 16:29:54.
