data_PCOD8241958
_publ_section_title
;
Structure prediction by ZEFSAII (Michael W. Deem and Ramdas Pophale) SiO2 
 PCOD8241958
Probable space group: P M M N
;
_chemical_formula_sum "Si O2"
_cell_formula_units_Z 48
_cell_length_a 31.689150
_cell_length_b 8.557151
_cell_length_c 9.214126
_cell_angle_alpha 90.000000
_cell_angle_beta 90.000000
_cell_angle_gamma 90.000000
_cell_volume 2498.583874
_symmetry_space_group_name_H-M "P M M N"
_symmetry_group_IT_number 59
_space_group.IT_coordinate_system_code '2'
_symmetry_cell_setting 'orthorhombic'
loop_
_space_group_symop_operation_xyz
x,y,z
1/2-x,1/2-y,z
1/2+x,-y,-z
-x,1/2+y,-z
-x,-y,-z
1/2+x,1/2+y,-z
1/2-x,y,z
x,1/2-y,z
loop_
_atom_site_type_symbol
_atom_site_label
_atom_site_fract_x
_atom_site_fract_y
_atom_site_fract_z
Si Si1 0.296149 0.430849 0.071771
Si Si2 0.384519 0.931752 0.406094
Si Si3 0.294719 0.929412 0.379140
Si Si4 0.961432 0.566617 0.090935
Si Si5 0.617036 0.067102 0.926959
Si Si6 0.038834 0.935693 0.588758
O O1 0.250000 0.480527 0.004795
O O2 0.304725 0.250000 0.039407
O O3 0.293414 0.456135 0.243550
O O4 0.335952 0.529184 0.010358
O O5 0.394197 0.750000 0.404037
O O6 0.337224 0.968022 0.470559
O O7 0.419271 0.008046 0.511052
O O8 0.387101 0.991542 0.239814
O O9 0.250000 0.949137 0.466920
O O10 0.298974 0.750000 0.322022
O O11 0.967123 0.750000 0.103894
O O12 0.916953 0.527234 0.018511
O O13 0.963090 0.493348 0.248726
O O14 0.000000 0.500000 0.000000
O O15 0.608162 0.250000 0.943971
O O16 0.038360 0.750000 0.587988
O O17 0.000000 0.000000 0.500000
#
# Coordination Sequence:
#
# PCOD8241958 Si02
#       6
#     8   8   8   8   8   8
#     4   9  16  26  43  72 109 145 180 220 266 315
#     4   8  16  30  51  78 106 135 171 217 265 312
#     4   8  13  24  44  70 100 135 175 218 261 305
#     4  12  25  41  59  81 108 140 180 225 277 334
#     4  10  19  34  56  82 110 142 182 226 271 320
#     4  11  22  38  58  80 108 142 179 222 271 323
#
# _framework density 19.210882999999999
#
# number of rings (size 3 to 8) (size 9 to 14) (size 15 to 20)
#    0.000    2.333    0.000    5.000    0.000    2.333 
#    0.000    7.500    0.000    1.000    0.000    2.333 
#    0.000    0.000    0.000    0.000    0.000    0.000 
#
# Total GULP energy -594643.369723 kJ/mol
# GULP energy per Si atom -12388.403536 kJ/mol
# Density = 1.916716 g / cm^3
# Si number density = 19.210883 Si / 1000 Ang^3
#
#
#
# Elastic Constant Matrix: (Units=GPa)
#
#
# Indices 1 2 3 4 5 6 
#
# 1 204.9006 32.8260 70.3553 0.0000 0.0000 0.0000
# 2 32.8260 61.3537 19.0155 0.0000 0.0000 0.0000
# 3 70.3553 19.0155 88.3839 0.0000 0.0000 0.0000
# 4 0.0000 0.0000 0.0000 21.3171 0.0000 0.0000
# 5 0.0000 0.0000 0.0000 0.0000 22.0821 0.0000
# 6 0.0000 0.0000 0.0000 0.0000 0.0000 31.0090
#
#
#
# Elastic Compliance Matrix: (Units=1/GPa)
#
#
# Indices 1 2 3 4 5 6 
#
# 1 0.006972 -0.002154 -0.005086 0.000000 0.000000 0.000000
# 2 -0.002154 0.018129 -0.002186 0.000000 0.000000 0.000000
# 3 -0.005086 -0.002186 0.015833 0.000000 0.000000 0.000000
# 4 0.000000 0.000000 0.000000 0.046911 0.000000 0.000000
# 5 0.000000 0.000000 0.000000 0.000000 0.045286 0.000000
# 6 0.000000 0.000000 0.000000 0.000000 0.000000 0.032249
#
#
# Mechanical properties :
#
#
# Convention : Reuss Voigt Hill
#
# Bulk Modulus (GPa) = 45.28583 66.55908 55.92246
# Shear Modulus (GPa) = 26.09713 30.37773 28.23743
#
# Velocity S-wave (km/s) = 3.68972 3.98084 3.83804
# Velocity P-wave (km/s) = 6.46345 7.47337 6.98668
#
# Compressibility (1/GPa) = 0.02208196
#
# Stress axis : x y z
#
# Youngs Moduli (GPa) = 143.43199 55.16098 63.15739
#
# Poissons Ratio (x) = 0.11880 0.32125
# Poissons Ratio (y) = 0.30892 0.13806
# Poissons Ratio (z) = 0.72956 0.12058
#
# Static dielectric constant tensor:
#      x y z
#    x 4.267570 0.000000 0.000000 
#    y 0.000000 3.435690 0.000000 
#    z 0.000000 0.000000 3.273140 
# 
# 
# High freq. dielectric constant tensor:
#      x y z
#    x 1.785300 0.000000 0.000000 
#    y 0.000000 1.738850 0.000000 
#    z 0.000000 0.000000 1.691260 
# 
# From -- ./inp_files/12956.got.cif
#   From: 2010.03.12/outbox.cif.g09.slc.cpg/sg59_7_cif.got.tgz:12956.got - 2010.04.16 16:29:54.
