data_PCOD8241546
_publ_section_title
;
Structure prediction by ZEFSAII (Michael W. Deem and Ramdas Pophale) SiO2 
 PCOD8241546
Probable space group: P M M N
;
_chemical_formula_sum "Si O2"
_cell_formula_units_Z 64
_cell_length_a 8.987986
_cell_length_b 17.663646
_cell_length_c 23.021202
_cell_angle_alpha 90.000000
_cell_angle_beta 90.000000
_cell_angle_gamma 90.000000
_cell_volume 3654.859910
_symmetry_space_group_name_H-M "P M M N"
_symmetry_group_IT_number 59
_space_group.IT_coordinate_system_code '2'
_symmetry_cell_setting 'orthorhombic'
loop_
_space_group_symop_operation_xyz
x,y,z
1/2-x,1/2-y,z
1/2+x,-y,-z
-x,1/2+y,-z
-x,-y,-z
1/2+x,1/2+y,-z
1/2-x,y,z
x,1/2-y,z
loop_
_atom_site_type_symbol
_atom_site_label
_atom_site_fract_x
_atom_site_fract_y
_atom_site_fract_z
Si Si1 0.075840 0.834175 0.563934
Si Si2 0.926436 0.948791 0.122462
Si Si3 0.074171 0.518021 0.632409
Si Si4 0.077917 0.333881 0.179950
Si Si5 0.423783 0.415365 0.061767
Si Si6 0.423966 0.532813 0.763314
Si Si7 0.423105 0.661268 0.046825
Si Si8 0.924045 0.436318 0.537690
O O1 0.250000 0.828131 0.575072
O O2 0.004687 0.750000 0.575295
O O3 0.014692 0.900494 0.607193
O O4 0.045456 0.857156 0.496146
O O5 0.750000 0.939716 0.117446
O O6 0.009573 0.870364 0.107469
O O7 0.976342 0.972819 0.187640
O O8 0.983140 0.009027 0.074738
O O9 0.250000 0.513109 0.622752
O O10 0.027779 0.506987 0.699324
O O11 0.998843 0.445100 0.601070
O O12 0.250000 0.338372 0.195309
O O13 0.014066 0.250000 0.188167
O O14 0.048448 0.357154 0.113837
O O15 0.994267 0.385877 0.225641
O O16 0.250000 0.435639 0.054456
O O17 0.484231 0.376483 0.004454
O O18 0.250000 0.544380 0.767665
O O19 0.250000 0.640689 0.041079
O O20 0.450246 0.750000 0.046002
O O21 0.750000 0.451951 0.543264
O O22 0.000000 0.500000 0.500000
#
# Coordination Sequence:
#
# PCOD8241546 Si02
#       8
#     8   8   8   8   8   8   8   8
#     4   8  14  25  43  68  96 123 150 182 221 266
#     4  10  20  35  53  72  97 128 162 199 242 292
#     4   9  17  30  48  69  93 121 157 198 233 272
#     4   9  18  31  46  67  97 130 160 192 232 280
#     4  10  19  33  53  74  98 128 161 195 237 293
#     4   9  19  33  49  70  93 123 163 202 237 276
#     4  11  23  36  51  73  98 122 154 201 253 300
#     4   9  16  27  45  67  92 124 157 189 225 265
#
# _framework density 17.510930999999999
#
# number of rings (size 3 to 8) (size 9 to 14) (size 15 to 20)
#    0.000    2.625    0.000    3.000    0.000    3.750 
#    0.000    1.250    0.000   10.125    0.000    3.500 
#    0.000    0.000    0.000    0.000    0.000    0.000 
#
# Total GULP energy -793196.034161 kJ/mol
# GULP energy per Si atom -12393.688034 kJ/mol
# Density = 1.747108 g / cm^3
# Si number density = 17.510931 Si / 1000 Ang^3
#
#
#
# Elastic Constant Matrix: (Units=GPa)
#
#
# Indices 1 2 3 4 5 6 
#
# 1 40.9684 22.4221 38.2143 0.0000 0.0000 0.0000
# 2 22.4221 52.3665 35.9886 0.0000 0.0000 0.0000
# 3 38.2143 35.9886 92.9006 0.0000 0.0000 0.0000
# 4 0.0000 0.0000 0.0000 15.3700 0.0000 0.0000
# 5 0.0000 0.0000 0.0000 0.0000 25.9625 0.0000
# 6 0.0000 0.0000 0.0000 0.0000 0.0000 24.5643
#
#
#
# Elastic Compliance Matrix: (Units=1/GPa)
#
#
# Indices 1 2 3 4 5 6 
#
# 1 0.042125 -0.008352 -0.014093 0.000000 0.000000 0.000000
# 2 -0.008352 0.027681 -0.007288 0.000000 0.000000 0.000000
# 3 -0.014093 -0.007288 0.019384 0.000000 0.000000 0.000000
# 4 0.000000 0.000000 0.000000 0.065062 0.000000 0.000000
# 5 0.000000 0.000000 0.000000 0.000000 0.038517 0.000000
# 6 0.000000 0.000000 0.000000 0.000000 0.000000 0.040710
#
#
# Mechanical properties :
#
#
# Convention : Reuss Voigt Hill
#
# Bulk Modulus (GPa) = 33.64076 42.16506 37.90291
# Shear Modulus (GPa) = 16.50971 19.15339 17.83155
#
# Velocity S-wave (km/s) = 3.07387 3.31085 3.19456
# Velocity P-wave (km/s) = 5.64369 6.22472 5.94131
#
# Compressibility (1/GPa) = 0.02972585
#
# Stress axis : x y z
#
# Youngs Moduli (GPa) = 23.73860 36.12629 51.58815
#
# Poissons Ratio (x) = 0.30173 0.72702
# Poissons Ratio (y) = 0.19827 0.37595
# Poissons Ratio (z) = 0.33454 0.26327
#
# Static dielectric constant tensor:
#      x y z
#    x 3.277760 0.000000 0.000000 
#    y 0.000000 3.554190 0.000000 
#    z 0.000000 0.000000 3.516060 
# 
# 
# High freq. dielectric constant tensor:
#      x y z
#    x 1.671450 0.000000 0.000000 
#    y 0.000000 1.661210 0.000000 
#    z 0.000000 0.000000 1.671850 
# 
# From -- ./inp_files/31777.got.cif
#   From: 2010.03.12/outbox.cif.g09.slc.cpg/sg59_16_cif.got.tgz:31777.got - 2010.04.16 16:29:54.
