data_PCOD8241779
_publ_section_title
;
Structure prediction by ZEFSAII (Michael W. Deem and Ramdas Pophale) SiO2 
 PCOD8241779
Probable space group: P M M N
;
_chemical_formula_sum "Si O2"
_cell_formula_units_Z 64
_cell_length_a 17.311524
_cell_length_b 13.782160
_cell_length_c 14.684036
_cell_angle_alpha 90.000000
_cell_angle_beta 90.000000
_cell_angle_gamma 90.000000
_cell_volume 3503.466992
_symmetry_space_group_name_H-M "P M M N"
_symmetry_group_IT_number 59
_space_group.IT_coordinate_system_code '2'
_symmetry_cell_setting 'orthorhombic'
loop_
_space_group_symop_operation_xyz
x,y,z
1/2-x,1/2-y,z
1/2+x,-y,-z
-x,1/2+y,-z
-x,-y,-z
1/2+x,1/2+y,-z
1/2-x,y,z
x,1/2-y,z
loop_
_atom_site_type_symbol
_atom_site_label
_atom_site_fract_x
_atom_site_fract_y
_atom_site_fract_z
Si Si1 0.590458 0.523221 0.811959
Si Si2 0.159210 0.856837 0.292499
Si Si3 0.160322 0.638651 0.829777
Si Si4 0.661025 0.479875 0.538653
Si Si5 0.610706 0.138954 0.370475
Si Si6 0.070943 0.361207 0.369378
Si Si7 0.840452 0.637840 0.981960
Si Si8 0.444719 0.490012 0.914815
O O1 0.636046 0.424321 0.791929
O O2 0.595844 0.597693 0.728557
O O3 0.630871 0.574688 0.896992
O O4 0.501506 0.489476 0.827765
O O5 0.250000 0.846706 0.294960
O O6 0.121590 0.750000 0.281432
O O7 0.129302 0.903051 0.387049
O O8 0.250000 0.619414 0.846760
O O9 0.137543 0.750000 0.842349
O O10 0.136906 0.603846 0.729010
O O11 0.112329 0.581547 0.905899
O O12 0.750000 0.505737 0.556736
O O13 0.652163 0.433540 0.439654
O O14 0.612468 0.579130 0.549676
O O15 0.638309 0.250000 0.387248
O O16 0.519848 0.129806 0.383152
O O17 0.098310 0.250000 0.374953
O O18 0.750000 0.620024 0.000026
O O19 0.857947 0.750000 0.962489
O O20 0.889880 0.604501 0.071178
O O21 0.500000 0.500000 0.000000
#
# Coordination Sequence:
#
# PCOD8241779 Si02
#       8
#     8   8   8   8   8   8   8   8
#     4  10  19  34  55  79 105 139 178 221 270 321
#     4   9  18  32  50  74 107 142 177 221 269 318
#     4  10  20  35  58  86 112 139 176 224 275 322
#     4  10  20  33  51  78 112 149 185 221 265 317
#     4  10  19  33  56  83 110 143 183 225 271 318
#     4  10  20  34  54  80 112 145 182 227 267 313
#     4  10  21  36  54  75 101 136 178 220 262 319
#     4  10  21  35  54  77 105 137 170 216 273 328
#
# _framework density 18.267619
#
# number of rings (size 3 to 8) (size 9 to 14) (size 15 to 20)
#    0.000    2.125    1.250    2.250    0.000    4.500 
#    0.000    1.875    0.000    7.500    0.000    0.000 
#    0.000    0.000    0.000    0.000    0.000    0.000 
#
# Total GULP energy -793495.140777 kJ/mol
# GULP energy per Si atom -12398.361575 kJ/mol
# Density = 1.822604 g / cm^3
# Si number density = 18.267619 Si / 1000 Ang^3
#
#
#
# Elastic Constant Matrix: (Units=GPa)
#
#
# Indices 1 2 3 4 5 6 
#
# 1 70.1203 46.5886 28.0848 0.0000 0.0000 0.0000
# 2 46.5886 128.4556 48.5436 0.0000 0.0000 0.0000
# 3 28.0848 48.5436 66.4493 0.0000 0.0000 0.0000
# 4 0.0000 0.0000 0.0000 31.0227 0.0000 0.0000
# 5 0.0000 0.0000 0.0000 0.0000 27.5197 0.0000
# 6 0.0000 0.0000 0.0000 0.0000 0.0000 29.7204
#
#
#
# Elastic Compliance Matrix: (Units=1/GPa)
#
#
# Indices 1 2 3 4 5 6 
#
# 1 0.019631 -0.005504 -0.004276 0.000000 0.000000 0.000000
# 2 -0.005504 0.012297 -0.006657 0.000000 0.000000 0.000000
# 3 -0.004276 -0.006657 0.021720 0.000000 0.000000 0.000000
# 4 0.000000 0.000000 0.000000 0.032234 0.000000 0.000000
# 5 0.000000 0.000000 0.000000 0.000000 0.036338 0.000000
# 6 0.000000 0.000000 0.000000 0.000000 0.000000 0.033647
#
#
# Mechanical properties :
#
#
# Convention : Reuss Voigt Hill
#
# Bulk Modulus (GPa) = 48.13939 56.82879 52.48409
# Shear Modulus (GPa) = 25.55404 27.10645 26.33025
#
# Velocity S-wave (km/s) = 3.74421 3.85626 3.80065
# Velocity P-wave (km/s) = 6.71577 7.14172 6.93202
#
# Compressibility (1/GPa) = 0.02077301
#
# Stress axis : x y z
#
# Youngs Moduli (GPa) = 50.94076 81.32365 46.04146
#
# Poissons Ratio (x) = 0.44758 0.19688
# Poissons Ratio (y) = 0.28036 0.30649
# Poissons Ratio (z) = 0.21784 0.54137
#
# Static dielectric constant tensor:
#      x y z
#    x 3.551840 0.000000 0.000000 
#    y 0.000000 3.512800 0.000000 
#    z 0.000000 0.000000 3.315050 
# 
# 
# High freq. dielectric constant tensor:
#      x y z
#    x 1.717380 0.000000 0.000000 
#    y 0.000000 1.704820 0.000000 
#    z 0.000000 0.000000 1.694880 
# 
# From -- ./inp_files/23956.got.cif
#   From: 2010.03.12/outbox.cif.g09.slc.cpg/sg59_12_cif.got.tgz:23956.got - 2010.04.16 16:29:54.
