data_PCOD8241529
_publ_section_title
;
Structure prediction by ZEFSAII (Michael W. Deem and Ramdas Pophale) SiO2 
 PCOD8241529
Probable space group: P M M N
;
_chemical_formula_sum "Si O2"
_cell_formula_units_Z 48
_cell_length_a 19.327876
_cell_length_b 9.033621
_cell_length_c 15.071652
_cell_angle_alpha 90.000000
_cell_angle_beta 90.000000
_cell_angle_gamma 90.000000
_cell_volume 2631.521088
_symmetry_space_group_name_H-M "P M M N"
_symmetry_group_IT_number 59
_space_group.IT_coordinate_system_code '2'
_symmetry_cell_setting 'orthorhombic'
loop_
_space_group_symop_operation_xyz
x,y,z
1/2-x,1/2-y,z
1/2+x,-y,-z
-x,1/2+y,-z
-x,-y,-z
1/2+x,1/2+y,-z
1/2-x,y,z
x,1/2-y,z
loop_
_atom_site_type_symbol
_atom_site_label
_atom_site_fract_x
_atom_site_fract_y
_atom_site_fract_z
Si Si1 0.170672 0.922827 0.428727
Si Si2 0.908753 0.574994 0.725690
Si Si3 0.326686 0.926038 0.628788
Si Si4 0.569568 0.425073 0.033528
Si Si5 0.830875 0.922363 0.901749
Si Si6 0.938507 0.425196 0.234899
O O1 0.250000 0.962185 0.406261
O O2 0.157171 0.750000 0.415970
O O3 0.153004 0.973085 0.528988
O O4 0.120092 0.010740 0.365011
O O5 0.908623 0.750000 0.717421
O O6 0.861577 0.523910 0.808033
O O7 0.985850 0.511852 0.740969
O O8 0.250000 0.986748 0.652464
O O9 0.325503 0.750000 0.634791
O O10 0.381931 0.994158 0.697791
O O11 0.561920 0.250000 0.022302
O O12 0.581794 0.470744 0.135435
O O13 0.500000 0.500000 0.000000
O O14 0.635435 0.482999 0.979973
O O15 0.750000 0.955624 0.901524
O O16 0.847558 0.750000 0.917661
O O17 0.939930 0.250000 0.244694
#
# Coordination Sequence:
#
# PCOD8241529 Si02
#       6
#     8   8   8   8   8   8
#     4   9  18  32  50  74 104 135 169 212 261 307
#     4  10  19  33  52  75 104 139 175 210 258 317
#     4   8  15  30  51  74 102 135 169 211 261 307
#     4  11  21  36  57  79 107 141 179 222 268 320
#     4  10  21  37  55  77 108 144 180 219 267 320
#     4   9  18  32  52  76 102 135 174 214 257 314
#
# _framework density 18.240400999999999
#
# number of rings (size 3 to 8) (size 9 to 14) (size 15 to 20)
#    0.000    2.500    1.667    2.000    0.000    3.333 
#    0.000    1.667    0.000    2.000    0.000    0.000 
#    0.000    0.000    0.000    0.000    0.000    0.000 
#
# Total GULP energy -595186.132629 kJ/mol
# GULP energy per Si atom -12399.711096 kJ/mol
# Density = 1.819889 g / cm^3
# Si number density = 18.240401 Si / 1000 Ang^3
#
#
#
# Elastic Constant Matrix: (Units=GPa)
#
#
# Indices 1 2 3 4 5 6 
#
# 1 149.8359 38.0948 102.9473 0.0000 0.0000 0.0000
# 2 38.0948 32.4313 40.5503 0.0000 0.0000 0.0000
# 3 102.9473 40.5503 166.7046 0.0000 0.0000 0.0000
# 4 0.0000 0.0000 0.0000 26.0867 0.0000 0.0000
# 5 0.0000 0.0000 0.0000 0.0000 43.7084 0.0000
# 6 0.0000 0.0000 0.0000 0.0000 0.0000 22.0062
#
#
#
# Elastic Compliance Matrix: (Units=1/GPa)
#
#
# Indices 1 2 3 4 5 6 
#
# 1 0.012705 -0.007348 -0.006058 0.000000 0.000000 0.000000
# 2 -0.007348 0.048562 -0.007274 0.000000 0.000000 0.000000
# 3 -0.006058 -0.007274 0.011509 0.000000 0.000000 0.000000
# 4 0.000000 0.000000 0.000000 0.038334 0.000000 0.000000
# 5 0.000000 0.000000 0.000000 0.000000 0.022879 0.000000
# 6 0.000000 0.000000 0.000000 0.000000 0.000000 0.045442
#
#
# Mechanical properties :
#
#
# Convention : Reuss Voigt Hill
#
# Bulk Modulus (GPa) = 31.83350 79.12853 55.48102
# Shear Modulus (GPa) = 21.62036 29.51889 25.56963
#
# Velocity S-wave (km/s) = 3.44655 4.02720 3.74814
# Velocity P-wave (km/s) = 5.77308 8.06843 7.01527
#
# Compressibility (1/GPa) = 0.03141344
#
# Stress axis : x y z
#
# Youngs Moduli (GPa) = 78.71143 20.59235 86.88615
#
# Poissons Ratio (x) = 0.15132 0.52637
# Poissons Ratio (y) = 0.57841 0.63205
# Poissons Ratio (z) = 0.47685 0.14980
#
# Static dielectric constant tensor:
#      x y z
#    x 3.639950 0.000000 0.000000 
#    y 0.000000 2.995630 0.000000 
#    z 0.000000 0.000000 3.589580 
# 
# 
# High freq. dielectric constant tensor:
#      x y z
#    x 1.715590 0.000000 0.000000 
#    y 0.000000 1.668800 0.000000 
#    z 0.000000 0.000000 1.718450 
# 
# From -- ./inp_files/20338.got.cif
#   From: 2010.03.12/outbox.cif.g09.slc.cpg/sg59_11_cif.got.tgz:20338.got - 2010.04.16 16:29:54.
