data_PCOD8241087
_publ_section_title
;
Structure prediction by ZEFSAII (Michael W. Deem and Ramdas Pophale) SiO2 
 PCOD8241087
Probable space group: P M M N
;
_chemical_formula_sum "Si O2"
_cell_formula_units_Z 64
_cell_length_a 9.122523
_cell_length_b 27.469708
_cell_length_c 13.072024
_cell_angle_alpha 90.000000
_cell_angle_beta 90.000000
_cell_angle_gamma 90.000000
_cell_volume 3275.758273
_symmetry_space_group_name_H-M "P M M N"
_symmetry_group_IT_number 59
_space_group.IT_coordinate_system_code '2'
_symmetry_cell_setting 'orthorhombic'
loop_
_space_group_symop_operation_xyz
x,y,z
1/2-x,1/2-y,z
1/2+x,-y,-z
-x,1/2+y,-z
-x,-y,-z
1/2+x,1/2+y,-z
1/2-x,y,z
x,1/2-y,z
loop_
_atom_site_type_symbol
_atom_site_label
_atom_site_fract_x
_atom_site_fract_y
_atom_site_fract_z
Si Si1 0.925562 0.550353 0.036279
Si Si2 0.924381 0.902355 0.248176
Si Si3 0.075750 0.304500 0.656914
Si Si4 0.415069 0.193560 0.228640
Si Si5 0.910886 0.974708 0.411904
Si Si6 0.089017 0.924255 0.664050
Si Si7 0.078206 0.348513 0.444826
Si Si8 0.576930 0.383261 0.122977
O O1 0.750000 0.544340 0.031233
O O2 0.980667 0.569001 0.148000
O O3 0.000000 0.500000 0.000000
O O4 0.980962 0.593861 0.965959
O O5 0.750000 0.905722 0.249200
O O6 0.973722 0.845247 0.258173
O O7 0.983535 0.929297 0.351505
O O8 0.250000 0.301799 0.653681
O O9 0.013982 0.250000 0.683059
O O10 0.016304 0.321328 0.545379
O O11 0.250000 0.173316 0.213233
O O12 0.420209 0.250000 0.210127
O O13 0.467372 0.182230 0.344635
O O14 0.524138 0.171965 0.142366
O O15 0.750000 0.960105 0.453178
O O16 0.900101 0.017874 0.329133
O O17 0.000000 0.000000 0.500000
O O18 0.250000 0.900834 0.649280
O O19 0.025563 0.910161 0.773914
O O20 0.989638 0.903028 0.570201
O O21 0.250000 0.354872 0.457068
O O22 0.750000 0.386860 0.099205
#
# Coordination Sequence:
#
# PCOD8241087 Si02
#       8
#     8   8   8   8   8   8   8   8
#     4  11  22  38  59  80 102 132 171 216 269 324
#     4   9  19  34  51  73 104 138 171 211 260 315
#     4   9  16  28  49  76 103 133 171 212 252 298
#     4   9  17  30  49  77 112 144 175 215 260 304
#     4  10  19  32  49  71 101 134 165 200 247 302
#     4   9  18  31  47  69 101 137 168 202 250 308
#     4   9  16  27  48  77 106 136 173 214 251 293
#     4  10  20  35  54  76 102 134 173 215 260 309
#
# _framework density 19.537462000000001
#
# number of rings (size 3 to 8) (size 9 to 14) (size 15 to 20)
#    0.000    2.500    0.000    2.625    0.000    5.750 
#    0.000    3.125    0.000    4.875    0.000    0.000 
#    0.000    0.000    0.000    0.000    0.000    0.000 
#
# Total GULP energy -792889.495308 kJ/mol
# GULP energy per Si atom -12388.898364 kJ/mol
# Density = 1.949299 g / cm^3
# Si number density = 19.537462 Si / 1000 Ang^3
#
#
#
# Elastic Constant Matrix: (Units=GPa)
#
#
# Indices 1 2 3 4 5 6 
#
# 1 45.2881 21.8755 26.3474 0.0000 0.0000 0.0000
# 2 21.8755 128.2782 49.0638 0.0000 0.0000 0.0000
# 3 26.3474 49.0638 102.3147 0.0000 0.0000 0.0000
# 4 0.0000 0.0000 0.0000 27.5819 0.0000 0.0000
# 5 0.0000 0.0000 0.0000 0.0000 20.4621 0.0000
# 6 0.0000 0.0000 0.0000 0.0000 0.0000 26.1129
#
#
#
# Elastic Compliance Matrix: (Units=1/GPa)
#
#
# Indices 1 2 3 4 5 6 
#
# 1 0.026534 -0.002341 -0.005710 0.000000 0.000000 0.000000
# 2 -0.002341 0.009753 -0.004074 0.000000 0.000000 0.000000
# 3 -0.005710 -0.004074 0.013198 0.000000 0.000000 0.000000
# 4 0.000000 0.000000 0.000000 0.036256 0.000000 0.000000
# 5 0.000000 0.000000 0.000000 0.000000 0.048871 0.000000
# 6 0.000000 0.000000 0.000000 0.000000 0.000000 0.038295
#
#
# Mechanical properties :
#
#
# Convention : Reuss Voigt Hill
#
# Bulk Modulus (GPa) = 39.62877 52.27272 45.95075
# Shear Modulus (GPa) = 24.32283 26.73766 25.53024
#
# Velocity S-wave (km/s) = 3.53219 3.70338 3.61880
# Velocity P-wave (km/s) = 6.07969 6.71565 6.40557
#
# Compressibility (1/GPa) = 0.02523419
#
# Stress axis : x y z
#
# Youngs Moduli (GPa) = 37.68804 102.53236 75.76929
#
# Poissons Ratio (x) = 0.24000 0.43266
# Poissons Ratio (y) = 0.08822 0.30870
# Poissons Ratio (z) = 0.21521 0.41773
#
# Static dielectric constant tensor:
#      x y z
#    x 3.368880 0.000000 0.000000 
#    y 0.000000 4.027800 0.000000 
#    z 0.000000 0.000000 3.604600 
# 
# 
# High freq. dielectric constant tensor:
#      x y z
#    x 1.724430 0.000000 0.000000 
#    y 0.000000 1.773390 0.000000 
#    z 0.000000 0.000000 1.750060 
# 
# From -- ./inp_files/14903.got.cif
#   From: 2010.03.12/outbox.cif.g09.slc.cpg/sg59_8_cif.got.tgz:14903.got - 2010.04.16 16:29:54.
