data_PCOD8241236
_publ_section_title
;
Structure prediction by ZEFSAII (Michael W. Deem and Ramdas Pophale) SiO2 
 PCOD8241236
Probable space group: P M M N
;
_chemical_formula_sum "Si O2"
_cell_formula_units_Z 64
_cell_length_a 8.918274
_cell_length_b 17.856017
_cell_length_c 21.800874
_cell_angle_alpha 90.000000
_cell_angle_beta 90.000000
_cell_angle_gamma 90.000000
_cell_volume 3471.676957
_symmetry_space_group_name_H-M "P M M N"
_symmetry_group_IT_number 59
_space_group.IT_coordinate_system_code '2'
_symmetry_cell_setting 'orthorhombic'
loop_
_space_group_symop_operation_xyz
x,y,z
1/2-x,1/2-y,z
1/2+x,-y,-z
-x,1/2+y,-z
-x,-y,-z
1/2+x,1/2+y,-z
1/2-x,y,z
x,1/2-y,z
loop_
_atom_site_type_symbol
_atom_site_label
_atom_site_fract_x
_atom_site_fract_y
_atom_site_fract_z
Si Si1 0.072418 0.909568 0.123461
Si Si2 0.576753 0.836002 0.011143
Si Si3 0.570289 0.665669 0.774552
Si Si4 0.571350 0.922605 0.892570
Si Si5 0.923143 0.664468 0.376341
Si Si6 0.570813 0.471135 0.562066
Si Si7 0.079035 0.609357 0.259460
Si Si8 0.079752 0.452075 0.318112
O O1 0.250000 0.912668 0.120122
O O2 0.022782 0.877865 0.189961
O O3 0.011855 0.852930 0.073050
O O4 0.007836 0.993096 0.112199
O O5 0.750000 0.854001 0.023059
O O6 0.552426 0.750000 0.992668
O O7 0.512374 0.886554 0.955865
O O8 0.750000 0.663819 0.774509
O O9 0.508560 0.750000 0.770787
O O10 0.508922 0.626921 0.836282
O O11 0.506017 0.619898 0.715385
O O12 0.750000 0.921419 0.890972
O O13 0.750000 0.641132 0.380774
O O14 0.947425 0.750000 0.396852
O O15 0.018382 0.613163 0.422832
O O16 0.975532 0.655327 0.305998
O O17 0.500000 0.500000 0.500000
O O18 0.750000 0.471390 0.558269
O O19 0.507596 0.525438 0.616361
O O20 0.250000 0.636799 0.268674
O O21 0.068286 0.520807 0.271136
O O22 0.250000 0.431768 0.332468
#
# Coordination Sequence:
#
# PCOD8241236 Si02
#       8
#     8   8   8   8   8   8   8   8
#     4  10  19  32  52  73  95 129 172 215 257 312
#     4  10  21  34  46  66  98 131 165 211 263 311
#     4   9  14  22  43  73 100 125 157 202 257 308
#     4   9  16  29  48  69  95 127 166 209 255 309
#     4  10  21  36  55  81 111 140 176 224 271 314
#     4  10  20  35  57  81 110 148 187 220 257 308
#     4   9  17  31  51  73  99 132 169 211 260 315
#     4   8  14  27  45  69 100 130 162 204 250 298
#
# _framework density 18.434894
#
# number of rings (size 3 to 8) (size 9 to 14) (size 15 to 20)
#    0.000    2.625    1.250    2.250    0.000    3.750 
#    0.000    3.125    0.000    2.250    0.000    0.000 
#    0.000    9.500    0.000    0.000    0.000    0.000 
#
# Total GULP energy -793389.359476 kJ/mol
# GULP energy per Si atom -12396.708742 kJ/mol
# Density = 1.839294 g / cm^3
# Si number density = 18.434894 Si / 1000 Ang^3
#
#
#
# Elastic Constant Matrix: (Units=GPa)
#
#
# Indices 1 2 3 4 5 6 
#
# 1 39.4344 23.2709 33.3470 0.0000 0.0000 0.0000
# 2 23.2709 74.9924 42.5091 0.0000 0.0000 0.0000
# 3 33.3470 42.5091 139.6738 0.0000 0.0000 0.0000
# 4 0.0000 0.0000 0.0000 25.1415 0.0000 0.0000
# 5 0.0000 0.0000 0.0000 0.0000 25.0588 0.0000
# 6 0.0000 0.0000 0.0000 0.0000 0.0000 19.9892
#
#
#
# Elastic Compliance Matrix: (Units=1/GPa)
#
#
# Indices 1 2 3 4 5 6 
#
# 1 0.034845 -0.007368 -0.006077 0.000000 0.000000 0.000000
# 2 -0.007368 0.017673 -0.003619 0.000000 0.000000 0.000000
# 3 -0.006077 -0.003619 0.009712 0.000000 0.000000 0.000000
# 4 0.000000 0.000000 0.000000 0.039775 0.000000 0.000000
# 5 0.000000 0.000000 0.000000 0.000000 0.039906 0.000000
# 6 0.000000 0.000000 0.000000 0.000000 0.000000 0.050027
#
#
# Mechanical properties :
#
#
# Convention : Reuss Voigt Hill
#
# Bulk Modulus (GPa) = 35.58581 50.26162 42.92371
# Shear Modulus (GPa) = 21.23734 24.36947 22.80340
#
# Velocity S-wave (km/s) = 3.39782 3.63977 3.52087
# Velocity P-wave (km/s) = 5.89398 6.70727 6.31373
#
# Compressibility (1/GPa) = 0.02810109
#
# Stress axis : x y z
#
# Youngs Moduli (GPa) = 28.69816 56.58407 102.96588
#
# Poissons Ratio (x) = 0.41693 0.62571
# Poissons Ratio (y) = 0.21146 0.37268
# Poissons Ratio (z) = 0.17439 0.20481
#
# Static dielectric constant tensor:
#      x y z
#    x 2.980240 0.000000 0.000000 
#    y 0.000000 3.442420 0.000000 
#    z 0.000000 0.000000 3.508860 
# 
# 
# High freq. dielectric constant tensor:
#      x y z
#    x 1.670220 0.000000 0.000000 
#    y 0.000000 1.714680 0.000000 
#    z 0.000000 0.000000 1.719520 
# 
# From -- ./inp_files/29475.got.cif
#   From: 2010.03.12/outbox.cif.g09.slc.cpg/sg59_15_cif.got.tgz:29475.got - 2010.04.16 16:29:54.
