data_PCOD8241023
_publ_section_title
;
Structure prediction by ZEFSAII (Michael W. Deem and Ramdas Pophale) SiO2 
 PCOD8241023
Probable space group: P M M N
;
_chemical_formula_sum "Si O2"
_cell_formula_units_Z 64
_cell_length_a 18.456824
_cell_length_b 8.795615
_cell_length_c 20.625334
_cell_angle_alpha 90.000000
_cell_angle_beta 90.000000
_cell_angle_gamma 90.000000
_cell_volume 3348.298531
_symmetry_space_group_name_H-M "P M M N"
_symmetry_group_IT_number 59
_space_group.IT_coordinate_system_code '2'
_symmetry_cell_setting 'orthorhombic'
loop_
_space_group_symop_operation_xyz
x,y,z
1/2-x,1/2-y,z
1/2+x,-y,-z
-x,1/2+y,-z
-x,-y,-z
1/2+x,1/2+y,-z
1/2-x,y,z
x,1/2-y,z
loop_
_atom_site_type_symbol
_atom_site_label
_atom_site_fract_x
_atom_site_fract_y
_atom_site_fract_z
Si Si1 0.418984 0.929133 0.381016
Si Si2 0.087112 0.073754 0.879247
Si Si3 0.912361 0.919792 0.750143
Si Si4 0.420151 0.570776 0.119436
Si Si5 0.668529 0.429947 0.003383
Si Si6 0.584321 0.082025 0.248764
Si Si7 0.075250 0.569837 0.607772
Si Si8 0.665528 0.573827 0.505806
O O1 0.433217 0.750000 0.380619
O O2 0.387512 0.980374 0.311243
O O3 0.492896 0.014691 0.399344
O O4 0.359117 0.972779 0.433647
O O5 0.099131 0.250000 0.891336
O O6 0.003916 0.024647 0.889382
O O7 0.135640 0.983124 0.929248
O O8 0.113052 0.032958 0.806176
O O9 0.879954 0.750000 0.743878
O O10 0.998262 0.914557 0.751384
O O11 0.884770 0.994771 0.816952
O O12 0.411869 0.750000 0.127671
O O13 0.377870 0.506720 0.056973
O O14 0.750000 0.492664 0.997008
O O15 0.667125 0.250000 0.002466
O O16 0.614799 0.250000 0.232961
O O17 0.607816 0.030879 0.320889
O O18 0.076825 0.750000 0.594494
O O19 0.124788 0.480279 0.558204
O O20 0.750000 0.546499 0.494550
O O21 0.647635 0.750000 0.519195
#
# Coordination Sequence:
#
# PCOD8241023 Si02
#       8
#     8   8   8   8   8   8   8   8
#     4  11  21  35  58  84 111 143 180 221 265 317
#     4  10  19  31  52  79 104 131 167 215 263 308
#     4   9  17  31  53  81 109 136 171 216 265 313
#     4   9  18  33  53  78 104 133 172 215 262 312
#     4  10  21  36  52  71 101 140 177 213 255 308
#     4   8  16  31  52  78 106 135 168 210 258 310
#     4  10  20  36  59  85 111 140 178 222 268 320
#     4  11  24  40  56  77 109 146 183 225 271 318
#
# _framework density 19.114184999999999
#
# number of rings (size 3 to 8) (size 9 to 14) (size 15 to 20)
#    0.000    2.250    0.000    4.125    0.000    5.750 
#    0.000    1.250    0.000    3.000    0.000    0.000 
#    0.000    0.000    0.000    0.000    0.000    0.000 
#
# Total GULP energy -793613.917366 kJ/mol
# GULP energy per Si atom -12400.217459 kJ/mol
# Density = 1.907068 g / cm^3
# Si number density = 19.114185 Si / 1000 Ang^3
#
#
#
# Elastic Constant Matrix: (Units=GPa)
#
#
# Indices 1 2 3 4 5 6 
#
# 1 51.4228 20.8089 29.3774 0.0000 0.0000 0.0000
# 2 20.8089 43.9562 23.0689 0.0000 0.0000 0.0000
# 3 29.3774 23.0689 123.1341 0.0000 0.0000 0.0000
# 4 0.0000 0.0000 0.0000 36.0577 0.0000 0.0000
# 5 0.0000 0.0000 0.0000 0.0000 0.1364 0.0000
# 6 0.0000 0.0000 0.0000 0.0000 0.0000 20.1096
#
#
#
# Elastic Compliance Matrix: (Units=1/GPa)
#
#
# Indices 1 2 3 4 5 6 
#
# 1 0.025972 -0.010029 -0.004317 0.000000 0.000000 0.000000
# 2 -0.010029 0.029103 -0.003060 0.000000 0.000000 0.000000
# 3 -0.004317 -0.003060 0.009725 0.000000 0.000000 0.000000
# 4 0.000000 0.000000 0.000000 0.027733 0.000000 0.000000
# 5 0.000000 0.000000 0.000000 0.000000 7.330471 0.000000
# 6 0.000000 0.000000 0.000000 0.000000 0.000000 0.049727
#
#
# Mechanical properties :
#
#
# Convention : Reuss Voigt Hill
#
# Bulk Modulus (GPa) = 33.34769 40.55819 36.95294
# Shear Modulus (GPa) = 0.66511 20.94461 10.80486
#
# Velocity S-wave (km/s) = 0.59053 3.31382 2.38014
# Velocity P-wave (km/s) = 4.23667 5.99223 5.18923
#
# Compressibility (1/GPa) = 0.02998708
#
# Stress axis : x y z
#
# Youngs Moduli (GPa) = 38.50373 34.36014 102.83305
#
# Poissons Ratio (x) = 0.34460 0.44397
# Poissons Ratio (y) = 0.38616 0.31464
# Poissons Ratio (z) = 0.16623 0.10513
#
# Static dielectric constant tensor:
#      x y z
#    x 3.219150 0.000000 0.000000 
#    y 0.000000 3.544010 0.000000 
#    z 0.000000 0.000000 3.873110 
# 
# 
# High freq. dielectric constant tensor:
#      x y z
#    x 1.704900 0.000000 0.000000 
#    y 0.000000 1.746900 0.000000 
#    z 0.000000 0.000000 1.762970 
# 
# From -- ./inp_files/30709.got.cif
#   From: 2010.03.12/outbox.cif.g09.slc.cpg/sg59_16_cif.got.tgz:30709.got - 2010.04.16 16:29:54.
