data_PCOD8241894
_publ_section_title
;
Structure prediction by ZEFSAII (Michael W. Deem and Ramdas Pophale) SiO2 
 PCOD8241894
Probable space group: P M M N
;
_chemical_formula_sum "Si O2"
_cell_formula_units_Z 40
_cell_length_a 8.700967
_cell_length_b 14.690775
_cell_length_c 17.224779
_cell_angle_alpha 90.000000
_cell_angle_beta 90.000000
_cell_angle_gamma 90.000000
_cell_volume 2201.739263
_symmetry_space_group_name_H-M "P M M N"
_symmetry_group_IT_number 59
_space_group.IT_coordinate_system_code '2'
_symmetry_cell_setting 'orthorhombic'
loop_
_space_group_symop_operation_xyz
x,y,z
1/2-x,1/2-y,z
1/2+x,-y,-z
-x,1/2+y,-z
-x,-y,-z
1/2+x,1/2+y,-z
1/2-x,y,z
x,1/2-y,z
loop_
_atom_site_type_symbol
_atom_site_label
_atom_site_fract_x
_atom_site_fract_y
_atom_site_fract_z
Si Si1 0.069444 0.438198 0.234590
Si Si2 0.929669 0.355582 0.501661
Si Si3 0.565711 0.057243 0.069016
Si Si4 0.085240 0.750000 0.936076
Si Si5 0.417679 0.750000 0.755432
Si Si6 0.429439 0.010878 0.618989
O O1 0.250000 0.435221 0.222760
O O2 0.995114 0.471343 0.153439
O O3 0.011582 0.340397 0.265726
O O4 0.021489 0.510723 0.299950
O O5 0.750000 0.361971 0.520652
O O6 0.979044 0.250000 0.486966
O O7 0.971381 0.418271 0.427721
O O8 0.021422 0.397456 0.574309
O O9 0.750000 0.056629 0.071304
O O10 0.496882 0.156923 0.045410
O O11 0.500000 0.000000 0.000000
O O12 0.250000 0.750000 0.979803
O O13 0.117735 0.750000 0.845187
O O14 0.250000 0.750000 0.711703
O O15 0.250000 0.015608 0.637009
#
# Coordination Sequence:
#
# PCOD8241894 Si02
#       6
#     8   8   8   4   4   8
#     4  11  21  33  51  79 110 142 181 224 267 322
#     4   9  19  36  56  78 106 143 180 219 270 324
#     4  10  19  34  55  79 107 143 179 221 270 321
#     4   7  14  29  49  71  99 132 165 202 257 315
#     4   9  17  31  49  73 105 138 169 214 271 319
#     4  10  20  34  54  80 109 143 179 223 269 319
#
# _framework density 18.167455
#
# number of rings (size 3 to 8) (size 9 to 14) (size 15 to 20)
#    0.000    2.400    0.000    4.500    1.400    1.200 
#    0.000    1.500    2.200    0.000    0.000    0.000 
#    0.000    0.000    0.000    0.000    0.000    0.000 
#
# Total GULP energy -495655.825444 kJ/mol
# GULP energy per Si atom -12391.395636 kJ/mol
# Density = 1.812611 g / cm^3
# Si number density = 18.167455 Si / 1000 Ang^3
#
#
#
# Elastic Constant Matrix: (Units=GPa)
#
#
# Indices 1 2 3 4 5 6 
#
# 1 96.2174 26.6651 41.6481 0.0000 0.0000 0.0000
# 2 26.6651 93.0926 43.5754 0.0000 0.0000 0.0000
# 3 41.6481 43.5754 103.6973 0.0000 0.0000 0.0000
# 4 0.0000 0.0000 0.0000 24.2823 0.0000 0.0000
# 5 0.0000 0.0000 0.0000 0.0000 30.4545 0.0000
# 6 0.0000 0.0000 0.0000 0.0000 0.0000 -372.1134
#
#
#
# Elastic Compliance Matrix: (Units=1/GPa)
#
#
# Indices 1 2 3 4 5 6 
#
# 1 0.012760 -0.001564 -0.004468 0.000000 0.000000 0.000000
# 2 -0.001564 0.013564 -0.005072 0.000000 0.000000 0.000000
# 3 -0.004468 -0.005072 0.013569 0.000000 0.000000 0.000000
# 4 0.000000 0.000000 0.000000 0.041182 0.000000 0.000000
# 5 0.000000 0.000000 0.000000 0.000000 0.032836 0.000000
# 6 0.000000 0.000000 0.000000 0.000000 0.000000 -0.002687
#
#
# Mechanical properties :
#
#
# Convention : Reuss Voigt Hill
#
# Bulk Modulus (GPa) = 56.53938 57.42049 56.97993
# Shear Modulus (GPa) = 35.88691 -51.40074 -7.75691
#
# Velocity S-wave (km/s) = 4.44930 -5.32486 -2.06856
# Velocity P-wave (km/s) = 7.58840 2.47603 5.07214
#
# Compressibility (1/GPa) = 0.01768679
#
# Stress axis : x y z
#
# Youngs Moduli (GPa) = 78.36735 73.72498 73.69661
#
# Poissons Ratio (x) = 0.11528 0.32927
# Poissons Ratio (y) = 0.12254 0.37377
# Poissons Ratio (z) = 0.35014 0.37392
#
# Static dielectric constant tensor:
#      x y z
#    x 3.309420 0.000000 0.000000 
#    y 0.000000 2.890160 0.000000 
#    z 0.000000 0.000000 3.203020 
# 
# 
# High freq. dielectric constant tensor:
#      x y z
#    x 1.705220 0.000000 0.000000 
#    y 0.000000 1.692060 0.000000 
#    z 0.000000 0.000000 1.690730 
# 
# From -- ./inp_files/19945.got.cif
#   From: 2010.03.12/outbox.cif.g09.slc.cpg/sg59_10_cif.got.tgz:19945.got - 2010.04.16 16:29:54.
