data_PCOD8241657
_publ_section_title
;
Structure prediction by ZEFSAII (Michael W. Deem and Ramdas Pophale) SiO2 
 PCOD8241657
Probable space group: P M M N
;
_chemical_formula_sum "Si O2"
_cell_formula_units_Z 40
_cell_length_a 17.430410
_cell_length_b 13.280475
_cell_length_c 9.481808
_cell_angle_alpha 90.000000
_cell_angle_beta 90.000000
_cell_angle_gamma 90.000000
_cell_volume 2194.888021
_symmetry_space_group_name_H-M "P M M N"
_symmetry_group_IT_number 59
_space_group.IT_coordinate_system_code '2'
_symmetry_cell_setting 'orthorhombic'
loop_
_space_group_symop_operation_xyz
x,y,z
1/2-x,1/2-y,z
1/2+x,-y,-z
-x,1/2+y,-z
-x,-y,-z
1/2+x,1/2+y,-z
1/2-x,y,z
x,1/2-y,z
loop_
_atom_site_type_symbol
_atom_site_label
_atom_site_fract_x
_atom_site_fract_y
_atom_site_fract_z
Si Si1 0.917523 0.363708 0.156026
Si Si2 0.494454 0.135573 0.869005
Si Si3 0.529626 0.532629 0.650395
Si Si4 0.662833 0.865657 0.510611
Si Si5 0.335952 0.442170 0.801487
O O1 0.886304 0.250000 0.157862
O O2 0.845039 0.438752 0.166565
O O3 0.973432 0.382271 0.288003
O O4 0.966662 0.388646 0.017376
O O5 0.509831 0.250000 0.822743
O O6 0.402440 0.117734 0.885003
O O7 0.532557 0.064086 0.752141
O O8 0.500000 0.500000 0.500000
O O9 0.613561 0.581438 0.633101
O O10 0.750000 0.872666 0.562047
O O11 0.637415 0.750000 0.488740
O O12 0.650667 0.923536 0.363827
O O13 0.250000 0.407421 0.846966
#
# Coordination Sequence:
#
# PCOD8241657 Si02
#       5
#     8   8   8   8   8
#     4  10  21  37  55  78 111 145 181 220 264 322
#     4  10  21  37  56  81 111 143 181 222 266 321
#     4  11  19  33  56  82 107 138 181 223 265 317
#     4  10  20  34  53  81 114 141 172 223 278 321
#     4  10  19  33  54  80 107 139 178 223 271 318
#
# _framework density 18.224163999999998
#
# number of rings (size 3 to 8) (size 9 to 14) (size 15 to 20)
#    0.000    1.800    4.000    3.600    0.000    2.400 
#    0.000    4.000    0.000    3.000    0.000    0.000 
#    0.000    0.000    0.000    0.000    0.000    0.000 
#
# Total GULP energy -495890.038574 kJ/mol
# GULP energy per Si atom -12397.250964 kJ/mol
# Density = 1.818268 g / cm^3
# Si number density = 18.224164 Si / 1000 Ang^3
#
#
#
# Elastic Constant Matrix: (Units=GPa)
#
#
# Indices 1 2 3 4 5 6 
#
# 1 91.9283 36.1970 32.6709 0.0000 0.0000 0.0000
# 2 36.1970 112.2564 38.5720 0.0000 0.0000 0.0000
# 3 32.6709 38.5720 84.6082 0.0000 0.0000 0.0000
# 4 0.0000 0.0000 0.0000 31.7339 0.0000 0.0000
# 5 0.0000 0.0000 0.0000 0.0000 23.4211 0.0000
# 6 0.0000 0.0000 0.0000 0.0000 0.0000 22.3155
#
#
#
# Elastic Compliance Matrix: (Units=1/GPa)
#
#
# Indices 1 2 3 4 5 6 
#
# 1 0.013419 -0.003020 -0.003805 0.000000 0.000000 0.000000
# 2 -0.003020 0.011242 -0.003959 0.000000 0.000000 0.000000
# 3 -0.003805 -0.003959 0.015094 0.000000 0.000000 0.000000
# 4 0.000000 0.000000 0.000000 0.031512 0.000000 0.000000
# 5 0.000000 0.000000 0.000000 0.000000 0.042697 0.000000
# 6 0.000000 0.000000 0.000000 0.000000 0.000000 0.044812
#
#
# Mechanical properties :
#
#
# Convention : Reuss Voigt Hill
#
# Bulk Modulus (GPa) = 54.98403 55.96364 55.47384
# Shear Modulus (GPa) = 26.82318 27.58431 27.20374
#
# Velocity S-wave (km/s) = 3.84063 3.89474 3.86778
# Velocity P-wave (km/s) = 7.06425 7.14146 7.10296
#
# Compressibility (1/GPa) = 0.01818710
#
# Stress axis : x y z
#
# Youngs Moduli (GPa) = 74.51919 88.95007 66.25364
#
# Poissons Ratio (x) = 0.26859 0.25211
# Poissons Ratio (y) = 0.22502 0.26231
# Poissons Ratio (z) = 0.28356 0.35218
#
# Static dielectric constant tensor:
#      x y z
#    x 3.500960 0.000000 0.000000 
#    y 0.000000 3.539550 0.000000 
#    z 0.000000 0.000000 3.395470 
# 
# 
# High freq. dielectric constant tensor:
#      x y z
#    x 1.696470 0.000000 0.000000 
#    y 0.000000 1.718060 0.000000 
#    z 0.000000 0.000000 1.696890 
# 
# From -- ./inp_files/8813.got.cif
#   From: 2010.03.12/outbox.cif.g09.slc.cpg/sg59_5_cif.got.tgz:8813.got - 2010.04.16 16:29:54.
