data_PCOD8241941
_publ_section_title
;
Structure prediction by ZEFSAII (Michael W. Deem and Ramdas Pophale) SiO2 
 PCOD8241941
Probable space group: P M M N
;
_chemical_formula_sum "Si O2"
_cell_formula_units_Z 56
_cell_length_a 8.966374
_cell_length_b 22.627099
_cell_length_c 14.808990
_cell_angle_alpha 90.000000
_cell_angle_beta 90.000000
_cell_angle_gamma 90.000000
_cell_volume 3004.492795
_symmetry_space_group_name_H-M "P M M N"
_symmetry_group_IT_number 59
_space_group.IT_coordinate_system_code '2'
_symmetry_cell_setting 'orthorhombic'
loop_
_space_group_symop_operation_xyz
x,y,z
1/2-x,1/2-y,z
1/2+x,-y,-z
-x,1/2+y,-z
-x,-y,-z
1/2+x,1/2+y,-z
1/2-x,y,z
x,1/2-y,z
loop_
_atom_site_type_symbol
_atom_site_label
_atom_site_fract_x
_atom_site_fract_y
_atom_site_fract_z
Si Si1 0.078658 0.946629 0.602166
Si Si2 0.923081 0.634302 0.113123
Si Si3 0.074644 0.314695 0.697811
Si Si4 0.074578 0.985946 0.094271
Si Si5 0.078196 0.181523 0.082663
Si Si6 0.077745 0.912919 0.800747
Si Si7 0.926131 0.579234 0.423656
O O1 0.250000 0.946901 0.571491
O O2 0.055542 0.909327 0.693262
O O3 0.984895 0.913446 0.525432
O O4 0.025028 0.014917 0.615035
O O5 0.750000 0.615188 0.113143
O O6 0.959703 0.677459 0.195983
O O7 0.024197 0.577416 0.129139
O O8 0.966980 0.665839 0.019740
O O9 0.250000 0.314955 0.681875
O O10 0.009902 0.250000 0.669361
O O11 0.004420 0.368162 0.638344
O O12 0.250000 0.988402 0.081876
O O13 0.024416 0.034002 0.166137
O O14 0.000000 0.000000 0.000000
O O15 0.250000 0.164393 0.099921
O O16 0.049173 0.250000 0.099010
O O17 0.974410 0.147741 0.153602
O O18 0.250000 0.925015 0.825619
O O19 0.750000 0.585078 0.424416
#
# Coordination Sequence:
#
# PCOD8241941 Si02
#       7
#     8   8   8   8   8   8   8
#     4   9  19  35  55  79 106 138 176 221 277 333
#     4  10  19  34  56  80 110 146 183 223 269 326
#     4   9  17  31  54  83 112 144 182 222 270 329
#     4  12  23  35  53  80 112 144 179 225 274 322
#     4  10  21  36  54  77 107 145 187 227 266 315
#     4  11  22  37  57  80 109 145 182 224 273 325
#     4   9  17  32  55  81 107 136 174 222 270 324
#
# _framework density 18.638753999999999
#
# number of rings (size 3 to 8) (size 9 to 14) (size 15 to 20)
#    0.000    2.000    1.429    3.000    0.000    5.429 
#    0.000    4.286    0.000    5.143    0.000    0.000 
#    0.000    0.000    0.000    0.000    0.000    0.000 
#
# Total GULP energy -694389.994053 kJ/mol
# GULP energy per Si atom -12399.821322 kJ/mol
# Density = 1.859633 g / cm^3
# Si number density = 18.638754 Si / 1000 Ang^3
#
#
#
# Elastic Constant Matrix: (Units=GPa)
#
#
# Indices 1 2 3 4 5 6 
#
# 1 62.0572 33.7821 32.3329 0.0000 0.0000 0.0000
# 2 33.7821 114.4600 60.4868 0.0000 0.0000 0.0000
# 3 32.3329 60.4868 118.9849 0.0000 0.0000 0.0000
# 4 0.0000 0.0000 0.0000 24.1162 0.0000 0.0000
# 5 0.0000 0.0000 0.0000 0.0000 28.6926 0.0000
# 6 0.0000 0.0000 0.0000 0.0000 0.0000 25.5364
#
#
#
# Elastic Compliance Matrix: (Units=1/GPa)
#
#
# Indices 1 2 3 4 5 6 
#
# 1 0.020130 -0.004171 -0.003350 0.000000 0.000000 0.000000
# 2 -0.004171 0.012810 -0.005379 0.000000 0.000000 0.000000
# 3 -0.003350 -0.005379 0.012049 0.000000 0.000000 0.000000
# 4 0.000000 0.000000 0.000000 0.041466 0.000000 0.000000
# 5 0.000000 0.000000 0.000000 0.000000 0.034852 0.000000
# 6 0.000000 0.000000 0.000000 0.000000 0.000000 0.039160
#
#
# Mechanical properties :
#
#
# Convention : Reuss Voigt Hill
#
# Bulk Modulus (GPa) = 52.10999 60.96730 56.53864
# Shear Modulus (GPa) = 25.95209 26.92906 26.44058
#
# Velocity S-wave (km/s) = 3.73550 3.80516 3.77049
# Velocity P-wave (km/s) = 6.82817 7.21711 7.02533
#
# Compressibility (1/GPa) = 0.01919018
#
# Stress axis : x y z
#
# Youngs Moduli (GPa) = 49.67701 78.06329 82.99476
#
# Poissons Ratio (x) = 0.32561 0.27801
# Poissons Ratio (y) = 0.20721 0.44640
# Poissons Ratio (z) = 0.16640 0.41988
#
# Static dielectric constant tensor:
#      x y z
#    x 3.287850 0.000000 0.000000 
#    y 0.000000 3.618260 0.000000 
#    z 0.000000 0.000000 3.312570 
# 
# 
# High freq. dielectric constant tensor:
#      x y z
#    x 1.703290 0.000000 0.000000 
#    y 0.000000 1.722270 0.000000 
#    z 0.000000 0.000000 1.723980 
# 
# From -- ./inp_files/20897.got.cif
#   From: 2010.03.12/outbox.cif.g09.slc.cpg/sg59_11_cif.got.tgz:20897.got - 2010.04.16 16:29:54.
