data_PCOD8241275
_publ_section_title
;
Structure prediction by ZEFSAII (Michael W. Deem and Ramdas Pophale) SiO2 
 PCOD8241275
Probable space group: P M M N
;
_chemical_formula_sum "Si O2"
_cell_formula_units_Z 56
_cell_length_a 18.666421
_cell_length_b 9.212954
_cell_length_c 15.956553
_cell_angle_alpha 90.000000
_cell_angle_beta 90.000000
_cell_angle_gamma 90.000000
_cell_volume 2744.094343
_symmetry_space_group_name_H-M "P M M N"
_symmetry_group_IT_number 59
_space_group.IT_coordinate_system_code '2'
_symmetry_cell_setting 'orthorhombic'
loop_
_space_group_symop_operation_xyz
x,y,z
1/2-x,1/2-y,z
1/2+x,-y,-z
-x,1/2+y,-z
-x,-y,-z
1/2+x,1/2+y,-z
1/2-x,y,z
x,1/2-y,z
loop_
_atom_site_type_symbol
_atom_site_label
_atom_site_fract_x
_atom_site_fract_y
_atom_site_fract_z
Si Si1 0.466853 0.580310 0.324323
Si Si2 0.396727 0.085028 0.004832
Si Si3 0.668934 0.091855 0.119786
Si Si4 0.669264 0.079767 0.581691
Si Si5 0.520626 0.084909 0.867960
Si Si6 0.666597 0.589601 0.270244
Si Si7 0.094075 0.577379 0.589453
O O1 0.476818 0.750000 0.344272
O O2 0.382864 0.537788 0.340004
O O3 0.490993 0.541705 0.229424
O O4 0.517140 0.493422 0.389434
O O5 0.372529 0.250000 0.016486
O O6 0.453149 0.065099 0.928809
O O7 0.331960 0.985387 0.971269
O O8 0.420407 0.024550 0.094665
O O9 0.750000 0.117356 0.147038
O O10 0.629923 0.250000 0.116963
O O11 0.631906 0.987489 0.188849
O O12 0.750000 0.008963 0.588702
O O13 0.681098 0.250000 0.576674
O O14 0.624285 0.028510 0.500579
O O15 0.548914 0.250000 0.872391
O O16 0.750000 0.613084 0.257896
O O17 0.629950 0.750000 0.279474
O O18 0.653287 0.486310 0.348273
O O19 0.088201 0.750000 0.598732
#
# Coordination Sequence:
#
# PCOD8241275 Si02
#       7
#     8   8   8   8   8   8   8
#     4  10  20  36  58  81 108 142 183 231 275 322
#     4  10  19  32  52  76 105 141 177 218 268 322
#     4  10  20  33  50  74 106 143 181 221 267 321
#     4   9  19  36  57  81 109 143 182 224 274 329
#     4   9  19  34  52  76 104 135 174 220 270 321
#     4  10  20  33  50  75 109 147 186 227 274 330
#     4  11  21  33  54  82 112 143 178 224 275 330
#
# _framework density 20.407461999999999
#
# number of rings (size 3 to 8) (size 9 to 14) (size 15 to 20)
#    0.000    2.143    0.000    3.429    0.000    4.571 
#    0.000    1.429    0.000    4.714    0.000    0.000 
#    0.000    0.000    0.000    0.000    0.000    0.000 
#
# Total GULP energy -693842.244781 kJ/mol
# GULP energy per Si atom -12390.040085 kJ/mol
# Density = 2.036101 g / cm^3
# Si number density = 20.407462 Si / 1000 Ang^3
#
#
#
# Elastic Constant Matrix: (Units=GPa)
#
#
# Indices 1 2 3 4 5 6 
#
# 1 85.7723 27.9508 31.9419 0.0000 0.0000 0.0000
# 2 27.9508 94.6055 30.8320 0.0000 0.0000 0.0000
# 3 31.9419 30.8320 70.0513 0.0000 0.0000 0.0000
# 4 0.0000 0.0000 0.0000 26.5998 0.0000 0.0000
# 5 0.0000 0.0000 0.0000 0.0000 31.1450 0.0000
# 6 0.0000 0.0000 0.0000 0.0000 0.0000 25.0681
#
#
#
# Elastic Compliance Matrix: (Units=1/GPa)
#
#
# Indices 1 2 3 4 5 6 
#
# 1 0.014529 -0.002491 -0.005529 0.000000 0.000000 0.000000
# 2 -0.002491 0.012767 -0.004484 0.000000 0.000000 0.000000
# 3 -0.005529 -0.004484 0.018770 0.000000 0.000000 0.000000
# 4 0.000000 0.000000 0.000000 0.037594 0.000000 0.000000
# 5 0.000000 0.000000 0.000000 0.000000 0.032108 0.000000
# 6 0.000000 0.000000 0.000000 0.000000 0.000000 0.039891
#
#
# Mechanical properties :
#
#
# Convention : Reuss Voigt Hill
#
# Bulk Modulus (GPa) = 47.48343 47.98650 47.73497
# Shear Modulus (GPa) = 26.64019 27.20953 26.92486
#
# Velocity S-wave (km/s) = 3.61697 3.65542 3.63625
# Velocity P-wave (km/s) = 6.38447 6.43283 6.40870
#
# Compressibility (1/GPa) = 0.02105998
#
# Stress axis : x y z
#
# Youngs Moduli (GPa) = 68.82592 78.32505 53.27747
#
# Poissons Ratio (x) = 0.19509 0.29456
# Poissons Ratio (y) = 0.17143 0.23887
# Poissons Ratio (z) = 0.38053 0.35118
#
# Static dielectric constant tensor:
#      x y z
#    x 3.667080 0.000000 0.000000 
#    y 0.000000 3.813520 0.000000 
#    z 0.000000 0.000000 3.717430 
# 
# 
# High freq. dielectric constant tensor:
#      x y z
#    x 1.785880 0.000000 0.000000 
#    y 0.000000 1.791310 0.000000 
#    z 0.000000 0.000000 1.789440 
# 
# From -- ./inp_files/21035.got.cif
#   From: 2010.03.12/outbox.cif.g09.slc.cpg/sg59_11_cif.got.tgz:21035.got - 2010.04.16 16:29:54.
