data_PCOD8241986
_publ_section_title
;
Structure prediction by ZEFSAII (Michael W. Deem and Ramdas Pophale) SiO2 
 PCOD8241986
Probable space group: P M M N
;
_chemical_formula_sum "Si O2"
_cell_formula_units_Z 48
_cell_length_a 15.064991
_cell_length_b 17.983847
_cell_length_c 9.389986
_cell_angle_alpha 90.000000
_cell_angle_beta 90.000000
_cell_angle_gamma 90.000000
_cell_volume 2543.995978
_symmetry_space_group_name_H-M "P M M N"
_symmetry_group_IT_number 59
_space_group.IT_coordinate_system_code '2'
_symmetry_cell_setting 'orthorhombic'
loop_
_space_group_symop_operation_xyz
x,y,z
1/2-x,1/2-y,z
1/2+x,-y,-z
-x,1/2+y,-z
-x,-y,-z
1/2+x,1/2+y,-z
1/2-x,y,z
x,1/2-y,z
loop_
_atom_site_type_symbol
_atom_site_label
_atom_site_fract_x
_atom_site_fract_y
_atom_site_fract_z
Si Si1 0.150238 0.597128 0.653594
Si Si2 0.354506 0.832742 0.363109
Si Si3 0.526405 0.424301 0.823252
Si Si4 0.352169 0.164943 0.334884
Si Si5 0.489196 0.096037 0.138719
Si Si6 0.080670 0.451575 0.564662
O O1 0.250000 0.622996 0.696495
O O2 0.110775 0.642696 0.519097
O O3 0.156240 0.510401 0.608898
O O4 0.083679 0.610391 0.784802
O O5 0.250000 0.836709 0.366420
O O6 0.389982 0.750000 0.332675
O O7 0.384634 0.886767 0.236501
O O8 0.543993 0.511926 0.839105
O O9 0.449672 0.408619 0.707414
O O10 0.500359 0.386635 0.972176
O O11 0.250000 0.149666 0.294083
O O12 0.364963 0.250000 0.385524
O O13 0.413113 0.150447 0.196955
O O14 0.381855 0.109379 0.458656
O O15 0.000000 0.500000 0.500000
#
# Coordination Sequence:
#
# PCOD8241986 Si02
#       6
#     8   8   8   8   8   8
#     4  10  19  34  57  81 110 146 187 238 287 338
#     4  10  20  33  51  79 110 144 188 233 281 336
#     4  10  20  35  57  81 112 148 190 234 291 337
#     4  11  23  39  61  87 117 156 197 238 290 350
#     4  10  21  38  55  83 115 148 192 233 282 351
#     4  11  18  37  60  85 107 149 192 244 289 337
#
# _framework density 18.867953
#
# number of rings (size 3 to 8) (size 9 to 14) (size 15 to 20)
#    0.000    1.667    5.000    0.500    0.000    6.000 
#    0.000    7.500    0.000    4.000    0.000    0.000 
#    0.000    0.000    0.000    0.000    0.000    0.000 
#
# Total GULP energy -595124.025712 kJ/mol
# GULP energy per Si atom -12398.417202 kJ/mol
# Density = 1.882501 g / cm^3
# Si number density = 18.867953 Si / 1000 Ang^3
#
#
#
# Elastic Constant Matrix: (Units=GPa)
#
#
# Indices 1 2 3 4 5 6 
#
# 1 93.2180 43.0910 58.0898 0.0000 0.0000 0.0000
# 2 43.0910 69.5225 38.1975 0.0000 0.0000 0.0000
# 3 58.0898 38.1975 146.6262 0.0000 0.0000 0.0000
# 4 0.0000 0.0000 0.0000 16.4740 0.0000 0.0000
# 5 0.0000 0.0000 0.0000 0.0000 21.1007 0.0000
# 6 0.0000 0.0000 0.0000 0.0000 0.0000 29.8383
#
#
#
# Elastic Compliance Matrix: (Units=1/GPa)
#
#
# Indices 1 2 3 4 5 6 
#
# 1 0.017518 -0.008222 -0.004799 0.000000 0.000000 0.000000
# 2 -0.008222 0.020645 -0.002121 0.000000 0.000000 0.000000
# 3 -0.004799 -0.002121 0.009274 0.000000 0.000000 0.000000
# 4 0.000000 0.000000 0.000000 0.060702 0.000000 0.000000
# 5 0.000000 0.000000 0.000000 0.000000 0.047392 0.000000
# 6 0.000000 0.000000 0.000000 0.000000 0.000000 0.033514
#
#
# Mechanical properties :
#
#
# Convention : Reuss Voigt Hill
#
# Bulk Modulus (GPa) = 58.29313 65.34703 61.82008
# Shear Modulus (GPa) = 22.21774 24.81515 23.51644
#
# Velocity S-wave (km/s) = 3.43525 3.63050 3.53423
# Velocity P-wave (km/s) = 6.83352 7.23071 7.03492
#
# Compressibility (1/GPa) = 0.01715468
#
# Stress axis : x y z
#
# Youngs Moduli (GPa) = 57.08293 48.43768 107.83217
#
# Poissons Ratio (x) = 0.39824 0.51744
# Poissons Ratio (y) = 0.46932 0.22871
# Poissons Ratio (z) = 0.27391 0.10274
#
# Static dielectric constant tensor:
#      x y z
#    x 3.436600 0.000000 0.000000 
#    y 0.000000 3.608470 0.000000 
#    z 0.000000 0.000000 3.669070 
# 
# 
# High freq. dielectric constant tensor:
#      x y z
#    x 1.727820 0.000000 0.000000 
#    y 0.000000 1.727580 0.000000 
#    z 0.000000 0.000000 1.728350 
# 
# From -- ./inp_files/9049.got.cif
#   From: 2010.03.12/outbox.cif.g09.slc.cpg/sg59_5_cif.got.tgz:9049.got - 2010.04.16 16:29:54.
