data_PCOD8241352
_publ_section_title
;
Structure prediction by ZEFSAII (Michael W. Deem and Ramdas Pophale) SiO2 
 PCOD8241352
Probable space group: P M M N
;
_chemical_formula_sum "Si O2"
_cell_formula_units_Z 56
_cell_length_a 8.599920
_cell_length_b 14.342427
_cell_length_c 22.906286
_cell_angle_alpha 90.000000
_cell_angle_beta 90.000000
_cell_angle_gamma 90.000000
_cell_volume 2825.346637
_symmetry_space_group_name_H-M "P M M N"
_symmetry_group_IT_number 59
_space_group.IT_coordinate_system_code '2'
_symmetry_cell_setting 'orthorhombic'
loop_
_space_group_symop_operation_xyz
x,y,z
1/2-x,1/2-y,z
1/2+x,-y,-z
-x,1/2+y,-z
-x,-y,-z
1/2+x,1/2+y,-z
1/2-x,y,z
x,1/2-y,z
loop_
_atom_site_type_symbol
_atom_site_label
_atom_site_fract_x
_atom_site_fract_y
_atom_site_fract_z
Si Si1 0.064494 0.647839 0.591511
Si Si2 0.434960 0.355860 0.755666
Si Si3 0.424731 0.641167 0.460978
Si Si4 0.429561 0.143014 0.965137
Si Si5 0.431873 0.462513 0.643918
Si Si6 0.931007 0.355336 0.090860
Si Si7 0.431603 0.968228 0.137308
O O1 0.250000 0.651388 0.589942
O O2 1.000000 0.750000 0.610433
O O3 0.008794 0.622051 0.525976
O O4 0.003458 0.568651 0.636352
O O5 0.250000 0.355228 0.754123
O O6 0.498745 0.250000 0.753929
O O7 0.506794 0.411857 0.700189
O O8 0.489483 0.405016 0.814135
O O9 0.250000 0.601368 0.453879
O O10 0.425229 0.750000 0.447843
O O11 0.537652 0.593219 0.415084
O O12 0.250000 0.115477 0.956449
O O13 0.459064 0.250000 0.947325
O O14 0.536071 0.078026 0.925270
O O15 0.475389 0.125891 0.031731
O O16 0.250000 0.466983 0.654272
O O17 0.750000 0.372424 0.078840
O O18 0.960717 0.250000 0.113632
O O19 0.994558 0.427859 0.139012
O O20 0.250000 0.975278 0.149275
#
# Coordination Sequence:
#
# PCOD8241352 Si02
#       7
#     8   8   8   8   8   8   8
#     4   8  15  29  49  75 106 137 169 208 258 317
#     4  10  22  39  55  74 104 138 174 221 272 320
#     4   9  17  29  47  73 106 140 170 206 259 321
#     4  10  20  35  57  85 117 149 180 220 269 317
#     4  10  19  32  53  77 101 134 177 223 265 306
#     4  10  21  38  60  85 113 144 179 218 261 316
#     4  12  24  37  56  80 108 143 183 226 269 317
#
# _framework density 19.820577
#
# number of rings (size 3 to 8) (size 9 to 14) (size 15 to 20)
#    0.000    2.143    0.000    4.714    0.000    5.143 
#    0.000    0.714    0.000    3.857    0.000    0.000 
#    0.000    0.000    0.000    0.000    0.000    0.000 
#
# Total GULP energy -694334.223529 kJ/mol
# GULP energy per Si atom -12398.825420 kJ/mol
# Density = 1.977546 g / cm^3
# Si number density = 19.820577 Si / 1000 Ang^3
#
#
#
# Elastic Constant Matrix: (Units=GPa)
#
#
# Indices 1 2 3 4 5 6 
#
# 1 16.3563 21.8798 11.3638 0.0000 0.0000 0.0000
# 2 21.8798 139.4000 72.2026 0.0000 0.0000 0.0000
# 3 11.3638 72.2026 74.4443 0.0000 0.0000 0.0000
# 4 0.0000 0.0000 0.0000 36.9650 0.0000 0.0000
# 5 0.0000 0.0000 0.0000 0.0000 23.1649 0.0000
# 6 0.0000 0.0000 0.0000 0.0000 0.0000 22.0599
#
#
#
# Elastic Compliance Matrix: (Units=1/GPa)
#
#
# Indices 1 2 3 4 5 6 
#
# 1 0.077387 -0.012113 -0.000065 0.000000 0.000000 0.000000
# 2 -0.012113 0.016311 -0.013971 0.000000 0.000000 0.000000
# 3 -0.000065 -0.013971 0.026993 0.000000 0.000000 0.000000
# 4 0.000000 0.000000 0.000000 0.027053 0.000000 0.000000
# 5 0.000000 0.000000 0.000000 0.000000 0.043169 0.000000
# 6 0.000000 0.000000 0.000000 0.000000 0.000000 0.045331
#
#
# Mechanical properties :
#
#
# Convention : Reuss Voigt Hill
#
# Bulk Modulus (GPa) = 14.62126 49.01035 31.81581
# Shear Modulus (GPa) = 16.05970 24.75492 20.40731
#
# Velocity S-wave (km/s) = 2.84958 3.53788 3.21222
# Velocity P-wave (km/s) = 4.26845 6.43968 5.46302
#
# Compressibility (1/GPa) = 0.06839354
#
# Stress axis : x y z
#
# Youngs Moduli (GPa) = 12.92210 61.30819 37.04668
#
# Poissons Ratio (x) = 0.74261 0.00241
# Poissons Ratio (y) = 0.15652 0.51757
# Poissons Ratio (z) = 0.00084 0.85653
#
# Static dielectric constant tensor:
#      x y z
#    x 3.388030 0.000000 0.000000 
#    y 0.000000 4.124690 0.000000 
#    z 0.000000 0.000000 3.509290 
# 
# 
# High freq. dielectric constant tensor:
#      x y z
#    x 1.750850 0.000000 0.000000 
#    y 0.000000 1.793050 0.000000 
#    z 0.000000 0.000000 1.751370 
# 
# From -- ./inp_files/28987.got.cif
#   From: 2010.03.12/outbox.cif.g09.slc.cpg/sg59_15_cif.got.tgz:28987.got - 2010.04.16 16:29:54.
