data_PCOD8241969
_publ_section_title
;
Structure prediction by ZEFSAII (Michael W. Deem and Ramdas Pophale) SiO2 
 PCOD8241969
Probable space group: P M M N
;
_chemical_formula_sum "Si O2"
_cell_formula_units_Z 56
_cell_length_a 16.785980
_cell_length_b 8.999424
_cell_length_c 18.744068
_cell_angle_alpha 90.000000
_cell_angle_beta 90.000000
_cell_angle_gamma 90.000000
_cell_volume 2831.556724
_symmetry_space_group_name_H-M "P M M N"
_symmetry_group_IT_number 59
_space_group.IT_coordinate_system_code '2'
_symmetry_cell_setting 'orthorhombic'
loop_
_space_group_symop_operation_xyz
x,y,z
1/2-x,1/2-y,z
1/2+x,-y,-z
-x,1/2+y,-z
-x,-y,-z
1/2+x,1/2+y,-z
1/2-x,y,z
x,1/2-y,z
loop_
_atom_site_type_symbol
_atom_site_label
_atom_site_fract_x
_atom_site_fract_y
_atom_site_fract_z
Si Si1 0.750000 0.926501 0.026269
Si Si2 0.542054 0.922814 0.803908
Si Si3 0.838218 0.915722 0.682970
Si Si4 0.392348 0.075450 0.747063
Si Si5 0.606083 0.077306 0.551152
Si Si6 0.750000 0.075510 0.178017
Si Si7 0.078367 0.077384 0.034004
Si Si8 0.426155 0.077955 0.585226
O O1 0.750000 0.750000 0.023612
O O2 0.750000 0.983176 0.106088
O O3 0.665822 0.983968 0.991486
O O4 0.517441 0.750000 0.793795
O O5 0.606055 0.976076 0.745695
O O6 0.578135 0.949333 0.881621
O O7 0.469004 0.033885 0.793291
O O8 0.750000 0.916532 0.715449
O O9 0.864707 0.750000 0.660578
O O10 0.837001 0.015856 0.612401
O O11 0.373250 0.250000 0.757022
O O12 0.401363 0.032065 0.664401
O O13 0.324736 0.969164 0.775371
O O14 0.620163 0.250000 0.544323
O O15 0.517656 0.032671 0.575562
O O16 0.626349 0.007819 0.473786
O O17 0.750000 0.250000 0.161142
O O18 0.070912 0.250000 0.013997
O O19 0.000000 0.000000 0.000000
O O20 0.412133 0.250000 0.571546
#
# Coordination Sequence:
#
# PCOD8241969 Si02
#       8
#     4   8   8   8   8   4   8   8
#     4  10  22  42  66  90 121 164 203 244 299 362
#     4  10  21  37  61  90 120 155 198 247 293 347
#     4  10  21  36  56  83 117 158 199 240 292 350
#     4  11  22  40  63  88 119 156 198 243 297 356
#     4  10  19  34  56  83 112 148 193 242 292 345
#     4  12  26  42  62  90 121 152 195 246 297 352
#     4  10  22  39  61  90 122 157 200 246 298 358
#     4   9  19  35  57  83 112 148 191 238 290 350
#
# _framework density 19.777107999999998
#
# number of rings (size 3 to 8) (size 9 to 14) (size 15 to 20)
#    0.000    1.857    1.429    2.357    1.000    5.429 
#    1.286    0.000    0.000    0.000    0.000    0.000 
#    0.000    0.000    0.000    0.000    0.000    0.000 
#
# Total GULP energy -694281.134261 kJ/mol
# GULP energy per Si atom -12397.877398 kJ/mol
# Density = 1.973209 g / cm^3
# Si number density = 19.777108 Si / 1000 Ang^3
#
#
#
# Elastic Constant Matrix: (Units=GPa)
#
#
# Indices 1 2 3 4 5 6 
#
# 1 114.3505 25.5381 41.6350 0.0000 0.0000 0.0000
# 2 25.5381 23.6124 20.7569 0.0000 0.0000 0.0000
# 3 41.6350 20.7569 111.8892 0.0000 0.0000 0.0000
# 4 0.0000 0.0000 0.0000 29.5816 0.0000 0.0000
# 5 0.0000 0.0000 0.0000 0.0000 35.2292 0.0000
# 6 0.0000 0.0000 0.0000 0.0000 0.0000 34.5599
#
#
#
# Elastic Compliance Matrix: (Units=1/GPa)
#
#
# Indices 1 2 3 4 5 6 
#
# 1 0.012077 -0.010887 -0.002474 0.000000 0.000000 0.000000
# 2 -0.010887 0.060417 -0.007157 0.000000 0.000000 0.000000
# 3 -0.002474 -0.007157 0.011186 0.000000 0.000000 0.000000
# 4 0.000000 0.000000 0.000000 0.033805 0.000000 0.000000
# 5 0.000000 0.000000 0.000000 0.000000 0.028386 0.000000
# 6 0.000000 0.000000 0.000000 0.000000 0.000000 0.028935
#
#
# Mechanical properties :
#
#
# Convention : Reuss Voigt Hill
#
# Bulk Modulus (GPa) = 23.45033 47.30133 35.37583
# Shear Modulus (GPa) = 21.73370 30.66897 26.20133
#
# Velocity S-wave (km/s) = 3.31861 3.94220 3.64377
# Velocity P-wave (km/s) = 5.15435 6.68509 5.96899
#
# Compressibility (1/GPa) = 0.04264332
#
# Stress axis : x y z
#
# Youngs Moduli (GPa) = 82.79902 16.55160 89.39857
#
# Poissons Ratio (x) = 0.18020 0.22121
# Poissons Ratio (y) = 0.90145 0.63982
# Poissons Ratio (z) = 0.20488 0.11846
#
# Static dielectric constant tensor:
#      x y z
#    x 3.658440 0.000000 0.000000 
#    y 0.000000 3.517230 0.000000 
#    z 0.000000 0.000000 3.757620 
# 
# 
# High freq. dielectric constant tensor:
#      x y z
#    x 1.769170 0.000000 0.000000 
#    y 0.000000 1.763280 0.000000 
#    z 0.000000 0.000000 1.783990 
# 
# From -- ./inp_files/30513.got.cif
#   From: 2010.03.12/outbox.cif.g09.slc.cpg/sg59_16_cif.got.tgz:30513.got - 2010.04.16 16:29:54.
