data_PCOD8241138
_publ_section_title
;
Structure prediction by ZEFSAII (Michael W. Deem and Ramdas Pophale) SiO2 
 PCOD8241138
Probable space group: P M M N
;
_chemical_formula_sum "Si O2"
_cell_formula_units_Z 64
_cell_length_a 13.570974
_cell_length_b 12.954261
_cell_length_c 19.535295
_cell_angle_alpha 90.000000
_cell_angle_beta 90.000000
_cell_angle_gamma 90.000000
_cell_volume 3434.342744
_symmetry_space_group_name_H-M "P M M N"
_symmetry_group_IT_number 59
_space_group.IT_coordinate_system_code '2'
_symmetry_cell_setting 'orthorhombic'
loop_
_space_group_symop_operation_xyz
x,y,z
1/2-x,1/2-y,z
1/2+x,-y,-z
-x,1/2+y,-z
-x,-y,-z
1/2+x,1/2+y,-z
1/2-x,y,z
x,1/2-y,z
loop_
_atom_site_type_symbol
_atom_site_label
_atom_site_fract_x
_atom_site_fract_y
_atom_site_fract_z
Si Si1 0.137124 0.505533 0.774886
Si Si2 0.365965 0.136742 0.653773
Si Si3 0.963244 0.631766 0.740236
Si Si4 0.955554 0.630719 0.118047
Si Si5 0.636692 0.999052 0.473291
Si Si6 0.863249 0.495336 0.847360
Si Si7 0.032072 0.130193 0.421268
Si Si8 0.638648 0.867657 0.977334
O O1 0.250000 0.538542 0.764589
O O2 0.093250 0.434357 0.714262
O O3 0.124342 0.441232 0.844291
O O4 0.070998 0.608773 0.773045
O O5 0.250000 0.146252 0.663262
O O6 0.415192 0.250000 0.658102
O O7 0.392910 0.088248 0.581243
O O8 0.935441 0.750000 0.755329
O O9 0.883903 0.557441 0.777051
O O10 0.965751 0.610056 0.659474
O O11 0.934024 0.750000 0.135432
O O12 0.939278 0.609146 0.037617
O O13 0.066011 0.603752 0.143553
O O14 0.750000 0.032833 0.469590
O O15 0.573060 0.100768 0.455724
O O16 0.613831 0.946465 0.546404
O O17 0.750000 0.458447 0.847238
O O18 0.889822 0.567176 0.911301
O O19 0.054473 0.250000 0.437664
O O20 0.750000 0.892581 0.002450
O O21 0.630356 0.750000 0.953777
#
# Coordination Sequence:
#
# PCOD8241138 Si02
#       8
#     8   8   8   8   8   8   8   8
#     4  10  19  32  50  77 108 137 170 210 262 320
#     4   9  16  27  46  71  98 129 164 200 244 300
#     4  10  21  36  54  78 106 137 175 217 261 310
#     4  10  20  33  52  78 107 139 177 223 269 312
#     4  10  20  35  54  78 106 136 172 212 259 314
#     4  10  21  36  54  75 104 143 185 223 261 306
#     4  10  21  36  55  80 108 137 173 218 264 311
#     4   9  17  31  53  80 106 134 172 218 268 319
#
# _framework density 18.635297999999999
#
# number of rings (size 3 to 8) (size 9 to 14) (size 15 to 20)
#    0.000    2.250    1.250    1.875    0.000    4.000 
#    0.000    2.500    0.000    0.000    0.000    7.000 
#    0.000    0.000    0.000    0.000    0.000    0.000 
#
# Total GULP energy -793465.597560 kJ/mol
# GULP energy per Si atom -12397.899962 kJ/mol
# Density = 1.859288 g / cm^3
# Si number density = 18.635298 Si / 1000 Ang^3
#
#
#
# Elastic Constant Matrix: (Units=GPa)
#
#
# Indices 1 2 3 4 5 6 
#
# 1 67.6867 1.6819 14.4934 0.0000 0.0000 0.0000
# 2 1.6819 45.2163 21.7084 0.0000 0.0000 0.0000
# 3 14.4934 21.7084 81.0996 0.0000 0.0000 0.0000
# 4 0.0000 0.0000 0.0000 28.4238 0.0000 0.0000
# 5 0.0000 0.0000 0.0000 0.0000 23.5331 0.0000
# 6 0.0000 0.0000 0.0000 0.0000 0.0000 17.3273
#
#
#
# Elastic Compliance Matrix: (Units=1/GPa)
#
#
# Indices 1 2 3 4 5 6 
#
# 1 0.015391 0.000858 -0.002980 0.000000 0.000000 0.000000
# 2 0.000858 0.025425 -0.006959 0.000000 0.000000 0.000000
# 3 -0.002980 -0.006959 0.014726 0.000000 0.000000 0.000000
# 4 0.000000 0.000000 0.000000 0.035182 0.000000 0.000000
# 5 0.000000 0.000000 0.000000 0.000000 0.042493 0.000000
# 6 0.000000 0.000000 0.000000 0.000000 0.000000 0.057712
#
#
# Mechanical properties :
#
#
# Convention : Reuss Voigt Hill
#
# Bulk Modulus (GPa) = 26.75246 29.97443 28.36345
# Shear Modulus (GPa) = 22.56819 24.26480 23.41650
#
# Velocity S-wave (km/s) = 3.48378 3.61236 3.54865
# Velocity P-wave (km/s) = 5.52895 5.78952 5.66073
#
# Compressibility (1/GPa) = 0.03737974
#
# Stress axis : x y z
#
# Youngs Moduli (GPa) = 64.97397 39.33135 67.90763
#
# Poissons Ratio (x) = -0.03376 0.20238
# Poissons Ratio (y) = -0.05577 0.47257
# Poissons Ratio (z) = 0.19364 0.27371
#
# Static dielectric constant tensor:
#      x y z
#    x 3.236860 0.000000 0.000000 
#    y 0.000000 3.389020 0.000000 
#    z 0.000000 0.000000 3.462570 
# 
# 
# High freq. dielectric constant tensor:
#      x y z
#    x 1.706280 0.000000 0.000000 
#    y 0.000000 1.714320 0.000000 
#    z 0.000000 0.000000 1.732210 
# 
# From -- ./inp_files/27663.got.cif
#   From: 2010.03.12/outbox.cif.g09.slc.cpg/sg59_14_cif.got.tgz:27663.got - 2010.04.16 16:29:54.
