data_PCOD8241972
_publ_section_title
;
Structure prediction by ZEFSAII (Michael W. Deem and Ramdas Pophale) SiO2 
 PCOD8241972
Probable space group: P M M N
;
_chemical_formula_sum "Si O2"
_cell_formula_units_Z 64
_cell_length_a 8.841869
_cell_length_b 25.063760
_cell_length_c 14.663649
_cell_angle_alpha 90.000000
_cell_angle_beta 90.000000
_cell_angle_gamma 90.000000
_cell_volume 3249.618331
_symmetry_space_group_name_H-M "P M M N"
_symmetry_group_IT_number 59
_space_group.IT_coordinate_system_code '2'
_symmetry_cell_setting 'orthorhombic'
loop_
_space_group_symop_operation_xyz
x,y,z
1/2-x,1/2-y,z
1/2+x,-y,-z
-x,1/2+y,-z
-x,-y,-z
1/2+x,1/2+y,-z
1/2-x,y,z
x,1/2-y,z
loop_
_atom_site_type_symbol
_atom_site_label
_atom_site_fract_x
_atom_site_fract_y
_atom_site_fract_z
Si Si1 0.428702 0.340503 0.515996
Si Si2 0.424172 0.810323 0.294648
Si Si3 0.075180 0.944624 0.971564
Si Si4 0.424659 0.691261 0.662610
Si Si5 0.073408 0.948378 0.458790
Si Si6 0.923561 0.520925 0.283533
Si Si7 0.576417 0.096680 0.839378
Si Si8 0.925700 0.405973 0.219668
O O1 0.250000 0.342735 0.516112
O O2 0.480572 0.319069 0.613983
O O3 0.486367 0.304411 0.432974
O O4 0.497986 0.398069 0.493598
O O5 0.250000 0.821011 0.320474
O O6 0.449283 0.750000 0.259814
O O7 0.475698 0.848987 0.211670
O O8 0.250000 0.957943 0.951849
O O9 0.001821 0.918547 0.879882
O O10 0.057342 0.899930 0.051199
O O11 0.000000 0.000000 0.000000
O O12 0.250000 0.677340 0.641521
O O13 0.439172 0.750000 0.708553
O O14 0.496038 0.646345 0.730735
O O15 0.250000 0.947547 0.477834
O O16 0.035682 0.948175 0.351841
O O17 0.000000 0.000000 0.500000
O O18 0.750000 0.533233 0.308877
O O19 0.952397 0.457552 0.283915
O O20 0.967819 0.547111 0.187444
O O21 0.750000 0.083322 0.814752
O O22 0.750000 0.394519 0.204910
#
# Coordination Sequence:
#
# PCOD8241972 Si02
#       8
#     8   8   8   8   8   8   8   8
#     4  12  24  38  58  85 114 150 196 244 294 342
#     4  10  21  38  58  81 113 155 196 238 291 348
#     4  10  19  34  56  84 115 148 187 236 293 348
#     4  10  21  39  61  82 110 154 200 243 292 344
#     4  12  24  38  55  81 118 156 195 237 289 347
#     4  11  20  33  55  82 115 153 188 230 289 346
#     4  10  20  34  55  82 114 149 188 236 288 347
#     4   9  19  35  56  84 116 147 187 236 287 347
#
# _framework density 19.694621999999999
#
# number of rings (size 3 to 8) (size 9 to 14) (size 15 to 20)
#    0.000    1.500    2.500    3.750    0.000    3.000 
#    0.000    1.875    0.000    3.750    0.000    0.000 
#    0.000    3.000    0.000    0.000    0.000    0.000 
#
# Total GULP energy -793443.140165 kJ/mol
# GULP energy per Si atom -12397.549065 kJ/mol
# Density = 1.964980 g / cm^3
# Si number density = 19.694622 Si / 1000 Ang^3
#
#
#
# Elastic Constant Matrix: (Units=GPa)
#
#
# Indices 1 2 3 4 5 6 
#
# 1 83.4106 38.1776 30.4639 0.0000 0.0000 0.0000
# 2 38.1776 124.1305 41.7472 0.0000 0.0000 0.0000
# 3 30.4639 41.7472 97.5322 0.0000 0.0000 0.0000
# 4 0.0000 0.0000 0.0000 22.0341 0.0000 0.0000
# 5 0.0000 0.0000 0.0000 0.0000 20.3537 0.0000
# 6 0.0000 0.0000 0.0000 0.0000 0.0000 22.5466
#
#
#
# Elastic Compliance Matrix: (Units=1/GPa)
#
#
# Indices 1 2 3 4 5 6 
#
# 1 0.014717 -0.003482 -0.003107 0.000000 0.000000 0.000000
# 2 -0.003482 0.010234 -0.003293 0.000000 0.000000 0.000000
# 3 -0.003107 -0.003293 0.012633 0.000000 0.000000 0.000000
# 4 0.000000 0.000000 0.000000 0.045384 0.000000 0.000000
# 5 0.000000 0.000000 0.000000 0.000000 0.049131 0.000000
# 6 0.000000 0.000000 0.000000 0.000000 0.000000 0.044353
#
#
# Mechanical properties :
#
#
# Convention : Reuss Voigt Hill
#
# Bulk Modulus (GPa) = 56.11158 58.42787 57.26972
# Shear Modulus (GPa) = 24.73341 25.96585 25.34963
#
# Velocity S-wave (km/s) = 3.54764 3.63495 3.59156
# Velocity P-wave (km/s) = 6.73303 6.88102 6.80743
#
# Compressibility (1/GPa) = 0.01782163
#
# Stress axis : x y z
#
# Youngs Moduli (GPa) = 67.94839 97.70966 79.15797
#
# Poissons Ratio (x) = 0.34018 0.24591
# Poissons Ratio (y) = 0.23657 0.26068
# Poissons Ratio (z) = 0.21109 0.32178
#
# Static dielectric constant tensor:
#      x y z
#    x 3.470810 0.000000 0.000000 
#    y 0.000000 3.725130 0.000000 
#    z 0.000000 0.000000 4.022960 
# 
# 
# High freq. dielectric constant tensor:
#      x y z
#    x 1.747520 0.000000 0.000000 
#    y 0.000000 1.768980 0.000000 
#    z 0.000000 0.000000 1.767170 
# 
# From -- ./inp_files/21587.got.cif
#   From: 2010.03.12/outbox.cif.g09.slc.cpg/sg59_11_cif.got.tgz:21587.got - 2010.04.16 16:29:54.
