data_PCOD8241909
_publ_section_title
;
Structure prediction by ZEFSAII (Michael W. Deem and Ramdas Pophale) SiO2 
 PCOD8241909
Probable space group: P M M N
;
_chemical_formula_sum "Si O2"
_cell_formula_units_Z 48
_cell_length_a 14.605168
_cell_length_b 15.492380
_cell_length_c 11.337181
_cell_angle_alpha 90.000000
_cell_angle_beta 90.000000
_cell_angle_gamma 90.000000
_cell_volume 2565.250483
_symmetry_space_group_name_H-M "P M M N"
_symmetry_group_IT_number 59
_space_group.IT_coordinate_system_code '2'
_symmetry_cell_setting 'orthorhombic'
loop_
_space_group_symop_operation_xyz
x,y,z
1/2-x,1/2-y,z
1/2+x,-y,-z
-x,1/2+y,-z
-x,-y,-z
1/2+x,1/2+y,-z
1/2-x,y,z
x,1/2-y,z
loop_
_atom_site_type_symbol
_atom_site_label
_atom_site_fract_x
_atom_site_fract_y
_atom_site_fract_z
Si Si1 0.990935 0.923186 0.251016
Si Si2 0.645577 0.549612 0.823011
Si Si3 0.390758 0.346799 0.407865
Si Si4 0.075667 0.843820 0.470950
Si Si5 0.151617 0.494788 0.583151
Si Si6 0.145861 0.150665 0.939350
O O1 0.929948 0.993512 0.322100
O O2 0.926130 0.873957 0.160740
O O3 0.030246 0.853532 0.342360
O O4 0.075465 0.970202 0.187914
O O5 0.750000 0.514456 0.818791
O O6 0.631352 0.620444 0.722333
O O7 0.624322 0.594227 0.946656
O O8 0.350565 0.250000 0.422447
O O9 0.499395 0.346128 0.427123
O O10 0.345293 0.409025 0.504076
O O11 0.125490 0.750000 0.474164
O O12 0.143507 0.922845 0.496166
O O13 0.250000 0.501818 0.647866
O O14 0.250000 0.134692 0.894421
O O15 0.131715 0.250000 0.973475
#
# Coordination Sequence:
#
# PCOD8241909 Si02
#       6
#     8   8   8   8   8   8
#     4  11  20  38  56  83 111 149 187 234 277 338
#     4  11  21  35  57  82 113 148 185 232 281 333
#     4  10  19  34  55  81 112 144 183 233 287 335
#     4  10  20  35  55  78 111 151 189 228 274 328
#     4  11  21  35  55  81 115 150 186 231 281 332
#     4  10  22  38  57  84 112 142 185 234 288 343
#
# _framework density 18.711622999999999
#
# number of rings (size 3 to 8) (size 9 to 14) (size 15 to 20)
#    0.000    1.500    3.333    3.500    0.000    3.000 
#    0.000    0.000    0.000    1.500    0.000    0.000 
#    0.000    0.000    0.000    0.000    0.000    0.000 
#
# Total GULP energy -595062.870434 kJ/mol
# GULP energy per Si atom -12397.143134 kJ/mol
# Density = 1.866903 g / cm^3
# Si number density = 18.711623 Si / 1000 Ang^3
#
#
#
# Elastic Constant Matrix: (Units=GPa)
#
#
# Indices 1 2 3 4 5 6 
#
# 1 76.2641 37.1046 18.2213 0.0000 0.0000 0.0000
# 2 37.1046 99.0474 7.4691 0.0000 0.0000 0.0000
# 3 18.2213 7.4691 60.8647 0.0000 0.0000 0.0000
# 4 0.0000 0.0000 0.0000 19.4584 0.0000 0.0000
# 5 0.0000 0.0000 0.0000 0.0000 10.1974 0.0000
# 6 0.0000 0.0000 0.0000 0.0000 0.0000 -183.7735
#
#
#
# Elastic Compliance Matrix: (Units=1/GPa)
#
#
# Indices 1 2 3 4 5 6 
#
# 1 0.017118 -0.006082 -0.004378 0.000000 0.000000 0.000000
# 2 -0.006082 0.012352 0.000305 0.000000 0.000000 0.000000
# 3 -0.004378 0.000305 0.017703 0.000000 0.000000 0.000000
# 4 0.000000 0.000000 0.000000 0.051392 0.000000 0.000000
# 5 0.000000 0.000000 0.000000 0.000000 0.098064 0.000000
# 6 0.000000 0.000000 0.000000 0.000000 0.000000 -0.005441
#
#
# Mechanical properties :
#
#
# Convention : Reuss Voigt Hill
#
# Bulk Modulus (GPa) = 37.22771 40.19625 38.71198
# Shear Modulus (GPa) = 22.68075 -19.26477 1.70799
#
# Velocity S-wave (km/s) = 3.48533 -3.21216 0.95644
# Velocity P-wave (km/s) = 6.01127 2.78771 4.68544
#
# Compressibility (1/GPa) = 0.02686171
#
# Stress axis : x y z
#
# Youngs Moduli (GPa) = 58.41940 80.96053 56.48714
#
# Poissons Ratio (x) = 0.49243 0.24731
# Poissons Ratio (y) = 0.35533 -0.01724
# Poissons Ratio (z) = 0.25577 -0.02470
#
# Static dielectric constant tensor:
#      x y z
#    x 3.458950 0.000000 0.000000 
#    y 0.000000 3.479170 0.000000 
#    z 0.000000 0.000000 3.344120 
# 
# 
# High freq. dielectric constant tensor:
#      x y z
#    x 1.727060 0.000000 0.000000 
#    y 0.000000 1.727330 0.000000 
#    z 0.000000 0.000000 1.715640 
# 
# From -- ./inp_files/16816.got.cif
#   From: 2010.03.12/outbox.cif.g09.slc.cpg/sg59_9_cif.got.tgz:16816.got - 2010.04.16 16:29:54.
