data_PCOD8241936
_publ_section_title
;
Structure prediction by ZEFSAII (Michael W. Deem and Ramdas Pophale) SiO2 
 PCOD8241936
Probable space group: P M M N
;
_chemical_formula_sum "Si O2"
_cell_formula_units_Z 56
_cell_length_a 14.134904
_cell_length_b 9.573851
_cell_length_c 22.125451
_cell_angle_alpha 90.000000
_cell_angle_beta 90.000000
_cell_angle_gamma 90.000000
_cell_volume 2994.136940
_symmetry_space_group_name_H-M "P M M N"
_symmetry_group_IT_number 59
_space_group.IT_coordinate_system_code '2'
_symmetry_cell_setting 'orthorhombic'
loop_
_space_group_symop_operation_xyz
x,y,z
1/2-x,1/2-y,z
1/2+x,-y,-z
-x,1/2+y,-z
-x,-y,-z
1/2+x,1/2+y,-z
1/2-x,y,z
x,1/2-y,z
loop_
_atom_site_type_symbol
_atom_site_label
_atom_site_fract_x
_atom_site_fract_y
_atom_site_fract_z
Si Si1 0.142928 0.083738 0.169818
Si Si2 0.646104 0.401986 0.143728
Si Si3 0.976023 0.589339 0.713709
Si Si4 0.643465 0.087767 0.481165
Si Si5 0.358371 0.413056 0.745350
Si Si6 0.548898 0.908877 0.579596
Si Si7 0.020485 0.093941 0.057260
O O1 0.250000 0.025344 0.172212
O O2 0.141960 0.250000 0.169906
O O3 0.093904 0.031283 0.107302
O O4 0.086999 0.032459 0.229991
O O5 0.750000 0.425309 0.117562
O O6 0.637199 0.250000 0.177185
O O7 0.619816 0.527042 0.188254
O O8 0.581537 0.401409 0.086184
O O9 0.004876 0.750000 0.725125
O O10 0.069961 0.496322 0.702719
O O11 0.922118 0.574405 0.649958
O O12 0.750000 0.045766 0.458548
O O13 0.641353 0.250000 0.497637
O O14 0.562508 0.051345 0.431518
O O15 0.619735 0.005841 0.542558
O O16 0.250000 0.443186 0.726040
O O17 0.381353 0.250000 0.744549
O O18 0.565235 0.750000 0.558337
O O19 0.053315 0.250000 0.037523
O O20 0.000000 0.000000 0.000000
#
# Coordination Sequence:
#
# PCOD8241936 Si02
#       7
#     8   8   8   8   8   8   8
#     4   9  18  34  54  76 104 137 173 214 262 314
#     4   9  17  32  53  73  95 127 169 213 256 308
#     4  10  19  34  56  80 106 139 178 221 263 310
#     4   9  18  34  53  74 107 146 179 217 267 318
#     4  10  20  32  49  76 107 136 167 209 262 317
#     4   9  19  33  53  81 107 136 182 228 264 308
#     4  10  20  34  52  75 101 133 172 214 264 318
#
# _framework density 18.703220000000002
#
# number of rings (size 3 to 8) (size 9 to 14) (size 15 to 20)
#    0.000    2.571    1.429    0.429    0.000    4.000 
#    0.000    2.857    0.000    1.286    0.000    0.000 
#    0.000    0.000    0.000    0.000    0.000    0.000 
#
# Total GULP energy -693822.025551 kJ/mol
# GULP energy per Si atom -12389.679028 kJ/mol
# Density = 1.866065 g / cm^3
# Si number density = 18.703220 Si / 1000 Ang^3
#
#
#
# Elastic Constant Matrix: (Units=GPa)
#
#
# Indices 1 2 3 4 5 6 
#
# 1 94.6107 27.4132 33.3017 0.0000 0.0000 0.0000
# 2 27.4132 56.8134 26.4779 0.0000 0.0000 0.0000
# 3 33.3017 26.4779 98.3034 0.0000 0.0000 0.0000
# 4 0.0000 0.0000 0.0000 27.7231 0.0000 0.0000
# 5 0.0000 0.0000 0.0000 0.0000 14.9047 0.0000
# 6 0.0000 0.0000 0.0000 0.0000 0.0000 23.5483
#
#
#
# Elastic Compliance Matrix: (Units=1/GPa)
#
#
# Indices 1 2 3 4 5 6 
#
# 1 0.013075 -0.004854 -0.003122 0.000000 0.000000 0.000000
# 2 -0.004854 0.021930 -0.004263 0.000000 0.000000 0.000000
# 3 -0.003122 -0.004263 0.012378 0.000000 0.000000 0.000000
# 4 0.000000 0.000000 0.000000 0.036071 0.000000 0.000000
# 5 0.000000 0.000000 0.000000 0.000000 0.067093 0.000000
# 6 0.000000 0.000000 0.000000 0.000000 0.000000 0.042466
#
#
# Mechanical properties :
#
#
# Convention : Reuss Voigt Hill
#
# Bulk Modulus (GPa) = 43.65543 47.12369 45.38956
# Shear Modulus (GPa) = 22.20986 24.07087 23.14037
#
# Velocity S-wave (km/s) = 3.44973 3.59136 3.52126
# Velocity P-wave (km/s) = 6.26573 6.51516 6.39166
#
# Compressibility (1/GPa) = 0.02290666
#
# Stress axis : x y z
#
# Youngs Moduli (GPa) = 76.48246 45.59947 80.78653
#
# Poissons Ratio (x) = 0.22133 0.25221
# Poissons Ratio (y) = 0.37123 0.34436
# Poissons Ratio (z) = 0.23877 0.19437
#
# Static dielectric constant tensor:
#      x y z
#    x 3.847160 0.000000 0.000000 
#    y 0.000000 3.226920 0.000000 
#    z 0.000000 0.000000 3.297120 
# 
# 
# High freq. dielectric constant tensor:
#      x y z
#    x 1.730430 0.000000 0.000000 
#    y 0.000000 1.704190 0.000000 
#    z 0.000000 0.000000 1.711940 
# 
# From -- ./inp_files/29130.got.cif
#   From: 2010.03.12/outbox.cif.g09.slc.cpg/sg59_15_cif.got.tgz:29130.got - 2010.04.16 16:29:54.
