data_PCOD8241038
_publ_section_title
;
Structure prediction by ZEFSAII (Michael W. Deem and Ramdas Pophale) SiO2 
 PCOD8241038
Probable space group: P M M N
;
_chemical_formula_sum "Si O2"
_cell_formula_units_Z 64
_cell_length_a 17.500807
_cell_length_b 16.370207
_cell_length_c 12.710343
_cell_angle_alpha 90.000000
_cell_angle_beta 90.000000
_cell_angle_gamma 90.000000
_cell_volume 3641.409467
_symmetry_space_group_name_H-M "P M M N"
_symmetry_group_IT_number 59
_space_group.IT_coordinate_system_code '2'
_symmetry_cell_setting 'orthorhombic'
loop_
_space_group_symop_operation_xyz
x,y,z
1/2-x,1/2-y,z
1/2+x,-y,-z
-x,1/2+y,-z
-x,-y,-z
1/2+x,1/2+y,-z
1/2-x,y,z
x,1/2-y,z
loop_
_atom_site_type_symbol
_atom_site_label
_atom_site_fract_x
_atom_site_fract_y
_atom_site_fract_z
Si Si1 0.836851 0.046932 0.452487
Si Si2 0.464767 0.843398 0.637045
Si Si3 0.046591 0.077836 0.541246
Si Si4 0.662951 0.517547 0.870239
Si Si5 0.540990 0.656285 0.854124
Si Si6 0.960847 0.418108 0.964494
Si Si7 0.666437 0.399970 0.689310
Si Si8 0.512170 0.341608 0.748632
O O1 0.750000 0.048319 0.411575
O O2 0.889572 0.100803 0.375293
O O3 0.845377 0.085722 0.566740
O O4 0.865218 0.952113 0.455942
O O5 0.437593 0.750000 0.643840
O O6 0.526317 0.850727 0.541256
O O7 0.506723 0.871625 0.742969
O O8 0.026305 0.103554 0.659279
O O9 0.000000 0.000000 0.500000
O O10 0.750000 0.533886 0.907020
O O11 0.614565 0.600777 0.881404
O O12 0.627339 0.442965 0.940609
O O13 0.659399 0.487128 0.749278
O O14 0.568315 0.750000 0.851265
O O15 0.473397 0.646592 0.941346
O O16 0.003247 0.383359 0.860843
O O17 0.000000 0.500000 0.000000
O O18 0.750000 0.361544 0.711227
O O19 0.603222 0.336323 0.728576
O O20 0.478524 0.250000 0.747865
#
# Coordination Sequence:
#
# PCOD8241038 Si02
#       8
#     8   8   8   8   8   8   8   8
#     4  10  20  32  50  74 105 145 183 218 258 315
#     4  10  20  33  53  79 108 141 176 217 266 320
#     4  10  19  31  53  75 107 135 179 219 263 313
#     4   9  18  33  54  80 105 133 174 224 271 317
#     4  10  20  34  54  78 107 142 178 218 263 320
#     4   9  20  34  56  75 103 136 181 220 265 317
#     4   9  17  30  49  76 108 140 172 217 270 319
#     4  11  20  32  53  81 106 137 176 224 272 317
#
# _framework density 17.575613000000001
#
# number of rings (size 3 to 8) (size 9 to 14) (size 15 to 20)
#    0.000    2.250    2.500    1.500    8.750    0.750 
#    0.000    1.875    0.000    4.125    0.000    0.000 
#    0.000    0.000    0.000    0.000    0.000    0.000 
#
# Total GULP energy -793124.489091 kJ/mol
# GULP energy per Si atom -12392.570142 kJ/mol
# Density = 1.753561 g / cm^3
# Si number density = 17.575613 Si / 1000 Ang^3
#
#
#
# Elastic Constant Matrix: (Units=GPa)
#
#
# Indices 1 2 3 4 5 6 
#
# 1 99.6051 35.3305 34.6771 0.0000 0.0000 0.0000
# 2 35.3305 72.2956 28.6766 0.0000 0.0000 0.0000
# 3 34.6771 28.6766 103.6309 0.0000 0.0000 0.0000
# 4 0.0000 0.0000 0.0000 27.7921 0.0000 0.0000
# 5 0.0000 0.0000 0.0000 0.0000 19.8968 0.0000
# 6 0.0000 0.0000 0.0000 0.0000 0.0000 19.7953
#
#
#
# Elastic Compliance Matrix: (Units=1/GPa)
#
#
# Indices 1 2 3 4 5 6 
#
# 1 0.012868 -0.005145 -0.002882 0.000000 0.000000 0.000000
# 2 -0.005145 0.017595 -0.003147 0.000000 0.000000 0.000000
# 3 -0.002882 -0.003147 0.011485 0.000000 0.000000 0.000000
# 4 0.000000 0.000000 0.000000 0.035981 0.000000 0.000000
# 5 0.000000 0.000000 0.000000 0.000000 0.050259 0.000000
# 6 0.000000 0.000000 0.000000 0.000000 0.000000 0.050517
#
#
# Mechanical properties :
#
#
# Convention : Reuss Voigt Hill
#
# Bulk Modulus (GPa) = 51.02356 52.54443 51.78399
# Shear Modulus (GPa) = 24.08619 25.28668 24.68643
#
# Velocity S-wave (km/s) = 3.70595 3.79718 3.75184
# Velocity P-wave (km/s) = 6.88520 7.01327 6.94953
#
# Compressibility (1/GPa) = 0.01959879
#
# Stress axis : x y z
#
# Youngs Moduli (GPa) = 77.71129 56.83456 87.07072
#
# Poissons Ratio (x) = 0.29244 0.25095
# Poissons Ratio (y) = 0.39985 0.27402
# Poissons Ratio (z) = 0.22397 0.17886
#
# Static dielectric constant tensor:
#      x y z
#    x 3.471420 0.000000 0.000000 
#    y 0.000000 3.612610 0.000000 
#    z 0.000000 0.000000 3.533480 
# 
# 
# High freq. dielectric constant tensor:
#      x y z
#    x 1.658550 0.000000 0.000000 
#    y 0.000000 1.672630 0.000000 
#    z 0.000000 0.000000 1.681290 
# 
# From -- ./inp_files/17990.got.cif
#   From: 2010.03.12/outbox.cif.g09.slc.cpg/sg59_9_cif.got.tgz:17990.got - 2010.04.16 16:29:54.
