data_PCOD8241829
_publ_section_title
;
Structure prediction by ZEFSAII (Michael W. Deem and Ramdas Pophale) SiO2 
 PCOD8241829
Probable space group: P M M N
;
_chemical_formula_sum "Si O2"
_cell_formula_units_Z 40
_cell_length_a 8.936817
_cell_length_b 10.148521
_cell_length_c 24.085830
_cell_angle_alpha 90.000000
_cell_angle_beta 90.000000
_cell_angle_gamma 90.000000
_cell_volume 2184.475793
_symmetry_space_group_name_H-M "P M M N"
_symmetry_group_IT_number 59
_space_group.IT_coordinate_system_code '2'
_symmetry_cell_setting 'orthorhombic'
loop_
_space_group_symop_operation_xyz
x,y,z
1/2-x,1/2-y,z
1/2+x,-y,-z
-x,1/2+y,-z
-x,-y,-z
1/2+x,1/2+y,-z
1/2-x,y,z
x,1/2-y,z
loop_
_atom_site_type_symbol
_atom_site_label
_atom_site_fract_x
_atom_site_fract_y
_atom_site_fract_z
Si Si1 0.073915 0.600727 0.541657
Si Si2 0.428103 0.603269 0.666375
Si Si3 0.572021 0.602267 0.244656
Si Si4 0.573343 0.250000 0.074379
Si Si5 0.928116 0.250000 0.948704
Si Si6 0.572283 0.524809 0.122292
O O1 0.250000 0.583284 0.537701
O O2 0.027691 0.750000 0.525869
O O3 0.018373 0.568409 0.604114
O O4 0.000000 0.500000 0.500000
O O5 0.250000 0.601151 0.668583
O O6 0.484291 0.750000 0.682916
O O7 0.495930 0.496406 0.709106
O O8 0.750000 0.598939 0.246854
O O9 0.513086 0.750000 0.256628
O O10 0.516935 0.556260 0.184323
O O11 0.750000 0.250000 0.071777
O O12 0.518011 0.377903 0.107746
O O13 0.511394 0.250000 0.011772
O O14 0.750000 0.250000 0.945254
O O15 0.991419 0.379519 0.920163
O O16 0.750000 0.543620 0.116513
#
# Coordination Sequence:
#
# PCOD8241829 Si02
#       6
#     8   8   8   4   4   8
#     4   9  18  32  49  73 104 135 168 204 243 291
#     4   8  15  27  44  69 100 127 154 199 252 292
#     4   9  16  26  44  71  97 121 154 199 250 296
#     4   9  20  33  51  77 101 127 166 207 248 298
#     4  11  21  35  51  71 101 137 168 199 244 302
#     4  10  19  34  53  76 101 127 163 210 253 292
#
# _framework density 18.311029999999999
#
# number of rings (size 3 to 8) (size 9 to 14) (size 15 to 20)
#    0.000    2.800    1.000    2.100    1.400    1.200 
#    0.000    3.500    0.000    1.200    0.000    0.000 
#    0.000    0.000    0.000    0.000    0.000    0.000 
#
# Total GULP energy -495877.749965 kJ/mol
# GULP energy per Si atom -12396.943749 kJ/mol
# Density = 1.826935 g / cm^3
# Si number density = 18.311030 Si / 1000 Ang^3
#
#
#
# Elastic Constant Matrix: (Units=GPa)
#
#
# Indices 1 2 3 4 5 6 
#
# 1 19.1174 21.8994 17.6531 0.0000 0.0000 0.0000
# 2 21.8994 187.7574 111.4880 0.0000 0.0000 0.0000
# 3 17.6531 111.4880 154.0288 0.0000 0.0000 0.0000
# 4 0.0000 0.0000 0.0000 46.9004 0.0000 0.0000
# 5 0.0000 0.0000 0.0000 0.0000 21.5802 0.0000
# 6 0.0000 0.0000 0.0000 0.0000 0.0000 20.0548
#
#
#
# Elastic Compliance Matrix: (Units=1/GPa)
#
#
# Indices 1 2 3 4 5 6 
#
# 1 0.061286 -0.005222 -0.003244 0.000000 0.000000 0.000000
# 2 -0.005222 0.009785 -0.006484 0.000000 0.000000 0.000000
# 3 -0.003244 -0.006484 0.011558 0.000000 0.000000 0.000000
# 4 0.000000 0.000000 0.000000 0.021322 0.000000 0.000000
# 5 0.000000 0.000000 0.000000 0.000000 0.046339 0.000000
# 6 0.000000 0.000000 0.000000 0.000000 0.000000 0.049863
#
#
# Mechanical properties :
#
#
# Convention : Reuss Voigt Hill
#
# Bulk Modulus (GPa) = 18.96528 73.66495 46.31511
# Shear Modulus (GPa) = 20.19146 31.69795 25.94471
#
# Velocity S-wave (km/s) = 3.32429 4.16514 3.76824
# Velocity P-wave (km/s) = 5.01142 7.96545 6.65442
#
# Compressibility (1/GPa) = 0.05272794
#
# Stress axis : x y z
#
# Youngs Moduli (GPa) = 16.31700 102.19339 86.52351
#
# Poissons Ratio (x) = 0.53362 0.28071
# Poissons Ratio (y) = 0.08520 0.56105
# Poissons Ratio (z) = 0.05294 0.66265
#
# Static dielectric constant tensor:
#      x y z
#    x 2.826080 0.000000 0.000000 
#    y 0.000000 4.319080 0.000000 
#    z 0.000000 0.000000 4.076170 
# 
# 
# High freq. dielectric constant tensor:
#      x y z
#    x 1.650280 0.000000 0.000000 
#    y 0.000000 1.726190 0.000000 
#    z 0.000000 0.000000 1.720630 
# 
# From -- ./inp_files/32444.got.cif
#   From: 2010.03.12/outbox.cif.g09.slc.cpg/sg59_17_cif.got.tgz:32444.got - 2010.04.16 16:29:54.
