data_PCOD8241929
_publ_section_title
;
Structure prediction by ZEFSAII (Michael W. Deem and Ramdas Pophale) SiO2 
 PCOD8241929
Probable space group: P M M N
;
_chemical_formula_sum "Si O2"
_cell_formula_units_Z 56
_cell_length_a 8.938846
_cell_length_b 17.874449
_cell_length_c 18.553010
_cell_angle_alpha 90.000000
_cell_angle_beta 90.000000
_cell_angle_gamma 90.000000
_cell_volume 2964.343294
_symmetry_space_group_name_H-M "P M M N"
_symmetry_group_IT_number 59
_space_group.IT_coordinate_system_code '2'
_symmetry_cell_setting 'orthorhombic'
loop_
_space_group_symop_operation_xyz
x,y,z
1/2-x,1/2-y,z
1/2+x,-y,-z
-x,1/2+y,-z
-x,-y,-z
1/2+x,1/2+y,-z
1/2-x,y,z
x,1/2-y,z
loop_
_atom_site_type_symbol
_atom_site_label
_atom_site_fract_x
_atom_site_fract_y
_atom_site_fract_z
Si Si1 0.572504 0.567342 0.455207
Si Si2 0.581900 0.838441 0.703156
Si Si3 0.919741 0.581266 0.292114
Si Si4 0.420347 0.561290 0.804569
Si Si5 0.426433 0.975196 0.073906
Si Si6 0.573354 0.164921 0.833365
Si Si7 0.916809 0.162199 0.437572
O O1 0.500000 0.500000 0.500000
O O2 0.750000 0.560349 0.458461
O O3 0.515157 0.572568 0.372791
O O4 0.515011 0.643050 0.492581
O O5 0.750000 0.871509 0.705441
O O6 0.586831 0.750000 0.701482
O O7 0.488612 0.862411 0.773354
O O8 0.498968 0.870821 0.632709
O O9 0.750000 0.610396 0.294671
O O10 0.930789 0.499983 0.257584
O O11 0.009883 0.641487 0.244608
O O12 0.250000 0.574024 0.830394
O O13 0.523456 0.538610 0.870862
O O14 0.250000 0.975945 0.064131
O O15 0.480655 0.893190 0.103747
O O16 0.500000 0.000000 0.000000
O O17 0.750000 0.160434 0.826743
O O18 0.521736 0.250000 0.852473
O O19 0.750000 0.126528 0.441565
O O20 0.903695 0.250000 0.431848
#
# Coordination Sequence:
#
# PCOD8241929 Si02
#       7
#     8   8   8   8   8   8   8
#     4  11  22  35  52  75 105 139 179 228 278 327
#     4  10  20  34  53  77 104 135 174 220 268 317
#     4   9  20  35  51  75 104 136 175 219 266 317
#     4  10  19  34  56  79 105 137 174 214 259 315
#     4  10  20  36  58  83 112 144 178 217 262 316
#     4   9  19  36  58  83 109 139 177 220 266 318
#     4  10  21  36  52  71  99 137 179 221 268 322
#
# _framework density 18.891197999999999
#
# number of rings (size 3 to 8) (size 9 to 14) (size 15 to 20)
#    0.000    2.143    0.000    3.000    0.000    6.000 
#    0.000    3.571    0.000    2.571    0.000    0.000 
#    0.000    0.000    0.000    0.000    0.000    0.000 
#
# Total GULP energy -694293.416946 kJ/mol
# GULP energy per Si atom -12398.096731 kJ/mol
# Density = 1.884820 g / cm^3
# Si number density = 18.891198 Si / 1000 Ang^3
#
#
#
# Elastic Constant Matrix: (Units=GPa)
#
#
# Indices 1 2 3 4 5 6 
#
# 1 84.0660 34.1852 46.9669 0.0000 0.0000 0.0000
# 2 34.1852 48.7185 50.6161 0.0000 0.0000 0.0000
# 3 46.9669 50.6161 149.0035 0.0000 0.0000 0.0000
# 4 0.0000 0.0000 0.0000 22.3008 0.0000 0.0000
# 5 0.0000 0.0000 0.0000 0.0000 36.3971 0.0000
# 6 0.0000 0.0000 0.0000 0.0000 0.0000 28.3856
#
#
#
# Elastic Compliance Matrix: (Units=1/GPa)
#
#
# Indices 1 2 3 4 5 6 
#
# 1 0.017030 -0.009849 -0.002022 0.000000 0.000000 0.000000
# 2 -0.009849 0.037417 -0.009606 0.000000 0.000000 0.000000
# 3 -0.002022 -0.009606 0.010612 0.000000 0.000000 0.000000
# 4 0.000000 0.000000 0.000000 0.044842 0.000000 0.000000
# 5 0.000000 0.000000 0.000000 0.000000 0.027475 0.000000
# 6 0.000000 0.000000 0.000000 0.000000 0.000000 0.035229
#
#
# Mechanical properties :
#
#
# Convention : Reuss Voigt Hill
#
# Bulk Modulus (GPa) = 45.23920 60.59157 52.91538
# Shear Modulus (GPa) = 22.42882 27.41802 24.92342
#
# Velocity S-wave (km/s) = 3.44941 3.81381 3.63618
# Velocity P-wave (km/s) = 6.31378 7.17894 6.76021
#
# Compressibility (1/GPa) = 0.02210473
#
# Stress axis : x y z
#
# Youngs Moduli (GPa) = 58.71887 26.72577 94.23362
#
# Poissons Ratio (x) = 0.26321 0.19059
# Poissons Ratio (y) = 0.57830 0.90522
# Poissons Ratio (z) = 0.11876 0.25673
#
# Static dielectric constant tensor:
#      x y z
#    x 3.791020 0.000000 0.000000 
#    y 0.000000 3.471800 0.000000 
#    z 0.000000 0.000000 3.838710 
# 
# 
# High freq. dielectric constant tensor:
#      x y z
#    x 1.743860 0.000000 0.000000 
#    y 0.000000 1.725750 0.000000 
#    z 0.000000 0.000000 1.728580 
# 
# From -- ./inp_files/21023.got.cif
#   From: 2010.03.12/outbox.cif.g09.slc.cpg/sg59_11_cif.got.tgz:21023.got - 2010.04.16 16:29:54.
