data_PCOD8241283
_publ_section_title
;
Structure prediction by ZEFSAII (Michael W. Deem and Ramdas Pophale) SiO2 
 PCOD8241283
Probable space group: P M M N
;
_chemical_formula_sum "Si O2"
_cell_formula_units_Z 56
_cell_length_a 18.361895
_cell_length_b 9.379043
_cell_length_c 18.815268
_cell_angle_alpha 90.000000
_cell_angle_beta 90.000000
_cell_angle_gamma 90.000000
_cell_volume 3240.309061
_symmetry_space_group_name_H-M "P M M N"
_symmetry_group_IT_number 59
_space_group.IT_coordinate_system_code '2'
_symmetry_cell_setting 'orthorhombic'
loop_
_space_group_symop_operation_xyz
x,y,z
1/2-x,1/2-y,z
1/2+x,-y,-z
-x,1/2+y,-z
-x,-y,-z
1/2+x,1/2+y,-z
1/2-x,y,z
x,1/2-y,z
loop_
_atom_site_type_symbol
_atom_site_label
_atom_site_fract_x
_atom_site_fract_y
_atom_site_fract_z
Si Si1 0.905178 0.583748 0.103562
Si Si2 0.466009 0.086131 0.563937
Si Si3 0.169662 0.912471 0.616464
Si Si4 0.570560 0.410595 0.856896
Si Si5 0.333503 0.082131 0.041661
Si Si6 0.123498 0.912572 0.767473
Si Si7 0.005924 0.590415 0.284134
O O1 0.889690 0.750000 0.111687
O O2 0.855863 0.505478 0.163335
O O3 0.990096 0.545738 0.114820
O O4 0.878715 0.529011 0.026870
O O5 0.455480 0.250000 0.541259
O O6 0.521709 0.074278 0.631566
O O7 0.500000 0.000000 0.500000
O O8 0.386882 0.023023 0.582770
O O9 0.250000 0.940980 0.583895
O O10 0.144046 0.750000 0.599992
O O11 0.178693 0.932245 0.701835
O O12 0.587954 0.250000 0.881292
O O13 0.631660 0.512576 0.888570
O O14 0.574335 0.423269 0.770098
O O15 0.250000 0.033179 0.034199
O O16 0.339542 0.250000 0.051110
O O17 0.117819 0.750000 0.792663
O O18 0.046670 0.963394 0.736887
O O19 0.971409 0.750000 0.271327
#
# Coordination Sequence:
#
# PCOD8241283 Si02
#       7
#     8   8   8   8   8   8   8
#     4   9  18  32  47  65  93 126 158 193 236 288
#     4  10  19  32  52  77 104 131 161 198 239 287
#     4   9  18  32  48  69 101 136 165 196 238 287
#     4   9  17  31  51  70  88 116 157 199 234 274
#     4  10  21  34  46  64  92 124 157 197 247 293
#     4   9  16  26  44  70  95 120 154 193 231 274
#     4   8  16  31  49  70  95 121 150 186 230 281
#
# _framework density 17.282302000000001
#
# number of rings (size 3 to 8) (size 9 to 14) (size 15 to 20)
#    0.000    2.857    0.000    2.143    0.000    5.143 
#    0.000    0.000    0.000    0.857    0.000    2.000 
#    0.000    0.000    0.000    0.000    0.000    0.000 
#
# Total GULP energy -693857.874205 kJ/mol
# GULP energy per Si atom -12390.319182 kJ/mol
# Density = 1.724297 g / cm^3
# Si number density = 17.282302 Si / 1000 Ang^3
#
#
#
# Elastic Constant Matrix: (Units=GPa)
#
#
# Indices 1 2 3 4 5 6 
#
# 1 64.3656 39.5688 45.4605 0.0000 0.0000 0.0000
# 2 39.5688 78.9742 51.7081 0.0000 0.0000 0.0000
# 3 45.4605 51.7081 117.9408 0.0000 0.0000 0.0000
# 4 0.0000 0.0000 0.0000 32.3761 0.0000 0.0000
# 5 0.0000 0.0000 0.0000 0.0000 15.7238 0.0000
# 6 0.0000 0.0000 0.0000 0.0000 0.0000 21.0644
#
#
#
# Elastic Compliance Matrix: (Units=1/GPa)
#
#
# Indices 1 2 3 4 5 6 
#
# 1 0.025004 -0.008721 -0.005814 0.000000 0.000000 0.000000
# 2 -0.008721 0.020802 -0.005759 0.000000 0.000000 0.000000
# 3 -0.005814 -0.005759 0.013245 0.000000 0.000000 0.000000
# 4 0.000000 0.000000 0.000000 0.030887 0.000000 0.000000
# 5 0.000000 0.000000 0.000000 0.000000 0.063598 0.000000
# 6 0.000000 0.000000 0.000000 0.000000 0.000000 0.047473
#
#
# Mechanical properties :
#
#
# Convention : Reuss Voigt Hill
#
# Bulk Modulus (GPa) = 54.16225 59.41726 56.78975
# Shear Modulus (GPa) = 20.18145 22.13574 21.15860
#
# Velocity S-wave (km/s) = 3.42095 3.58275 3.50279
# Velocity P-wave (km/s) = 6.85650 7.18122 7.02074
#
# Compressibility (1/GPa) = 0.01846304
#
# Stress axis : x y z
#
# Youngs Moduli (GPa) = 39.99347 48.07141 75.50144
#
# Poissons Ratio (x) = 0.41923 0.43899
# Poissons Ratio (y) = 0.34878 0.43480
# Poissons Ratio (z) = 0.23254 0.27683
#
# Static dielectric constant tensor:
#      x y z
#    x 2.931740 0.000000 0.000000 
#    y 0.000000 3.255460 0.000000 
#    z 0.000000 0.000000 3.401550 
# 
# 
# High freq. dielectric constant tensor:
#      x y z
#    x 1.626030 0.000000 0.000000 
#    y 0.000000 1.673890 0.000000 
#    z 0.000000 0.000000 1.665860 
# 
# From -- ./inp_files/26088.got.cif
#   From: 2010.03.12/outbox.cif.g09.slc.cpg/sg59_14_cif.got.tgz:26088.got - 2010.04.16 16:29:54.
