data_PCOD8241394
_publ_section_title
;
Structure prediction by ZEFSAII (Michael W. Deem and Ramdas Pophale) SiO2 
 PCOD8241394
Probable space group: P M M N
;
_chemical_formula_sum "Si O2"
_cell_formula_units_Z 64
_cell_length_a 8.713054
_cell_length_b 18.108348
_cell_length_c 21.671740
_cell_angle_alpha 90.000000
_cell_angle_beta 90.000000
_cell_angle_gamma 90.000000
_cell_volume 3419.345768
_symmetry_space_group_name_H-M "P M M N"
_symmetry_group_IT_number 59
_space_group.IT_coordinate_system_code '2'
_symmetry_cell_setting 'orthorhombic'
loop_
_space_group_symop_operation_xyz
x,y,z
1/2-x,1/2-y,z
1/2+x,-y,-z
-x,1/2+y,-z
-x,-y,-z
1/2+x,1/2+y,-z
1/2-x,y,z
x,1/2-y,z
loop_
_atom_site_type_symbol
_atom_site_label
_atom_site_fract_x
_atom_site_fract_y
_atom_site_fract_z
Si Si1 0.568648 0.922099 0.375621
Si Si2 0.431409 0.977124 0.064595
Si Si3 0.573815 0.165402 0.273602
Si Si4 0.426801 0.957299 0.819501
Si Si5 0.930774 0.169416 0.872319
Si Si6 0.069866 0.910533 0.249544
Si Si7 0.569867 0.917466 0.615400
Si Si8 0.432259 0.332921 0.506037
O O1 0.750000 0.915889 0.369220
O O2 0.491619 0.884319 0.315744
O O3 0.506556 0.877424 0.434668
O O4 0.522339 0.006907 0.381160
O O5 0.250000 0.976508 0.059886
O O6 0.495413 0.895572 0.083545
O O7 0.479826 0.035779 0.116783
O O8 0.500000 0.000000 0.000000
O O9 0.750000 0.156043 0.295338
O O10 0.529547 0.250000 0.262204
O O11 0.548655 0.124225 0.208253
O O12 0.463143 0.132921 0.325573
O O13 0.250000 0.974071 0.833936
O O14 0.486685 0.013443 0.767738
O O15 0.750000 0.172624 0.881104
O O16 0.002355 0.250000 0.888941
O O17 0.970344 0.151545 0.801131
O O18 0.250000 0.926495 0.252195
O O19 0.750000 0.934949 0.612127
O O20 0.510190 0.874157 0.555210
O O21 0.250000 0.329906 0.506515
O O22 0.500315 0.250000 0.507055
#
# Coordination Sequence:
#
# PCOD8241394 Si02
#       8
#     8   8   8   8   8   8   8   8
#     4  11  21  34  54  77 105 141 179 223 274 332
#     4  10  20  35  58  84 112 148 188 227 266 317
#     4  10  21  36  55  81 111 142 178 224 278 332
#     4  10  19  34  56  79 109 144 177 218 266 321
#     4   8  16  32  54  80 109 141 178 222 269 315
#     4  10  19  32  53  80 108 138 176 221 268 321
#     4  11  21  35  57  79 103 138 183 230 277 331
#     4   9  20  37  53  73 103 139 180 228 282 335
#
# _framework density 18.717032
#
# number of rings (size 3 to 8) (size 9 to 14) (size 15 to 20)
#    0.000    2.125    1.250    3.375    0.000    1.750 
#    0.000    2.500    0.000   21.000    0.000    0.000 
#    0.000    0.000    0.000    0.000    0.000    0.000 
#
# Total GULP energy -793601.838678 kJ/mol
# GULP energy per Si atom -12400.028729 kJ/mol
# Density = 1.867443 g / cm^3
# Si number density = 18.717032 Si / 1000 Ang^3
#
#
#
# Elastic Constant Matrix: (Units=GPa)
#
#
# Indices 1 2 3 4 5 6 
#
# 1 46.6898 22.7446 30.0219 0.0000 0.0000 0.0000
# 2 22.7446 119.3666 64.9860 0.0000 0.0000 0.0000
# 3 30.0219 64.9860 150.8641 0.0000 0.0000 0.0000
# 4 0.0000 0.0000 0.0000 23.2437 0.0000 0.0000
# 5 0.0000 0.0000 0.0000 0.0000 30.6364 0.0000
# 6 0.0000 0.0000 0.0000 0.0000 0.0000 16.1663
#
#
#
# Elastic Compliance Matrix: (Units=1/GPa)
#
#
# Indices 1 2 3 4 5 6 
#
# 1 0.025213 -0.002708 -0.003851 0.000000 0.000000 0.000000
# 2 -0.002708 0.011235 -0.004301 0.000000 0.000000 0.000000
# 3 -0.003851 -0.004301 0.009247 0.000000 0.000000 0.000000
# 4 0.000000 0.000000 0.000000 0.043022 0.000000 0.000000
# 5 0.000000 0.000000 0.000000 0.000000 0.032641 0.000000
# 6 0.000000 0.000000 0.000000 0.000000 0.000000 0.061857
#
#
# Mechanical properties :
#
#
# Convention : Reuss Voigt Hill
#
# Bulk Modulus (GPa) = 41.70714 61.38060 51.54387
# Shear Modulus (GPa) = 23.48221 27.28713 25.38467
#
# Velocity S-wave (km/s) = 3.54586 3.82236 3.68670
# Velocity P-wave (km/s) = 6.25264 7.23504 6.76170
#
# Compressibility (1/GPa) = 0.02397671
#
# Stress axis : x y z
#
# Youngs Moduli (GPa) = 39.66171 89.00845 108.13829
#
# Poissons Ratio (x) = 0.24100 0.41645
# Poissons Ratio (y) = 0.10739 0.46507
# Poissons Ratio (z) = 0.15274 0.38280
#
# Static dielectric constant tensor:
#      x y z
#    x 3.285150 0.000000 0.000000 
#    y 0.000000 3.983270 0.000000 
#    z 0.000000 0.000000 3.605380 
# 
# 
# High freq. dielectric constant tensor:
#      x y z
#    x 1.713570 0.000000 0.000000 
#    y 0.000000 1.725190 0.000000 
#    z 0.000000 0.000000 1.727920 
# 
# From -- ./inp_files/29489.got.cif
#   From: 2010.03.12/outbox.cif.g09.slc.cpg/sg59_15_cif.got.tgz:29489.got - 2010.04.16 16:29:54.
