data_PCOD8241783
_publ_section_title
;
Structure prediction by ZEFSAII (Michael W. Deem and Ramdas Pophale) SiO2 
 PCOD8241783
Probable space group: P M M N
;
_chemical_formula_sum "Si O2"
_cell_formula_units_Z 64
_cell_length_a 31.480612
_cell_length_b 8.732046
_cell_length_c 12.001291
_cell_angle_alpha 90.000000
_cell_angle_beta 90.000000
_cell_angle_gamma 90.000000
_cell_volume 3299.036708
_symmetry_space_group_name_H-M "P M M N"
_symmetry_group_IT_number 59
_space_group.IT_coordinate_system_code '2'
_symmetry_cell_setting 'orthorhombic'
loop_
_space_group_symop_operation_xyz
x,y,z
1/2-x,1/2-y,z
1/2+x,-y,-z
-x,1/2+y,-z
-x,-y,-z
1/2+x,1/2+y,-z
1/2-x,y,z
x,1/2-y,z
loop_
_atom_site_type_symbol
_atom_site_label
_atom_site_fract_x
_atom_site_fract_y
_atom_site_fract_z
Si Si1 0.872313 0.429879 0.403874
Si Si2 0.939243 0.575068 0.246110
Si Si3 0.623757 0.570787 0.878541
Si Si4 0.047169 0.568934 0.984779
Si Si5 0.610203 0.429648 0.652280
Si Si6 0.298882 0.570838 0.993151
Si Si7 0.204051 0.568775 0.739957
Si Si8 0.517799 0.423436 0.608829
O O1 0.878286 0.250000 0.382516
O O2 0.912314 0.513820 0.349882
O O3 0.867235 0.465564 0.534536
O O4 0.830646 0.498064 0.344236
O O5 0.926713 0.750000 0.219305
O O6 0.933311 0.475050 0.135365
O O7 0.987934 0.562376 0.283865
O O8 0.616124 0.750000 0.890691
O O9 0.632255 0.523852 0.750581
O O10 0.667455 0.526492 0.938362
O O11 0.581290 0.487679 0.924154
O O12 0.043105 0.750000 0.995477
O O13 0.000000 0.500000 0.000000
O O14 0.612121 0.250000 0.681127
O O15 0.562461 0.495255 0.644074
O O16 0.250000 0.531745 0.026645
O O17 0.307648 0.750000 0.012404
O O18 0.307384 0.523551 0.865710
O O19 0.250000 0.499659 0.707303
O O20 0.205974 0.750000 0.730021
O O21 0.500000 0.500000 0.500000
O O22 0.525972 0.250000 0.573094
#
# Coordination Sequence:
#
# PCOD8241783 Si02
#       8
#     8   8   8   8   8   8   8   8
#     4  10  19  33  56  83 111 148 190 234 283 334
#     4  11  22  35  55  84 115 149 188 235 286 340
#     4  12  25  40  60  86 118 159 202 250 309 363
#     4  12  25  42  62  85 117 155 197 245 298 360
#     4  10  21  37  55  79 114 156 200 243 287 345
#     4   9  18  36  63  91 119 154 196 244 301 364
#     4   8  15  30  55  86 113 137 174 227 285 342
#     4  10  20  34  53  77 110 148 188 233 277 331
#
# _framework density 19.399601000000001
#
# number of rings (size 3 to 8) (size 9 to 14) (size 15 to 20)
#    0.000    1.750    1.250    4.875    0.000    3.750 
#    0.000    0.625    0.000    3.375    0.000    0.000 
#    0.000    0.000    0.000    0.000    0.000    0.000 
#
# Total GULP energy -793542.354514 kJ/mol
# GULP energy per Si atom -12399.099289 kJ/mol
# Density = 1.935545 g / cm^3
# Si number density = 19.399601 Si / 1000 Ang^3
#
#
#
# Elastic Constant Matrix: (Units=GPa)
#
#
# Indices 1 2 3 4 5 6 
#
# 1 118.4621 40.6065 57.0637 0.0000 0.0000 0.0000
# 2 40.6065 94.8082 44.5354 0.0000 0.0000 0.0000
# 3 57.0637 44.5354 117.9552 0.0000 0.0000 0.0000
# 4 0.0000 0.0000 0.0000 27.9492 0.0000 0.0000
# 5 0.0000 0.0000 0.0000 0.0000 29.7874 0.0000
# 6 0.0000 0.0000 0.0000 0.0000 0.0000 25.3750
#
#
#
# Elastic Compliance Matrix: (Units=1/GPa)
#
#
# Indices 1 2 3 4 5 6 
#
# 1 0.011601 -0.002835 -0.004542 0.000000 0.000000 0.000000
# 2 -0.002835 0.013515 -0.003731 0.000000 0.000000 0.000000
# 3 -0.004542 -0.003731 0.012084 0.000000 0.000000 0.000000
# 4 0.000000 0.000000 0.000000 0.035779 0.000000 0.000000
# 5 0.000000 0.000000 0.000000 0.000000 0.033571 0.000000
# 6 0.000000 0.000000 0.000000 0.000000 0.000000 0.039409
#
#
# Mechanical properties :
#
#
# Convention : Reuss Voigt Hill
#
# Bulk Modulus (GPa) = 66.74120 68.40408 67.57264
# Shear Modulus (GPa) = 28.87345 29.22365 29.04855
#
# Velocity S-wave (km/s) = 3.86210 3.88545 3.87380
# Velocity P-wave (km/s) = 7.37332 7.44756 7.41053
#
# Compressibility (1/GPa) = 0.01498325
#
# Stress axis : x y z
#
# Youngs Moduli (GPa) = 86.19761 73.99431 82.75622
#
# Poissons Ratio (x) = 0.20980 0.37587
# Poissons Ratio (y) = 0.24440 0.30876
# Poissons Ratio (z) = 0.39150 0.27607
#
# Static dielectric constant tensor:
#      x y z
#    x 4.158950 0.000000 0.000000 
#    y 0.000000 3.038030 0.000000 
#    z 0.000000 0.000000 3.643470 
# 
# 
# High freq. dielectric constant tensor:
#      x y z
#    x 1.756560 0.000000 0.000000 
#    y 0.000000 1.737460 0.000000 
#    z 0.000000 0.000000 1.760610 
# 
# From -- ./inp_files/19238.got.cif
#   From: 2010.03.12/outbox.cif.g09.slc.cpg/sg59_10_cif.got.tgz:19238.got - 2010.04.16 16:29:54.
