data_PCOD8241371
_publ_section_title
;
Structure prediction by ZEFSAII (Michael W. Deem and Ramdas Pophale) SiO2 
 PCOD8241371
Probable space group: P M M N
;
_chemical_formula_sum "Si O2"
_cell_formula_units_Z 56
_cell_length_a 19.050743
_cell_length_b 8.947733
_cell_length_c 17.744023
_cell_angle_alpha 90.000000
_cell_angle_beta 90.000000
_cell_angle_gamma 90.000000
_cell_volume 3024.663227
_symmetry_space_group_name_H-M "P M M N"
_symmetry_group_IT_number 59
_space_group.IT_coordinate_system_code '2'
_symmetry_cell_setting 'orthorhombic'
loop_
_space_group_symop_operation_xyz
x,y,z
1/2-x,1/2-y,z
1/2+x,-y,-z
-x,1/2+y,-z
-x,-y,-z
1/2+x,1/2+y,-z
1/2-x,y,z
x,1/2-y,z
loop_
_atom_site_type_symbol
_atom_site_label
_atom_site_fract_x
_atom_site_fract_y
_atom_site_fract_z
Si Si1 0.069199 0.575738 0.870722
Si Si2 0.669194 0.923166 0.422406
Si Si3 0.667287 0.078536 0.574885
Si Si4 0.577472 0.426940 0.861355
Si Si5 0.582782 0.923953 0.705274
Si Si6 0.328410 0.927283 0.000468
Si Si7 0.079087 0.579735 0.699248
O O1 0.051817 0.750000 0.883090
O O2 0.128353 0.515938 0.927798
O O3 0.097116 0.548131 0.786362
O O4 0.998355 0.485683 0.886344
O O5 0.750000 0.959339 0.404707
O O6 0.657502 0.750000 0.440620
O O7 0.642546 0.016834 0.494113
O O8 0.624814 0.967591 0.349753
O O9 0.750000 0.058871 0.584411
O O10 0.643733 0.250000 0.581363
O O11 0.631269 0.983052 0.639271
O O12 0.574071 0.250000 0.854723
O O13 0.602917 0.492648 0.782059
O O14 0.633439 0.480609 0.923502
O O15 0.596679 0.750000 0.718120
O O16 0.502288 0.954306 0.683558
O O17 0.250000 0.996057 0.997983
O O18 0.324299 0.750000 0.998245
O O19 0.097809 0.750000 0.677692
#
# Coordination Sequence:
#
# PCOD8241371 Si02
#       7
#     8   8   8   8   8   8   8
#     4   9  18  34  55  76 101 136 176 216 259 310
#     4  10  21  36  54  77 106 140 175 212 259 313
#     4  10  21  37  57  80 106 138 176 215 258 311
#     4  10  19  32  53  78 105 138 174 215 263 314
#     4  10  21  37  56  79 107 138 176 219 262 311
#     4   9  18  32  51  77 106 136 174 218 261 307
#     4   9  19  34  53  78 104 134 175 219 261 308
#
# _framework density 18.514455999999999
#
# number of rings (size 3 to 8) (size 9 to 14) (size 15 to 20)
#    0.000    2.429    0.000    3.000    0.000    6.286 
#    0.000    3.571    0.000    3.429    0.000    0.000 
#    0.000    0.000    0.000    0.000    0.000    0.000 
#
# Total GULP energy -694554.306371 kJ/mol
# GULP energy per Si atom -12402.755471 kJ/mol
# Density = 1.847232 g / cm^3
# Si number density = 18.514456 Si / 1000 Ang^3
#
#
#
# Elastic Constant Matrix: (Units=GPa)
#
#
# Indices 1 2 3 4 5 6 
#
# 1 87.9042 38.0445 71.9239 0.0000 0.0000 0.0000
# 2 38.0445 68.4641 42.8481 0.0000 0.0000 0.0000
# 3 71.9239 42.8481 125.3088 0.0000 0.0000 0.0000
# 4 0.0000 0.0000 0.0000 28.9000 0.0000 0.0000
# 5 0.0000 0.0000 0.0000 0.0000 7.0365 0.0000
# 6 0.0000 0.0000 0.0000 0.0000 0.0000 27.8549
#
#
#
# Elastic Compliance Matrix: (Units=1/GPa)
#
#
# Indices 1 2 3 4 5 6 
#
# 1 0.023116 -0.005778 -0.011292 0.000000 0.000000 0.000000
# 2 -0.005778 0.020027 -0.003532 0.000000 0.000000 0.000000
# 3 -0.011292 -0.003532 0.015669 0.000000 0.000000 0.000000
# 4 0.000000 0.000000 0.000000 0.034602 0.000000 0.000000
# 5 0.000000 0.000000 0.000000 0.000000 0.142116 0.000000
# 6 0.000000 0.000000 0.000000 0.000000 0.000000 0.035900
#
#
# Mechanical properties :
#
#
# Convention : Reuss Voigt Hill
#
# Bulk Modulus (GPa) = 56.78996 65.25670 61.02333
# Shear Modulus (GPa) = 15.69836 21.34898 18.52367
#
# Velocity S-wave (km/s) = 2.91503 3.39941 3.16650
# Velocity P-wave (km/s) = 6.48612 7.12256 6.81178
#
# Compressibility (1/GPa) = 0.01760875
#
# Stress axis : x y z
#
# Youngs Moduli (GPa) = 43.25968 49.93192 63.81862
#
# Poissons Ratio (x) = 0.28851 0.72066
# Poissons Ratio (y) = 0.24996 0.22539
# Poissons Ratio (z) = 0.48850 0.17634
#
# Static dielectric constant tensor:
#      x y z
#    x 3.439510 0.000000 0.000000 
#    y 0.000000 3.324740 0.000000 
#    z 0.000000 0.000000 3.494070 
# 
# 
# High freq. dielectric constant tensor:
#      x y z
#    x 1.712890 0.000000 0.000000 
#    y 0.000000 1.712410 0.000000 
#    z 0.000000 0.000000 1.729780 
# 
# From -- ./inp_files/24239.got.cif
#   From: 2010.03.12/outbox.cif.g09.slc.cpg/sg59_13_cif.got.tgz:24239.got - 2010.04.16 16:29:54.
