data_PCOD8241692
_publ_section_title
;
Structure prediction by ZEFSAII (Michael W. Deem and Ramdas Pophale) SiO2 
 PCOD8241692
Probable space group: P M M N
;
_chemical_formula_sum "Si O2"
_cell_formula_units_Z 48
_cell_length_a 17.938927
_cell_length_b 8.827044
_cell_length_c 15.563194
_cell_angle_alpha 90.000000
_cell_angle_beta 90.000000
_cell_angle_gamma 90.000000
_cell_volume 2464.395943
_symmetry_space_group_name_H-M "P M M N"
_symmetry_group_IT_number 59
_space_group.IT_coordinate_system_code '2'
_symmetry_cell_setting 'orthorhombic'
loop_
_space_group_symop_operation_xyz
x,y,z
1/2-x,1/2-y,z
1/2+x,-y,-z
-x,1/2+y,-z
-x,-y,-z
1/2+x,1/2+y,-z
1/2-x,y,z
x,1/2-y,z
loop_
_atom_site_type_symbol
_atom_site_label
_atom_site_fract_x
_atom_site_fract_y
_atom_site_fract_z
Si Si1 0.837699 0.925697 0.154327
Si Si2 0.835232 0.929498 0.501117
Si Si3 0.080966 0.570892 0.003370
Si Si4 0.166196 0.930233 0.171466
Si Si5 0.587527 0.929742 0.328680
Si Si6 0.081232 0.569953 0.339588
O O1 0.750000 0.950350 0.159880
O O2 0.858370 0.750000 0.139677
O O3 0.873657 0.989169 0.242045
O O4 0.869934 0.023694 0.077354
O O5 0.750000 0.982229 0.509410
O O6 0.842812 0.750000 0.507622
O O7 0.866947 0.990646 0.410665
O O8 0.882708 0.003969 0.575602
O O9 0.072857 0.750000 0.005776
O O10 0.121797 0.509488 0.088743
O O11 0.000000 0.500000 0.000000
O O12 0.250000 0.995884 0.169213
O O13 0.167807 0.750000 0.171369
O O14 0.125816 0.991150 0.256877
O O15 0.589206 0.750000 0.328502
O O16 0.503143 0.990274 0.332654
O O17 0.083852 0.750000 0.344457
#
# Coordination Sequence:
#
# PCOD8241692 Si02
#       6
#     8   8   8   8   8   8
#     4  10  20  36  59  84 109 140 180 223 267 321
#     4  10  20  34  52  75 105 140 176 216 264 316
#     4  11  22  37  57  80 109 144 182 224 270 321
#     4   9  18  33  53  76 103 137 173 209 259 323
#     4   9  18  34  55  78 106 142 179 212 258 324
#     4  10  19  33  55  78 101 133 175 220 260 307
#
# _framework density 19.47739
#
# number of rings (size 3 to 8) (size 9 to 14) (size 15 to 20)
#    0.000    2.167    0.000    3.500    0.000    6.667 
#    0.000    5.000    0.000    6.000    0.000    0.000 
#    0.000    0.000    0.000    0.000    0.000    0.000 
#
# Total GULP energy -595326.266141 kJ/mol
# GULP energy per Si atom -12402.630545 kJ/mol
# Density = 1.943306 g / cm^3
# Si number density = 19.477390 Si / 1000 Ang^3
#
#
#
# Elastic Constant Matrix: (Units=GPa)
#
#
# Indices 1 2 3 4 5 6 
#
# 1 122.4485 22.6735 39.8505 0.0000 0.0000 0.0000
# 2 22.6735 28.1840 21.3070 0.0000 0.0000 0.0000
# 3 39.8505 21.3070 141.3763 0.0000 0.0000 0.0000
# 4 0.0000 0.0000 0.0000 25.0690 0.0000 0.0000
# 5 0.0000 0.0000 0.0000 0.0000 48.1308 0.0000
# 6 0.0000 0.0000 0.0000 0.0000 0.0000 25.3447
#
#
#
# Elastic Compliance Matrix: (Units=1/GPa)
#
#
# Indices 1 2 3 4 5 6 
#
# 1 0.009991 -0.006668 -0.001811 0.000000 0.000000 0.000000
# 2 -0.006668 0.044494 -0.004826 0.000000 0.000000 0.000000
# 3 -0.001811 -0.004826 0.008311 0.000000 0.000000 0.000000
# 4 0.000000 0.000000 0.000000 0.039890 0.000000 0.000000
# 5 0.000000 0.000000 0.000000 0.000000 0.020777 0.000000
# 6 0.000000 0.000000 0.000000 0.000000 0.000000 0.039456
#
#
# Mechanical properties :
#
#
# Convention : Reuss Voigt Hill
#
# Bulk Modulus (GPa) = 27.63572 51.07453 39.35512
# Shear Modulus (GPa) = 24.80260 33.58740 29.19500
#
# Velocity S-wave (km/s) = 3.57235 4.15713 3.87579
# Velocity P-wave (km/s) = 5.58883 7.02294 6.34652
#
# Compressibility (1/GPa) = 0.03618505
#
# Stress axis : x y z
#
# Youngs Moduli (GPa) = 100.09123 22.47488 120.31936
#
# Poissons Ratio (x) = 0.14987 0.21792
# Poissons Ratio (y) = 0.66743 0.58068
# Poissons Ratio (z) = 0.18129 0.10847
#
# Static dielectric constant tensor:
#      x y z
#    x 3.886550 0.000000 0.000000 
#    y 0.000000 2.785670 0.000000 
#    z 0.000000 0.000000 4.300110 
# 
# 
# High freq. dielectric constant tensor:
#      x y z
#    x 1.780570 0.000000 0.000000 
#    y 0.000000 1.715230 0.000000 
#    z 0.000000 0.000000 1.778980 
# 
# From -- ./inp_files/20417.got.cif
#   From: 2010.03.12/outbox.cif.g09.slc.cpg/sg59_11_cif.got.tgz:20417.got - 2010.04.16 16:29:54.
