data_PCOD8241019
_publ_section_title
;
Structure prediction by ZEFSAII (Michael W. Deem and Ramdas Pophale) SiO2 
 PCOD8241019
Probable space group: P M M N
;
_chemical_formula_sum "Si O2"
_cell_formula_units_Z 48
_cell_length_a 13.347175
_cell_length_b 18.017687
_cell_length_c 11.793409
_cell_angle_alpha 90.000000
_cell_angle_beta 90.000000
_cell_angle_gamma 90.000000
_cell_volume 2836.140575
_symmetry_space_group_name_H-M "P M M N"
_symmetry_group_IT_number 59
_space_group.IT_coordinate_system_code '2'
_symmetry_cell_setting 'orthorhombic'
loop_
_space_group_symop_operation_xyz
x,y,z
1/2-x,1/2-y,z
1/2+x,-y,-z
-x,1/2+y,-z
-x,-y,-z
1/2+x,1/2+y,-z
1/2-x,y,z
x,1/2-y,z
loop_
_atom_site_type_symbol
_atom_site_label
_atom_site_fract_x
_atom_site_fract_y
_atom_site_fract_z
Si Si1 0.138106 0.595080 0.253885
Si Si2 0.865079 0.523025 0.190456
Si Si3 0.061349 0.165985 0.698924
Si Si4 0.634733 0.663896 0.551606
Si Si5 0.547176 0.947880 0.722054
Si Si6 0.135964 0.011120 0.062320
O O1 0.250000 0.622481 0.285281
O O2 0.109808 0.519774 0.323966
O O3 0.130354 0.571389 0.120174
O O4 0.058729 0.659048 0.283865
O O5 0.750000 0.498620 0.200333
O O6 0.878946 0.609783 0.219978
O O7 0.929412 0.470874 0.274949
O O8 0.911095 0.511202 0.063748
O O9 0.093752 0.250000 0.728790
O O10 0.090818 0.146164 0.571103
O O11 0.750000 0.637322 0.558344
O O12 0.625882 0.750000 0.581158
O O13 0.565771 0.621598 0.642064
O O14 0.582702 0.930328 0.851744
O O15 0.250000 0.037662 0.048263
#
# Coordination Sequence:
#
# PCOD8241019 Si02
#       6
#     8   8   8   8   8   8
#     4   8  16  30  52  75  96 124 162 204 242 286
#     4  10  19  31  52  76 102 131 160 201 250 293
#     4  10  21  33  47  70 101 133 165 200 247 296
#     4  10  20  35  52  69  97 135 166 198 245 296
#     4   9  17  31  52  73  96 123 168 204 235 285
#     4   8  15  30  52  75  97 123 155 196 247 290
#
# _framework density 16.924408
#
# number of rings (size 3 to 8) (size 9 to 14) (size 15 to 20)
#    1.000    1.833    0.000    2.000    0.000    4.000 
#    0.000    3.333    0.000    2.500    0.000    0.000 
#    0.000    0.000    0.000    0.000    0.000    0.000 
#
# Total GULP energy -594647.527894 kJ/mol
# GULP energy per Si atom -12388.490164 kJ/mol
# Density = 1.688589 g / cm^3
# Si number density = 16.924408 Si / 1000 Ang^3
#
#
#
# Elastic Constant Matrix: (Units=GPa)
#
#
# Indices 1 2 3 4 5 6 
#
# 1 92.1630 31.8244 41.8047 0.0000 0.0000 0.0000
# 2 31.8244 60.9605 46.7081 0.0000 0.0000 0.0000
# 3 41.8047 46.7081 80.1101 0.0000 0.0000 0.0000
# 4 0.0000 0.0000 0.0000 15.5357 0.0000 0.0000
# 5 0.0000 0.0000 0.0000 0.0000 24.3761 0.0000
# 6 0.0000 0.0000 0.0000 0.0000 0.0000 19.2507
#
#
#
# Elastic Compliance Matrix: (Units=1/GPa)
#
#
# Indices 1 2 3 4 5 6 
#
# 1 0.014556 -0.003215 -0.005721 0.000000 0.000000 0.000000
# 2 -0.003215 0.030360 -0.016023 0.000000 0.000000 0.000000
# 3 -0.005721 -0.016023 0.024811 0.000000 0.000000 0.000000
# 4 0.000000 0.000000 0.000000 0.064368 0.000000 0.000000
# 5 0.000000 0.000000 0.000000 0.000000 0.041024 0.000000
# 6 0.000000 0.000000 0.000000 0.000000 0.000000 0.051946
#
#
# Mechanical properties :
#
#
# Convention : Reuss Voigt Hill
#
# Bulk Modulus (GPa) = 50.48795 52.65645 51.57220
# Shear Modulus (GPa) = 17.63136 19.35893 18.49515
#
# Velocity S-wave (km/s) = 3.23115 3.38575 3.30935
# Velocity P-wave (km/s) = 6.61941 6.81650 6.71868
#
# Compressibility (1/GPa) = 0.01980671
#
# Stress axis : x y z
#
# Youngs Moduli (GPa) = 68.70192 32.93830 40.30512
#
# Poissons Ratio (x) = 0.10591 0.23059
# Poissons Ratio (y) = 0.22090 0.64583
# Poissons Ratio (z) = 0.39305 0.52778
#
# Static dielectric constant tensor:
#      x y z
#    x 3.240590 0.000000 0.000000 
#    y 0.000000 2.798960 0.000000 
#    z 0.000000 0.000000 3.047530 
# 
# 
# High freq. dielectric constant tensor:
#      x y z
#    x 1.669310 0.000000 0.000000 
#    y 0.000000 1.611090 0.000000 
#    z 0.000000 0.000000 1.639560 
# 
# From -- ./inp_files/17020.got.cif
#   From: 2010.03.12/outbox.cif.g09.slc.cpg/sg59_9_cif.got.tgz:17020.got - 2010.04.16 16:29:54.
