data_PCOD8241599
_publ_section_title
;
Structure prediction by ZEFSAII (Michael W. Deem and Ramdas Pophale) SiO2 
 PCOD8241599
Probable space group: P M M N
;
_chemical_formula_sum "Si O2"
_cell_formula_units_Z 56
_cell_length_a 15.200489
_cell_length_b 8.944423
_cell_length_c 20.775488
_cell_angle_alpha 90.000000
_cell_angle_beta 90.000000
_cell_angle_gamma 90.000000
_cell_volume 2824.627109
_symmetry_space_group_name_H-M "P M M N"
_symmetry_group_IT_number 59
_space_group.IT_coordinate_system_code '2'
_symmetry_cell_setting 'orthorhombic'
loop_
_space_group_symop_operation_xyz
x,y,z
1/2-x,1/2-y,z
1/2+x,-y,-z
-x,1/2+y,-z
-x,-y,-z
1/2+x,1/2+y,-z
1/2-x,y,z
x,1/2-y,z
loop_
_atom_site_type_symbol
_atom_site_label
_atom_site_fract_x
_atom_site_fract_y
_atom_site_fract_z
Si Si1 0.152228 0.080089 0.211184
Si Si2 0.846469 0.416098 0.042077
Si Si3 0.003988 0.421727 0.723019
Si Si4 0.853623 0.073537 0.515009
Si Si5 0.426212 0.421736 0.856505
Si Si6 0.494829 0.925376 0.591742
Si Si7 0.915753 0.578744 0.922324
O O1 0.250000 0.058055 0.238656
O O2 0.118831 0.250000 0.223356
O O3 0.154763 0.047289 0.134509
O O4 0.091142 0.964857 0.249178
O O5 0.750000 0.410700 0.012272
O O6 0.879242 0.250000 0.060726
O O7 0.839395 0.524376 0.105831
O O8 0.906489 0.478881 0.985238
O O9 0.001259 0.250000 0.700760
O O10 0.076447 0.447593 0.779489
O O11 0.030782 0.523545 0.663116
O O12 0.750000 0.017551 0.512266
O O13 0.853049 0.250000 0.525671
O O14 0.909472 0.029409 0.451094
O O15 0.911454 0.000545 0.572279
O O16 0.450777 0.250000 0.870507
O O17 0.492061 0.537187 0.890613
O O18 0.510921 0.750000 0.589020
O O19 0.912511 0.750000 0.944596
#
# Coordination Sequence:
#
# PCOD8241599 Si02
#       7
#     8   8   8   8   8   8   8
#     4   9  18  32  50  74 103 135 174 219 266 318
#     4  11  23  36  51  73 100 130 168 216 268 319
#     4  10  21  36  54  76 104 141 179 215 260 311
#     4   9  19  37  60  86 116 148 182 220 262 309
#     4  10  21  37  55  74  99 133 174 216 259 311
#     4  10  20  35  58  86 115 147 182 221 264 312
#     4  10  19  33  54  76 100 131 168 213 267 324
#
# _framework density 19.825626
#
# number of rings (size 3 to 8) (size 9 to 14) (size 15 to 20)
#    0.000    2.143    0.000    3.000    0.000    5.714 
#    0.000    0.714    0.000    2.571    0.000    0.000 
#    0.000    0.000    0.000    0.000    0.000    0.000 
#
# Total GULP energy -693876.825491 kJ/mol
# GULP energy per Si atom -12390.657598 kJ/mol
# Density = 1.978050 g / cm^3
# Si number density = 19.825626 Si / 1000 Ang^3
#
#
#
# Elastic Constant Matrix: (Units=GPa)
#
#
# Indices 1 2 3 4 5 6 
#
# 1 79.7945 20.2354 23.6417 0.0000 0.0000 0.0000
# 2 20.2354 62.7353 37.4687 0.0000 0.0000 0.0000
# 3 23.6417 37.4687 109.4858 0.0000 0.0000 0.0000
# 4 0.0000 0.0000 0.0000 34.2189 0.0000 0.0000
# 5 0.0000 0.0000 0.0000 0.0000 16.9697 0.0000
# 6 0.0000 0.0000 0.0000 0.0000 0.0000 25.3853
#
#
#
# Elastic Compliance Matrix: (Units=1/GPa)
#
#
# Indices 1 2 3 4 5 6 
#
# 1 0.013940 -0.003392 -0.001849 0.000000 0.000000 0.000000
# 2 -0.003392 0.020860 -0.006406 0.000000 0.000000 0.000000
# 3 -0.001849 -0.006406 0.011725 0.000000 0.000000 0.000000
# 4 0.000000 0.000000 0.000000 0.029224 0.000000 0.000000
# 5 0.000000 0.000000 0.000000 0.000000 0.058928 0.000000
# 6 0.000000 0.000000 0.000000 0.000000 0.000000 0.039393
#
#
# Mechanical properties :
#
#
# Convention : Reuss Voigt Hill
#
# Bulk Modulus (GPa) = 43.04692 46.07856 44.56274
# Shear Modulus (GPa) = 24.37716 26.69278 25.53497
#
# Velocity S-wave (km/s) = 3.51034 3.67328 3.59273
# Velocity P-wave (km/s) = 6.17980 6.42519 6.30369
#
# Compressibility (1/GPa) = 0.02323047
#
# Stress axis : x y z
#
# Youngs Moduli (GPa) = 71.73448 47.93785 85.28484
#
# Poissons Ratio (x) = 0.16260 0.15772
# Poissons Ratio (y) = 0.24332 0.54638
# Poissons Ratio (z) = 0.13266 0.30711
#
# Static dielectric constant tensor:
#      x y z
#    x 3.849610 0.000000 0.000000 
#    y 0.000000 3.611590 0.000000 
#    z 0.000000 0.000000 3.683730 
# 
# 
# High freq. dielectric constant tensor:
#      x y z
#    x 1.759330 0.000000 0.000000 
#    y 0.000000 1.779630 0.000000 
#    z 0.000000 0.000000 1.768340 
# 
# From -- ./inp_files/30364.got.cif
#   From: 2010.03.12/outbox.cif.g09.slc.cpg/sg59_16_cif.got.tgz:30364.got - 2010.04.16 16:29:54.
