data_PCOD8241056
_publ_section_title
;
Structure prediction by ZEFSAII (Michael W. Deem and Ramdas Pophale) SiO2 
 PCOD8241056
Probable space group: P M M N
;
_chemical_formula_sum "Si O2"
_cell_formula_units_Z 56
_cell_length_a 26.625322
_cell_length_b 8.933137
_cell_length_c 14.243162
_cell_angle_alpha 90.000000
_cell_angle_beta 90.000000
_cell_angle_gamma 90.000000
_cell_volume 3387.702597
_symmetry_space_group_name_H-M "P M M N"
_symmetry_group_IT_number 59
_space_group.IT_coordinate_system_code '2'
_symmetry_cell_setting 'orthorhombic'
loop_
_space_group_symop_operation_xyz
x,y,z
1/2-x,1/2-y,z
1/2+x,-y,-z
-x,1/2+y,-z
-x,-y,-z
1/2+x,1/2+y,-z
1/2-x,y,z
x,1/2-y,z
loop_
_atom_site_type_symbol
_atom_site_label
_atom_site_fract_x
_atom_site_fract_y
_atom_site_fract_z
Si Si1 0.121563 0.074315 0.766204
Si Si2 0.192672 0.573859 0.626795
Si Si3 0.885878 0.079074 0.527443
Si Si4 0.565554 0.424253 0.081329
Si Si5 0.037774 0.575252 0.125873
Si Si6 0.543733 0.419698 0.361561
Si Si7 0.068127 0.423019 0.307177
O O1 0.128171 0.250000 0.774523
O O2 0.171605 0.006548 0.719631
O O3 0.113040 0.005787 0.870270
O O4 0.072662 0.034627 0.705100
O O5 0.250000 0.525512 0.611494
O O6 0.186483 0.750000 0.642593
O O7 0.161330 0.523640 0.535002
O O8 0.878233 0.250000 0.558821
O O9 0.937064 0.059562 0.467789
O O10 0.889108 0.979289 0.621090
O O11 0.567686 0.250000 0.104418
O O12 0.514240 0.485915 0.126280
O O13 0.567861 0.455993 0.970304
O O14 0.025801 0.750000 0.138167
O O15 0.072172 0.515499 0.210557
O O16 0.555658 0.250000 0.327656
O O17 0.485026 0.454300 0.357135
O O18 0.077115 0.250000 0.284538
#
# Coordination Sequence:
#
# PCOD8241056 Si02
#       7
#     8   8   8   8   8   8   8
#     4  11  20  29  48  74  99 128 161 199 244 290
#     4   9  19  37  57  74  95 125 159 198 246 296
#     4   9  18  31  47  67  93 123 160 200 238 285
#     4  10  19  32  47  66  95 129 165 201 239 284
#     4  10  20  31  46  67  93 129 169 205 236 271
#     4   9  18  31  44  62  92 131 167 198 231 276
#     4  11  20  29  44  66  96 133 166 198 237 283
#
# _framework density 16.530377999999999
#
# number of rings (size 3 to 8) (size 9 to 14) (size 15 to 20)
#    0.000    2.143    1.429    3.857    0.000    4.857 
#    0.000    0.000    0.000    0.000    0.000    1.000 
#    0.000    3.429    0.000    0.000    0.000    0.000 
#
# Total GULP energy -694428.975550 kJ/mol
# GULP energy per Si atom -12400.517421 kJ/mol
# Density = 1.649275 g / cm^3
# Si number density = 16.530378 Si / 1000 Ang^3
#
#
#
# Elastic Constant Matrix: (Units=GPa)
#
#
# Indices 1 2 3 4 5 6 
#
# 1 75.7505 36.9520 47.7312 0.0000 0.0000 0.0000
# 2 36.9520 85.2472 49.9972 0.0000 0.0000 0.0000
# 3 47.7312 49.9972 113.6383 0.0000 0.0000 0.0000
# 4 0.0000 0.0000 0.0000 28.6770 0.0000 0.0000
# 5 0.0000 0.0000 0.0000 0.0000 17.3981 0.0000
# 6 0.0000 0.0000 0.0000 0.0000 0.0000 17.9438
#
#
#
# Elastic Compliance Matrix: (Units=1/GPa)
#
#
# Indices 1 2 3 4 5 6 
#
# 1 0.019350 -0.004880 -0.005981 0.000000 0.000000 0.000000
# 2 -0.004880 0.017041 -0.005448 0.000000 0.000000 0.000000
# 3 -0.005981 -0.005448 0.013709 0.000000 0.000000 0.000000
# 4 0.000000 0.000000 0.000000 0.034871 0.000000 0.000000
# 5 0.000000 0.000000 0.000000 0.000000 0.057477 0.000000
# 6 0.000000 0.000000 0.000000 0.000000 0.000000 0.055730
#
#
# Mechanical properties :
#
#
# Convention : Reuss Voigt Hill
#
# Bulk Modulus (GPa) = 57.19793 60.44408 58.82100
# Shear Modulus (GPa) = 21.13069 22.13414 21.63242
#
# Velocity S-wave (km/s) = 3.57920 3.66320 3.62145
# Velocity P-wave (km/s) = 7.19429 7.38491 7.29022
#
# Compressibility (1/GPa) = 0.01748315
#
# Stress axis : x y z
#
# Youngs Moduli (GPa) = 51.67896 58.68175 72.94663
#
# Poissons Ratio (x) = 0.28638 0.43626
# Poissons Ratio (y) = 0.25220 0.39739
# Poissons Ratio (z) = 0.30907 0.31968
#
# Static dielectric constant tensor:
#      x y z
#    x 2.830910 0.000000 0.000000 
#    y 0.000000 3.104120 0.000000 
#    z 0.000000 0.000000 3.187020 
# 
# 
# High freq. dielectric constant tensor:
#      x y z
#    x 1.587240 0.000000 0.000000 
#    y 0.000000 1.644650 0.000000 
#    z 0.000000 0.000000 1.638130 
# 
# From -- ./inp_files/24942.got.cif
#   From: 2010.03.12/outbox.cif.g09.slc.cpg/sg59_13_cif.got.tgz:24942.got - 2010.04.16 16:29:54.
