data_PCOD8241047
_publ_section_title
;
Structure prediction by ZEFSAII (Michael W. Deem and Ramdas Pophale) SiO2 
 PCOD8241047
Probable space group: P M M N
;
_chemical_formula_sum "Si O2"
_cell_formula_units_Z 56
_cell_length_a 14.922663
_cell_length_b 18.744545
_cell_length_c 9.534889
_cell_angle_alpha 90.000000
_cell_angle_beta 90.000000
_cell_angle_gamma 90.000000
_cell_volume 2667.085117
_symmetry_space_group_name_H-M "P M M N"
_symmetry_group_IT_number 59
_space_group.IT_coordinate_system_code '2'
_symmetry_cell_setting 'orthorhombic'
loop_
_space_group_symop_operation_xyz
x,y,z
1/2-x,1/2-y,z
1/2+x,-y,-z
-x,1/2+y,-z
-x,-y,-z
1/2+x,1/2+y,-z
1/2-x,y,z
x,1/2-y,z
loop_
_atom_site_type_symbol
_atom_site_label
_atom_site_fract_x
_atom_site_fract_y
_atom_site_fract_z
Si Si1 0.948565 0.834041 0.188820
Si Si2 0.750000 0.834054 0.224770
Si Si3 0.942122 0.328278 0.094190
Si Si4 0.380517 0.170374 0.234167
Si Si5 0.150610 0.024326 0.140516
Si Si6 0.352161 0.534243 0.850966
Si Si7 0.750000 0.668324 0.528300
Si Si8 0.497606 0.028186 0.658781
O O1 0.954364 0.750000 0.235588
O O2 0.844694 0.857420 0.154447
O O3 0.987446 0.885784 0.313281
O O4 0.004629 0.847526 0.048082
O O5 0.750000 0.750000 0.231223
O O6 0.750000 0.871506 0.379754
O O7 0.899693 0.250000 0.082051
O O8 0.860617 0.380834 0.125271
O O9 0.011610 0.332339 0.225632
O O10 0.346990 0.250000 0.188083
O O11 0.341017 0.110195 0.132488
O O12 0.341693 0.150686 0.387705
O O13 0.250000 0.990882 0.161122
O O14 0.088118 0.998899 0.267187
O O15 0.109487 0.001228 0.992265
O O16 0.250000 0.512681 0.821195
O O17 0.411201 0.510110 0.722020
O O18 0.750000 0.750000 0.488927
O O19 0.500000 0.000000 0.500000
#
# Coordination Sequence:
#
# PCOD8241047 Si02
#       8
#     8   4   8   8   8   8   4   8
#     4  10  22  40  62  90 129 169 213 262 321 391
#     4   9  20  35  53  83 125 168 200 247 313 384
#     4  10  20  38  64  90 120 163 213 270 322 375
#     4  10  19  31  54  86 116 153 199 246 304 373
#     4  11  22  39  64  89 125 166 205 262 319 374
#     4  11  24  43  65  91 125 167 213 269 324 378
#     4   9  18  31  49  79 123 160 196 239 297 378
#     4  12  26  42  64  95 131 173 214 260 325 390
#
# _framework density 20.996706
#
# number of rings (size 3 to 8) (size 9 to 14) (size 15 to 20)
#    0.000    1.571    3.571    1.286    3.000    1.429 
#    0.000    3.571    0.000    0.429    0.000    0.000 
#    0.000    0.000    0.000    0.000    0.000    0.000 
#
# Total GULP energy -693732.392299 kJ/mol
# GULP energy per Si atom -12388.078434 kJ/mol
# Density = 2.094892 g / cm^3
# Si number density = 20.996706 Si / 1000 Ang^3
#
#
#
# Elastic Constant Matrix: (Units=GPa)
#
#
# Indices 1 2 3 4 5 6 
#
# 1 79.4203 26.6616 39.5619 0.0000 0.0000 0.0000
# 2 26.6616 107.7071 31.6898 0.0000 0.0000 0.0000
# 3 39.5619 31.6898 109.6613 0.0000 0.0000 0.0000
# 4 0.0000 0.0000 0.0000 20.4179 0.0000 0.0000
# 5 0.0000 0.0000 0.0000 0.0000 92.9432 0.0000
# 6 0.0000 0.0000 0.0000 0.0000 0.0000 23.5700
#
#
#
# Elastic Compliance Matrix: (Units=1/GPa)
#
#
# Indices 1 2 3 4 5 6 
#
# 1 0.015925 -0.002461 -0.005034 0.000000 0.000000 0.000000
# 2 -0.002461 0.010527 -0.002154 0.000000 0.000000 0.000000
# 3 -0.005034 -0.002154 0.011558 0.000000 0.000000 0.000000
# 4 0.000000 0.000000 0.000000 0.048977 0.000000 0.000000
# 5 0.000000 0.000000 0.000000 0.000000 0.010759 0.000000
# 6 0.000000 0.000000 0.000000 0.000000 0.000000 0.042427
#
#
# Mechanical properties :
#
#
# Convention : Reuss Voigt Hill
#
# Bulk Modulus (GPa) = 53.44323 54.73504 54.08913
# Shear Modulus (GPa) = 30.17344 40.64459 35.40902
#
# Velocity S-wave (km/s) = 3.79496 4.40450 4.11105
# Velocity P-wave (km/s) = 6.68661 7.21049 6.95348
#
# Compressibility (1/GPa) = 0.01871144
#
# Stress axis : x y z
#
# Youngs Moduli (GPa) = 62.79436 94.98945 86.52275
#
# Poissons Ratio (x) = 0.23376 0.43556
# Poissons Ratio (y) = 0.15453 0.18641
# Poissons Ratio (z) = 0.31611 0.20465
#
# Static dielectric constant tensor:
#      x y z
#    x 3.812070 0.000000 0.000000 
#    y 0.000000 4.142090 0.000000 
#    z 0.000000 0.000000 3.738060 
# 
# 
# High freq. dielectric constant tensor:
#      x y z
#    x 1.809770 0.000000 0.000000 
#    y 0.000000 1.833460 0.000000 
#    z 0.000000 0.000000 1.802100 
# 
# From -- ./inp_files/9420.got.cif
#   From: 2010.03.12/outbox.cif.g09.slc.cpg/sg59_5_cif.got.tgz:9420.got - 2010.04.16 16:29:54.
