data_PCOD8241937
_publ_section_title
;
Structure prediction by ZEFSAII (Michael W. Deem and Ramdas Pophale) SiO2 
 PCOD8241937
Probable space group: P M M N
;
_chemical_formula_sum "Si O2"
_cell_formula_units_Z 48
_cell_length_a 16.087400
_cell_length_b 8.900158
_cell_length_c 17.133657
_cell_angle_alpha 90.000000
_cell_angle_beta 90.000000
_cell_angle_gamma 90.000000
_cell_volume 2453.203894
_symmetry_space_group_name_H-M "P M M N"
_symmetry_group_IT_number 59
_space_group.IT_coordinate_system_code '2'
_symmetry_cell_setting 'orthorhombic'
loop_
_space_group_symop_operation_xyz
x,y,z
1/2-x,1/2-y,z
1/2+x,-y,-z
-x,1/2+y,-z
-x,-y,-z
1/2+x,1/2+y,-z
1/2-x,y,z
x,1/2-y,z
loop_
_atom_site_type_symbol
_atom_site_label
_atom_site_fract_x
_atom_site_fract_y
_atom_site_fract_z
Si Si1 0.658251 0.071766 0.839908
Si Si2 0.250000 0.929491 0.415675
Si Si3 0.090209 0.571614 0.319912
Si Si4 0.346145 0.080780 0.848111
Si Si5 0.411254 0.572175 0.998318
Si Si6 0.750000 0.929418 0.415319
Si Si7 0.593375 0.571535 0.316438
O O1 0.750000 0.013527 0.820328
O O2 0.655809 0.250000 0.843986
O O3 0.600181 0.014045 0.769375
O O4 0.632376 0.007682 0.923920
O O5 0.250000 0.750000 0.419113
O O6 0.334025 0.990104 0.372999
O O7 0.250000 0.997886 0.500625
O O8 0.095042 0.750000 0.321760
O O9 0.997913 0.517803 0.347650
O O10 0.250000 0.081428 0.825371
O O11 0.376817 0.250000 0.867829
O O12 0.394654 0.015527 0.772753
O O13 0.360428 0.976062 0.922342
O O14 0.417815 0.750000 0.999270
O O15 0.500000 0.500000 0.000000
O O16 0.750000 0.750000 0.421805
O O17 0.832915 0.990027 0.371520
O O18 0.599108 0.750000 0.315481
#
# Coordination Sequence:
#
# PCOD8241937 Si02
#       7
#     8   4   8   8   8   4   8
#     4   9  16  29  50  76 102 132 174 220 260 309
#     4  10  20  34  54  81 106 130 166 221 278 320
#     4   9  16  29  52  79 105 132 172 220 264 309
#     4  10  19  34  56  80 107 140 183 229 273 323
#     4  11  22  34  50  76 110 146 187 230 272 319
#     4  10  20  36  56  77 104 140 178 213 258 326
#     4   9  17  32  55  80 104 140 183 218 255 319
#
# _framework density 19.566248999999999
#
# number of rings (size 3 to 8) (size 9 to 14) (size 15 to 20)
#    0.000    2.333    1.667    2.000    0.000    4.333 
#    0.000    0.833    0.000    5.000    0.000    0.000 
#    0.000    0.000    0.000    0.000    0.000    0.000 
#
# Total GULP energy -594910.769171 kJ/mol
# GULP energy per Si atom -12393.974358 kJ/mol
# Density = 1.952172 g / cm^3
# Si number density = 19.566249 Si / 1000 Ang^3
#
#
#
# Elastic Constant Matrix: (Units=GPa)
#
#
# Indices 1 2 3 4 5 6 
#
# 1 164.8963 13.9389 77.6595 0.0000 0.0000 0.0000
# 2 13.9389 26.0718 18.8291 0.0000 0.0000 0.0000
# 3 77.6595 18.8291 153.9074 0.0000 0.0000 0.0000
# 4 0.0000 0.0000 0.0000 29.3570 0.0000 0.0000
# 5 0.0000 0.0000 0.0000 0.0000 27.1896 0.0000
# 6 0.0000 0.0000 0.0000 0.0000 0.0000 16.0771
#
#
#
# Elastic Compliance Matrix: (Units=1/GPa)
#
#
# Indices 1 2 3 4 5 6 
#
# 1 0.008008 -0.001495 -0.003858 0.000000 0.000000 0.000000
# 2 -0.001495 0.042352 -0.004427 0.000000 0.000000 0.000000
# 3 -0.003858 -0.004427 0.008985 0.000000 0.000000 0.000000
# 4 0.000000 0.000000 0.000000 0.034063 0.000000 0.000000
# 5 0.000000 0.000000 0.000000 0.000000 0.036779 0.000000
# 6 0.000000 0.000000 0.000000 0.000000 0.000000 0.062200
#
#
# Mechanical properties :
#
#
# Convention : Reuss Voigt Hill
#
# Bulk Modulus (GPa) = 25.13459 62.85895 43.99677
# Shear Modulus (GPa) = 22.20162 30.15463 26.17813
#
# Velocity S-wave (km/s) = 3.37217 3.93001 3.66173
# Velocity P-wave (km/s) = 5.29489 7.26562 6.35709
#
# Compressibility (1/GPa) = 0.03978582
#
# Stress axis : x y z
#
# Youngs Moduli (GPa) = 124.88178 23.61156 111.29054
#
# Poissons Ratio (x) = 0.03530 0.42931
# Poissons Ratio (y) = 0.18672 0.49268
# Poissons Ratio (z) = 0.48174 0.10453
#
# Static dielectric constant tensor:
#      x y z
#    x 3.922710 0.000000 0.000000 
#    y 0.000000 2.988660 0.000000 
#    z 0.000000 0.000000 4.066150 
# 
# 
# High freq. dielectric constant tensor:
#      x y z
#    x 1.782930 0.000000 0.000000 
#    y 0.000000 1.697240 0.000000 
#    z 0.000000 0.000000 1.767960 
# 
# From -- ./inp_files/20517.got.cif
#   From: 2010.03.12/outbox.cif.g09.slc.cpg/sg59_11_cif.got.tgz:20517.got - 2010.04.16 16:29:54.
