data_PCOD8241765
_publ_section_title
;
Structure prediction by ZEFSAII (Michael W. Deem and Ramdas Pophale) SiO2 
 PCOD8241765
Probable space group: P M M N
;
_chemical_formula_sum "Si O2"
_cell_formula_units_Z 64
_cell_length_a 17.324714
_cell_length_b 17.040684
_cell_length_c 11.452220
_cell_angle_alpha 90.000000
_cell_angle_beta 90.000000
_cell_angle_gamma 90.000000
_cell_volume 3380.981382
_symmetry_space_group_name_H-M "P M M N"
_symmetry_group_IT_number 59
_space_group.IT_coordinate_system_code '2'
_symmetry_cell_setting 'orthorhombic'
loop_
_space_group_symop_operation_xyz
x,y,z
1/2-x,1/2-y,z
1/2+x,-y,-z
-x,1/2+y,-z
-x,-y,-z
1/2+x,1/2+y,-z
1/2-x,y,z
x,1/2-y,z
loop_
_atom_site_type_symbol
_atom_site_label
_atom_site_fract_x
_atom_site_fract_y
_atom_site_fract_z
Si Si1 0.449480 0.083249 0.626634
Si Si2 0.430116 0.560913 0.010322
Si Si3 0.337380 0.658484 0.473398
Si Si4 0.081106 0.839857 0.241540
Si Si5 0.159837 0.083844 0.013751
Si Si6 0.159621 0.337314 0.776687
Si Si7 0.474151 0.159233 0.152110
Si Si8 0.021954 0.591099 0.612543
O O1 0.500562 0.148095 0.692637
O O2 0.364114 0.105330 0.670139
O O3 0.456595 0.092076 0.487659
O O4 0.472244 0.995769 0.667236
O O5 0.415406 0.600813 0.134598
O O6 0.500000 0.500000 0.000000
O O7 0.353086 0.509184 0.987528
O O8 0.449498 0.628160 0.916097
O O9 0.250000 0.633075 0.503086
O O10 0.351046 0.750000 0.496442
O O11 0.352671 0.639408 0.336719
O O12 0.394675 0.612159 0.558965
O O13 0.088325 0.750000 0.198334
O O14 0.250000 0.099038 0.042953
O O15 0.129497 0.131101 0.901022
O O16 0.105147 0.113246 0.119942
O O17 0.250000 0.337689 0.779569
O O18 0.126767 0.250000 0.758375
O O19 0.462165 0.250000 0.122569
O O20 0.492509 0.150105 0.289000
#
# Coordination Sequence:
#
# PCOD8241765 Si02
#       8
#     8   8   8   8   8   8   8   8
#     4  10  19  34  54  76 104 136 175 223 267 308
#     4  10  20  34  53  79 108 140 178 220 270 326
#     4   9  19  36  57  79 103 136 180 229 277 322
#     4  10  19  33  56  81 102 131 177 229 273 312
#     4  10  21  37  57  80 109 146 186 228 275 329
#     4  10  20  34  54  79 104 134 179 230 274 315
#     4  11  21  34  54  80 113 149 184 222 268 332
#     4  10  21  35  53  80 111 144 182 218 261 326
#
# _framework density 18.929414999999999
#
# number of rings (size 3 to 8) (size 9 to 14) (size 15 to 20)
#    0.000    2.000    0.000    5.250    0.000    3.250 
#    0.000    1.250    0.000    1.875    0.000    0.000 
#    0.000    0.000    0.000    0.000    0.000    0.000 
#
# Total GULP energy -793357.098438 kJ/mol
# GULP energy per Si atom -12396.204663 kJ/mol
# Density = 1.888633 g / cm^3
# Si number density = 18.929415 Si / 1000 Ang^3
#
#
#
# Elastic Constant Matrix: (Units=GPa)
#
#
# Indices 1 2 3 4 5 6 
#
# 1 67.8658 36.5931 42.7689 0.0000 0.0000 0.0000
# 2 36.5931 94.8359 45.8219 0.0000 0.0000 0.0000
# 3 42.7689 45.8219 94.3121 0.0000 0.0000 0.0000
# 4 0.0000 0.0000 0.0000 34.9376 0.0000 0.0000
# 5 0.0000 0.0000 0.0000 0.0000 25.2142 0.0000
# 6 0.0000 0.0000 0.0000 0.0000 0.0000 27.6296
#
#
#
# Elastic Compliance Matrix: (Units=1/GPa)
#
#
# Indices 1 2 3 4 5 6 
#
# 1 0.022210 -0.004840 -0.007720 0.000000 0.000000 0.000000
# 2 -0.004840 0.014834 -0.005012 0.000000 0.000000 0.000000
# 3 -0.007720 -0.005012 0.016540 0.000000 0.000000 0.000000
# 4 0.000000 0.000000 0.000000 0.028622 0.000000 0.000000
# 5 0.000000 0.000000 0.000000 0.000000 0.039660 0.000000
# 6 0.000000 0.000000 0.000000 0.000000 0.000000 0.036193
#
#
# Mechanical properties :
#
#
# Convention : Reuss Voigt Hill
#
# Bulk Modulus (GPa) = 54.23495 56.37572 55.30534
# Shear Modulus (GPa) = 25.08156 26.34494 25.71325
#
# Velocity S-wave (km/s) = 3.64401 3.73466 3.68961
# Velocity P-wave (km/s) = 6.81311 6.96015 6.88702
#
# Compressibility (1/GPa) = 0.01843830
#
# Stress axis : x y z
#
# Youngs Moduli (GPa) = 45.02506 67.41391 60.46128
#
# Poissons Ratio (x) = 0.32625 0.46679
# Poissons Ratio (y) = 0.21790 0.30306
# Poissons Ratio (z) = 0.34762 0.33791
#
# Static dielectric constant tensor:
#      x y z
#    x 3.425470 0.000000 0.000000 
#    y 0.000000 3.716900 0.000000 
#    z 0.000000 0.000000 3.467240 
# 
# 
# High freq. dielectric constant tensor:
#      x y z
#    x 1.718670 0.000000 0.000000 
#    y 0.000000 1.746900 0.000000 
#    z 0.000000 0.000000 1.730070 
# 
# From -- ./inp_files/17954.got.cif
#   From: 2010.03.12/outbox.cif.g09.slc.cpg/sg59_9_cif.got.tgz:17954.got - 2010.04.16 16:29:54.
