data_PCOD8241439
_publ_section_title
;
Structure prediction by ZEFSAII (Michael W. Deem and Ramdas Pophale) SiO2 
 PCOD8241439
Probable space group: P M M N
;
_chemical_formula_sum "Si O2"
_cell_formula_units_Z 64
_cell_length_a 28.278325
_cell_length_b 9.046096
_cell_length_c 12.840785
_cell_angle_alpha 90.000000
_cell_angle_beta 90.000000
_cell_angle_gamma 90.000000
_cell_volume 3284.781214
_symmetry_space_group_name_H-M "P M M N"
_symmetry_group_IT_number 59
_space_group.IT_coordinate_system_code '2'
_symmetry_cell_setting 'orthorhombic'
loop_
_space_group_symop_operation_xyz
x,y,z
1/2-x,1/2-y,z
1/2+x,-y,-z
-x,1/2+y,-z
-x,-y,-z
1/2+x,1/2+y,-z
1/2-x,y,z
x,1/2-y,z
loop_
_atom_site_type_symbol
_atom_site_label
_atom_site_fract_x
_atom_site_fract_y
_atom_site_fract_z
Si Si1 0.066764 0.584407 0.262242
Si Si2 0.646951 0.576682 0.007243
Si Si3 0.958194 0.924758 0.938129
Si Si4 0.826997 0.412881 0.810561
Si Si5 0.304398 0.074005 0.781078
Si Si6 0.548652 0.576522 0.526703
Si Si7 0.802338 0.913766 0.614393
Si Si8 0.357731 0.076692 0.578630
O O1 0.045071 0.750000 0.277794
O O2 0.118991 0.598085 0.220539
O O3 0.068668 0.494062 0.368545
O O4 0.037385 0.492121 0.177538
O O5 0.654639 0.750000 0.995407
O O6 0.591475 0.536416 0.994983
O O7 0.667482 0.518210 0.116942
O O8 0.678433 0.500771 0.918191
O O9 0.965843 0.750000 0.931768
O O10 0.000000 0.000000 0.000000
O O11 0.805278 0.250000 0.825758
O O12 0.799026 0.493724 0.719597
O O13 0.250000 0.015654 0.779461
O O14 0.304413 0.250000 0.778421
O O15 0.334349 0.008652 0.682965
O O16 0.500000 0.500000 0.500000
O O17 0.540856 0.750000 0.543670
O O18 0.585890 0.546991 0.431972
O O19 0.750000 0.901176 0.567588
O O20 0.822767 0.750000 0.640630
O O21 0.833623 0.992266 0.524905
O O22 0.346616 0.250000 0.578358
#
# Coordination Sequence:
#
# PCOD8241439 Si02
#       8
#     8   8   8   8   8   8   8   8
#     4  10  20  36  56  77 106 146 189 236 289 342
#     4   9  19  34  54  81 113 148 187 233 284 341
#     4  10  20  34  54  81 114 152 194 240 292 348
#     4  10  20  34  54  78 108 145 182 228 284 338
#     4   9  17  32  56  84 112 144 186 235 287 341
#     4  11  22  36  56  83 115 150 189 234 287 347
#     4  10  19  32  54  82 109 140 182 228 276 335
#     4   9  18  33  54  81 113 146 182 231 284 335
#
# _framework density 19.483792999999999
#
# number of rings (size 3 to 8) (size 9 to 14) (size 15 to 20)
#    0.000    2.250    1.250    1.875    0.000    4.750 
#    0.000    3.750    0.000    2.250    0.000    0.000 
#    0.000    0.000    0.000    0.000    0.000    0.000 
#
# Total GULP energy -793358.019124 kJ/mol
# GULP energy per Si atom -12396.219049 kJ/mol
# Density = 1.943945 g / cm^3
# Si number density = 19.483793 Si / 1000 Ang^3
#
#
#
# Elastic Constant Matrix: (Units=GPa)
#
#
# Indices 1 2 3 4 5 6 
#
# 1 87.3291 33.8595 56.6506 0.0000 0.0000 0.0000
# 2 33.8595 81.8239 44.8783 0.0000 0.0000 0.0000
# 3 56.6506 44.8783 154.7771 0.0000 0.0000 0.0000
# 4 0.0000 0.0000 0.0000 21.3772 0.0000 0.0000
# 5 0.0000 0.0000 0.0000 0.0000 30.6775 0.0000
# 6 0.0000 0.0000 0.0000 0.0000 0.0000 20.3933
#
#
#
# Elastic Compliance Matrix: (Units=1/GPa)
#
#
# Indices 1 2 3 4 5 6 
#
# 1 0.016083 -0.004075 -0.004705 0.000000 0.000000 0.000000
# 2 -0.004075 0.015565 -0.003022 0.000000 0.000000 0.000000
# 3 -0.004705 -0.003022 0.009059 0.000000 0.000000 0.000000
# 4 0.000000 0.000000 0.000000 0.046779 0.000000 0.000000
# 5 0.000000 0.000000 0.000000 0.000000 0.032597 0.000000
# 6 0.000000 0.000000 0.000000 0.000000 0.000000 0.049036
#
#
# Mechanical properties :
#
#
# Convention : Reuss Voigt Hill
#
# Bulk Modulus (GPa) = 58.46572 66.07853 62.27212
# Shear Modulus (GPa) = 25.19869 27.05906 26.12887
#
# Velocity S-wave (km/s) = 3.60017 3.73070 3.66602
# Velocity P-wave (km/s) = 6.88143 7.24884 7.06753
#
# Compressibility (1/GPa) = 0.01710404
#
# Stress axis : x y z
#
# Youngs Moduli (GPa) = 62.17744 64.24743 110.38493
#
# Poissons Ratio (x) = 0.26179 0.51938
# Poissons Ratio (y) = 0.25335 0.33355
# Poissons Ratio (z) = 0.29255 0.19414
#
# Static dielectric constant tensor:
#      x y z
#    x 3.545270 0.000000 0.000000 
#    y 0.000000 7.423150 0.000000 
#    z 0.000000 0.000000 3.738560 
# 
# 
# High freq. dielectric constant tensor:
#      x y z
#    x 1.758610 0.000000 0.000000 
#    y 0.000000 1.733980 0.000000 
#    z 0.000000 0.000000 1.762510 
# 
# From -- ./inp_files/19378.got.cif
#   From: 2010.03.12/outbox.cif.g09.slc.cpg/sg59_10_cif.got.tgz:19378.got - 2010.04.16 16:29:54.
