data_PCOD8241416
_publ_section_title
;
Structure prediction by ZEFSAII (Michael W. Deem and Ramdas Pophale) SiO2 
 PCOD8241416
Probable space group: P M M N
;
_chemical_formula_sum "Si O2"
_cell_formula_units_Z 64
_cell_length_a 23.880642
_cell_length_b 9.612444
_cell_length_c 15.221293
_cell_angle_alpha 90.000000
_cell_angle_beta 90.000000
_cell_angle_gamma 90.000000
_cell_volume 3494.068112
_symmetry_space_group_name_H-M "P M M N"
_symmetry_group_IT_number 59
_space_group.IT_coordinate_system_code '2'
_symmetry_cell_setting 'orthorhombic'
loop_
_space_group_symop_operation_xyz
x,y,z
1/2-x,1/2-y,z
1/2+x,-y,-z
-x,1/2+y,-z
-x,-y,-z
1/2+x,1/2+y,-z
1/2-x,y,z
x,1/2-y,z
loop_
_atom_site_type_symbol
_atom_site_label
_atom_site_fract_x
_atom_site_fract_y
_atom_site_fract_z
Si Si1 0.514392 0.592189 0.584822
Si Si2 0.503949 0.414746 0.220601
Si Si3 0.811786 0.415323 0.310237
Si Si4 0.883332 0.585072 0.825596
Si Si5 0.315933 0.085042 0.004640
Si Si6 0.857996 0.594754 0.635685
Si Si7 0.814278 0.399945 0.496660
Si Si8 0.620661 0.085014 0.144265
O O1 0.500000 0.500000 0.500000
O O2 0.493071 0.750000 0.567691
O O3 0.489230 0.532019 0.677690
O O4 0.580769 0.590253 0.594804
O O5 0.498909 0.250000 0.230588
O O6 0.447524 0.472826 0.172914
O O7 0.555379 0.455294 0.156804
O O8 0.750000 0.479919 0.294894
O O9 0.808823 0.250000 0.308012
O O10 0.839060 0.460619 0.404520
O O11 0.851151 0.468993 0.233323
O O12 0.886166 0.750000 0.826619
O O13 0.844340 0.532755 0.904778
O O14 0.855799 0.534666 0.734469
O O15 0.250000 0.045336 0.004049
O O16 0.323616 0.250000 0.990507
O O17 0.350312 0.001564 0.932144
O O18 0.833693 0.750000 0.634289
O O19 0.817846 0.502026 0.577570
O O20 0.750000 0.375249 0.473609
O O21 0.842050 0.250000 0.520200
O O22 0.628587 0.250000 0.127097
#
# Coordination Sequence:
#
# PCOD8241416 Si02
#       8
#     8   8   8   8   8   8   8   8
#     4   9  18  31  48  73 103 134 169 208 245 290
#     4   8  16  31  51  76 102 132 171 207 248 301
#     4   8  15  28  45  66  94 128 164 200 240 295
#     4   8  16  34  54  71 100 135 168 208 251 305
#     4  10  21  36  54  76 100 131 170 210 259 311
#     4   9  18  32  50  73  99 129 167 210 249 291
#     4   9  18  31  47  70  99 131 168 207 249 299
#     4  10  19  32  54  79 100 128 168 212 254 304
#
# _framework density 18.316759000000001
#
# number of rings (size 3 to 8) (size 9 to 14) (size 15 to 20)
#    0.000    3.125    0.000    2.625    1.750    2.500 
#    0.000    3.125    0.000    2.250    0.000    0.000 
#    0.000    0.000    0.000    0.000    0.000    0.000 
#
# Total GULP energy -792843.047672 kJ/mol
# GULP energy per Si atom -12388.172620 kJ/mol
# Density = 1.827507 g / cm^3
# Si number density = 18.316759 Si / 1000 Ang^3
#
#
#
# Elastic Constant Matrix: (Units=GPa)
#
#
# Indices 1 2 3 4 5 6 
#
# 1 75.9790 24.5934 67.5241 0.0000 0.0000 0.0000
# 2 24.5934 41.5839 45.6495 0.0000 0.0000 0.0000
# 3 67.5241 45.6495 158.8069 0.0000 0.0000 0.0000
# 4 0.0000 0.0000 0.0000 30.1852 0.0000 0.0000
# 5 0.0000 0.0000 0.0000 0.0000 34.8113 0.0000
# 6 0.0000 0.0000 0.0000 0.0000 0.0000 19.2482
#
#
#
# Elastic Compliance Matrix: (Units=1/GPa)
#
#
# Indices 1 2 3 4 5 6 
#
# 1 0.021587 -0.003931 -0.008049 0.000000 0.000000 0.000000
# 2 -0.003931 0.035851 -0.008634 0.000000 0.000000 0.000000
# 3 -0.008049 -0.008634 0.012201 0.000000 0.000000 0.000000
# 4 0.000000 0.000000 0.000000 0.033129 0.000000 0.000000
# 5 0.000000 0.000000 0.000000 0.000000 0.028726 0.000000
# 6 0.000000 0.000000 0.000000 0.000000 0.000000 0.051953
#
#
# Mechanical properties :
#
#
# Convention : Reuss Voigt Hill
#
# Bulk Modulus (GPa) = 35.19741 61.32264 48.26003
# Shear Modulus (GPa) = 21.35429 26.08914 23.72171
#
# Velocity S-wave (km/s) = 3.41813 3.77813 3.60263
# Velocity P-wave (km/s) = 5.90219 7.25148 6.61135
#
# Compressibility (1/GPa) = 0.02841118
#
# Stress axis : x y z
#
# Youngs Moduli (GPa) = 46.32407 27.89337 81.96039
#
# Poissons Ratio (x) = 0.10966 0.65967
# Poissons Ratio (y) = 0.18212 0.70763
# Poissons Ratio (z) = 0.37285 0.24083
#
# Static dielectric constant tensor:
#      x y z
#    x 3.539660 0.000000 0.000000 
#    y 0.000000 3.004310 0.000000 
#    z 0.000000 0.000000 3.701410 
# 
# 
# High freq. dielectric constant tensor:
#      x y z
#    x 1.712010 0.000000 0.000000 
#    y 0.000000 1.659550 0.000000 
#    z 0.000000 0.000000 1.719120 
# 
# From -- ./inp_files/24804.got.cif
#   From: 2010.03.12/outbox.cif.g09.slc.cpg/sg59_13_cif.got.tgz:24804.got - 2010.04.16 16:29:54.
