data_PCOD8241760
_publ_section_title
;
Structure prediction by ZEFSAII (Michael W. Deem and Ramdas Pophale) SiO2 
 PCOD8241760
Probable space group: P M M N
;
_chemical_formula_sum "Si O2"
_cell_formula_units_Z 64
_cell_length_a 15.291734
_cell_length_b 8.852418
_cell_length_c 23.944573
_cell_angle_alpha 90.000000
_cell_angle_beta 90.000000
_cell_angle_gamma 90.000000
_cell_volume 3241.348624
_symmetry_space_group_name_H-M "P M M N"
_symmetry_group_IT_number 59
_space_group.IT_coordinate_system_code '2'
_symmetry_cell_setting 'orthorhombic'
loop_
_space_group_symop_operation_xyz
x,y,z
1/2-x,1/2-y,z
1/2+x,-y,-z
-x,1/2+y,-z
-x,-y,-z
1/2+x,1/2+y,-z
1/2-x,y,z
x,1/2-y,z
loop_
_atom_site_type_symbol
_atom_site_label
_atom_site_fract_x
_atom_site_fract_y
_atom_site_fract_z
Si Si1 0.393934 0.421538 0.056048
Si Si2 0.989264 0.428426 0.636385
Si Si3 0.351255 0.423759 0.441701
Si Si4 0.653689 0.428935 0.175733
Si Si5 0.151167 0.922308 0.166833
Si Si6 0.989500 0.928700 0.756256
Si Si7 0.399316 0.922400 0.943970
Si Si8 0.153710 0.429494 0.567911
O O1 0.361980 0.250000 0.063318
O O2 0.349651 0.523887 0.102935
O O3 0.497274 0.435073 0.062110
O O4 0.363423 0.480068 0.995489
O O5 0.993513 0.250000 0.642369
O O6 0.907298 0.471115 0.598441
O O7 0.975594 0.499343 0.696425
O O8 0.079251 0.492702 0.609257
O O9 0.250000 0.441744 0.425286
O O10 0.380812 0.250000 0.434928
O O11 0.367088 0.481814 0.504834
O O12 0.750000 0.476624 0.197726
O O13 0.642887 0.250000 0.172824
O O14 0.579960 0.493243 0.217419
O O15 0.641178 0.490917 0.112864
O O16 0.250000 0.934572 0.189564
O O17 0.117610 0.750000 0.170158
O O18 0.090798 0.028587 0.204254
O O19 0.992202 0.750000 0.749991
O O20 0.370048 0.750000 0.953729
O O21 0.250000 0.490249 0.586377
O O22 0.155117 0.250000 0.568545
#
# Coordination Sequence:
#
# PCOD8241760 Si02
#       8
#     8   8   8   8   8   8   8   8
#     4  10  19  33  55  85 116 147 182 223 276 336
#     4  11  22  35  56  85 115 150 187 230 281 328
#     4   9  18  35  59  85 114 151 191 230 274 326
#     4   9  18  35  59  83 108 141 183 230 279 330
#     4  11  24  41  61  83 108 143 187 236 290 342
#     4  11  23  41  60  81 110 147 191 235 280 330
#     4   9  17  32  54  83 115 148 182 220 273 332
#     4   8  16  33  57  85 118 153 188 226 273 329
#
# _framework density 19.744868
#
# number of rings (size 3 to 8) (size 9 to 14) (size 15 to 20)
#    0.000    2.250    1.250    2.625    0.000    3.250 
#    0.000    1.875    0.000    5.250    0.000    0.000 
#    0.000    0.000    0.000    0.000    0.000    0.000 
#
# Total GULP energy -793616.529052 kJ/mol
# GULP energy per Si atom -12400.258266 kJ/mol
# Density = 1.969993 g / cm^3
# Si number density = 19.744868 Si / 1000 Ang^3
#
#
#
# Elastic Constant Matrix: (Units=GPa)
#
#
# Indices 1 2 3 4 5 6 
#
# 1 87.6389 24.0350 34.4793 0.0000 0.0000 0.0000
# 2 24.0350 58.5640 21.8467 0.0000 0.0000 0.0000
# 3 34.4793 21.8467 86.0987 0.0000 0.0000 0.0000
# 4 0.0000 0.0000 0.0000 17.3495 0.0000 0.0000
# 5 0.0000 0.0000 0.0000 0.0000 7.7375 0.0000
# 6 0.0000 0.0000 0.0000 0.0000 0.0000 22.2465
#
#
#
# Elastic Compliance Matrix: (Units=1/GPa)
#
#
# Indices 1 2 3 4 5 6 
#
# 1 0.014404 -0.004153 -0.004715 0.000000 0.000000 0.000000
# 2 -0.004153 0.020058 -0.003426 0.000000 0.000000 0.000000
# 3 -0.004715 -0.003426 0.014372 0.000000 0.000000 0.000000
# 4 0.000000 0.000000 0.000000 0.057639 0.000000 0.000000
# 5 0.000000 0.000000 0.000000 0.000000 0.129240 0.000000
# 6 0.000000 0.000000 0.000000 0.000000 0.000000 0.044951
#
#
# Mechanical properties :
#
#
# Convention : Reuss Voigt Hill
#
# Bulk Modulus (GPa) = 41.24328 43.66927 42.45628
# Shear Modulus (GPa) = 15.95742 19.59608 17.77675
#
# Velocity S-wave (km/s) = 2.84594 3.15376 3.00379
# Velocity P-wave (km/s) = 5.63317 5.95201 5.79478
#
# Compressibility (1/GPa) = 0.02424637
#
# Stress axis : x y z
#
# Youngs Moduli (GPa) = 69.42412 49.85578 69.57960
#
# Poissons Ratio (x) = 0.20704 0.32804
# Poissons Ratio (y) = 0.28831 0.23841
# Poissons Ratio (z) = 0.32731 0.17083
#
# Static dielectric constant tensor:
#      x y z
#    x 3.757300 0.000000 0.000000 
#    y 0.000000 3.365180 0.000000 
#    z 0.000000 0.000000 3.618540 
# 
# 
# High freq. dielectric constant tensor:
#      x y z
#    x 1.777320 0.000000 0.000000 
#    y 0.000000 1.745710 0.000000 
#    z 0.000000 0.000000 1.768720 
# 
# From -- ./inp_files/32169.got.cif
#   From: 2010.03.12/outbox.cif.g09.slc.cpg/sg59_17_cif.got.tgz:32169.got - 2010.04.16 16:29:54.
