data_PCOD8241536
_publ_section_title
;
Structure prediction by ZEFSAII (Michael W. Deem and Ramdas Pophale) SiO2 
 PCOD8241536
Probable space group: P M M N
;
_chemical_formula_sum "Si O2"
_cell_formula_units_Z 64
_cell_length_a 12.381864
_cell_length_b 22.486184
_cell_length_c 12.219805
_cell_angle_alpha 90.000000
_cell_angle_beta 90.000000
_cell_angle_gamma 90.000000
_cell_volume 3402.248766
_symmetry_space_group_name_H-M "P M M N"
_symmetry_group_IT_number 59
_space_group.IT_coordinate_system_code '2'
_symmetry_cell_setting 'orthorhombic'
loop_
_space_group_symop_operation_xyz
x,y,z
1/2-x,1/2-y,z
1/2+x,-y,-z
-x,1/2+y,-z
-x,-y,-z
1/2+x,1/2+y,-z
1/2-x,y,z
x,1/2-y,z
loop_
_atom_site_type_symbol
_atom_site_label
_atom_site_fract_x
_atom_site_fract_y
_atom_site_fract_z
Si Si1 0.632908 0.180055 0.861257
Si Si2 0.626679 0.390039 0.219632
Si Si3 0.989639 0.497789 0.836566
Si Si4 0.512979 0.819322 0.936048
Si Si5 0.945372 0.409474 0.455833
Si Si6 0.625695 0.990869 0.614140
Si Si7 0.627543 0.928567 0.008194
Si Si8 0.123536 0.681235 0.379469
O O1 0.750000 0.150737 0.884721
O O2 0.647862 0.250000 0.854646
O O3 0.590764 0.159118 0.742239
O O4 0.554498 0.162353 0.957501
O O5 0.750000 0.382431 0.181905
O O6 0.581098 0.451819 0.174035
O O7 0.557148 0.334931 0.171209
O O8 0.621201 0.388676 0.350417
O O9 0.048476 0.439536 0.887064
O O10 0.934175 0.482036 0.720863
O O11 0.896706 0.520644 0.918406
O O12 0.547916 0.750000 0.932463
O O13 0.614485 0.863504 0.950449
O O14 0.881226 0.462838 0.514815
O O15 0.952871 0.353785 0.536853
O O16 0.065915 0.429888 0.421323
O O17 0.750000 0.975946 0.640228
O O18 0.750000 0.934044 0.048419
O O19 0.250000 0.667346 0.400584
O O20 0.098089 0.750000 0.397167
#
# Coordination Sequence:
#
# PCOD8241536 Si02
#       8
#     8   8   8   8   8   8   8   8
#     4   8  15  29  48  70 100 136 173 217 263 307
#     4  10  19  33  52  76 111 144 173 223 276 320
#     4   9  20  35  55  81 104 138 184 224 274 325
#     4  10  21  34  51  78 110 144 183 217 258 320
#     4  10  21  34  53  81 110 140 184 224 272 326
#     4  10  20  36  57  79 107 143 183 229 275 324
#     4  10  20  36  55  78 111 143 178 224 272 328
#     4   9  17  30  50  75 104 138 175 221 273 319
#
# _framework density 18.811088999999999
#
# number of rings (size 3 to 8) (size 9 to 14) (size 15 to 20)
#    0.000    2.500    0.000    3.000    1.750    1.500 
#    0.000    1.875    0.000    0.375    0.000    0.000 
#    0.000    0.000    0.000    0.000    0.000    0.000 
#
# Total GULP energy -793346.860347 kJ/mol
# GULP energy per Si atom -12396.044693 kJ/mol
# Density = 1.876827 g / cm^3
# Si number density = 18.811089 Si / 1000 Ang^3
#
#
#
# Elastic Constant Matrix: (Units=GPa)
#
#
# Indices 1 2 3 4 5 6 
#
# 1 96.7878 29.5035 33.5078 0.0000 0.0000 0.0000
# 2 29.5035 75.5485 28.5252 0.0000 0.0000 0.0000
# 3 33.5078 28.5252 112.2485 0.0000 0.0000 0.0000
# 4 0.0000 0.0000 0.0000 29.7846 0.0000 0.0000
# 5 0.0000 0.0000 0.0000 0.0000 29.9698 0.0000
# 6 0.0000 0.0000 0.0000 0.0000 0.0000 15.0830
#
#
#
# Elastic Compliance Matrix: (Units=1/GPa)
#
#
# Indices 1 2 3 4 5 6 
#
# 1 0.012448 -0.003825 -0.002744 0.000000 0.000000 0.000000
# 2 -0.003825 0.015817 -0.002878 0.000000 0.000000 0.000000
# 3 -0.002744 -0.002878 0.010459 0.000000 0.000000 0.000000
# 4 0.000000 0.000000 0.000000 0.033574 0.000000 0.000000
# 5 0.000000 0.000000 0.000000 0.000000 0.033367 0.000000
# 6 0.000000 0.000000 0.000000 0.000000 0.000000 0.066300
#
#
# Mechanical properties :
#
#
# Convention : Reuss Voigt Hill
#
# Bulk Modulus (GPa) = 50.42691 51.96199 51.19445
# Shear Modulus (GPa) = 25.32051 27.83736 26.57893
#
# Velocity S-wave (km/s) = 3.67282 3.85104 3.76299
# Velocity P-wave (km/s) = 6.69712 6.88891 6.79369
#
# Compressibility (1/GPa) = 0.01983068
#
# Stress axis : x y z
#
# Youngs Moduli (GPa) = 80.33550 63.22365 95.61023
#
# Poissons Ratio (x) = 0.24184 0.26233
# Poissons Ratio (y) = 0.30730 0.27513
# Poissons Ratio (z) = 0.22042 0.18193
#
# Static dielectric constant tensor:
#      x y z
#    x 2.893970 0.000000 0.000000 
#    y 0.000000 3.324980 0.000000 
#    z 0.000000 0.000000 3.703900 
# 
# 
# High freq. dielectric constant tensor:
#      x y z
#    x 1.706680 0.000000 0.000000 
#    y 0.000000 1.719040 0.000000 
#    z 0.000000 0.000000 1.742120 
# 
# From -- ./inp_files/16234.got.cif
#   From: 2010.03.12/outbox.cif.g09.slc.cpg/sg59_9_cif.got.tgz:16234.got - 2010.04.16 16:29:54.
