data_PCOD8241826
_publ_section_title
;
Structure prediction by ZEFSAII (Michael W. Deem and Ramdas Pophale) SiO2 
 PCOD8241826
Probable space group: P M M N
;
_chemical_formula_sum "Si O2"
_cell_formula_units_Z 40
_cell_length_a 14.302898
_cell_length_b 9.202832
_cell_length_c 17.195392
_cell_angle_alpha 90.000000
_cell_angle_beta 90.000000
_cell_angle_gamma 90.000000
_cell_volume 2263.380741
_symmetry_space_group_name_H-M "P M M N"
_symmetry_group_IT_number 59
_space_group.IT_coordinate_system_code '2'
_symmetry_cell_setting 'orthorhombic'
loop_
_space_group_symop_operation_xyz
x,y,z
1/2-x,1/2-y,z
1/2+x,-y,-z
-x,1/2+y,-z
-x,-y,-z
1/2+x,1/2+y,-z
1/2-x,y,z
x,1/2-y,z
loop_
_atom_site_type_symbol
_atom_site_label
_atom_site_fract_x
_atom_site_fract_y
_atom_site_fract_z
Si Si1 0.069305 0.080132 0.784992
Si Si2 0.250000 0.576641 0.842598
Si Si3 0.643355 0.579349 0.518396
Si Si4 0.552018 0.419866 0.931627
Si Si5 0.750000 0.421268 0.981007
Si Si6 0.997850 0.919269 0.384775
O O1 0.096745 0.250000 0.787590
O O2 0.991247 0.040225 0.848686
O O3 0.026607 0.035386 0.702534
O O4 0.160072 0.983969 0.798657
O O5 0.250000 0.750000 0.838434
O O6 0.250000 0.516206 0.931075
O O7 0.750000 0.523059 0.512557
O O8 0.640763 0.750000 0.533267
O O9 0.590272 0.537385 0.438713
O O10 0.591453 0.503458 0.590464
O O11 0.544505 0.250000 0.949129
O O12 0.659482 0.473907 0.933123
O O13 0.500000 0.500000 0.000000
O O14 0.750000 0.250000 0.988856
O O15 0.020252 0.750000 0.391697
#
# Coordination Sequence:
#
# PCOD8241826 Si02
#       6
#     8   4   8   8   4   8
#     4  10  21  35  54  80 107 137 173 217 265 310
#     4  11  21  33  53  79 106 139 174 216 265 307
#     4   9  18  34  56  77 103 140 173 209 262 316
#     4  10  19  34  53  74 102 137 174 213 258 306
#     4   9  18  33  51  71 100 137 174 212 257 305
#     4   9  19  35  54  79 107 136 172 216 261 309
#
# _framework density 17.672678000000001
#
# number of rings (size 3 to 8) (size 9 to 14) (size 15 to 20)
#    0.000    2.400    2.000    0.300    1.400    1.200 
#    1.800    0.500    0.000    0.000    0.000    0.000 
#    0.000    0.000    0.000    0.000    0.000    0.000 
#
# Total GULP energy -496029.776560 kJ/mol
# GULP energy per Si atom -12400.744414 kJ/mol
# Density = 1.763245 g / cm^3
# Si number density = 17.672678 Si / 1000 Ang^3
#
#
#
# Elastic Constant Matrix: (Units=GPa)
#
#
# Indices 1 2 3 4 5 6 
#
# 1 174.3182 48.0651 84.9699 0.0000 0.0000 0.0000
# 2 48.0651 39.2466 43.5987 0.0000 0.0000 0.0000
# 3 84.9699 43.5987 150.1983 0.0000 0.0000 0.0000
# 4 0.0000 0.0000 0.0000 25.6985 0.0000 0.0000
# 5 0.0000 0.0000 0.0000 0.0000 20.1801 0.0000
# 6 0.0000 0.0000 0.0000 0.0000 0.0000 26.4854
#
#
#
# Elastic Compliance Matrix: (Units=1/GPa)
#
#
# Indices 1 2 3 4 5 6 
#
# 1 0.009465 -0.008329 -0.002937 0.000000 0.000000 0.000000
# 2 -0.008329 0.044936 -0.008332 0.000000 0.000000 0.000000
# 3 -0.002937 -0.008332 0.010738 0.000000 0.000000 0.000000
# 4 0.000000 0.000000 0.000000 0.038913 0.000000 0.000000
# 5 0.000000 0.000000 0.000000 0.000000 0.049554 0.000000
# 6 0.000000 0.000000 0.000000 0.000000 0.000000 0.037757
#
#
# Mechanical properties :
#
#
# Convention : Reuss Voigt Hill
#
# Bulk Modulus (GPa) = 38.54533 79.67005 59.10769
# Shear Modulus (GPa) = 20.90257 26.94810 23.92534
#
# Velocity S-wave (km/s) = 3.44286 3.90916 3.68340
# Velocity P-wave (km/s) = 6.13697 8.09655 7.18389
#
# Compressibility (1/GPa) = 0.02594348
#
# Stress axis : x y z
#
# Youngs Moduli (GPa) = 105.65626 22.25366 93.12966
#
# Poissons Ratio (x) = 0.18535 0.27349
# Poissons Ratio (y) = 0.88002 0.77595
# Poissons Ratio (z) = 0.31027 0.18542
#
# Static dielectric constant tensor:
#      x y z
#    x 4.330470 0.000000 0.000000 
#    y 0.000000 3.152960 0.000000 
#    z 0.000000 0.000000 3.370990 
# 
# 
# High freq. dielectric constant tensor:
#      x y z
#    x 1.692620 0.000000 0.000000 
#    y 0.000000 1.669050 0.000000 
#    z 0.000000 0.000000 1.682480 
# 
# From -- ./inp_files/19897.got.cif
#   From: 2010.03.12/outbox.cif.g09.slc.cpg/sg59_10_cif.got.tgz:19897.got - 2010.04.16 16:29:54.
