data_PCOD8241908
_publ_section_title
;
Structure prediction by ZEFSAII (Michael W. Deem and Ramdas Pophale) SiO2 
 PCOD8241908
Probable space group: P M M N
;
_chemical_formula_sum "Si O2"
_cell_formula_units_Z 64
_cell_length_a 9.353663
_cell_length_b 28.702253
_cell_length_c 12.621805
_cell_angle_alpha 90.000000
_cell_angle_beta 90.000000
_cell_angle_gamma 90.000000
_cell_volume 3388.591159
_symmetry_space_group_name_H-M "P M M N"
_symmetry_group_IT_number 59
_space_group.IT_coordinate_system_code '2'
_symmetry_cell_setting 'orthorhombic'
loop_
_space_group_symop_operation_xyz
x,y,z
1/2-x,1/2-y,z
1/2+x,-y,-z
-x,1/2+y,-z
-x,-y,-z
1/2+x,1/2+y,-z
1/2-x,y,z
x,1/2-y,z
loop_
_atom_site_type_symbol
_atom_site_label
_atom_site_fract_x
_atom_site_fract_y
_atom_site_fract_z
Si Si1 0.413525 0.302362 0.529392
Si Si2 0.418398 0.041579 0.211088
Si Si3 0.915823 0.605017 0.979282
Si Si4 0.913614 0.697466 0.870931
Si Si5 0.089191 0.392738 0.638769
Si Si6 0.090968 0.694794 0.670600
Si Si7 0.585576 0.958397 0.552289
Si Si8 0.919198 0.063623 0.824996
O O1 0.250000 0.303341 0.489721
O O2 0.457422 0.250000 0.564729
O O3 0.434510 0.336981 0.629024
O O4 0.509991 0.321745 0.434203
O O5 0.250000 0.045651 0.214591
O O6 0.476055 0.078731 0.125492
O O7 0.477300 0.052198 0.329754
O O8 0.466323 0.990213 0.173693
O O9 0.750000 0.592204 0.999776
O O10 0.935035 0.660870 0.966499
O O11 0.009027 0.589975 0.078147
O O12 0.750000 0.697088 0.832082
O O13 0.957605 0.750000 0.907400
O O14 0.007324 0.678079 0.774337
O O15 0.250000 0.403512 0.680863
O O16 0.069434 0.413050 0.520570
O O17 0.972134 0.413681 0.716180
O O18 0.250000 0.673269 0.671464
O O19 0.096131 0.750000 0.671739
O O20 0.750000 0.974508 0.561989
O O21 0.500000 0.000000 0.500000
O O22 0.750000 0.069695 0.832067
#
# Coordination Sequence:
#
# PCOD8241908 Si02
#       8
#     8   8   8   8   8   8   8   8
#     4   9  18  33  53  78 107 141 183 226 265 312
#     4   9  19  35  56  81 110 142 174 219 273 320
#     4  10  21  37  59  81 106 140 183 227 270 320
#     4   9  18  33  54  79 106 139 178 220 266 317
#     4  10  21  35  57  82 108 144 183 222 267 322
#     4   9  17  29  47  73 107 143 174 212 264 318
#     4  10  19  34  55  81 112 142 175 213 264 324
#     4  11  22  38  57  77 108 143 181 227 273 322
#
# _framework density 18.886906
#
# number of rings (size 3 to 8) (size 9 to 14) (size 15 to 20)
#    0.000    2.375    1.250    1.125    1.750    2.500 
#    0.000    1.875    0.000    3.750    0.000    0.000 
#    0.000    0.000    0.000    0.000    0.000    0.000 
#
# Total GULP energy -793442.868984 kJ/mol
# GULP energy per Si atom -12397.544828 kJ/mol
# Density = 1.884392 g / cm^3
# Si number density = 18.886906 Si / 1000 Ang^3
#
#
#
# Elastic Constant Matrix: (Units=GPa)
#
#
# Indices 1 2 3 4 5 6 
#
# 1 72.7404 35.6629 39.3053 0.0000 0.0000 0.0000
# 2 35.6629 100.9244 41.1642 0.0000 0.0000 0.0000
# 3 39.3053 41.1642 88.8053 0.0000 0.0000 0.0000
# 4 0.0000 0.0000 0.0000 20.7276 0.0000 0.0000
# 5 0.0000 0.0000 0.0000 0.0000 31.1582 0.0000
# 6 0.0000 0.0000 0.0000 0.0000 0.0000 21.5713
#
#
#
# Elastic Compliance Matrix: (Units=1/GPa)
#
#
# Indices 1 2 3 4 5 6 
#
# 1 0.019370 -0.004128 -0.006660 0.000000 0.000000 0.000000
# 2 -0.004128 0.013098 -0.004244 0.000000 0.000000 0.000000
# 3 -0.006660 -0.004244 0.016175 0.000000 0.000000 0.000000
# 4 0.000000 0.000000 0.000000 0.048245 0.000000 0.000000
# 5 0.000000 0.000000 0.000000 0.000000 0.032094 0.000000
# 6 0.000000 0.000000 0.000000 0.000000 0.000000 0.046358
#
#
# Mechanical properties :
#
#
# Convention : Reuss Voigt Hill
#
# Bulk Modulus (GPa) = 53.82303 54.97055 54.39679
# Shear Modulus (GPa) = 23.62963 24.44725 24.03844
#
# Velocity S-wave (km/s) = 3.54094 3.60168 3.57144
# Velocity P-wave (km/s) = 6.72883 6.81648 6.77280
#
# Compressibility (1/GPa) = 0.01857941
#
# Stress axis : x y z
#
# Youngs Moduli (GPa) = 51.62597 76.34541 61.82193
#
# Poissons Ratio (x) = 0.31519 0.41171
# Poissons Ratio (y) = 0.21313 0.26239
# Poissons Ratio (z) = 0.34381 0.32403
#
# Static dielectric constant tensor:
#      x y z
#    x 3.449150 0.000000 0.000000 
#    y 0.000000 3.623830 0.000000 
#    z 0.000000 0.000000 3.470240 
# 
# 
# High freq. dielectric constant tensor:
#      x y z
#    x 1.719040 0.000000 0.000000 
#    y 0.000000 1.737530 0.000000 
#    z 0.000000 0.000000 1.719020 
# 
# From -- ./inp_files/14958.got.cif
#   From: 2010.03.12/outbox.cif.g09.slc.cpg/sg59_8_cif.got.tgz:14958.got - 2010.04.16 16:29:54.
