data_PCOD8241029
_publ_section_title
;
Structure prediction by ZEFSAII (Michael W. Deem and Ramdas Pophale) SiO2 
 PCOD8241029
Probable space group: P M M N
;
_chemical_formula_sum "Si O2"
_cell_formula_units_Z 56
_cell_length_a 19.492153
_cell_length_b 8.987630
_cell_length_c 17.470382
_cell_angle_alpha 90.000000
_cell_angle_beta 90.000000
_cell_angle_gamma 90.000000
_cell_volume 3060.605808
_symmetry_space_group_name_H-M "P M M N"
_symmetry_group_IT_number 59
_space_group.IT_coordinate_system_code '2'
_symmetry_cell_setting 'orthorhombic'
loop_
_space_group_symop_operation_xyz
x,y,z
1/2-x,1/2-y,z
1/2+x,-y,-z
-x,1/2+y,-z
-x,-y,-z
1/2+x,1/2+y,-z
1/2-x,y,z
x,1/2-y,z
loop_
_atom_site_type_symbol
_atom_site_label
_atom_site_fract_x
_atom_site_fract_y
_atom_site_fract_z
Si Si1 0.434261 0.922462 0.694685
Si Si2 0.056416 0.423083 0.105708
Si Si3 0.925251 0.073896 0.742214
Si Si4 0.671910 0.920613 0.199628
Si Si5 0.326813 0.926614 0.392664
Si Si6 0.070350 0.577601 0.520077
Si Si7 0.921052 0.919402 0.063166
O O1 0.450334 0.750000 0.709750
O O2 0.410588 0.951679 0.607886
O O3 0.501803 0.014801 0.713843
O O4 0.371266 0.973233 0.746168
O O5 0.058568 0.250000 0.125469
O O6 0.093936 0.510305 0.174191
O O7 0.977399 0.473029 0.100216
O O8 0.094133 0.460820 0.025386
O O9 0.930212 0.250000 0.746923
O O10 0.866254 0.020906 0.683830
O O11 0.750000 0.973168 0.204196
O O12 0.662893 0.750000 0.226331
O O13 0.648292 0.938193 0.111394
O O14 0.250000 0.995182 0.393080
O O15 0.322200 0.750000 0.394841
O O16 0.368219 0.985782 0.466992
O O17 0.059547 0.750000 0.501882
O O18 0.000000 0.500000 0.500000
O O19 0.949240 0.750000 0.067399
#
# Coordination Sequence:
#
# PCOD8241029 Si02
#       7
#     8   8   8   8   8   8   8
#     4  11  22  34  54  84 112 142 182 230 276 325
#     4  10  19  31  52  81 109 137 177 228 270 317
#     4  11  20  33  56  81 108 144 183 228 273 323
#     4  10  21  37  56  78 109 149 188 225 272 331
#     4   9  19  36  57  80 107 144 185 222 268 326
#     4  10  20  35  57  83 110 142 181 226 270 323
#     4   9  18  33  52  76 106 142 180 219 269 325
#
# _framework density 18.297031
#
# number of rings (size 3 to 8) (size 9 to 14) (size 15 to 20)
#    0.000    2.000    2.857    1.286    0.000    2.000 
#    0.000    2.143    0.000    4.714    0.000    0.000 
#    0.000    0.000    0.000    0.000    0.000    0.000 
#
# Total GULP energy -694417.642416 kJ/mol
# GULP energy per Si atom -12400.315043 kJ/mol
# Density = 1.825539 g / cm^3
# Si number density = 18.297031 Si / 1000 Ang^3
#
#
#
# Elastic Constant Matrix: (Units=GPa)
#
#
# Indices 1 2 3 4 5 6 
#
# 1 127.0633 30.6030 70.2253 0.0000 0.0000 0.0000
# 2 30.6030 61.4091 45.3653 0.0000 0.0000 0.0000
# 3 70.2253 45.3653 149.0398 0.0000 0.0000 0.0000
# 4 0.0000 0.0000 0.0000 27.1741 0.0000 0.0000
# 5 0.0000 0.0000 0.0000 0.0000 29.1961 0.0000
# 6 0.0000 0.0000 0.0000 0.0000 0.0000 17.8547
#
#
#
# Elastic Compliance Matrix: (Units=1/GPa)
#
#
# Indices 1 2 3 4 5 6 
#
# 1 0.010848 -0.002103 -0.004471 0.000000 0.000000 0.000000
# 2 -0.002103 0.021416 -0.005528 0.000000 0.000000 0.000000
# 3 -0.004471 -0.005528 0.010499 0.000000 0.000000 0.000000
# 4 0.000000 0.000000 0.000000 0.036800 0.000000 0.000000
# 5 0.000000 0.000000 0.000000 0.000000 0.034251 0.000000
# 6 0.000000 0.000000 0.000000 0.000000 0.000000 0.056008
#
#
# Mechanical properties :
#
#
# Convention : Reuss Voigt Hill
#
# Bulk Modulus (GPa) = 53.88296 69.98881 61.93588
# Shear Modulus (GPa) = 24.97368 27.59956 26.28662
#
# Velocity S-wave (km/s) = 3.69847 3.88805 3.79444
# Velocity P-wave (km/s) = 6.91022 7.64790 7.28840
#
# Compressibility (1/GPa) = 0.01855874
#
# Stress axis : x y z
#
# Youngs Moduli (GPa) = 92.18540 46.69457 95.24777
#
# Poissons Ratio (x) = 0.09819 0.42587
# Poissons Ratio (y) = 0.19385 0.52651
# Poissons Ratio (z) = 0.41218 0.25812
#
# Static dielectric constant tensor:
#      x y z
#    x 3.340390 0.000000 0.000000 
#    y 0.000000 3.308390 0.000000 
#    z 0.000000 0.000000 3.785390 
# 
# 
# High freq. dielectric constant tensor:
#      x y z
#    x 1.686140 0.000000 0.000000 
#    y 0.000000 1.699880 0.000000 
#    z 0.000000 0.000000 1.729030 
# 
# From -- ./inp_files/28110.got.cif
#   From: 2010.03.12/outbox.cif.g09.slc.cpg/sg59_15_cif.got.tgz:28110.got - 2010.04.16 16:29:54.
