data_PCOD8241827
_publ_section_title
;
Structure prediction by ZEFSAII (Michael W. Deem and Ramdas Pophale) SiO2 
 PCOD8241827
Probable space group: P M M N
;
_chemical_formula_sum "Si O2"
_cell_formula_units_Z 40
_cell_length_a 8.416795
_cell_length_b 25.761390
_cell_length_c 9.682141
_cell_angle_alpha 90.000000
_cell_angle_beta 90.000000
_cell_angle_gamma 90.000000
_cell_volume 2099.362547
_symmetry_space_group_name_H-M "P M M N"
_symmetry_group_IT_number 59
_space_group.IT_coordinate_system_code '2'
_symmetry_cell_setting 'orthorhombic'
loop_
_space_group_symop_operation_xyz
x,y,z
1/2-x,1/2-y,z
1/2+x,-y,-z
-x,1/2+y,-z
-x,-y,-z
1/2+x,1/2+y,-z
1/2-x,y,z
x,1/2-y,z
loop_
_atom_site_type_symbol
_atom_site_label
_atom_site_fract_x
_atom_site_fract_y
_atom_site_fract_z
Si Si1 0.935045 0.972338 0.235215
Si Si2 0.061765 0.308990 0.747906
Si Si3 0.937910 0.606398 0.463649
Si Si4 0.564665 0.915454 0.765779
Si Si5 0.566032 0.113176 0.955285
O O1 0.750000 0.987352 0.239911
O O2 0.993140 0.943530 0.374928
O O3 0.963181 0.933889 0.107001
O O4 0.039030 0.023331 0.215534
O O5 0.250000 0.313326 0.766624
O O6 0.005060 0.250000 0.729342
O O7 0.004592 0.341026 0.612673
O O8 0.980588 0.332478 0.884376
O O9 0.750000 0.605750 0.471445
O O10 0.007683 0.602920 0.618098
O O11 0.750000 0.902789 0.776551
O O12 0.472754 0.882947 0.882403
O O13 0.750000 0.101287 0.931614
#
# Coordination Sequence:
#
# PCOD8241827 Si02
#       5
#     8   8   8   8   8
#     4  10  19  34  53  75 104 139 178 213 252 301
#     4   9  18  37  62  81  98 126 167 214 261 308
#     4   8  17  32  52  78 105 133 168 210 254 306
#     4  11  20  32  50  76 110 142 172 208 254 303
#     4  11  22  35  51  75 106 139 175 212 253 301
#
# _framework density 19.053404
#
# number of rings (size 3 to 8) (size 9 to 14) (size 15 to 20)
#    0.000    2.200    0.000    5.400    0.000    0.400 
#    0.000   10.000    0.000    3.600    0.000    0.000 
#    0.000    0.000    0.000    0.000    0.000    0.000 
#
# Total GULP energy -496044.429772 kJ/mol
# GULP energy per Si atom -12401.110744 kJ/mol
# Density = 1.901004 g / cm^3
# Si number density = 19.053404 Si / 1000 Ang^3
#
#
#
# Elastic Constant Matrix: (Units=GPa)
#
#
# Indices 1 2 3 4 5 6 
#
# 1 44.1704 15.8920 18.6476 0.0000 0.0000 0.0000
# 2 15.8920 94.9695 39.9763 0.0000 0.0000 0.0000
# 3 18.6476 39.9763 138.4209 0.0000 0.0000 0.0000
# 4 0.0000 0.0000 0.0000 12.8471 0.0000 0.0000
# 5 0.0000 0.0000 0.0000 0.0000 19.1533 0.0000
# 6 0.0000 0.0000 0.0000 0.0000 0.0000 23.9360
#
#
#
# Elastic Compliance Matrix: (Units=1/GPa)
#
#
# Indices 1 2 3 4 5 6 
#
# 1 0.024792 -0.003122 -0.002438 0.000000 0.000000 0.000000
# 2 -0.003122 0.012380 -0.003155 0.000000 0.000000 0.000000
# 3 -0.002438 -0.003155 0.008464 0.000000 0.000000 0.000000
# 4 0.000000 0.000000 0.000000 0.077838 0.000000 0.000000
# 5 0.000000 0.000000 0.000000 0.000000 0.052210 0.000000
# 6 0.000000 0.000000 0.000000 0.000000 0.000000 0.041778
#
#
# Mechanical properties :
#
#
# Convention : Reuss Voigt Hill
#
# Bulk Modulus (GPa) = 35.45382 47.39919 41.42650
# Shear Modulus (GPa) = 20.46699 24.72361 22.59530
#
# Velocity S-wave (km/s) = 3.28104 3.60612 3.44742
# Velocity P-wave (km/s) = 5.74471 6.50153 6.13480
#
# Compressibility (1/GPa) = 0.02820571
#
# Stress axis : x y z
#
# Youngs Moduli (GPa) = 40.33503 80.77440 118.14864
#
# Poissons Ratio (x) = 0.25221 0.28807
# Poissons Ratio (y) = 0.12594 0.37273
# Poissons Ratio (z) = 0.09834 0.25483
#
# Static dielectric constant tensor:
#      x y z
#    x 3.244270 0.000000 0.000000 
#    y 0.000000 3.387370 0.000000 
#    z 0.000000 0.000000 3.882040 
# 
# 
# High freq. dielectric constant tensor:
#      x y z
#    x 1.726240 0.000000 0.000000 
#    y 0.000000 1.718930 0.000000 
#    z 0.000000 0.000000 1.749150 
# 
# From -- ./inp_files/5690.got.cif
#   From: 2010.03.12/outbox.cif.g09.slc.cpg/sg59_3_cif.got.tgz:5690.got - 2010.04.16 16:29:54.
