data_PCOD8241176
_publ_section_title
;
Structure prediction by ZEFSAII (Michael W. Deem and Ramdas Pophale) SiO2 
 PCOD8241176
Probable space group: P M M N
;
_chemical_formula_sum "Si O2"
_cell_formula_units_Z 40
_cell_length_a 25.947792
_cell_length_b 8.877227
_cell_length_c 9.769262
_cell_angle_alpha 90.000000
_cell_angle_beta 90.000000
_cell_angle_gamma 90.000000
_cell_volume 2250.295182
_symmetry_space_group_name_H-M "P M M N"
_symmetry_group_IT_number 59
_space_group.IT_coordinate_system_code '2'
_symmetry_cell_setting 'orthorhombic'
loop_
_space_group_symop_operation_xyz
x,y,z
1/2-x,1/2-y,z
1/2+x,-y,-z
-x,1/2+y,-z
-x,-y,-z
1/2+x,1/2+y,-z
1/2-x,y,z
x,1/2-y,z
loop_
_atom_site_type_symbol
_atom_site_label
_atom_site_fract_x
_atom_site_fract_y
_atom_site_fract_z
Si Si1 0.943962 0.073030 0.650804
Si Si2 0.862751 0.922690 0.842519
Si Si3 0.639067 0.069814 0.137304
Si Si4 0.750000 0.077417 0.150600
Si Si5 0.450889 0.927019 0.661790
Si Si6 0.250000 0.418588 0.121727
O O1 0.945762 0.250000 0.669312
O O2 0.937471 0.024734 0.492818
O O3 0.895455 0.010275 0.731239
O O4 0.996791 0.006134 0.711773
O O5 0.880768 0.750000 0.847875
O O6 0.802894 0.936220 0.792437
O O7 0.871457 0.993129 0.991986
O O8 0.639592 0.250000 0.117206
O O9 0.694541 0.012242 0.201424
O O10 0.595259 0.016702 0.241804
O O11 0.750000 0.250000 0.189119
O O12 0.750000 0.051714 0.988116
O O13 0.459262 0.750000 0.674045
O O14 0.250000 0.250000 0.053293
#
# Coordination Sequence:
#
# PCOD8241176 Si02
#       6
#     8   8   8   4   8   4
#     4  10  20  34  51  71  96 128 164 200 241 287
#     4  10  19  32  51  74  99 127 160 197 237 282
#     4   9  17  31  51  74  98 123 156 197 239 284
#     4   8  14  26  47  72  96 122 150 188 239 286
#     4   9  19  35  52  70  95 128 163 199 241 288
#     4   8  16  30  47  68  96 128 158 190 231 280
#
# _framework density 17.775444
#
# number of rings (size 3 to 8) (size 9 to 14) (size 15 to 20)
#    0.000    2.800    0.000    1.200    0.000    3.200 
#    0.000    1.000    0.000    2.400    0.000    4.200 
#    0.000    0.000    0.000    0.000    0.000    0.000 
#
# Total GULP energy -495625.467482 kJ/mol
# GULP energy per Si atom -12390.636687 kJ/mol
# Density = 1.773499 g / cm^3
# Si number density = 17.775444 Si / 1000 Ang^3
#
#
#
# Elastic Constant Matrix: (Units=GPa)
#
#
# Indices 1 2 3 4 5 6 
#
# 1 164.6033 32.9695 67.5642 0.0000 0.0000 0.0000
# 2 32.9695 28.6072 21.4942 0.0000 0.0000 0.0000
# 3 67.5642 21.4942 65.8865 0.0000 0.0000 0.0000
# 4 0.0000 0.0000 0.0000 20.9031 0.0000 0.0000
# 5 0.0000 0.0000 0.0000 0.0000 9.4794 0.0000
# 6 0.0000 0.0000 0.0000 0.0000 0.0000 14.8759
#
#
#
# Elastic Compliance Matrix: (Units=1/GPa)
#
#
# Indices 1 2 3 4 5 6 
#
# 1 0.011137 -0.005636 -0.009582 0.000000 0.000000 0.000000
# 2 -0.005636 0.049159 -0.010258 0.000000 0.000000 0.000000
# 3 -0.009582 -0.010258 0.028350 0.000000 0.000000 0.000000
# 4 0.000000 0.000000 0.000000 0.047840 0.000000 0.000000
# 5 0.000000 0.000000 0.000000 0.000000 0.105491 0.000000
# 6 0.000000 0.000000 0.000000 0.000000 0.000000 0.067223
#
#
# Mechanical properties :
#
#
# Convention : Reuss Voigt Hill
#
# Bulk Modulus (GPa) = 26.52903 55.90586 41.21744
# Shear Modulus (GPa) = 13.41503 18.18965 15.80234
#
# Velocity S-wave (km/s) = 2.75015 3.20238 2.98484
# Velocity P-wave (km/s) = 5.00414 6.72258 5.92598
#
# Compressibility (1/GPa) = 0.03769456
#
# Stress axis : x y z
#
# Youngs Moduli (GPa) = 89.78876 20.34227 35.27310
#
# Poissons Ratio (x) = 0.11465 0.33800
# Poissons Ratio (y) = 0.50604 0.36182
# Poissons Ratio (z) = 0.86038 0.20866
#
# Static dielectric constant tensor:
#      x y z
#    x 3.745940 0.000000 0.000000 
#    y 0.000000 3.298670 0.000000 
#    z 0.000000 0.000000 3.019700 
# 
# 
# High freq. dielectric constant tensor:
#      x y z
#    x 1.710750 0.000000 0.000000 
#    y 0.000000 1.688460 0.000000 
#    z 0.000000 0.000000 1.649530 
# 
# From -- ./inp_files/5900.got.cif
#   From: 2010.03.12/outbox.cif.g09.slc.cpg/sg59_3_cif.got.tgz:5900.got - 2010.04.16 16:29:54.
