data_PCOD8241924
_publ_section_title
;
Structure prediction by ZEFSAII (Michael W. Deem and Ramdas Pophale) SiO2 
 PCOD8241924
Probable space group: P M M N
;
_chemical_formula_sum "Si O2"
_cell_formula_units_Z 64
_cell_length_a 29.364077
_cell_length_b 9.131984
_cell_length_c 12.861573
_cell_angle_alpha 90.000000
_cell_angle_beta 90.000000
_cell_angle_gamma 90.000000
_cell_volume 3448.860142
_symmetry_space_group_name_H-M "P M M N"
_symmetry_group_IT_number 59
_space_group.IT_coordinate_system_code '2'
_symmetry_cell_setting 'orthorhombic'
loop_
_space_group_symop_operation_xyz
x,y,z
1/2-x,1/2-y,z
1/2+x,-y,-z
-x,1/2+y,-z
-x,-y,-z
1/2+x,1/2+y,-z
1/2-x,y,z
x,1/2-y,z
loop_
_atom_site_type_symbol
_atom_site_label
_atom_site_fract_x
_atom_site_fract_y
_atom_site_fract_z
Si Si1 0.137197 0.076931 0.400753
Si Si2 0.127525 0.919483 0.183231
Si Si3 0.972330 0.090357 0.762838
Si Si4 0.537687 0.911680 0.059263
Si Si5 0.138767 0.075712 0.975918
Si Si6 0.303655 0.583100 0.567618
Si Si7 0.535566 0.917137 0.568589
Si Si8 0.303482 0.918003 0.803757
O O1 0.142240 0.250000 0.380059
O O2 0.088053 0.039166 0.451289
O O3 0.143511 0.993438 0.291249
O O4 0.173833 0.024903 0.484542
O O5 0.142955 0.750000 0.184054
O O6 0.072830 0.934952 0.166648
O O7 0.151563 0.001824 0.086521
O O8 0.966362 0.250000 0.706806
O O9 0.019841 0.093530 0.823214
O O10 0.976215 0.954602 0.686571
O O11 0.539530 0.750000 0.009540
O O12 0.588164 0.978335 0.056553
O O13 0.500000 0.000000 0.000000
O O14 0.142857 0.250000 0.986139
O O15 0.172118 0.023061 0.885483
O O16 0.250000 0.567431 0.554224
O O17 0.318894 0.750000 0.545180
O O18 0.317656 0.539327 0.685576
O O19 0.526990 0.750000 0.546455
O O20 0.500000 0.000000 0.500000
O O21 0.250000 0.940158 0.818140
O O22 0.317097 0.750000 0.825912
#
# Coordination Sequence:
#
# PCOD8241924 Si02
#       8
#     8   8   8   8   8   8   8   8
#     4  10  21  36  56  83 113 143 181 230 280 330
#     4  10  19  34  56  78 107 150 190 223 267 327
#     4   9  18  33  51  72 102 141 182 222 263 312
#     4  10  20  33  50  76 109 143 181 223 265 313
#     4  11  22  34  54  84 117 148 183 233 285 332
#     4   9  19  38  63  88 113 142 181 228 277 334
#     4  10  21  35  51  73 104 143 182 223 269 319
#     4   9  20  40  62  82 108 144 185 228 275 333
#
# _framework density 18.556857000000001
#
# number of rings (size 3 to 8) (size 9 to 14) (size 15 to 20)
#    0.000    2.250    1.250    2.250    0.000    5.000 
#    0.000    5.625    0.000    3.750    0.000    0.000 
#    0.000    0.000    0.000    0.000    0.000    0.000 
#
# Total GULP energy -793288.594519 kJ/mol
# GULP energy per Si atom -12395.134289 kJ/mol
# Density = 1.851462 g / cm^3
# Si number density = 18.556857 Si / 1000 Ang^3
#
#
#
# Elastic Constant Matrix: (Units=GPa)
#
#
# Indices 1 2 3 4 5 6 
#
# 1 62.6461 42.9832 51.8442 0.0000 0.0000 0.0000
# 2 42.9832 87.9698 60.0620 0.0000 0.0000 0.0000
# 3 51.8442 60.0620 114.6622 0.0000 0.0000 0.0000
# 4 0.0000 0.0000 0.0000 36.3574 0.0000 0.0000
# 5 0.0000 0.0000 0.0000 0.0000 32.6138 0.0000
# 6 0.0000 0.0000 0.0000 0.0000 0.0000 29.8295
#
#
#
# Elastic Compliance Matrix: (Units=1/GPa)
#
#
# Indices 1 2 3 4 5 6 
#
# 1 0.028758 -0.008054 -0.008784 0.000000 0.000000 0.000000
# 2 -0.008054 0.019952 -0.006810 0.000000 0.000000 0.000000
# 3 -0.008784 -0.006810 0.016260 0.000000 0.000000 0.000000
# 4 0.000000 0.000000 0.000000 0.027505 0.000000 0.000000
# 5 0.000000 0.000000 0.000000 0.000000 0.030662 0.000000
# 6 0.000000 0.000000 0.000000 0.000000 0.000000 0.033524
#
#
# Mechanical properties :
#
#
# Convention : Reuss Voigt Hill
#
# Bulk Modulus (GPa) = 56.57818 63.89523 60.23670
# Shear Modulus (GPa) = 23.82669 27.11938 25.47304
#
# Velocity S-wave (km/s) = 3.58716 3.82700 3.70902
# Velocity P-wave (km/s) = 6.90740 7.35084 7.13257
#
# Compressibility (1/GPa) = 0.01767466
#
# Stress axis : x y z
#
# Youngs Moduli (GPa) = 34.77241 50.11945 61.50092
#
# Poissons Ratio (x) = 0.40368 0.54022
# Poissons Ratio (y) = 0.28007 0.41880
# Poissons Ratio (z) = 0.30544 0.34129
#
# Static dielectric constant tensor:
#      x y z
#    x 3.305250 0.000000 0.000000 
#    y 0.000000 3.482770 0.000000 
#    z 0.000000 0.000000 2.994440 
# 
# 
# High freq. dielectric constant tensor:
#      x y z
#    x 1.705490 0.000000 0.000000 
#    y 0.000000 1.728000 0.000000 
#    z 0.000000 0.000000 1.717960 
# 
# From -- ./inp_files/19390.got.cif
#   From: 2010.03.12/outbox.cif.g09.slc.cpg/sg59_10_cif.got.tgz:19390.got - 2010.04.16 16:29:54.
