data_PCOD8241285
_publ_section_title
;
Structure prediction by ZEFSAII (Michael W. Deem and Ramdas Pophale) SiO2 
 PCOD8241285
Probable space group: P M M N
;
_chemical_formula_sum "Si O2"
_cell_formula_units_Z 64
_cell_length_a 17.486477
_cell_length_b 9.116931
_cell_length_c 22.822314
_cell_angle_alpha 90.000000
_cell_angle_beta 90.000000
_cell_angle_gamma 90.000000
_cell_volume 3638.401862
_symmetry_space_group_name_H-M "P M M N"
_symmetry_group_IT_number 59
_space_group.IT_coordinate_system_code '2'
_symmetry_cell_setting 'orthorhombic'
loop_
_space_group_symop_operation_xyz
x,y,z
1/2-x,1/2-y,z
1/2+x,-y,-z
-x,1/2+y,-z
-x,-y,-z
1/2+x,1/2+y,-z
1/2-x,y,z
x,1/2-y,z
loop_
_atom_site_type_symbol
_atom_site_label
_atom_site_fract_x
_atom_site_fract_y
_atom_site_fract_z
Si Si1 0.025061 0.423338 0.746078
Si Si2 0.118588 0.419360 0.578531
Si Si3 0.663278 0.419405 0.306393
Si Si4 0.337028 0.922087 0.066504
Si Si5 0.663506 0.920759 0.548125
Si Si6 0.437388 0.582981 0.964912
Si Si7 0.468887 0.076989 0.140370
Si Si8 0.454193 0.584909 0.376979
O O1 0.035575 0.250000 0.754687
O O2 0.108864 0.495137 0.739184
O O3 0.978174 0.492653 0.799099
O O4 0.975786 0.461185 0.688737
O O5 0.144267 0.250000 0.586825
O O6 0.158722 0.513703 0.628704
O O7 0.144155 0.485562 0.516051
O O8 0.027389 0.433513 0.581416
O O9 0.750000 0.434823 0.283359
O O10 0.637880 0.250000 0.308886
O O11 0.250000 0.973823 0.077247
O O12 0.346551 0.750000 0.081431
O O13 0.393654 0.014977 0.107653
O O14 0.355948 0.950297 0.996568
O O15 0.750000 0.958607 0.564441
O O16 0.646956 0.750000 0.545282
O O17 0.612984 0.983796 0.600083
O O18 0.458906 0.750000 0.973728
O O19 0.451679 0.544978 0.896279
O O20 0.500000 0.500000 0.000000
O O21 0.457241 0.250000 0.151346
O O22 0.423569 0.750000 0.378302
#
# Coordination Sequence:
#
# PCOD8241285 Si02
#       8
#     8   8   8   8   8   8   8   8
#     4  10  21  37  55  73  97 134 177 212 248 300
#     4   9  18  33  52  73  98 128 161 197 245 309
#     4  10  20  33  51  77 104 128 160 205 254 300
#     4   9  17  31  52  77 105 137 171 206 247 297
#     4  10  20  32  48  72 100 129 160 198 250 308
#     4   8  15  28  47  72 100 129 160 195 240 292
#     4  10  19  32  52  77 104 134 171 214 256 297
#     4   9  19  34  51  71  93 124 166 208 249 293
#
# _framework density 17.590140000000002
#
# number of rings (size 3 to 8) (size 9 to 14) (size 15 to 20)
#    0.000    2.625    0.000    2.625    0.000    5.500 
#    0.000    1.250    0.000    3.000    0.000    0.000 
#    0.000    0.000    0.000    0.000    0.000    0.000 
#
# Total GULP energy -793140.642387 kJ/mol
# GULP energy per Si atom -12392.822537 kJ/mol
# Density = 1.755010 g / cm^3
# Si number density = 17.590140 Si / 1000 Ang^3
#
#
#
# Elastic Constant Matrix: (Units=GPa)
#
#
# Indices 1 2 3 4 5 6 
#
# 1 91.2052 49.2779 53.9124 0.0000 0.0000 0.0000
# 2 49.2779 74.1878 46.3299 0.0000 0.0000 0.0000
# 3 53.9124 46.3299 88.2372 0.0000 0.0000 0.0000
# 4 0.0000 0.0000 0.0000 25.1491 0.0000 0.0000
# 5 0.0000 0.0000 0.0000 0.0000 20.9171 0.0000
# 6 0.0000 0.0000 0.0000 0.0000 0.0000 28.3914
#
#
#
# Elastic Compliance Matrix: (Units=1/GPa)
#
#
# Indices 1 2 3 4 5 6 
#
# 1 0.020224 -0.008506 -0.007891 0.000000 0.000000 0.000000
# 2 -0.008506 0.023633 -0.007212 0.000000 0.000000 0.000000
# 3 -0.007891 -0.007212 0.019941 0.000000 0.000000 0.000000
# 4 0.000000 0.000000 0.000000 0.039763 0.000000 0.000000
# 5 0.000000 0.000000 0.000000 0.000000 0.047808 0.000000
# 6 0.000000 0.000000 0.000000 0.000000 0.000000 0.035222
#
#
# Mechanical properties :
#
#
# Convention : Reuss Voigt Hill
#
# Bulk Modulus (GPa) = 60.30872 61.40784 60.85828
# Shear Modulus (GPa) = 20.89127 21.83218 21.36172
#
# Velocity S-wave (km/s) = 3.45000 3.52683 3.48863
# Velocity P-wave (km/s) = 7.08731 7.18129 7.13445
#
# Compressibility (1/GPa) = 0.01658135
#
# Stress axis : x y z
#
# Youngs Moduli (GPa) = 49.44533 42.31409 50.14822
#
# Poissons Ratio (x) = 0.35992 0.39571
# Poissons Ratio (y) = 0.42058 0.36165
# Poissons Ratio (z) = 0.39017 0.30515
#
# Static dielectric constant tensor:
#      x y z
#    x 3.469010 0.000000 0.000000 
#    y 0.000000 3.264410 0.000000 
#    z 0.000000 0.000000 3.382240 
# 
# 
# High freq. dielectric constant tensor:
#      x y z
#    x 1.670000 0.000000 0.000000 
#    y 0.000000 1.684140 0.000000 
#    z 0.000000 0.000000 1.671230 
# 
# From -- ./inp_files/30710.got.cif
#   From: 2010.03.12/outbox.cif.g09.slc.cpg/sg59_16_cif.got.tgz:30710.got - 2010.04.16 16:29:54.
