data_PCOD8241091
_publ_section_title
;
Structure prediction by ZEFSAII (Michael W. Deem and Ramdas Pophale) SiO2 
 PCOD8241091
Probable space group: P M M N
;
_chemical_formula_sum "Si O2"
_cell_formula_units_Z 64
_cell_length_a 30.909465
_cell_length_b 8.368729
_cell_length_c 14.461060
_cell_angle_alpha 90.000000
_cell_angle_beta 90.000000
_cell_angle_gamma 90.000000
_cell_volume 3740.684850
_symmetry_space_group_name_H-M "P M M N"
_symmetry_group_IT_number 59
_space_group.IT_coordinate_system_code '2'
_symmetry_cell_setting 'orthorhombic'
loop_
_space_group_symop_operation_xyz
x,y,z
1/2-x,1/2-y,z
1/2+x,-y,-z
-x,1/2+y,-z
-x,-y,-z
1/2+x,1/2+y,-z
1/2-x,y,z
x,1/2-y,z
loop_
_atom_site_type_symbol
_atom_site_label
_atom_site_fract_x
_atom_site_fract_y
_atom_site_fract_z
Si Si1 0.617255 0.567211 0.574742
Si Si2 0.457466 0.058767 0.553459
Si Si3 0.702611 0.940653 0.652471
Si Si4 0.612171 0.562871 0.927194
Si Si5 0.074406 0.930818 0.255071
Si Si6 0.017438 0.564921 0.741817
Si Si7 0.542425 0.435814 0.052396
Si Si8 0.797223 0.560779 0.861190
O O1 0.621415 0.750000 0.546890
O O2 0.584803 0.488460 0.500477
O O3 0.665874 0.491491 0.581775
O O4 0.598084 0.553425 0.677479
O O5 0.457937 0.250000 0.556312
O O6 0.500000 0.000000 0.500000
O O7 0.452547 0.983767 0.655401
O O8 0.750000 0.998014 0.618366
O O9 0.700041 0.750000 0.654158
O O10 0.694110 0.003712 0.757060
O O11 0.608996 0.750000 0.906686
O O12 0.586578 0.467588 0.849430
O O13 0.662868 0.506999 0.927575
O O14 0.587070 0.521145 0.021342
O O15 0.086846 0.750000 0.281365
O O16 0.023495 0.950948 0.266092
O O17 0.003556 0.750000 0.735259
O O18 0.041112 0.530218 0.838344
O O19 0.545525 0.250000 0.030083
O O20 0.500000 0.500000 0.000000
O O21 0.750000 0.495964 0.896417
O O22 0.794910 0.750000 0.858412
#
# Coordination Sequence:
#
# PCOD8241091 Si02
#       8
#     8   8   8   8   8   8   8   8
#     4  10  19  32  49  71  99 131 166 201 241 288
#     4  11  22  33  50  73 100 131 166 205 244 290
#     4   8  13  24  45  71  97 126 161 198 236 284
#     4  11  20  32  51  73 101 134 167 206 247 291
#     4  12  22  30  47  71 100 134 168 203 240 291
#     4  11  23  38  52  67  95 131 169 210 247 286
#     4  11  23  36  52  72  97 130 168 207 248 297
#     4   8  14  25  45  73 100 129 164 198 238 292
#
# _framework density 17.109166999999999
#
# number of rings (size 3 to 8) (size 9 to 14) (size 15 to 20)
#    0.000    1.750    3.750    3.375    0.000    2.000 
#    0.000    0.000    0.000    2.625    0.000    0.875 
#    0.000    5.000    0.000    0.000    0.000    0.000 
#
# Total GULP energy -793101.362520 kJ/mol
# GULP energy per Si atom -12392.208789 kJ/mol
# Density = 1.707023 g / cm^3
# Si number density = 17.109167 Si / 1000 Ang^3
#
#
#
# Elastic Constant Matrix: (Units=GPa)
#
#
# Indices 1 2 3 4 5 6 
#
# 1 160.3644 19.3368 61.9576 0.0000 0.0000 0.0000
# 2 19.3368 39.0469 17.0414 0.0000 0.0000 0.0000
# 3 61.9576 17.0414 97.0128 0.0000 0.0000 0.0000
# 4 0.0000 0.0000 0.0000 21.2348 0.0000 0.0000
# 5 0.0000 0.0000 0.0000 0.0000 29.5119 0.0000
# 6 0.0000 0.0000 0.0000 0.0000 0.0000 14.1347
#
#
#
# Elastic Compliance Matrix: (Units=1/GPa)
#
#
# Indices 1 2 3 4 5 6 
#
# 1 0.008417 -0.001973 -0.005029 0.000000 0.000000 0.000000
# 2 -0.001973 0.028199 -0.003693 0.000000 0.000000 0.000000
# 3 -0.005029 -0.003693 0.014168 0.000000 0.000000 0.000000
# 4 0.000000 0.000000 0.000000 0.047093 0.000000 0.000000
# 5 0.000000 0.000000 0.000000 0.000000 0.033885 0.000000
# 6 0.000000 0.000000 0.000000 0.000000 0.000000 0.070748
#
#
# Mechanical properties :
#
#
# Convention : Reuss Voigt Hill
#
# Bulk Modulus (GPa) = 34.02096 54.78843 44.40469
# Shear Modulus (GPa) = 21.39516 26.18215 23.78866
#
# Velocity S-wave (km/s) = 3.54009 3.91615 3.73286
# Velocity P-wave (km/s) = 6.05289 7.24849 6.67750
#
# Compressibility (1/GPa) = 0.02939364
#
# Stress axis : x y z
#
# Youngs Moduli (GPa) = 118.81298 35.46183 70.58046
#
# Poissons Ratio (x) = 0.06998 0.35492
# Poissons Ratio (y) = 0.23447 0.26067
# Poissons Ratio (z) = 0.59747 0.13097
#
# Static dielectric constant tensor:
#      x y z
#    x 3.723440 0.000000 0.000000 
#    y 0.000000 3.012020 0.000000 
#    z 0.000000 0.000000 3.143970 
# 
# 
# High freq. dielectric constant tensor:
#      x y z
#    x 1.661030 0.000000 0.000000 
#    y 0.000000 1.646700 0.000000 
#    z 0.000000 0.000000 1.628620 
# 
# From -- ./inp_files/25069.got.cif
#   From: 2010.03.12/outbox.cif.g09.slc.cpg/sg59_13_cif.got.tgz:25069.got - 2010.04.16 16:29:54.
