data_PCOD8241684
_publ_section_title
;
Structure prediction by ZEFSAII (Michael W. Deem and Ramdas Pophale) SiO2 
 PCOD8241684
Probable space group: P M M N
;
_chemical_formula_sum "Si O2"
_cell_formula_units_Z 40
_cell_length_a 8.969824
_cell_length_b 16.102007
_cell_length_c 14.058110
_cell_angle_alpha 90.000000
_cell_angle_beta 90.000000
_cell_angle_gamma 90.000000
_cell_volume 2030.443317
_symmetry_space_group_name_H-M "P M M N"
_symmetry_group_IT_number 59
_space_group.IT_coordinate_system_code '2'
_symmetry_cell_setting 'orthorhombic'
loop_
_space_group_symop_operation_xyz
x,y,z
1/2-x,1/2-y,z
1/2+x,-y,-z
-x,1/2+y,-z
-x,-y,-z
1/2+x,1/2+y,-z
1/2-x,y,z
x,1/2-y,z
loop_
_atom_site_type_symbol
_atom_site_label
_atom_site_fract_x
_atom_site_fract_y
_atom_site_fract_z
Si Si1 0.425777 0.575992 0.055295
Si Si2 0.573345 0.087359 0.729842
Si Si3 0.583891 0.842725 0.901005
Si Si4 0.573640 0.593275 0.704287
Si Si5 0.928175 0.250000 0.620075
Si Si6 0.928439 0.750000 0.584982
O O1 0.250000 0.565646 0.056572
O O2 0.488101 0.587073 0.162129
O O3 0.500000 0.500000 0.000000
O O4 0.475948 0.654946 0.992613
O O5 0.750000 0.092981 0.733391
O O6 0.511798 0.167862 0.674612
O O7 0.525125 0.001145 0.675681
O O8 0.750000 0.874077 0.929397
O O9 0.591518 0.750000 0.861499
O O10 0.519674 0.896897 0.813562
O O11 0.750000 0.603047 0.702698
O O12 0.509286 0.666102 0.636676
O O13 0.750000 0.250000 0.611198
O O14 0.001724 0.250000 0.518082
O O15 0.750000 0.750000 0.578724
#
# Coordination Sequence:
#
# PCOD8241684 Si02
#       6
#     8   8   8   8   4   4
#     4  11  21  34  55  82 114 150 191 229 270 328
#     4   9  19  35  56  77 106 149 187 214 260 337
#     4  10  19  33  54  82 114 149 187 226 274 331
#     4   9  16  32  58  82 104 140 184 220 266 335
#     4  10  22  40  57  76 106 144 183 224 273 330
#     4  10  20  36  61  84 102 132 181 234 279 326
#
# _framework density 19.700132
#
# number of rings (size 3 to 8) (size 9 to 14) (size 15 to 20)
#    0.000    2.200    3.000    0.600    1.400    1.200 
#    0.000    3.000    0.000    0.000    0.000    0.000 
#    0.000    0.000    0.000    0.000    0.000    0.000 
#
# Total GULP energy -495630.380767 kJ/mol
# GULP energy per Si atom -12390.759519 kJ/mol
# Density = 1.965529 g / cm^3
# Si number density = 19.700132 Si / 1000 Ang^3
#
#
#
# Elastic Constant Matrix: (Units=GPa)
#
#
# Indices 1 2 3 4 5 6 
#
# 1 30.2558 17.4405 24.7691 0.0000 0.0000 0.0000
# 2 17.4405 173.3664 84.2286 0.0000 0.0000 0.0000
# 3 24.7691 84.2286 142.3425 0.0000 0.0000 0.0000
# 4 0.0000 0.0000 0.0000 31.9026 0.0000 0.0000
# 5 0.0000 0.0000 0.0000 0.0000 31.1754 0.0000
# 6 0.0000 0.0000 0.0000 0.0000 0.0000 16.0570
#
#
#
# Elastic Compliance Matrix: (Units=1/GPa)
#
#
# Indices 1 2 3 4 5 6 
#
# 1 0.038635 -0.000871 -0.006208 0.000000 0.000000 0.000000
# 2 -0.000871 0.008115 -0.004650 0.000000 0.000000 0.000000
# 3 -0.006208 -0.004650 0.010857 0.000000 0.000000 0.000000
# 4 0.000000 0.000000 0.000000 0.031345 0.000000 0.000000
# 5 0.000000 0.000000 0.000000 0.000000 0.032077 0.000000
# 6 0.000000 0.000000 0.000000 0.000000 0.000000 0.062278
#
#
# Mechanical properties :
#
#
# Convention : Reuss Voigt Hill
#
# Bulk Modulus (GPa) = 29.28252 66.53789 47.91021
# Shear Modulus (GPa) = 22.92008 30.46210 26.69109
#
# Velocity S-wave (km/s) = 3.41464 3.93655 3.68485
# Velocity P-wave (km/s) = 5.51749 7.38313 6.51741
#
# Compressibility (1/GPa) = 0.03415007
#
# Stress axis : x y z
#
# Youngs Moduli (GPa) = 25.88297 123.22701 92.10362
#
# Poissons Ratio (x) = 0.10730 0.57175
# Poissons Ratio (y) = 0.02254 0.42832
# Poissons Ratio (z) = 0.16067 0.57306
#
# Static dielectric constant tensor:
#      x y z
#    x 3.245670 0.000000 0.000000 
#    y 0.000000 4.143870 0.000000 
#    z 0.000000 0.000000 3.717230 
# 
# 
# High freq. dielectric constant tensor:
#      x y z
#    x 1.713020 0.000000 0.000000 
#    y 0.000000 1.791150 0.000000 
#    z 0.000000 0.000000 1.762310 
# 
# From -- ./inp_files/20017.got.cif
#   From: 2010.03.12/outbox.cif.g09.slc.cpg/sg59_11_cif.got.tgz:20017.got - 2010.04.16 16:29:54.
