data_PCOD8241755
_publ_section_title
;
Structure prediction by ZEFSAII (Michael W. Deem and Ramdas Pophale) SiO2 
 PCOD8241755
Probable space group: P M M N
;
_chemical_formula_sum "Si O2"
_cell_formula_units_Z 64
_cell_length_a 9.247617
_cell_length_b 30.675008
_cell_length_c 11.896256
_cell_angle_alpha 90.000000
_cell_angle_beta 90.000000
_cell_angle_gamma 90.000000
_cell_volume 3374.619570
_symmetry_space_group_name_H-M "P M M N"
_symmetry_group_IT_number 59
_space_group.IT_coordinate_system_code '2'
_symmetry_cell_setting 'orthorhombic'
loop_
_space_group_symop_operation_xyz
x,y,z
1/2-x,1/2-y,z
1/2+x,-y,-z
-x,1/2+y,-z
-x,-y,-z
1/2+x,1/2+y,-z
1/2-x,y,z
x,1/2-y,z
loop_
_atom_site_type_symbol
_atom_site_label
_atom_site_fract_x
_atom_site_fract_y
_atom_site_fract_z
Si Si1 0.577637 0.373273 0.870538
Si Si2 0.578408 0.123504 0.124846
Si Si3 0.916123 0.553117 0.261557
Si Si4 0.417100 0.300102 0.737664
Si Si5 0.419180 0.174107 0.489223
Si Si6 0.082126 0.426095 0.485911
Si Si7 0.082599 0.955550 0.725183
Si Si8 0.416399 0.701629 0.723145
O O1 0.750000 0.372086 0.862716
O O2 0.521114 0.415992 0.807774
O O3 0.515338 0.329205 0.817986
O O4 0.519871 0.375949 0.998151
O O5 0.750000 0.123562 0.122056
O O6 0.519927 0.080266 0.187981
O O7 0.519293 0.166339 0.189512
O O8 0.750000 0.568248 0.244077
O O9 0.957452 0.555357 0.392315
O O10 0.939999 0.503401 0.221041
O O11 0.250000 0.314305 0.751093
O O12 0.440276 0.250000 0.772014
O O13 0.466795 0.307205 0.609597
O O14 0.250000 0.180751 0.470597
O O15 0.466050 0.124015 0.480717
O O16 0.500645 0.200988 0.394294
O O17 0.250000 0.431500 0.459361
O O18 0.996286 0.453403 0.393914
O O19 0.250000 0.946502 0.700966
O O20 0.250000 0.690661 0.698072
O O21 0.433866 0.750000 0.775772
#
# Coordination Sequence:
#
# PCOD8241755 Si02
#       8
#     8   8   8   8   8   8   8   8
#     4  11  23  38  58  81 110 147 188 235 275 319
#     4   9  20  38  55  78 110 144 186 231 279 323
#     4  10  21  38  58  82 113 148 183 224 278 337
#     4  10  21  39  61  83 113 150 183 223 278 334
#     4  10  19  34  57  82 112 146 175 215 275 333
#     4  10  19  33  55  83 115 144 176 223 279 333
#     4  10  20  36  60  83 109 147 186 226 276 335
#     4  10  20  35  57  82 110 145 182 223 272 330
#
# _framework density 18.965101000000001
#
# number of rings (size 3 to 8) (size 9 to 14) (size 15 to 20)
#    0.000    2.000    2.500    1.125    0.000    3.500 
#    0.000    3.750    0.000    0.000    0.000    0.000 
#    0.000    0.000    0.000    0.000    0.000    0.000 
#
# Total GULP energy -793755.076644 kJ/mol
# GULP energy per Si atom -12402.423073 kJ/mol
# Density = 1.892194 g / cm^3
# Si number density = 18.965101 Si / 1000 Ang^3
#
#
#
# Elastic Constant Matrix: (Units=GPa)
#
#
# Indices 1 2 3 4 5 6 
#
# 1 51.8797 39.4220 49.9988 0.0000 0.0000 0.0000
# 2 39.4220 128.0910 64.8973 0.0000 0.0000 0.0000
# 3 49.9988 64.8973 127.8735 0.0000 0.0000 0.0000
# 4 0.0000 0.0000 0.0000 10.4584 0.0000 0.0000
# 5 0.0000 0.0000 0.0000 0.0000 14.6088 0.0000
# 6 0.0000 0.0000 0.0000 0.0000 0.0000 23.6621
#
#
#
# Elastic Compliance Matrix: (Units=1/GPa)
#
#
# Indices 1 2 3 4 5 6 
#
# 1 0.033051 -0.004879 -0.010447 0.000000 0.000000 0.000000
# 2 -0.004879 0.011229 -0.003791 0.000000 0.000000 0.000000
# 3 -0.010447 -0.003791 0.013829 0.000000 0.000000 0.000000
# 4 0.000000 0.000000 0.000000 0.095617 0.000000 0.000000
# 5 0.000000 0.000000 0.000000 0.000000 0.068452 0.000000
# 6 0.000000 0.000000 0.000000 0.000000 0.000000 0.042262
#
#
# Mechanical properties :
#
#
# Convention : Reuss Voigt Hill
#
# Bulk Modulus (GPa) = 50.31442 68.49782 59.40612
# Shear Modulus (GPa) = 16.16558 19.98094 18.07326
#
# Velocity S-wave (km/s) = 2.92273 3.24939 3.09038
# Velocity P-wave (km/s) = 6.16258 7.09043 6.64273
#
# Compressibility (1/GPa) = 0.01987502
#
# Stress axis : x y z
#
# Youngs Moduli (GPa) = 30.25646 89.05156 72.31138
#
# Poissons Ratio (x) = 0.43449 0.75542
# Poissons Ratio (y) = 0.14762 0.27416
# Poissons Ratio (z) = 0.31608 0.33763
#
# Static dielectric constant tensor:
#      x y z
#    x 3.255240 0.000000 0.000000 
#    y 0.000000 3.644020 0.000000 
#    z 0.000000 0.000000 3.485640 
# 
# 
# High freq. dielectric constant tensor:
#      x y z
#    x 1.716740 0.000000 0.000000 
#    y 0.000000 1.755110 0.000000 
#    z 0.000000 0.000000 1.730750 
# 
# From -- ./inp_files/14967.got.cif
#   From: 2010.03.12/outbox.cif.g09.slc.cpg/sg59_8_cif.got.tgz:14967.got - 2010.04.16 16:29:54.
