data_PCOD8241173
_publ_section_title
;
Structure prediction by ZEFSAII (Michael W. Deem and Ramdas Pophale) SiO2 
 PCOD8241173
Probable space group: P M M N
;
_chemical_formula_sum "Si O2"
_cell_formula_units_Z 48
_cell_length_a 13.487254
_cell_length_b 9.915290
_cell_length_c 20.499034
_cell_angle_alpha 90.000000
_cell_angle_beta 90.000000
_cell_angle_gamma 90.000000
_cell_volume 2741.336528
_symmetry_space_group_name_H-M "P M M N"
_symmetry_group_IT_number 59
_space_group.IT_coordinate_system_code '2'
_symmetry_cell_setting 'orthorhombic'
loop_
_space_group_symop_operation_xyz
x,y,z
1/2-x,1/2-y,z
1/2+x,-y,-z
-x,1/2+y,-z
-x,-y,-z
1/2+x,1/2+y,-z
1/2-x,y,z
x,1/2-y,z
loop_
_atom_site_type_symbol
_atom_site_label
_atom_site_fract_x
_atom_site_fract_y
_atom_site_fract_z
Si Si1 0.639996 0.089990 0.669678
Si Si2 0.541844 0.909544 0.243935
Si Si3 0.750000 0.395032 0.423407
Si Si4 0.079616 0.900561 0.473307
Si Si5 0.137992 0.597683 0.999357
Si Si6 0.250000 0.089795 0.694681
Si Si7 0.535065 0.906610 0.095752
O O1 0.750000 0.036699 0.691492
O O2 0.639868 0.250000 0.675591
O O3 0.550119 0.029470 0.713935
O O4 0.622946 0.045332 0.595043
O O5 0.537739 0.750000 0.248898
O O6 0.650228 0.958929 0.268121
O O7 0.527549 0.957585 0.169773
O O8 0.750000 0.250000 0.385608
O O9 0.841953 0.401180 0.470222
O O10 0.750000 0.520786 0.375366
O O11 0.035809 0.750000 0.462591
O O12 0.000000 0.000000 0.500000
O O13 0.250000 0.578705 0.023316
O O14 0.118507 0.750000 0.974098
O O15 0.117834 0.494745 0.940595
O O16 0.070717 0.566442 0.062142
O O17 0.250000 0.250000 0.684560
O O18 0.566874 0.750000 0.092050
#
# Coordination Sequence:
#
# PCOD8241173 Si02
#       7
#     8   8   4   8   8   4   8
#     4   9  16  29  48  71  98 128 163 202 248 300
#     4   9  18  30  48  73 100 130 165 208 254 295
#     4  10  20  34  50  72 102 131 166 206 248 299
#     4  10  19  32  51  74  98 127 162 204 250 297
#     4   9  18  32  50  73 103 133 164 203 247 296
#     4  10  20  34  50  74 104 131 168 212 252 301
#     4   9  18  32  50  75 101 129 167 208 247 292
#
# _framework density 17.509708
#
# number of rings (size 3 to 8) (size 9 to 14) (size 15 to 20)
#    0.000    2.667    0.833    1.000    1.167    3.000 
#    0.000    4.167    0.000    1.000    0.000    0.000 
#    0.000    0.000    0.000    0.000    0.000    0.000 
#
# Total GULP energy -594909.044149 kJ/mol
# GULP energy per Si atom -12393.938420 kJ/mol
# Density = 1.746985 g / cm^3
# Si number density = 17.509708 Si / 1000 Ang^3
#
#
#
# Elastic Constant Matrix: (Units=GPa)
#
#
# Indices 1 2 3 4 5 6 
#
# 1 140.4864 34.8748 57.1883 0.0000 0.0000 0.0000
# 2 34.8748 45.2297 35.3711 0.0000 0.0000 0.0000
# 3 57.1883 35.3711 127.6093 0.0000 0.0000 0.0000
# 4 0.0000 0.0000 0.0000 23.1237 0.0000 0.0000
# 5 0.0000 0.0000 0.0000 0.0000 22.2624 0.0000
# 6 0.0000 0.0000 0.0000 0.0000 0.0000 7.8572
#
#
#
# Elastic Compliance Matrix: (Units=1/GPa)
#
#
# Indices 1 2 3 4 5 6 
#
# 1 0.009556 -0.005132 -0.002860 0.000000 0.000000 0.000000
# 2 -0.005132 0.030984 -0.006288 0.000000 0.000000 0.000000
# 3 -0.002860 -0.006288 0.010861 0.000000 0.000000 0.000000
# 4 0.000000 0.000000 0.000000 0.043246 0.000000 0.000000
# 5 0.000000 0.000000 0.000000 0.000000 0.044919 0.000000
# 6 0.000000 0.000000 0.000000 0.000000 0.000000 0.127272
#
#
# Mechanical properties :
#
#
# Convention : Reuss Voigt Hill
#
# Bulk Modulus (GPa) = 43.78128 63.13265 53.45696
# Shear Modulus (GPa) = 16.50095 23.04141 19.77118
#
# Velocity S-wave (km/s) = 3.07317 3.63150 3.36394
# Velocity P-wave (km/s) = 6.13602 7.32924 6.75901
#
# Compressibility (1/GPa) = 0.02284081
#
# Stress axis : x y z
#
# Youngs Moduli (GPa) = 104.64211 32.27470 92.06987
#
# Poissons Ratio (x) = 0.16562 0.26335
# Poissons Ratio (y) = 0.53699 0.57898
# Poissons Ratio (z) = 0.29931 0.20296
#
# Static dielectric constant tensor:
#      x y z
#    x 3.446920 0.000000 0.000000 
#    y 0.000000 3.152980 0.000000 
#    z 0.000000 0.000000 3.382810 
# 
# 
# High freq. dielectric constant tensor:
#      x y z
#    x 1.689930 0.000000 0.000000 
#    y 0.000000 1.638270 0.000000 
#    z 0.000000 0.000000 1.676080 
# 
# From -- ./inp_files/30018.got.cif
#   From: 2010.03.12/outbox.cif.g09.slc.cpg/sg59_16_cif.got.tgz:30018.got - 2010.04.16 16:29:54.
