data_PCOD8241514
_publ_section_title
;
Structure prediction by ZEFSAII (Michael W. Deem and Ramdas Pophale) SiO2 
 PCOD8241514
Probable space group: P M M N
;
_chemical_formula_sum "Si O2"
_cell_formula_units_Z 64
_cell_length_a 9.225450
_cell_length_b 19.372355
_cell_length_c 18.620843
_cell_angle_alpha 90.000000
_cell_angle_beta 90.000000
_cell_angle_gamma 90.000000
_cell_volume 3327.892713
_symmetry_space_group_name_H-M "P M M N"
_symmetry_group_IT_number 59
_space_group.IT_coordinate_system_code '2'
_symmetry_cell_setting 'orthorhombic'
loop_
_space_group_symop_operation_xyz
x,y,z
1/2-x,1/2-y,z
1/2+x,-y,-z
-x,1/2+y,-z
-x,-y,-z
1/2+x,1/2+y,-z
1/2-x,y,z
x,1/2-y,z
loop_
_atom_site_type_symbol
_atom_site_label
_atom_site_fract_x
_atom_site_fract_y
_atom_site_fract_z
Si Si1 0.079329 0.330045 0.411170
Si Si2 0.581896 0.169813 0.995718
Si Si3 0.921429 0.171987 0.708830
Si Si4 0.916100 0.552576 0.219536
Si Si5 0.079655 0.587699 0.711378
Si Si6 0.421604 0.674289 0.843721
Si Si7 0.581617 0.952993 0.057553
Si Si8 0.090245 0.668526 0.450145
O O1 0.250000 0.340356 0.408613
O O2 0.036668 0.250000 0.395532
O O3 0.006201 0.381456 0.355220
O O4 0.023801 0.354320 0.489352
O O5 0.750000 0.152250 0.981638
O O6 0.551735 0.250000 0.980705
O O7 0.480587 0.124819 0.944375
O O8 0.536470 0.148833 0.076833
O O9 0.750000 0.170457 0.717470
O O10 0.978502 0.250000 0.723033
O O11 0.965323 0.145753 0.628721
O O12 0.988854 0.120202 0.766531
O O13 0.750000 0.575414 0.226516
O O14 0.952488 0.493407 0.278172
O O15 0.943658 0.521935 0.139507
O O16 0.250000 0.602091 0.700328
O O17 0.017913 0.623773 0.783148
O O18 0.250000 0.678729 0.839517
O O19 0.488501 0.750000 0.829540
O O20 0.750000 0.953868 0.037353
O O21 0.500000 0.000000 0.000000
O O22 0.250000 0.636766 0.466831
O O23 0.105995 0.750000 0.448439
#
# Coordination Sequence:
#
# PCOD8241514 Si02
#       8
#     8   8   8   8   8   8   8   8
#     4  10  20  32  49  79 114 142 172 213 260 308
#     4   9  18  34  56  81 108 137 172 217 269 325
#     4   9  19  37  61  86 109 136 175 222 269 319
#     4  10  23  39  55  79 108 139 178 222 267 320
#     4  10  19  33  52  72 100 140 183 220 255 304
#     4   8  14  27  50  76 100 133 176 215 252 301
#     4  11  23  39  58  79 106 141 182 226 271 322
#     4   8  15  31  55  80 105 136 176 217 256 306
#
# _framework density 19.231389
#
# number of rings (size 3 to 8) (size 9 to 14) (size 15 to 20)
#    0.000    2.625    0.000    3.375    0.000    6.250 
#    0.000    6.250    0.000    0.750    0.000    0.000 
#    0.000    0.000    0.000    0.000    0.000    0.000 
#
# Total GULP energy -793344.514389 kJ/mol
# GULP energy per Si atom -12396.008037 kJ/mol
# Density = 1.918762 g / cm^3
# Si number density = 19.231389 Si / 1000 Ang^3
#
#
#
# Elastic Constant Matrix: (Units=GPa)
#
#
# Indices 1 2 3 4 5 6 
#
# 1 76.3340 46.5146 46.5124 0.0000 0.0000 0.0000
# 2 46.5146 80.2079 43.8389 0.0000 0.0000 0.0000
# 3 46.5124 43.8389 86.2999 0.0000 0.0000 0.0000
# 4 0.0000 0.0000 0.0000 30.0556 0.0000 0.0000
# 5 0.0000 0.0000 0.0000 0.0000 27.9718 0.0000
# 6 0.0000 0.0000 0.0000 0.0000 0.0000 28.6386
#
#
#
# Elastic Compliance Matrix: (Units=1/GPa)
#
#
# Indices 1 2 3 4 5 6 
#
# 1 0.023683 -0.009355 -0.008012 0.000000 0.000000 0.000000
# 2 -0.009355 0.020955 -0.005603 0.000000 0.000000 0.000000
# 3 -0.008012 -0.005603 0.018752 0.000000 0.000000 0.000000
# 4 0.000000 0.000000 0.000000 0.033272 0.000000 0.000000
# 5 0.000000 0.000000 0.000000 0.000000 0.035750 0.000000
# 6 0.000000 0.000000 0.000000 0.000000 0.000000 0.034918
#
#
# Mechanical properties :
#
#
# Convention : Reuss Voigt Hill
#
# Bulk Modulus (GPa) = 57.30657 57.39707 57.35182
# Shear Modulus (GPa) = 22.82207 24.39826 23.61016
#
# Velocity S-wave (km/s) = 3.44860 3.56570 3.50764
# Velocity P-wave (km/s) = 6.76168 6.84563 6.80378
#
# Compressibility (1/GPa) = 0.01745001
#
# Stress axis : x y z
#
# Youngs Moduli (GPa) = 42.22460 47.72067 53.32854
#
# Poissons Ratio (x) = 0.44644 0.42726
# Poissons Ratio (y) = 0.39502 0.29879
# Poissons Ratio (z) = 0.33830 0.26737
#
# Static dielectric constant tensor:
#      x y z
#    x 3.311660 0.000000 0.000000 
#    y 0.000000 3.451790 0.000000 
#    z 0.000000 0.000000 3.745760 
# 
# 
# High freq. dielectric constant tensor:
#      x y z
#    x 1.726380 0.000000 0.000000 
#    y 0.000000 1.737930 0.000000 
#    z 0.000000 0.000000 1.751330 
# 
# From -- ./inp_files/26243.got.cif
#   From: 2010.03.12/outbox.cif.g09.slc.cpg/sg59_14_cif.got.tgz:26243.got - 2010.04.16 16:29:54.
