data_PCOD8241308
_publ_section_title
;
Structure prediction by ZEFSAII (Michael W. Deem and Ramdas Pophale) SiO2 
 PCOD8241308
Probable space group: P M M N
;
_chemical_formula_sum "Si O2"
_cell_formula_units_Z 48
_cell_length_a 8.520946
_cell_length_b 26.191807
_cell_length_c 11.916288
_cell_angle_alpha 90.000000
_cell_angle_beta 90.000000
_cell_angle_gamma 90.000000
_cell_volume 2659.464919
_symmetry_space_group_name_H-M "P M M N"
_symmetry_group_IT_number 59
_space_group.IT_coordinate_system_code '2'
_symmetry_cell_setting 'orthorhombic'
loop_
_space_group_symop_operation_xyz
x,y,z
1/2-x,1/2-y,z
1/2+x,-y,-z
-x,1/2+y,-z
-x,-y,-z
1/2+x,1/2+y,-z
1/2-x,y,z
x,1/2-y,z
loop_
_atom_site_type_symbol
_atom_site_label
_atom_site_fract_x
_atom_site_fract_y
_atom_site_fract_z
Si Si1 0.936075 0.693362 0.329031
Si Si2 0.935086 0.605744 0.166838
Si Si3 0.564744 0.054888 0.036198
Si Si4 0.932508 0.436003 0.291707
Si Si5 0.068352 0.960422 0.353288
Si Si6 0.567355 0.881752 0.517670
O O1 0.750000 0.696773 0.332835
O O2 0.010546 0.750000 0.320006
O O3 0.986641 0.660257 0.219844
O O4 0.995296 0.666209 0.443704
O O5 0.750000 0.597406 0.179300
O O6 0.023802 0.560237 0.230496
O O7 0.988741 0.600371 0.038070
O O8 0.750000 0.054600 0.020930
O O9 0.515413 0.069238 0.162791
O O10 0.500000 0.000000 0.000000
O O11 0.750000 0.448909 0.299808
O O12 0.031140 0.479870 0.353656
O O13 0.975173 0.384933 0.363191
O O14 0.250000 0.950793 0.380674
O O15 0.962445 0.932732 0.445693
O O16 0.750000 0.875862 0.543324
#
# Coordination Sequence:
#
# PCOD8241308 Si02
#       6
#     8   8   8   8   8   8
#     4   8  16  33  57  81 102 127 163 214 269 313
#     4  10  19  32  52  78 106 134 172 217 259 305
#     4  11  22  34  51  72 103 143 180 215 251 303
#     4  11  22  34  48  69 102 140 176 209 249 303
#     4  11  20  31  49  71 102 139 173 209 249 301
#     4  10  20  33  51  75 102 131 168 213 259 308
#
# _framework density 18.048745
#
# number of rings (size 3 to 8) (size 9 to 14) (size 15 to 20)
#    0.000    1.833    1.667    5.000    0.000    2.000 
#    0.000    0.000    0.000   19.000    0.000    7.000 
#    0.000    0.000    0.000    0.000    0.000    0.000 
#
# Total GULP energy -595108.799867 kJ/mol
# GULP energy per Si atom -12398.099997 kJ/mol
# Density = 1.800767 g / cm^3
# Si number density = 18.048745 Si / 1000 Ang^3
#
#
#
# Elastic Constant Matrix: (Units=GPa)
#
#
# Indices 1 2 3 4 5 6 
#
# 1 49.1444 18.4385 18.2153 0.0000 0.0000 0.0000
# 2 18.4385 106.5172 62.9155 0.0000 0.0000 0.0000
# 3 18.2153 62.9155 130.1153 0.0000 0.0000 0.0000
# 4 0.0000 0.0000 0.0000 16.6987 0.0000 0.0000
# 5 0.0000 0.0000 0.0000 0.0000 31.6360 0.0000
# 6 0.0000 0.0000 0.0000 0.0000 0.0000 15.2158
#
#
#
# Elastic Compliance Matrix: (Units=1/GPa)
#
#
# Indices 1 2 3 4 5 6 
#
# 1 0.022038 -0.002789 -0.001737 0.000000 0.000000 0.000000
# 2 -0.002789 0.013494 -0.006135 0.000000 0.000000 0.000000
# 3 -0.001737 -0.006135 0.010895 0.000000 0.000000 0.000000
# 4 0.000000 0.000000 0.000000 0.059885 0.000000 0.000000
# 5 0.000000 0.000000 0.000000 0.000000 0.031610 0.000000
# 6 0.000000 0.000000 0.000000 0.000000 0.000000 0.065721
#
#
# Mechanical properties :
#
#
# Convention : Reuss Voigt Hill
#
# Bulk Modulus (GPa) = 39.82953 53.87951 46.85452
# Shear Modulus (GPa) = 21.42860 25.12393 23.27627
#
# Velocity S-wave (km/s) = 3.44941 3.73501 3.59504
# Velocity P-wave (km/s) = 6.16281 6.96544 6.57638
#
# Compressibility (1/GPa) = 0.02510700
#
# Stress axis : x y z
#
# Youngs Moduli (GPa) = 45.37543 74.10470 91.78620
#
# Poissons Ratio (x) = 0.20669 0.15939
# Poissons Ratio (y) = 0.12656 0.56307
# Poissons Ratio (z) = 0.07880 0.45460
#
# Static dielectric constant tensor:
#      x y z
#    x 3.213680 0.000000 0.000000 
#    y 0.000000 3.567590 0.000000 
#    z 0.000000 0.000000 3.610370 
# 
# 
# High freq. dielectric constant tensor:
#      x y z
#    x 1.695870 0.000000 0.000000 
#    y 0.000000 1.660530 0.000000 
#    z 0.000000 0.000000 1.706440 
# 
# From -- ./inp_files/14472.got.cif
#   From: 2010.03.12/outbox.cif.g09.slc.cpg/sg59_8_cif.got.tgz:14472.got - 2010.04.16 16:29:54.
