data_PCOD8241967
_publ_section_title
;
Structure prediction by ZEFSAII (Michael W. Deem and Ramdas Pophale) SiO2 
 PCOD8241967
Probable space group: P M M N
;
_chemical_formula_sum "Si O2"
_cell_formula_units_Z 48
_cell_length_a 31.429333
_cell_length_b 8.573677
_cell_length_c 9.003181
_cell_angle_alpha 90.000000
_cell_angle_beta 90.000000
_cell_angle_gamma 90.000000
_cell_volume 2426.041713
_symmetry_space_group_name_H-M "P M M N"
_symmetry_group_IT_number 59
_space_group.IT_coordinate_system_code '2'
_symmetry_cell_setting 'orthorhombic'
loop_
_space_group_symop_operation_xyz
x,y,z
1/2-x,1/2-y,z
1/2+x,-y,-z
-x,1/2+y,-z
-x,-y,-z
1/2+x,1/2+y,-z
1/2-x,y,z
x,1/2-y,z
loop_
_atom_site_type_symbol
_atom_site_label
_atom_site_fract_x
_atom_site_fract_y
_atom_site_fract_z
Si Si1 0.750000 0.431137 0.346087
Si Si2 0.669255 0.430948 0.150255
Si Si3 0.406784 0.433236 0.670850
Si Si4 0.666836 0.932595 0.831949
Si Si5 0.250000 0.432710 0.332570
Si Si6 0.998496 0.569187 0.339848
Si Si7 0.409390 0.932649 0.344748
O O1 0.750000 0.250000 0.389195
O O2 0.708565 0.477898 0.253780
O O3 0.750000 0.530568 0.494758
O O4 0.671102 0.250000 0.105085
O O5 0.626087 0.464682 0.237332
O O6 0.672519 0.536770 0.005361
O O7 0.397420 0.250000 0.693998
O O8 0.453842 0.484695 0.735455
O O9 0.402616 0.471156 0.496009
O O10 0.660803 0.750000 0.802663
O O11 0.707799 0.001547 0.745335
O O12 0.625475 0.022552 0.775433
O O13 0.250000 0.250000 0.306374
O O14 0.993281 0.750000 0.361535
O O15 0.044356 0.528309 0.266189
O O16 0.000000 0.500000 0.500000
O O17 0.406437 0.750000 0.383609
#
# Coordination Sequence:
#
# PCOD8241967 Si02
#       7
#     4   8   8   8   4   8   8
#     4  10  23  40  60  84 110 140 179 222 269 322
#     4  11  23  39  57  81 111 146 183 224 273 326
#     4  10  19  34  56  83 112 145 184 228 272 322
#     4  11  23  39  57  81 111 146 183 224 273 326
#     4  10  23  40  60  84 110 140 179 222 269 322
#     4   8  16  30  51  78 109 142 180 224 272 318
#     4  10  19  34  56  83 112 145 184 228 272 322
#
# _framework density 19.785314
#
# number of rings (size 3 to 8) (size 9 to 14) (size 15 to 20)
#    0.000    2.000    0.000    3.500    0.000    6.667 
#    0.000    0.833    0.000    0.000    0.000    0.000 
#    0.000    0.000    0.000    0.000    0.000    0.000 
#
# Total GULP energy -594912.879868 kJ/mol
# GULP energy per Si atom -12394.018331 kJ/mol
# Density = 1.974028 g / cm^3
# Si number density = 19.785314 Si / 1000 Ang^3
#
#
#
# Elastic Constant Matrix: (Units=GPa)
#
#
# Indices 1 2 3 4 5 6 
#
# 1 189.6032 29.9601 54.8233 0.0000 0.0000 0.0000
# 2 29.9601 25.5547 4.7414 0.0000 0.0000 0.0000
# 3 54.8233 4.7414 78.2476 0.0000 0.0000 0.0000
# 4 0.0000 0.0000 0.0000 31.2933 0.0000 0.0000
# 5 0.0000 0.0000 0.0000 0.0000 -5.5041 0.0000
# 6 0.0000 0.0000 0.0000 0.0000 0.0000 25.7376
#
#
#
# Elastic Compliance Matrix: (Units=1/GPa)
#
#
# Indices 1 2 3 4 5 6 
#
# 1 0.008123 -0.008564 -0.005172 0.000000 0.000000 0.000000
# 2 -0.008564 0.048605 0.003055 0.000000 0.000000 0.000000
# 3 -0.005172 0.003055 0.016219 0.000000 0.000000 0.000000
# 4 0.000000 0.000000 0.000000 0.031956 0.000000 0.000000
# 5 0.000000 0.000000 0.000000 0.000000 -0.181684 0.000000
# 6 0.000000 0.000000 0.000000 0.000000 0.000000 0.038854
#
#
# Mechanical properties :
#
#
# Convention : Reuss Voigt Hill
#
# Bulk Modulus (GPa) = 19.38576 52.49501 35.94039
# Shear Modulus (GPa) = 7951.77297 23.89742 3987.83519
#
# Velocity S-wave (km/s) = 63.46458 3.47916 44.94362
# Velocity P-wave (km/s) = 73.34955 6.53677 52.07152
#
# Compressibility (1/GPa) = 0.05158425
#
# Stress axis : x y z
#
# Youngs Moduli (GPa) = 123.10874 20.57412 61.65696
#
# Poissons Ratio (x) = 0.17619 0.31891
# Poissons Ratio (y) = 1.05425 -0.18835
# Poissons Ratio (z) = 0.63676 -0.06285
#
# Static dielectric constant tensor:
#      x y z
#    x 4.481260 0.000000 0.000000 
#    y 0.000000 3.529630 0.000000 
#    z 0.000000 0.000000 3.229720 
# 
# 
# High freq. dielectric constant tensor:
#      x y z
#    x 1.803770 0.000000 0.000000 
#    y 0.000000 1.772660 0.000000 
#    z 0.000000 0.000000 1.740750 
# 
# From -- ./inp_files/13010.got.cif
#   From: 2010.03.12/outbox.cif.g09.slc.cpg/sg59_7_cif.got.tgz:13010.got - 2010.04.16 16:29:54.
