data_PCOD8241679
_publ_section_title
;
Structure prediction by ZEFSAII (Michael W. Deem and Ramdas Pophale) SiO2 
 PCOD8241679
Probable space group: P M M N
;
_chemical_formula_sum "Si O2"
_cell_formula_units_Z 64
_cell_length_a 8.870255
_cell_length_b 19.570677
_cell_length_c 20.088871
_cell_angle_alpha 90.000000
_cell_angle_beta 90.000000
_cell_angle_gamma 90.000000
_cell_volume 3487.365640
_symmetry_space_group_name_H-M "P M M N"
_symmetry_group_IT_number 59
_space_group.IT_coordinate_system_code '2'
_symmetry_cell_setting 'orthorhombic'
loop_
_space_group_symop_operation_xyz
x,y,z
1/2-x,1/2-y,z
1/2+x,-y,-z
-x,1/2+y,-z
-x,-y,-z
1/2+x,1/2+y,-z
1/2-x,y,z
x,1/2-y,z
loop_
_atom_site_type_symbol
_atom_site_label
_atom_site_fract_x
_atom_site_fract_y
_atom_site_fract_z
Si Si1 0.428920 0.576817 0.723634
Si Si2 0.074761 0.328667 0.660626
Si Si3 0.423681 0.595399 0.949107
Si Si4 0.426632 0.591570 0.452679
Si Si5 0.927004 0.560626 0.586405
Si Si6 0.575614 0.561880 0.080121
Si Si7 0.071287 0.068965 0.772604
Si Si8 0.576251 0.669779 0.831924
O O1 0.250000 0.576659 0.719163
O O2 0.495953 0.592635 0.651212
O O3 0.493313 0.503835 0.748483
O O4 0.479598 0.635068 0.774140
O O5 0.250000 0.344540 0.647161
O O6 0.046537 0.250000 0.677466
O O7 0.013851 0.371679 0.723591
O O8 0.981193 0.348291 0.595417
O O9 0.250000 0.616732 0.944976
O O10 0.450409 0.519121 0.922880
O O11 0.519481 0.646668 0.904255
O O12 0.478452 0.601635 0.025250
O O13 0.250000 0.597301 0.465547
O O14 0.470564 0.519223 0.419504
O O15 0.510676 0.601056 0.522665
O O16 0.750000 0.572043 0.590991
O O17 0.750000 0.579916 0.068091
O O18 0.516725 0.586011 0.152536
O O19 0.250000 0.064183 0.773335
O O20 0.750000 0.648824 0.823920
O O21 0.552422 0.750000 0.825373
#
# Coordination Sequence:
#
# PCOD8241679 Si02
#       8
#     8   8   8   8   8   8   8   8
#     4  11  20  35  59  85 113 146 186 235 282 331
#     4  10  20  35  56  81 112 151 189 229 280 336
#     4  10  19  33  54  82 110 143 184 229 278 329
#     4  10  20  34  54  81 111 146 184 228 277 328
#     4  10  20  34  55  84 113 142 181 230 281 331
#     4   9  17  32  53  80 112 144 180 228 279 325
#     4   9  17  32  54  81 112 146 187 230 274 328
#     4  11  24  40  57  80 113 151 188 230 284 346
#
# _framework density 18.351962
#
# number of rings (size 3 to 8) (size 9 to 14) (size 15 to 20)
#    0.000    2.000    2.500    1.875    0.000    2.750 
#    0.000    1.875    0.000    6.000    0.000    0.000 
#    0.000    0.000    0.000    0.000    0.000    0.000 
#
# Total GULP energy -793830.107005 kJ/mol
# GULP energy per Si atom -12403.595422 kJ/mol
# Density = 1.831019 g / cm^3
# Si number density = 18.351962 Si / 1000 Ang^3
#
#
#
# Elastic Constant Matrix: (Units=GPa)
#
#
# Indices 1 2 3 4 5 6 
#
# 1 72.5339 34.5608 47.4388 0.0000 0.0000 0.0000
# 2 34.5608 72.5392 52.2253 0.0000 0.0000 0.0000
# 3 47.4388 52.2253 157.1328 0.0000 0.0000 0.0000
# 4 0.0000 0.0000 0.0000 26.2281 0.0000 0.0000
# 5 0.0000 0.0000 0.0000 0.0000 33.2510 0.0000
# 6 0.0000 0.0000 0.0000 0.0000 0.0000 23.5511
#
#
#
# Elastic Compliance Matrix: (Units=1/GPa)
#
#
# Indices 1 2 3 4 5 6 
#
# 1 0.019301 -0.006574 -0.003642 0.000000 0.000000 0.000000
# 2 -0.006574 0.020361 -0.004783 0.000000 0.000000 0.000000
# 3 -0.003642 -0.004783 0.009053 0.000000 0.000000 0.000000
# 4 0.000000 0.000000 0.000000 0.038127 0.000000 0.000000
# 5 0.000000 0.000000 0.000000 0.000000 0.030074 0.000000
# 6 0.000000 0.000000 0.000000 0.000000 0.000000 0.042461
#
#
# Mechanical properties :
#
#
# Convention : Reuss Voigt Hill
#
# Bulk Modulus (GPa) = 53.42390 63.40619 58.41505
# Shear Modulus (GPa) = 25.56064 27.80478 26.68271
#
# Velocity S-wave (km/s) = 3.73607 3.89663 3.81720
# Velocity P-wave (km/s) = 6.91266 7.40743 7.16432
#
# Compressibility (1/GPa) = 0.01871821
#
# Stress axis : x y z
#
# Youngs Moduli (GPa) = 51.81111 49.11380 110.45807
#
# Poissons Ratio (x) = 0.32285 0.40231
# Poissons Ratio (y) = 0.34058 0.52828
# Poissons Ratio (z) = 0.18871 0.23489
#
# Static dielectric constant tensor:
#      x y z
#    x 3.295330 0.000000 0.000000 
#    y 0.000000 3.133480 0.000000 
#    z 0.000000 0.000000 3.568160 
# 
# 
# High freq. dielectric constant tensor:
#      x y z
#    x 1.707620 0.000000 0.000000 
#    y 0.000000 1.681430 0.000000 
#    z 0.000000 0.000000 1.727390 
# 
# From -- ./inp_files/29424.got.cif
#   From: 2010.03.12/outbox.cif.g09.slc.cpg/sg59_15_cif.got.tgz:29424.got - 2010.04.16 16:29:54.
