data_PCOD8241191
_publ_section_title
;
Structure prediction by ZEFSAII (Michael W. Deem and Ramdas Pophale) SiO2 
 PCOD8241191
Probable space group: P M M N
;
_chemical_formula_sum "Si O2"
_cell_formula_units_Z 64
_cell_length_a 18.184479
_cell_length_b 8.920658
_cell_length_c 20.789227
_cell_angle_alpha 90.000000
_cell_angle_beta 90.000000
_cell_angle_gamma 90.000000
_cell_volume 3372.376806
_symmetry_space_group_name_H-M "P M M N"
_symmetry_group_IT_number 59
_space_group.IT_coordinate_system_code '2'
_symmetry_cell_setting 'orthorhombic'
loop_
_space_group_symop_operation_xyz
x,y,z
1/2-x,1/2-y,z
1/2+x,-y,-z
-x,1/2+y,-z
-x,-y,-z
1/2+x,1/2+y,-z
1/2-x,y,z
x,1/2-y,z
loop_
_atom_site_type_symbol
_atom_site_label
_atom_site_fract_x
_atom_site_fract_y
_atom_site_fract_z
Si Si1 0.079465 0.928195 0.998822
Si Si2 0.167663 0.571912 0.122889
Si Si3 0.336678 0.077968 0.362907
Si Si4 0.332646 0.928010 0.874367
Si Si5 0.076920 0.571767 0.750966
Si Si6 0.081191 0.572664 0.247700
Si Si7 0.162654 0.916607 0.489643
Si Si8 0.168034 0.928354 0.630187
O O1 0.071478 0.750000 0.998625
O O2 0.122956 0.986643 0.936257
O O3 0.123572 0.986462 0.060986
O O4 0.000000 0.000000 0.000000
O O5 0.250000 0.505033 0.121128
O O6 0.170991 0.750000 0.122308
O O7 0.128055 0.513648 0.187158
O O8 0.250000 0.051885 0.355012
O O9 0.358771 0.250000 0.352447
O O10 0.377948 0.975535 0.312144
O O11 0.363750 0.029124 0.433942
O O12 0.250000 0.994348 0.875544
O O13 0.328834 0.750000 0.875565
O O14 0.373380 0.984003 0.810255
O O15 0.068909 0.750000 0.750631
O O16 0.114092 0.511110 0.685432
O O17 0.997894 0.500087 0.757519
O O18 0.073007 0.750000 0.247039
O O19 0.250000 0.907583 0.491952
O O20 0.130911 0.750000 0.475803
O O21 0.136494 0.976584 0.559872
O O22 0.250000 0.994309 0.641743
O O23 0.172507 0.750000 0.632992
#
# Coordination Sequence:
#
# PCOD8241191 Si02
#       8
#     8   8   8   8   8   8   8   8
#     4  10  19  32  52  77 106 136 166 204 249 298
#     4   9  18  33  53  74  95 127 173 215 245 282
#     4  10  20  34  53  77 102 127 160 206 257 304
#     4   9  17  30  52  80 104 131 171 214 253 298
#     4  10  19  32  51  75 104 134 166 208 255 300
#     4  11  22  35  51  71  99 135 173 210 251 303
#     4   8  14  27  49  75 100 127 162 202 244 295
#     4   8  14  27  50  77 101 129 167 207 246 294
#
# _framework density 18.977713999999999
#
# number of rings (size 3 to 8) (size 9 to 14) (size 15 to 20)
#    0.000    2.625    0.000    3.375    0.000    4.250 
#    0.000    1.875    0.000    6.000    0.000    0.000 
#    0.000    0.000    0.000    0.000    0.000    0.000 
#
# Total GULP energy -793509.869506 kJ/mol
# GULP energy per Si atom -12398.591711 kJ/mol
# Density = 1.893452 g / cm^3
# Si number density = 18.977714 Si / 1000 Ang^3
#
#
#
# Elastic Constant Matrix: (Units=GPa)
#
#
# Indices 1 2 3 4 5 6 
#
# 1 135.5979 24.5655 84.8349 0.0000 0.0000 0.0000
# 2 24.5655 26.7998 25.1235 0.0000 0.0000 0.0000
# 3 84.8349 25.1235 182.6379 0.0000 0.0000 0.0000
# 4 0.0000 0.0000 0.0000 10.1819 0.0000 0.0000
# 5 0.0000 0.0000 0.0000 0.0000 14.1333 0.0000
# 6 0.0000 0.0000 0.0000 0.0000 0.0000 25.6139
#
#
#
# Elastic Compliance Matrix: (Units=1/GPa)
#
#
# Indices 1 2 3 4 5 6 
#
# 1 0.011227 -0.006202 -0.004362 0.000000 0.000000 0.000000
# 2 -0.006202 0.046264 -0.003483 0.000000 0.000000 0.000000
# 3 -0.004362 -0.003483 0.007981 0.000000 0.000000 0.000000
# 4 0.000000 0.000000 0.000000 0.098214 0.000000 0.000000
# 5 0.000000 0.000000 0.000000 0.000000 0.070755 0.000000
# 6 0.000000 0.000000 0.000000 0.000000 0.000000 0.039041
#
#
# Mechanical properties :
#
#
# Convention : Reuss Voigt Hill
#
# Bulk Modulus (GPa) = 26.75409 68.23149 47.49279
# Shear Modulus (GPa) = 15.92175 24.01992 19.97083
#
# Velocity S-wave (km/s) = 2.89964 3.56151 3.24748
# Velocity P-wave (km/s) = 5.03377 7.27627 6.25631
#
# Compressibility (1/GPa) = 0.03737746
#
# Stress axis : x y z
#
# Youngs Moduli (GPa) = 89.06835 21.61503 125.30484
#
# Poissons Ratio (x) = 0.13406 0.54657
# Poissons Ratio (y) = 0.55242 0.43645
# Poissons Ratio (z) = 0.38851 0.07529
#
# Static dielectric constant tensor:
#      x y z
#    x 3.337470 0.000000 0.000000 
#    y 0.000000 3.067630 0.000000 
#    z 0.000000 0.000000 3.926430 
# 
# 
# High freq. dielectric constant tensor:
#      x y z
#    x 1.731480 0.000000 0.000000 
#    y 0.000000 1.693070 0.000000 
#    z 0.000000 0.000000 1.760120 
# 
# From -- ./inp_files/30702.got.cif
#   From: 2010.03.12/outbox.cif.g09.slc.cpg/sg59_16_cif.got.tgz:30702.got - 2010.04.16 16:29:54.
