data_PCOD8241992
_publ_section_title
;
Structure prediction by ZEFSAII (Michael W. Deem and Ramdas Pophale) SiO2 
 PCOD8241992
Probable space group: P M M N
;
_chemical_formula_sum "Si O2"
_cell_formula_units_Z 64
_cell_length_a 25.435508
_cell_length_b 9.215546
_cell_length_c 14.271292
_cell_angle_alpha 90.000000
_cell_angle_beta 90.000000
_cell_angle_gamma 90.000000
_cell_volume 3345.220729
_symmetry_space_group_name_H-M "P M M N"
_symmetry_group_IT_number 59
_space_group.IT_coordinate_system_code '2'
_symmetry_cell_setting 'orthorhombic'
loop_
_space_group_symop_operation_xyz
x,y,z
1/2-x,1/2-y,z
1/2+x,-y,-z
-x,1/2+y,-z
-x,-y,-z
1/2+x,1/2+y,-z
1/2-x,y,z
x,1/2-y,z
loop_
_atom_site_type_symbol
_atom_site_label
_atom_site_fract_x
_atom_site_fract_y
_atom_site_fract_z
Si Si1 0.895473 0.080230 0.097736
Si Si2 0.689333 0.416702 0.393613
Si Si3 0.502224 0.416470 0.209583
Si Si4 0.810952 0.919494 0.208454
Si Si5 0.192258 0.920072 0.230411
Si Si6 0.527100 0.582532 0.584556
Si Si7 0.906348 0.079026 0.883271
Si Si8 0.366585 0.581247 0.416063
O O1 0.883259 0.250000 0.107779
O O2 0.943417 0.030577 0.163720
O O3 0.843456 0.992747 0.125282
O O4 0.909755 0.037832 0.991895
O O5 0.750000 0.443248 0.417925
O O6 0.678800 0.250000 0.366487
O O7 0.670561 0.514555 0.307401
O O8 0.656115 0.463591 0.483525
O O9 0.491103 0.250000 0.182263
O O10 0.507684 0.435158 0.321560
O O11 0.454985 0.510680 0.170298
O O12 0.750000 0.954596 0.189921
O O13 0.822507 0.750000 0.210465
O O14 0.250000 0.990158 0.211025
O O15 0.196257 0.750000 0.213231
O O16 0.148223 0.983725 0.159806
O O17 0.176916 0.952602 0.337750
O O18 0.500000 0.500000 0.500000
O O19 0.532939 0.750000 0.556462
O O20 0.583643 0.516595 0.606452
O O21 0.909680 0.250000 0.866173
O O22 0.383138 0.750000 0.414083
#
# Coordination Sequence:
#
# PCOD8241992 Si02
#       8
#     8   8   8   8   8   8   8   8
#     4  10  22  38  59  86 112 148 195 238 284 342
#     4   9  18  33  55  81 108 143 183 222 270 330
#     4  10  22  40  59  81 115 152 188 234 288 344
#     4  10  22  39  57  82 116 151 187 233 287 337
#     4   9  17  31  54  85 117 147 183 230 282 338
#     4  11  24  39  56  81 114 151 188 234 287 338
#     4  10  20  36  60  88 114 145 190 241 289 335
#     4  10  19  34  57  82 112 147 184 228 279 340
#
# _framework density 19.131772000000002
#
# number of rings (size 3 to 8) (size 9 to 14) (size 15 to 20)
#    0.000    2.125    1.250    1.500    1.750    4.750 
#    0.000    1.250    0.000    2.250    0.000    0.000 
#    0.000    0.000    0.000    0.000    0.000    0.000 
#
# Total GULP energy -793754.088954 kJ/mol
# GULP energy per Si atom -12402.407640 kJ/mol
# Density = 1.908823 g / cm^3
# Si number density = 19.131772 Si / 1000 Ang^3
#
#
#
# Elastic Constant Matrix: (Units=GPa)
#
#
# Indices 1 2 3 4 5 6 
#
# 1 102.3809 41.5739 49.1429 0.0000 0.0000 0.0000
# 2 41.5739 62.2339 44.3109 0.0000 0.0000 0.0000
# 3 49.1429 44.3109 110.4766 0.0000 0.0000 0.0000
# 4 0.0000 0.0000 0.0000 22.6851 0.0000 0.0000
# 5 0.0000 0.0000 0.0000 0.0000 33.1298 0.0000
# 6 0.0000 0.0000 0.0000 0.0000 0.0000 30.2780
#
#
#
# Elastic Compliance Matrix: (Units=1/GPa)
#
#
# Indices 1 2 3 4 5 6 
#
# 1 0.014333 -0.007048 -0.003549 0.000000 0.000000 0.000000
# 2 -0.007048 0.025957 -0.007276 0.000000 0.000000 0.000000
# 3 -0.003549 -0.007276 0.013549 0.000000 0.000000 0.000000
# 4 0.000000 0.000000 0.000000 0.044082 0.000000 0.000000
# 5 0.000000 0.000000 0.000000 0.000000 0.030184 0.000000
# 6 0.000000 0.000000 0.000000 0.000000 0.000000 0.033027
#
#
# Mechanical properties :
#
#
# Convention : Reuss Voigt Hill
#
# Bulk Modulus (GPa) = 55.26956 60.57185 57.92070
# Shear Modulus (GPa) = 24.64165 26.55617 25.59891
#
# Velocity S-wave (km/s) = 3.59276 3.72972 3.66188
# Velocity P-wave (km/s) = 6.79427 7.09061 6.94403
#
# Compressibility (1/GPa) = 0.01809314
#
# Stress axis : x y z
#
# Youngs Moduli (GPa) = 69.76992 38.52496 73.80839
#
# Poissons Ratio (x) = 0.27152 0.26193
# Poissons Ratio (y) = 0.49174 0.53703
# Poissons Ratio (z) = 0.24760 0.28031
#
# Static dielectric constant tensor:
#      x y z
#    x 3.647180 0.000000 0.000000 
#    y 0.000000 3.345070 0.000000 
#    z 0.000000 0.000000 3.607480 
# 
# 
# High freq. dielectric constant tensor:
#      x y z
#    x 1.749720 0.000000 0.000000 
#    y 0.000000 1.723270 0.000000 
#    z 0.000000 0.000000 1.754230 
# 
# From -- ./inp_files/21430.got.cif
#   From: 2010.03.12/outbox.cif.g09.slc.cpg/sg59_11_cif.got.tgz:21430.got - 2010.04.16 16:29:54.
