data_PCOD8241377
_publ_section_title
;
Structure prediction by ZEFSAII (Michael W. Deem and Ramdas Pophale) SiO2 
 PCOD8241377
Probable space group: P M M N
;
_chemical_formula_sum "Si O2"
_cell_formula_units_Z 48
_cell_length_a 12.768826
_cell_length_b 15.309158
_cell_length_c 11.897778
_cell_angle_alpha 90.000000
_cell_angle_beta 90.000000
_cell_angle_gamma 90.000000
_cell_volume 2325.777343
_symmetry_space_group_name_H-M "P M M N"
_symmetry_group_IT_number 59
_space_group.IT_coordinate_system_code '2'
_symmetry_cell_setting 'orthorhombic'
loop_
_space_group_symop_operation_xyz
x,y,z
1/2-x,1/2-y,z
1/2+x,-y,-z
-x,1/2+y,-z
-x,-y,-z
1/2+x,1/2+y,-z
1/2-x,y,z
x,1/2-y,z
loop_
_atom_site_type_symbol
_atom_site_label
_atom_site_fract_x
_atom_site_fract_y
_atom_site_fract_z
Si Si1 0.441309 0.854281 0.554886
Si Si2 0.132418 0.593689 0.793400
Si Si3 0.750000 0.144867 0.851938
Si Si4 0.636014 0.849815 0.423956
Si Si5 0.250000 0.646533 0.406697
Si Si6 0.866092 0.611425 0.174810
Si Si7 0.956905 0.096806 0.981631
O O1 0.439955 0.750000 0.558434
O O2 0.429779 0.891585 0.679221
O O3 0.550468 0.892674 0.506262
O O4 0.350846 0.889924 0.472921
O O5 0.250000 0.632894 0.783111
O O6 0.137781 0.492552 0.822863
O O7 0.070288 0.639893 0.896903
O O8 0.750000 0.250000 0.867310
O O9 0.750000 0.115355 0.721936
O O10 0.851765 0.100598 0.907252
O O11 0.750000 0.897024 0.436679
O O12 0.647989 0.750000 0.459026
O O13 0.596478 0.854681 0.295933
O O14 0.250000 0.750000 0.409861
O O15 0.750000 0.648104 0.145921
O O16 0.949603 0.647810 0.083511
O O17 0.000000 0.000000 0.000000
#
# Coordination Sequence:
#
# PCOD8241377 Si02
#       7
#     8   8   4   8   4   8   8
#     4  10  19  32  53  78 110 148 182 226 291 351
#     4  10  19  34  52  77 112 146 187 226 280 348
#     4  11  22  37  61  93 118 147 205 262 295 342
#     4   9  18  34  54  74 101 139 182 226 282 341
#     4   9  18  31  51  83 117 143 179 244 306 342
#     4   9  19  35  58  81 107 147 190 236 282 343
#     4  10  21  37  58  81 119 157 192 240 298 355
#
# _framework density 20.638262000000001
#
# number of rings (size 3 to 8) (size 9 to 14) (size 15 to 20)
#    0.000    2.333    1.667    1.000    1.167    3.333 
#    0.000    0.833    1.833    0.000    0.000    0.000 
#    0.000    0.000    0.000    0.000    0.000    0.000 
#
# Total GULP energy -594868.828346 kJ/mol
# GULP energy per Si atom -12393.100591 kJ/mol
# Density = 2.059129 g / cm^3
# Si number density = 20.638262 Si / 1000 Ang^3
#
#
#
# Elastic Constant Matrix: (Units=GPa)
#
#
# Indices 1 2 3 4 5 6 
#
# 1 175.5115 13.0878 118.0328 0.0000 0.0000 0.0000
# 2 13.0878 22.3404 5.0377 0.0000 0.0000 0.0000
# 3 118.0328 5.0377 203.2834 0.0000 0.0000 0.0000
# 4 0.0000 0.0000 0.0000 39.3498 0.0000 0.0000
# 5 0.0000 0.0000 0.0000 0.0000 40.8684 0.0000
# 6 0.0000 0.0000 0.0000 0.0000 0.0000 11.1046
#
#
#
# Elastic Compliance Matrix: (Units=1/GPa)
#
#
# Indices 1 2 3 4 5 6 
#
# 1 0.009772 -0.004470 -0.005563 0.000000 0.000000 0.000000
# 2 -0.004470 0.047059 0.001430 0.000000 0.000000 0.000000
# 3 -0.005563 0.001430 0.008114 0.000000 0.000000 0.000000
# 4 0.000000 0.000000 0.000000 0.025413 0.000000 0.000000
# 5 0.000000 0.000000 0.000000 0.000000 0.024469 0.000000
# 6 0.000000 0.000000 0.000000 0.000000 0.000000 0.090053
#
#
# Mechanical properties :
#
#
# Convention : Reuss Voigt Hill
#
# Bulk Modulus (GPa) = 20.94837 74.82800 47.88818
# Shear Modulus (GPa) = 21.00835 35.92969 28.46902
#
# Velocity S-wave (km/s) = 3.19397 4.17697 3.71810
# Velocity P-wave (km/s) = 4.87588 7.72000 6.45649
#
# Compressibility (1/GPa) = 0.04773641
#
# Stress axis : x y z
#
# Youngs Moduli (GPa) = 102.32881 21.25008 123.24226
#
# Poissons Ratio (x) = 0.09500 0.68565
# Poissons Ratio (y) = 0.45746 -0.17618
# Poissons Ratio (z) = 0.56930 -0.03038
#
# Static dielectric constant tensor:
#      x y z
#    x 4.390640 0.000000 0.000000 
#    y 0.000000 3.321140 0.000000 
#    z 0.000000 0.000000 4.012840 
# 
# 
# High freq. dielectric constant tensor:
#      x y z
#    x 1.820750 0.000000 0.000000 
#    y 0.000000 1.770740 0.000000 
#    z 0.000000 0.000000 1.812740 
# 
# From -- ./inp_files/15961.got.cif
#   From: 2010.03.12/outbox.cif.g09.slc.cpg/sg59_8_cif.got.tgz:15961.got - 2010.04.16 16:29:54.
