data_PCOD8241034
_publ_section_title
;
Structure prediction by ZEFSAII (Michael W. Deem and Ramdas Pophale) SiO2 
 PCOD8241034
Probable space group: P M M N
;
_chemical_formula_sum "Si O2"
_cell_formula_units_Z 64
_cell_length_a 8.871452
_cell_length_b 22.390683
_cell_length_c 16.436595
_cell_angle_alpha 90.000000
_cell_angle_beta 90.000000
_cell_angle_gamma 90.000000
_cell_volume 3264.930212
_symmetry_space_group_name_H-M "P M M N"
_symmetry_group_IT_number 59
_space_group.IT_coordinate_system_code '2'
_symmetry_cell_setting 'orthorhombic'
loop_
_space_group_symop_operation_xyz
x,y,z
1/2-x,1/2-y,z
1/2+x,-y,-z
-x,1/2+y,-z
-x,-y,-z
1/2+x,1/2+y,-z
1/2-x,y,z
x,1/2-y,z
loop_
_atom_site_type_symbol
_atom_site_label
_atom_site_fract_x
_atom_site_fract_y
_atom_site_fract_z
Si Si1 0.570695 0.681267 0.307262
Si Si2 0.076212 0.955974 0.593365
Si Si3 0.574645 0.117139 0.012015
Si Si4 0.080054 0.316768 0.151211
Si Si5 0.922975 0.989482 0.906513
Si Si6 0.071846 0.410886 0.556590
Si Si7 0.413838 0.417674 0.256451
Si Si8 0.571448 0.611710 0.145200
O O1 0.750000 0.682706 0.308282
O O2 0.509293 0.750000 0.311550
O O3 0.510153 0.642063 0.384431
O O4 0.515339 0.648169 0.224856
O O5 0.250000 0.952714 0.571750
O O6 0.992522 0.907718 0.535177
O O7 0.048151 0.938590 0.686324
O O8 0.016379 0.023970 0.586977
O O9 0.750000 0.117655 0.992358
O O10 0.541235 0.156257 0.089696
O O11 0.520664 0.046304 0.021780
O O12 0.483829 0.146468 0.935847
O O13 0.250000 0.322899 0.115202
O O14 0.030718 0.250000 0.166571
O O15 0.070705 0.346911 0.240523
O O16 0.750000 0.000449 0.934996
O O17 0.993684 0.047215 0.862632
O O18 0.926362 0.941864 0.834549
O O19 0.250000 0.406312 0.554005
O O20 0.250000 0.433977 0.295181
O O21 0.750000 0.603975 0.147815
#
# Coordination Sequence:
#
# PCOD8241034 Si02
#       8
#     8   8   8   8   8   8   8   8
#     4   9  19  36  57  79 103 137 182 225 264 313
#     4  10  19  31  52  82 110 135 166 208 261 317
#     4  11  22  35  52  77 108 140 178 223 271 320
#     4   9  19  37  57  75 100 137 179 219 261 311
#     4  10  20  35  54  78 109 142 176 217 270 323
#     4   9  18  34  55  78 104 134 171 214 259 309
#     4   9  18  32  52  78 105 134 168 208 255 309
#     4  11  21  34  54  79 106 137 177 223 270 319
#
# _framework density 19.602257999999999
#
# number of rings (size 3 to 8) (size 9 to 14) (size 15 to 20)
#    0.000    2.250    0.000    4.125    0.000    4.750 
#    0.000    3.125    0.000    6.750    0.000    0.000 
#    0.000    0.000    0.000    0.000    0.000    0.000 
#
# Total GULP energy -793117.169317 kJ/mol
# GULP energy per Si atom -12392.455771 kJ/mol
# Density = 1.955764 g / cm^3
# Si number density = 19.602258 Si / 1000 Ang^3
#
#
#
# Elastic Constant Matrix: (Units=GPa)
#
#
# Indices 1 2 3 4 5 6 
#
# 1 65.6831 25.6906 22.4344 0.0000 0.0000 0.0000
# 2 25.6906 101.3991 23.2200 0.0000 0.0000 0.0000
# 3 22.4344 23.2200 59.0954 0.0000 0.0000 0.0000
# 4 0.0000 0.0000 0.0000 29.5021 0.0000 0.0000
# 5 0.0000 0.0000 0.0000 0.0000 27.5028 0.0000
# 6 0.0000 0.0000 0.0000 0.0000 0.0000 20.7365
#
#
#
# Elastic Compliance Matrix: (Units=1/GPa)
#
#
# Indices 1 2 3 4 5 6 
#
# 1 0.018491 -0.003382 -0.005691 0.000000 0.000000 0.000000
# 2 -0.003382 0.011456 -0.003217 0.000000 0.000000 0.000000
# 3 -0.005691 -0.003217 0.020346 0.000000 0.000000 0.000000
# 4 0.000000 0.000000 0.000000 0.033896 0.000000 0.000000
# 5 0.000000 0.000000 0.000000 0.000000 0.036360 0.000000
# 6 0.000000 0.000000 0.000000 0.000000 0.000000 0.048224
#
#
# Mechanical properties :
#
#
# Convention : Reuss Voigt Hill
#
# Bulk Modulus (GPa) = 38.89094 40.98529 39.93812
# Shear Modulus (GPa) = 24.76178 25.87047 25.31612
#
# Velocity S-wave (km/s) = 3.55802 3.63681 3.59763
# Velocity P-wave (km/s) = 6.06321 6.21200 6.13806
#
# Compressibility (1/GPa) = 0.02571293
#
# Stress axis : x y z
#
# Youngs Moduli (GPa) = 54.08009 87.29373 49.14859
#
# Poissons Ratio (x) = 0.29520 0.27971
# Poissons Ratio (y) = 0.18288 0.15813
# Poissons Ratio (z) = 0.30777 0.28086
#
# Static dielectric constant tensor:
#      x y z
#    x 3.383120 0.000000 0.000000 
#    y 0.000000 3.752810 0.000000 
#    z 0.000000 0.000000 3.686090 
# 
# 
# High freq. dielectric constant tensor:
#      x y z
#    x 1.748990 0.000000 0.000000 
#    y 0.000000 1.758400 0.000000 
#    z 0.000000 0.000000 1.764420 
# 
# From -- ./inp_files/26270.got.cif
#   From: 2010.03.12/outbox.cif.g09.slc.cpg/sg59_14_cif.got.tgz:26270.got - 2010.04.16 16:29:54.
