data_PCOD8241306
_publ_section_title
;
Structure prediction by ZEFSAII (Michael W. Deem and Ramdas Pophale) SiO2 
 PCOD8241306
Probable space group: P M M N
;
_chemical_formula_sum "Si O2"
_cell_formula_units_Z 64
_cell_length_a 9.192621
_cell_length_b 22.736242
_cell_length_c 17.460148
_cell_angle_alpha 90.000000
_cell_angle_beta 90.000000
_cell_angle_gamma 90.000000
_cell_volume 3649.269681
_symmetry_space_group_name_H-M "P M M N"
_symmetry_group_IT_number 59
_space_group.IT_coordinate_system_code '2'
_symmetry_cell_setting 'orthorhombic'
loop_
_space_group_symop_operation_xyz
x,y,z
1/2-x,1/2-y,z
1/2+x,-y,-z
-x,1/2+y,-z
-x,-y,-z
1/2+x,1/2+y,-z
1/2-x,y,z
x,1/2-y,z
loop_
_atom_site_type_symbol
_atom_site_label
_atom_site_fract_x
_atom_site_fract_y
_atom_site_fract_z
Si Si1 0.920366 0.959548 0.676079
Si Si2 0.576944 0.184667 0.066348
Si Si3 0.921070 0.583893 0.347784
Si Si4 0.916578 0.316520 0.743988
Si Si5 0.085255 0.058282 0.489170
Si Si6 0.582459 0.366105 0.906192
Si Si7 0.085198 0.479904 0.925733
Si Si8 0.915099 0.088932 0.185090
O O1 0.750000 0.971616 0.690593
O O2 0.946022 0.920604 0.597938
O O3 0.983359 0.917547 0.741377
O O4 0.001002 0.022650 0.674400
O O5 0.750000 0.183957 0.064578
O O6 0.516889 0.250000 0.082815
O O7 0.520357 0.141665 0.133114
O O8 0.520309 0.163781 0.983284
O O9 0.750000 0.576633 0.330224
O O10 0.950556 0.600637 0.438256
O O11 0.980793 0.638051 0.299433
O O12 0.750000 0.329781 0.721071
O O13 0.959982 0.250000 0.721088
O O14 0.936009 0.321865 0.835466
O O15 0.250000 0.038595 0.495971
O O16 0.000000 0.000000 0.500000
O O17 0.750000 0.384911 0.917667
O O18 0.489482 0.423707 0.887520
O O19 0.250000 0.465279 0.949501
O O20 0.080082 0.529604 0.862468
O O21 0.000000 0.500000 0.000000
O O22 0.750000 0.102830 0.211021
#
# Coordination Sequence:
#
# PCOD8241306 Si02
#       8
#     8   8   8   8   8   8   8   8
#     4  10  19  32  52  78 105 133 164 205 258 312
#     4   9  17  32  53  71  90 124 169 210 245 288
#     4  10  19  33  53  76 104 136 168 206 251 304
#     4  10  21  35  52  76 105 137 175 216 255 301
#     4   8  16  30  49  74 101 128 160 194 238 296
#     4  10  19  34  53  74  98 130 169 208 252 301
#     4  11  21  33  49  72 101 131 164 206 254 303
#     4  10  20  33  49  74 102 129 166 209 251 300
#
# _framework density 17.537756000000002
#
# number of rings (size 3 to 8) (size 9 to 14) (size 15 to 20)
#    0.000    2.250    1.250    2.250    0.000    6.250 
#    0.000    0.000    0.000    3.000    0.000    3.500 
#    0.000    0.000    0.000    0.000    0.000    0.000 
#
# Total GULP energy -793174.088869 kJ/mol
# GULP energy per Si atom -12393.345139 kJ/mol
# Density = 1.749784 g / cm^3
# Si number density = 17.537756 Si / 1000 Ang^3
#
#
#
# Elastic Constant Matrix: (Units=GPa)
#
#
# Indices 1 2 3 4 5 6 
#
# 1 77.2503 35.7226 52.5865 0.0000 0.0000 0.0000
# 2 35.7226 100.5096 50.4690 0.0000 0.0000 0.0000
# 3 52.5865 50.4690 132.0368 0.0000 0.0000 0.0000
# 4 0.0000 0.0000 0.0000 18.6759 0.0000 0.0000
# 5 0.0000 0.0000 0.0000 0.0000 27.6856 0.0000
# 6 0.0000 0.0000 0.0000 0.0000 0.0000 19.6425
#
#
#
# Elastic Compliance Matrix: (Units=1/GPa)
#
#
# Indices 1 2 3 4 5 6 
#
# 1 0.018761 -0.003609 -0.006093 0.000000 0.000000 0.000000
# 2 -0.003609 0.013007 -0.003534 0.000000 0.000000 0.000000
# 3 -0.006093 -0.003534 0.011351 0.000000 0.000000 0.000000
# 4 0.000000 0.000000 0.000000 0.053545 0.000000 0.000000
# 5 0.000000 0.000000 0.000000 0.000000 0.036120 0.000000
# 6 0.000000 0.000000 0.000000 0.000000 0.000000 0.050910
#
#
# Mechanical properties :
#
#
# Convention : Reuss Voigt Hill
#
# Bulk Modulus (GPa) = 60.06908 65.26143 62.66526
# Shear Modulus (GPa) = 23.17882 24.60204 23.89043
#
# Velocity S-wave (km/s) = 3.63940 3.74947 3.69484
# Velocity P-wave (km/s) = 7.21013 7.48581 7.34926
#
# Compressibility (1/GPa) = 0.01664750
#
# Stress axis : x y z
#
# Youngs Moduli (GPa) = 53.30168 76.88431 88.09700
#
# Poissons Ratio (x) = 0.27745 0.53675
# Poissons Ratio (y) = 0.19235 0.31136
# Poissons Ratio (z) = 0.32475 0.27173
#
# Static dielectric constant tensor:
#      x y z
#    x 3.361720 0.000000 0.000000 
#    y 0.000000 3.157380 0.000000 
#    z 0.000000 0.000000 4.924620 
# 
# 
# High freq. dielectric constant tensor:
#      x y z
#    x 1.672120 0.000000 0.000000 
#    y 0.000000 1.650400 0.000000 
#    z 0.000000 0.000000 1.688560 
# 
# From -- ./inp_files/26164.got.cif
#   From: 2010.03.12/outbox.cif.g09.slc.cpg/sg59_14_cif.got.tgz:26164.got - 2010.04.16 16:29:54.
