data_PCOD8241435
_publ_section_title
;
Structure prediction by ZEFSAII (Michael W. Deem and Ramdas Pophale) SiO2 
 PCOD8241435
Probable space group: P M M N
;
_chemical_formula_sum "Si O2"
_cell_formula_units_Z 64
_cell_length_a 9.363578
_cell_length_b 15.239353
_cell_length_c 23.823198
_cell_angle_alpha 90.000000
_cell_angle_beta 90.000000
_cell_angle_gamma 90.000000
_cell_volume 3399.448153
_symmetry_space_group_name_H-M "P M M N"
_symmetry_group_IT_number 59
_space_group.IT_coordinate_system_code '2'
_symmetry_cell_setting 'orthorhombic'
loop_
_space_group_symop_operation_xyz
x,y,z
1/2-x,1/2-y,z
1/2+x,-y,-z
-x,1/2+y,-z
-x,-y,-z
1/2+x,1/2+y,-z
1/2-x,y,z
x,1/2-y,z
loop_
_atom_site_type_symbol
_atom_site_label
_atom_site_fract_x
_atom_site_fract_y
_atom_site_fract_z
Si Si1 0.580366 0.346858 0.054247
Si Si2 0.586532 0.606867 0.551452
Si Si3 0.087281 0.847266 0.657850
Si Si4 0.083119 0.498262 0.738622
Si Si5 0.087202 0.899860 0.444622
Si Si6 0.085012 0.849742 0.321951
Si Si7 0.917891 0.998547 0.132806
Si Si8 0.584956 0.148518 0.927471
O O1 0.750000 0.343961 0.056865
O O2 0.521311 0.250000 0.071005
O O3 0.519804 0.420065 0.096621
O O4 0.532402 0.370154 0.990987
O O5 0.750000 0.637575 0.549373
O O6 0.509971 0.653310 0.603025
O O7 0.511631 0.637942 0.493962
O O8 0.571493 0.503669 0.559770
O O9 0.250000 0.869636 0.640369
O O10 0.078440 0.750000 0.685002
O O11 0.030950 0.917721 0.702976
O O12 0.250000 0.481387 0.730554
O O13 0.044876 0.518275 0.802840
O O14 0.003667 0.410887 0.719273
O O15 0.250000 0.871903 0.457187
O O16 0.032556 0.859438 0.386156
O O17 0.250000 0.878089 0.318310
O O18 0.062077 0.750000 0.302119
O O19 0.750000 0.987434 0.122981
O O20 0.992232 0.908623 0.114923
O O21 0.750000 0.122575 0.920508
O O22 0.561206 0.250000 0.911934
#
# Coordination Sequence:
#
# PCOD8241435 Si02
#       8
#     8   8   8   8   8   8   8   8
#     4   8  15  30  53  80 109 139 173 214 259 309
#     4  10  19  32  54  82 109 136 168 210 262 317
#     4  10  21  37  56  76 102 139 178 216 262 315
#     4  10  22  38  54  76 107 138 175 222 266 308
#     4   9  18  33  53  79 109 137 167 208 260 316
#     4  10  21  38  59  79 101 136 180 219 259 311
#     4  10  20  33  53  80 106 137 176 219 265 308
#     4   9  18  33  53  78 108 142 177 212 255 310
#
# _framework density 18.826585999999999
#
# number of rings (size 3 to 8) (size 9 to 14) (size 15 to 20)
#    0.000    2.500    1.250    1.500    0.000    3.750 
#    0.000    6.250    0.000    1.125    0.000    1.750 
#    0.000    0.000    0.000    0.000    0.000    0.000 
#
# Total GULP energy -793657.688643 kJ/mol
# GULP energy per Si atom -12400.901385 kJ/mol
# Density = 1.878374 g / cm^3
# Si number density = 18.826586 Si / 1000 Ang^3
#
#
#
# Elastic Constant Matrix: (Units=GPa)
#
#
# Indices 1 2 3 4 5 6 
#
# 1 55.5195 34.3575 42.0897 0.0000 0.0000 0.0000
# 2 34.3575 89.6889 47.8797 0.0000 0.0000 0.0000
# 3 42.0897 47.8797 96.8642 0.0000 0.0000 0.0000
# 4 0.0000 0.0000 0.0000 11.3838 0.0000 0.0000
# 5 0.0000 0.0000 0.0000 0.0000 27.2343 0.0000
# 6 0.0000 0.0000 0.0000 0.0000 0.0000 24.4806
#
#
#
# Elastic Compliance Matrix: (Units=1/GPa)
#
#
# Indices 1 2 3 4 5 6 
#
# 1 0.029029 -0.005959 -0.009668 0.000000 0.000000 0.000000
# 2 -0.005959 0.016370 -0.005502 0.000000 0.000000 0.000000
# 3 -0.009668 -0.005502 0.017245 0.000000 0.000000 0.000000
# 4 0.000000 0.000000 0.000000 0.087844 0.000000 0.000000
# 5 0.000000 0.000000 0.000000 0.000000 0.036718 0.000000
# 6 0.000000 0.000000 0.000000 0.000000 0.000000 0.040849
#
#
# Mechanical properties :
#
#
# Convention : Reuss Voigt Hill
#
# Bulk Modulus (GPa) = 49.05720 54.52514 51.79117
# Shear Modulus (GPa) = 18.04352 20.46945 19.25649
#
# Velocity S-wave (km/s) = 3.09917 3.30094 3.20165
# Velocity P-wave (km/s) = 6.23863 6.59947 6.42158
#
# Compressibility (1/GPa) = 0.02038437
#
# Stress axis : x y z
#
# Youngs Moduli (GPa) = 34.44849 61.08862 57.98947
#
# Poissons Ratio (x) = 0.36402 0.56065
# Poissons Ratio (y) = 0.20528 0.31907
# Poissons Ratio (z) = 0.33306 0.33612
#
# Static dielectric constant tensor:
#      x y z
#    x 3.277040 0.000000 0.000000 
#    y 0.000000 3.541520 0.000000 
#    z 0.000000 0.000000 3.449500 
# 
# 
# High freq. dielectric constant tensor:
#      x y z
#    x 1.710360 0.000000 0.000000 
#    y 0.000000 1.737760 0.000000 
#    z 0.000000 0.000000 1.727450 
# 
# From -- ./inp_files/31419.got.cif
#   From: 2010.03.12/outbox.cif.g09.slc.cpg/sg59_16_cif.got.tgz:31419.got - 2010.04.16 16:29:54.
