data_PCOD8241434
_publ_section_title
;
Structure prediction by ZEFSAII (Michael W. Deem and Ramdas Pophale) SiO2 
 PCOD8241434
Probable space group: P M M N
;
_chemical_formula_sum "Si O2"
_cell_formula_units_Z 64
_cell_length_a 9.330959
_cell_length_b 15.260012
_cell_length_c 23.932021
_cell_angle_alpha 90.000000
_cell_angle_beta 90.000000
_cell_angle_gamma 90.000000
_cell_volume 3407.693545
_symmetry_space_group_name_H-M "P M M N"
_symmetry_group_IT_number 59
_space_group.IT_coordinate_system_code '2'
_symmetry_cell_setting 'orthorhombic'
loop_
_space_group_symop_operation_xyz
x,y,z
1/2-x,1/2-y,z
1/2+x,-y,-z
-x,1/2+y,-z
-x,-y,-z
1/2+x,1/2+y,-z
1/2-x,y,z
x,1/2-y,z
loop_
_atom_site_type_symbol
_atom_site_label
_atom_site_fract_x
_atom_site_fract_y
_atom_site_fract_z
Si Si1 0.086354 0.899096 0.446683
Si Si2 0.920170 0.653415 0.061603
Si Si3 0.086511 0.847418 0.660103
Si Si4 0.418937 0.496117 0.738907
Si Si5 0.914550 0.851704 0.935516
Si Si6 0.579970 0.008561 0.133669
Si Si7 0.085460 0.849200 0.324748
Si Si8 0.585339 0.894740 0.553542
O O1 0.250000 0.874973 0.461125
O O2 0.035897 0.854574 0.389217
O O3 0.987665 0.862209 0.496232
O O4 0.065712 0.002201 0.439202
O O5 0.750000 0.656715 0.063245
O O6 0.979508 0.750000 0.079039
O O7 0.979104 0.579469 0.103573
O O8 0.969063 0.630670 0.998641
O O9 0.250000 0.869474 0.643050
O O10 0.075891 0.750000 0.686597
O O11 0.030706 0.917347 0.705502
O O12 0.989974 0.848337 0.605241
O O13 0.250000 0.483064 0.735399
O O14 0.470306 0.505918 0.802392
O O15 0.489721 0.409884 0.713851
O O16 0.750000 0.881301 0.928835
O O17 0.932000 0.750000 0.920229
O O18 0.012420 0.906021 0.893738
O O19 0.750000 0.015841 0.128017
O O20 0.250000 0.880441 0.320389
O O21 0.066204 0.750000 0.303607
O O22 0.750000 0.865861 0.552099
#
# Coordination Sequence:
#
# PCOD8241434 Si02
#       8
#     8   8   8   8   8   8   8   8
#     4   9  18  33  53  79 110 140 168 206 262 323
#     4   8  15  30  52  78 110 144 177 215 263 320
#     4  10  21  37  55  73 100 141 181 218 267 323
#     4  10  22  38  55  78 108 140 180 226 268 312
#     4   9  18  33  53  78 109 145 180 215 261 318
#     4  10  20  33  54  82 107 139 180 224 270 312
#     4  10  21  38  59  80 105 141 181 218 262 317
#     4  10  19  32  54  82 108 134 169 216 266 317
#
# _framework density 18.781030999999999
#
# number of rings (size 3 to 8) (size 9 to 14) (size 15 to 20)
#    0.000    2.500    1.250    1.500    0.000    3.750 
#    0.000    3.750    0.000    1.125    0.000    0.000 
#    0.000    0.000    0.000    0.000    0.000    0.000 
#
# Total GULP energy -793648.210272 kJ/mol
# GULP energy per Si atom -12400.753286 kJ/mol
# Density = 1.873828 g / cm^3
# Si number density = 18.781031 Si / 1000 Ang^3
#
#
#
# Elastic Constant Matrix: (Units=GPa)
#
#
# Indices 1 2 3 4 5 6 
#
# 1 48.1742 33.9781 42.9605 0.0000 0.0000 0.0000
# 2 33.9781 99.5380 68.1815 0.0000 0.0000 0.0000
# 3 42.9605 68.1815 134.7041 0.0000 0.0000 0.0000
# 4 0.0000 0.0000 0.0000 4.3806 0.0000 0.0000
# 5 0.0000 0.0000 0.0000 0.0000 15.6586 0.0000
# 6 0.0000 0.0000 0.0000 0.0000 0.0000 26.7915
#
#
#
# Elastic Compliance Matrix: (Units=1/GPa)
#
#
# Indices 1 2 3 4 5 6 
#
# 1 0.031083 -0.005848 -0.006953 0.000000 0.000000 0.000000
# 2 -0.005848 0.016478 -0.006476 0.000000 0.000000 0.000000
# 3 -0.006953 -0.006476 0.012919 0.000000 0.000000 0.000000
# 4 0.000000 0.000000 0.000000 0.228278 0.000000 0.000000
# 5 0.000000 0.000000 0.000000 0.000000 0.063863 0.000000
# 6 0.000000 0.000000 0.000000 0.000000 0.000000 0.037325
#
#
# Mechanical properties :
#
#
# Convention : Reuss Voigt Hill
#
# Bulk Modulus (GPa) = 45.60543 63.62849 54.61696
# Shear Modulus (GPa) = 11.47292 18.51923 14.99607
#
# Velocity S-wave (km/s) = 2.47428 3.14357 2.82879
# Velocity P-wave (km/s) = 5.70071 6.86503 6.30979
#
# Compressibility (1/GPa) = 0.02192721
#
# Stress axis : x y z
#
# Youngs Moduli (GPa) = 32.17160 60.68621 77.40540
#
# Poissons Ratio (x) = 0.35487 0.53823
# Poissons Ratio (y) = 0.18813 0.50125
# Poissons Ratio (z) = 0.22370 0.39298
#
# Static dielectric constant tensor:
#      x y z
#    x 3.257700 0.000000 0.000000 
#    y 0.000000 3.544260 0.000000 
#    z 0.000000 0.000000 3.465710 
# 
# 
# High freq. dielectric constant tensor:
#      x y z
#    x 1.708920 0.000000 0.000000 
#    y 0.000000 1.736850 0.000000 
#    z 0.000000 0.000000 1.725260 
# 
# From -- ./inp_files/31553.got.cif
#   From: 2010.03.12/outbox.cif.g09.slc.cpg/sg59_16_cif.got.tgz:31553.got - 2010.04.16 16:29:54.
