data_PCOD8241976
_publ_section_title
;
Structure prediction by ZEFSAII (Michael W. Deem and Ramdas Pophale) SiO2 
 PCOD8241976
Probable space group: P M M N
;
_chemical_formula_sum "Si O2"
_cell_formula_units_Z 64
_cell_length_a 18.601611
_cell_length_b 9.203352
_cell_length_c 19.774297
_cell_angle_alpha 90.000000
_cell_angle_beta 90.000000
_cell_angle_gamma 90.000000
_cell_volume 3385.303760
_symmetry_space_group_name_H-M "P M M N"
_symmetry_group_IT_number 59
_space_group.IT_coordinate_system_code '2'
_symmetry_cell_setting 'orthorhombic'
loop_
_space_group_symop_operation_xyz
x,y,z
1/2-x,1/2-y,z
1/2+x,-y,-z
-x,1/2+y,-z
-x,-y,-z
1/2+x,1/2+y,-z
1/2-x,y,z
x,1/2-y,z
loop_
_atom_site_type_symbol
_atom_site_label
_atom_site_fract_x
_atom_site_fract_y
_atom_site_fract_z
Si Si1 0.927031 0.079697 0.294731
Si Si2 0.572789 0.077649 0.687165
Si Si3 0.166705 0.080386 0.207679
Si Si4 0.331509 0.914994 0.833769
Si Si5 0.579880 0.580890 0.067098
Si Si6 0.170298 0.579239 0.583673
Si Si7 0.562459 0.918698 0.913028
Si Si8 0.566808 0.080903 0.532394
O O1 0.945307 0.250000 0.302628
O O2 0.879443 0.045944 0.230102
O O3 0.883719 0.017516 0.359475
O O4 0.999784 0.990834 0.284475
O O5 0.571403 0.250000 0.696659
O O6 0.581707 0.031816 0.608943
O O7 0.639469 0.011830 0.728447
O O8 0.250000 0.043661 0.194955
O O9 0.155337 0.250000 0.223442
O O10 0.123312 0.033994 0.140267
O O11 0.250000 0.941957 0.811617
O O12 0.344152 0.750000 0.857361
O O13 0.349863 0.019415 0.896181
O O14 0.572442 0.750000 0.080335
O O15 0.510325 0.506245 0.100627
O O16 0.590081 0.544492 0.988151
O O17 0.250000 0.508817 0.589237
O O18 0.177017 0.750000 0.595717
O O19 0.138440 0.543107 0.509929
O O20 0.543323 0.750000 0.905259
O O21 0.548232 0.250000 0.528390
O O22 0.500000 0.000000 0.500000
#
# Coordination Sequence:
#
# PCOD8241976 Si02
#       8
#     8   8   8   8   8   8   8   8
#     4  10  19  34  57  79 103 142 187 228 264 316
#     4  11  23  36  55  84 115 145 177 223 279 331
#     4  10  22  40  60  81 107 145 192 235 275 325
#     4  10  21  35  51  76 110 144 180 223 270 322
#     4  10  20  34  56  84 111 141 181 227 277 331
#     4   9  17  31  54  81 104 134 180 226 266 312
#     4   9  19  37  59  81 107 142 185 231 272 321
#     4  10  20  35  56  81 109 143 181 224 269 324
#
# _framework density 18.905245000000001
#
# number of rings (size 3 to 8) (size 9 to 14) (size 15 to 20)
#    0.000    2.125    1.250    1.875    0.000    8.000 
#    0.000    2.500    0.000    2.250    0.000    0.000 
#    0.000    0.000    0.000    0.000    0.000    0.000 
#
# Total GULP energy -793761.124129 kJ/mol
# GULP energy per Si atom -12402.517565 kJ/mol
# Density = 1.886222 g / cm^3
# Si number density = 18.905245 Si / 1000 Ang^3
#
#
#
# Elastic Constant Matrix: (Units=GPa)
#
#
# Indices 1 2 3 4 5 6 
#
# 1 103.3490 34.4486 53.2602 0.0000 0.0000 0.0000
# 2 34.4486 49.9921 45.1936 0.0000 0.0000 0.0000
# 3 53.2602 45.1936 117.7628 0.0000 0.0000 0.0000
# 4 0.0000 0.0000 0.0000 27.7071 0.0000 0.0000
# 5 0.0000 0.0000 0.0000 0.0000 29.3088 0.0000
# 6 0.0000 0.0000 0.0000 0.0000 0.0000 23.8848
#
#
#
# Elastic Compliance Matrix: (Units=1/GPa)
#
#
# Indices 1 2 3 4 5 6 
#
# 1 0.013652 -0.005858 -0.003926 0.000000 0.000000 0.000000
# 2 -0.005858 0.033143 -0.010070 0.000000 0.000000 0.000000
# 3 -0.003926 -0.010070 0.014132 0.000000 0.000000 0.000000
# 4 0.000000 0.000000 0.000000 0.036092 0.000000 0.000000
# 5 0.000000 0.000000 0.000000 0.000000 0.034119 0.000000
# 6 0.000000 0.000000 0.000000 0.000000 0.000000 0.041868
#
#
# Mechanical properties :
#
#
# Convention : Reuss Voigt Hill
#
# Bulk Modulus (GPa) = 47.12814 59.65654 53.39234
# Shear Modulus (GPa) = 22.74934 25.39360 24.07147
#
# Velocity S-wave (km/s) = 3.47268 3.66895 3.57216
# Velocity P-wave (km/s) = 6.40797 7.04076 6.73180
#
# Compressibility (1/GPa) = 0.02121875
#
# Stress axis : x y z
#
# Youngs Moduli (GPa) = 73.25005 30.17219 70.76208
#
# Poissons Ratio (x) = 0.17675 0.27783
# Poissons Ratio (y) = 0.42909 0.71257
# Poissons Ratio (z) = 0.28760 0.30383
#
# Static dielectric constant tensor:
#      x y z
#    x 3.547760 0.000000 0.000000 
#    y 0.000000 3.311990 0.000000 
#    z 0.000000 0.000000 3.655740 
# 
# 
# High freq. dielectric constant tensor:
#      x y z
#    x 1.735810 0.000000 0.000000 
#    y 0.000000 1.714920 0.000000 
#    z 0.000000 0.000000 1.746880 
# 
# From -- ./inp_files/30833.got.cif
#   From: 2010.03.12/outbox.cif.g09.slc.cpg/sg59_16_cif.got.tgz:30833.got - 2010.04.16 16:29:54.
