data_PCOD8241573
_publ_section_title
;
Structure prediction by ZEFSAII (Michael W. Deem and Ramdas Pophale) SiO2 
 PCOD8241573
Probable space group: P M M N
;
_chemical_formula_sum "Si O2"
_cell_formula_units_Z 48
_cell_length_a 12.546704
_cell_length_b 13.853886
_cell_length_c 14.641733
_cell_angle_alpha 90.000000
_cell_angle_beta 90.000000
_cell_angle_gamma 90.000000
_cell_volume 2545.034916
_symmetry_space_group_name_H-M "P M M N"
_symmetry_group_IT_number 59
_space_group.IT_coordinate_system_code '2'
_symmetry_cell_setting 'orthorhombic'
loop_
_space_group_symop_operation_xyz
x,y,z
1/2-x,1/2-y,z
1/2+x,-y,-z
-x,1/2+y,-z
-x,-y,-z
1/2+x,1/2+y,-z
1/2-x,y,z
x,1/2-y,z
loop_
_atom_site_type_symbol
_atom_site_label
_atom_site_fract_x
_atom_site_fract_y
_atom_site_fract_z
Si Si1 0.373149 0.491087 0.903190
Si Si2 0.446327 0.136566 0.530306
Si Si3 0.370145 0.039442 0.702712
Si Si4 0.750000 0.636090 0.796600
Si Si5 0.938469 0.865540 0.930555
Si Si6 0.250000 0.365022 0.410173
Si Si7 0.130645 0.857125 0.596741
O O1 0.250000 0.525855 0.902105
O O2 0.404614 0.442125 0.806518
O O3 0.446108 0.585433 0.918088
O O4 0.389024 0.406682 0.976257
O O5 0.437437 0.250000 0.539344
O O6 0.445347 0.095159 0.632395
O O7 0.352197 0.096306 0.465618
O O8 0.557094 0.103412 0.484950
O O9 0.250000 0.076135 0.685154
O O10 0.379249 0.924320 0.685305
O O11 0.750000 0.750000 0.792275
O O12 0.642536 0.603193 0.849462
O O13 0.750000 0.592841 0.693611
O O14 0.951393 0.750000 0.937507
O O15 0.250000 0.250000 0.404798
O O16 0.250000 0.856465 0.557412
O O17 0.093955 0.750000 0.627721
#
# Coordination Sequence:
#
# PCOD8241573 Si02
#       7
#     8   8   8   4   8   4   8
#     4  10  22  38  58  86 114 143 185 233 280 337
#     4  10  19  33  53  77 110 143 180 226 266 317
#     4  10  20  34  53  79 110 142 177 218 269 325
#     4   9  18  34  57  81 106 141 187 231 279 330
#     4  10  21  39  61  83 112 147 185 233 284 334
#     4   9  18  30  49  81 108 135 179 229 275 316
#     4   9  19  34  50  70 102 145 186 223 264 314
#
# _framework density 18.860253
#
# number of rings (size 3 to 8) (size 9 to 14) (size 15 to 20)
#    0.000    2.333    1.667    0.500    2.333    1.667 
#    0.000    3.333    0.000    0.000    0.000    2.333 
#    0.000    0.000    0.000    0.000    0.000    0.000 
#
# Total GULP energy -595063.305570 kJ/mol
# GULP energy per Si atom -12397.152199 kJ/mol
# Density = 1.881733 g / cm^3
# Si number density = 18.860253 Si / 1000 Ang^3
#
#
#
# Elastic Constant Matrix: (Units=GPa)
#
#
# Indices 1 2 3 4 5 6 
#
# 1 94.5713 28.7084 48.7521 0.0000 0.0000 0.0000
# 2 28.7084 39.0664 27.0285 0.0000 0.0000 0.0000
# 3 48.7521 27.0285 143.5901 0.0000 0.0000 0.0000
# 4 0.0000 0.0000 0.0000 20.7516 0.0000 0.0000
# 5 0.0000 0.0000 0.0000 0.0000 21.7814 0.0000
# 6 0.0000 0.0000 0.0000 0.0000 0.0000 21.4709
#
#
#
# Elastic Compliance Matrix: (Units=1/GPa)
#
#
# Indices 1 2 3 4 5 6 
#
# 1 0.014972 -0.008606 -0.003463 0.000000 0.000000 0.000000
# 2 -0.008606 0.034377 -0.003549 0.000000 0.000000 0.000000
# 3 -0.003463 -0.003549 0.008808 0.000000 0.000000 0.000000
# 4 0.000000 0.000000 0.000000 0.048189 0.000000 0.000000
# 5 0.000000 0.000000 0.000000 0.000000 0.045911 0.000000
# 6 0.000000 0.000000 0.000000 0.000000 0.000000 0.046575
#
#
# Mechanical properties :
#
#
# Convention : Reuss Voigt Hill
#
# Bulk Modulus (GPa) = 37.14656 54.02288 45.58472
# Shear Modulus (GPa) = 20.91683 24.31671 22.61677
#
# Velocity S-wave (km/s) = 3.33384 3.59459 3.46667
# Velocity P-wave (km/s) = 5.87859 6.77747 6.34397
#
# Compressibility (1/GPa) = 0.02692040
#
# Stress axis : x y z
#
# Youngs Moduli (GPa) = 66.79177 29.08905 113.53075
#
# Poissons Ratio (x) = 0.25034 0.39320
# Poissons Ratio (y) = 0.57482 0.40292
# Poissons Ratio (z) = 0.23132 0.10324
#
# Static dielectric constant tensor:
#      x y z
#    x 3.628750 0.000000 0.000000 
#    y 0.000000 3.290500 0.000000 
#    z 0.000000 0.000000 3.544990 
# 
# 
# High freq. dielectric constant tensor:
#      x y z
#    x 1.737430 0.000000 0.000000 
#    y 0.000000 1.714840 0.000000 
#    z 0.000000 0.000000 1.732400 
# 
# From -- ./inp_files/22430.got.cif
#   From: 2010.03.12/outbox.cif.g09.slc.cpg/sg59_12_cif.got.tgz:22430.got - 2010.04.16 16:29:54.
