data_PCOD8241860
_publ_section_title
;
Structure prediction by ZEFSAII (Michael W. Deem and Ramdas Pophale) SiO2 
 PCOD8241860
Probable space group: P M M N
;
_chemical_formula_sum "Si O2"
_cell_formula_units_Z 48
_cell_length_a 16.658879
_cell_length_b 9.357343
_cell_length_c 16.450375
_cell_angle_alpha 90.000000
_cell_angle_beta 90.000000
_cell_angle_gamma 90.000000
_cell_volume 2564.331253
_symmetry_space_group_name_H-M "P M M N"
_symmetry_group_IT_number 59
_space_group.IT_coordinate_system_code '2'
_symmetry_cell_setting 'orthorhombic'
loop_
_space_group_symop_operation_xyz
x,y,z
1/2-x,1/2-y,z
1/2+x,-y,-z
-x,1/2+y,-z
-x,-y,-z
1/2+x,1/2+y,-z
1/2-x,y,z
x,1/2-y,z
loop_
_atom_site_type_symbol
_atom_site_label
_atom_site_fract_x
_atom_site_fract_y
_atom_site_fract_z
Si Si1 0.425751 0.418444 0.956471
Si Si2 0.157165 0.593700 0.648690
Si Si3 0.604754 0.080777 0.695804
Si Si4 0.750000 0.582425 0.970194
Si Si5 0.919448 0.082351 0.516111
Si Si6 0.940098 0.918416 0.229800
Si Si7 0.750000 0.079300 0.802426
O O1 0.441256 0.250000 0.967965
O O2 0.430794 0.466237 0.862987
O O3 0.500000 0.500000 0.000000
O O4 0.334189 0.458094 0.984219
O O5 0.250000 0.608660 0.659905
O O6 0.116577 0.750000 0.662170
O O7 0.140451 0.541316 0.556641
O O8 0.130129 0.483030 0.716379
O O9 0.606115 0.250000 0.700951
O O10 0.617021 0.030837 0.602526
O O11 0.522422 0.020593 0.732895
O O12 0.674580 0.019885 0.752291
O O13 0.750000 0.750000 0.950666
O O14 0.750000 0.490451 0.889695
O O15 0.938200 0.250000 0.520475
O O16 0.000000 0.000000 0.500000
O O17 0.934287 0.750000 0.237917
O O18 0.750000 0.250000 0.812508
#
# Coordination Sequence:
#
# PCOD8241860 Si02
#       7
#     8   8   8   4   8   8   4
#     4  10  22  39  61  87 116 150 189 234 288 344
#     4  10  22  36  52  79 113 146 183 227 275 325
#     4   9  18  32  54  83 110 138 181 230 268 313
#     4  10  22  40  58  83 118 150 180 231 296 344
#     4  10  19  34  54  77 107 144 182 223 272 323
#     4  10  20  36  58  82 108 144 189 228 270 330
#     4  10  20  36  60  85 108 142 188 231 272 328
#
# _framework density 18.718330000000002
#
# number of rings (size 3 to 8) (size 9 to 14) (size 15 to 20)
#    0.000    2.167    1.667    1.000    2.333    3.000 
#    0.000    1.667    0.000    0.000    0.000    0.000 
#    0.000    0.000    0.000    0.000    0.000    0.000 
#
# Total GULP energy -594911.891712 kJ/mol
# GULP energy per Si atom -12393.997744 kJ/mol
# Density = 1.867573 g / cm^3
# Si number density = 18.718330 Si / 1000 Ang^3
#
#
#
# Elastic Constant Matrix: (Units=GPa)
#
#
# Indices 1 2 3 4 5 6 
#
# 1 116.8001 33.7728 68.1941 0.0000 0.0000 0.0000
# 2 33.7728 32.1046 48.0859 0.0000 0.0000 0.0000
# 3 68.1941 48.0859 185.7148 0.0000 0.0000 0.0000
# 4 0.0000 0.0000 0.0000 27.7717 0.0000 0.0000
# 5 0.0000 0.0000 0.0000 0.0000 29.5791 0.0000
# 6 0.0000 0.0000 0.0000 0.0000 0.0000 26.8432
#
#
#
# Elastic Compliance Matrix: (Units=1/GPa)
#
#
# Indices 1 2 3 4 5 6 
#
# 1 0.012732 -0.010439 -0.001972 0.000000 0.000000 0.000000
# 2 -0.010439 0.059440 -0.011557 0.000000 0.000000 0.000000
# 3 -0.001972 -0.011557 0.009101 0.000000 0.000000 0.000000
# 4 0.000000 0.000000 0.000000 0.036008 0.000000 0.000000
# 5 0.000000 0.000000 0.000000 0.000000 0.033808 0.000000
# 6 0.000000 0.000000 0.000000 0.000000 0.000000 0.037253
#
#
# Mechanical properties :
#
#
# Convention : Reuss Voigt Hill
#
# Bulk Modulus (GPa) = 29.99788 70.52501 50.26145
# Shear Modulus (GPa) = 20.21095 29.14325 24.67710
#
# Velocity S-wave (km/s) = 3.28951 3.95008 3.63483
# Velocity P-wave (km/s) = 5.52164 7.65265 6.67276
#
# Compressibility (1/GPa) = 0.03333569
#
# Stress axis : x y z
#
# Youngs Moduli (GPa) = 78.54497 16.82367 109.87686
#
# Poissons Ratio (x) = 0.17563 0.21667
# Poissons Ratio (y) = 0.81997 1.26985
# Poissons Ratio (z) = 0.15489 0.19443
#
# Static dielectric constant tensor:
#      x y z
#    x 3.808630 0.000000 0.000000 
#    y 0.000000 3.275390 0.000000 
#    z 0.000000 0.000000 3.647280 
# 
# 
# High freq. dielectric constant tensor:
#      x y z
#    x 1.734460 0.000000 0.000000 
#    y 0.000000 1.700360 0.000000 
#    z 0.000000 0.000000 1.744680 
# 
# From -- ./inp_files/23684.got.cif
#   From: 2010.03.12/outbox.cif.g09.slc.cpg/sg59_12_cif.got.tgz:23684.got - 2010.04.16 16:29:54.
