data_PCOD8241271
_publ_section_title
;
Structure prediction by ZEFSAII (Michael W. Deem and Ramdas Pophale) SiO2 
 PCOD8241271
Probable space group: P M M N
;
_chemical_formula_sum "Si O2"
_cell_formula_units_Z 64
_cell_length_a 31.693860
_cell_length_b 8.890133
_cell_length_c 12.034925
_cell_angle_alpha 90.000000
_cell_angle_beta 90.000000
_cell_angle_gamma 90.000000
_cell_volume 3390.992128
_symmetry_space_group_name_H-M "P M M N"
_symmetry_group_IT_number 59
_space_group.IT_coordinate_system_code '2'
_symmetry_cell_setting 'orthorhombic'
loop_
_space_group_symop_operation_xyz
x,y,z
1/2-x,1/2-y,z
1/2+x,-y,-z
-x,1/2+y,-z
-x,-y,-z
1/2+x,1/2+y,-z
1/2-x,y,z
x,1/2-y,z
loop_
_atom_site_type_symbol
_atom_site_label
_atom_site_fract_x
_atom_site_fract_y
_atom_site_fract_z
Si Si1 0.873055 0.575596 0.395041
Si Si2 0.946301 0.424006 0.259105
Si Si3 0.621740 0.575876 0.879911
Si Si4 0.045940 0.574719 0.992266
Si Si5 0.600518 0.579698 0.635320
Si Si6 0.296889 0.428755 0.993320
Si Si7 0.204043 0.428673 0.743356
Si Si8 0.515148 0.425282 0.612616
O O1 0.879013 0.750000 0.363682
O O2 0.911668 0.486741 0.342780
O O3 0.870098 0.552346 0.527700
O O4 0.830391 0.507806 0.342277
O O5 0.952692 0.250000 0.286088
O O6 0.934673 0.451058 0.130632
O O7 0.990090 0.508428 0.282570
O O8 0.616830 0.750000 0.913417
O O9 0.627088 0.555224 0.747487
O O10 0.664937 0.506640 0.931371
O O11 0.579491 0.493677 0.921698
O O12 0.040353 0.750000 0.019173
O O13 0.000000 0.500000 0.000000
O O14 0.581961 0.750000 0.631815
O O15 0.563813 0.457938 0.633135
O O16 0.250000 0.486923 0.030859
O O17 0.296680 0.250000 0.000160
O O18 0.306244 0.483706 0.867998
O O19 0.250000 0.489951 0.706892
O O20 0.204293 0.250000 0.740786
O O21 0.500000 0.500000 0.500000
O O22 0.506706 0.250000 0.604153
#
# Coordination Sequence:
#
# PCOD8241271 Si02
#       8
#     8   8   8   8   8   8   8   8
#     4  10  19  32  52  76 103 138 176 214 264 316
#     4  11  23  37  54  78 106 134 172 222 268 312
#     4  10  20  35  55  78 109 147 186 230 277 325
#     4  11  24  39  55  78 108 141 180 227 275 328
#     4  10  21  35  50  75 109 142 181 226 265 312
#     4   8  14  27  50  79 107 137 178 227 277 327
#     4   8  14  26  47  76 105 132 170 220 268 318
#     4  12  23  36  55  77 103 139 180 219 262 315
#
# _framework density 18.873532000000001
#
# number of rings (size 3 to 8) (size 9 to 14) (size 15 to 20)
#    0.000    2.000    1.250    4.125    0.000    6.500 
#    0.000    0.625    0.000    4.500    0.000    3.500 
#    0.000    3.000    0.000    0.000    0.000    0.000 
#
# Total GULP energy -793465.540209 kJ/mol
# GULP energy per Si atom -12397.899066 kJ/mol
# Density = 1.883057 g / cm^3
# Si number density = 18.873532 Si / 1000 Ang^3
#
#
#
# Elastic Constant Matrix: (Units=GPa)
#
#
# Indices 1 2 3 4 5 6 
#
# 1 137.8668 29.9055 66.9687 0.0000 0.0000 0.0000
# 2 29.9055 73.9838 36.6388 0.0000 0.0000 0.0000
# 3 66.9687 36.6388 121.7377 0.0000 0.0000 0.0000
# 4 0.0000 0.0000 0.0000 19.0603 0.0000 0.0000
# 5 0.0000 0.0000 0.0000 0.0000 35.7953 0.0000
# 6 0.0000 0.0000 0.0000 0.0000 0.0000 15.9292
#
#
#
# Elastic Compliance Matrix: (Units=1/GPa)
#
#
# Indices 1 2 3 4 5 6 
#
# 1 0.010049 -0.001556 -0.005059 0.000000 0.000000 0.000000
# 2 -0.001556 0.016125 -0.003997 0.000000 0.000000 0.000000
# 3 -0.005059 -0.003997 0.012201 0.000000 0.000000 0.000000
# 4 0.000000 0.000000 0.000000 0.052465 0.000000 0.000000
# 5 0.000000 0.000000 0.000000 0.000000 0.027937 0.000000
# 6 0.000000 0.000000 0.000000 0.000000 0.000000 0.062778
#
#
# Mechanical properties :
#
#
# Convention : Reuss Voigt Hill
#
# Bulk Modulus (GPa) = 58.31296 66.73490 62.52393
# Shear Modulus (GPa) = 23.98142 27.49533 25.73838
#
# Velocity S-wave (km/s) = 3.56847 3.82097 3.69688
# Velocity P-wave (km/s) = 6.92404 7.40960 7.17093
#
# Compressibility (1/GPa) = 0.01714885
#
# Stress axis : x y z
#
# Youngs Moduli (GPa) = 99.51685 62.01585 81.96372
#
# Poissons Ratio (x) = 0.09651 0.41469
# Poissons Ratio (y) = 0.15487 0.32760
# Poissons Ratio (z) = 0.50350 0.24787
#
# Static dielectric constant tensor:
#      x y z
#    x 3.813190 0.000000 0.000000 
#    y 0.000000 3.235100 0.000000 
#    z 0.000000 0.000000 4.072080 
# 
# 
# High freq. dielectric constant tensor:
#      x y z
#    x 1.728280 0.000000 0.000000 
#    y 0.000000 1.705430 0.000000 
#    z 0.000000 0.000000 1.740210 
# 
# From -- ./inp_files/19236.got.cif
#   From: 2010.03.12/outbox.cif.g09.slc.cpg/sg59_10_cif.got.tgz:19236.got - 2010.04.16 16:29:54.
