data_PCOD8241368
_publ_section_title
;
Structure prediction by ZEFSAII (Michael W. Deem and Ramdas Pophale) SiO2 
 PCOD8241368
Probable space group: P M M N
;
_chemical_formula_sum "Si O2"
_cell_formula_units_Z 56
_cell_length_a 8.819052
_cell_length_b 21.041799
_cell_length_c 16.563733
_cell_angle_alpha 90.000000
_cell_angle_beta 90.000000
_cell_angle_gamma 90.000000
_cell_volume 3073.710724
_symmetry_space_group_name_H-M "P M M N"
_symmetry_group_IT_number 59
_space_group.IT_coordinate_system_code '2'
_symmetry_cell_setting 'orthorhombic'
loop_
_space_group_symop_operation_xyz
x,y,z
1/2-x,1/2-y,z
1/2+x,-y,-z
-x,1/2+y,-z
-x,-y,-z
1/2+x,1/2+y,-z
1/2-x,y,z
x,1/2-y,z
loop_
_atom_site_type_symbol
_atom_site_label
_atom_site_fract_x
_atom_site_fract_y
_atom_site_fract_z
Si Si1 0.926123 0.530149 0.626220
Si Si2 0.926812 0.322816 0.954408
Si Si3 0.424911 0.521342 0.797563
Si Si4 0.429100 0.439499 0.044917
Si Si5 0.576858 0.412229 0.515681
Si Si6 0.923563 0.625759 0.197131
Si Si7 0.075542 0.822169 0.348050
O O1 0.750000 0.534200 0.647300
O O2 0.970892 0.464847 0.581937
O O3 0.018095 0.537150 0.708372
O O4 0.973028 0.586232 0.564168
O O5 0.750000 0.337567 0.964894
O O6 0.963360 0.250000 0.979867
O O7 0.971687 0.332018 0.860910
O O8 0.021555 0.372204 0.007620
O O9 0.250000 0.541165 0.803095
O O10 0.520189 0.562038 0.861834
O O11 0.447964 0.448107 0.821537
O O12 0.250000 0.445569 0.037430
O O13 0.500000 0.500000 0.000000
O O14 0.750000 0.423326 0.488734
O O15 0.552396 0.345002 0.559775
O O16 0.750000 0.645756 0.184046
O O17 0.970606 0.637382 0.289046
O O18 0.250000 0.831878 0.322083
O O19 0.023451 0.750000 0.343766
#
# Coordination Sequence:
#
# PCOD8241368 Si02
#       7
#     8   8   8   8   8   8   8
#     4  10  19  32  53  78 104 138 177 223 276 325
#     4  11  24  41  61  84 115 155 195 236 285 344
#     4  11  22  36  56  83 115 149 185 232 285 336
#     4  12  24  39  61  87 116 151 192 240 290 342
#     4   9  18  32  50  74 105 139 177 221 268 322
#     4  11  22  34  53  81 115 152 188 228 278 336
#     4  10  20  34  52  75 108 149 187 223 270 331
#
# _framework density 18.21902
#
# number of rings (size 3 to 8) (size 9 to 14) (size 15 to 20)
#    0.000    1.429    2.857    3.429    0.000    5.429 
#    0.000    0.000    0.000    0.857    0.000    2.000 
#    0.000    0.000    0.000    0.000    0.000    0.000 
#
# Total GULP energy -694553.265336 kJ/mol
# GULP energy per Si atom -12402.736881 kJ/mol
# Density = 1.817755 g / cm^3
# Si number density = 18.219020 Si / 1000 Ang^3
#
#
#
# Elastic Constant Matrix: (Units=GPa)
#
#
# Indices 1 2 3 4 5 6 
#
# 1 107.1975 49.2059 53.1250 0.0000 0.0000 0.0000
# 2 49.2059 70.3330 37.3812 0.0000 0.0000 0.0000
# 3 53.1250 37.3812 102.5168 0.0000 0.0000 0.0000
# 4 0.0000 0.0000 0.0000 23.1082 0.0000 0.0000
# 5 0.0000 0.0000 0.0000 0.0000 36.7299 0.0000
# 6 0.0000 0.0000 0.0000 0.0000 0.0000 22.6859
#
#
#
# Elastic Compliance Matrix: (Units=1/GPa)
#
#
# Indices 1 2 3 4 5 6 
#
# 1 0.015632 -0.008225 -0.005102 0.000000 0.000000 0.000000
# 2 -0.008225 0.021964 -0.003746 0.000000 0.000000 0.000000
# 3 -0.005102 -0.003746 0.013764 0.000000 0.000000 0.000000
# 4 0.000000 0.000000 0.000000 0.043275 0.000000 0.000000
# 5 0.000000 0.000000 0.000000 0.000000 0.027226 0.000000
# 6 0.000000 0.000000 0.000000 0.000000 0.000000 0.044080
#
#
# Mechanical properties :
#
#
# Convention : Reuss Voigt Hill
#
# Bulk Modulus (GPa) = 58.09236 62.16348 60.12792
# Shear Modulus (GPa) = 24.29245 25.86049 25.07647
#
# Velocity S-wave (km/s) = 3.65548 3.77161 3.71400
# Velocity P-wave (km/s) = 7.05489 7.29115 7.17399
#
# Compressibility (1/GPa) = 0.01721397
#
# Stress axis : x y z
#
# Youngs Moduli (GPa) = 63.96992 45.52975 72.65195
#
# Poissons Ratio (x) = 0.37449 0.37064
# Poissons Ratio (y) = 0.52616 0.27218
# Poissons Ratio (z) = 0.32635 0.17057
#
# Static dielectric constant tensor:
#      x y z
#    x 3.475000 0.000000 0.000000 
#    y 0.000000 3.262980 0.000000 
#    z 0.000000 0.000000 3.393130 
# 
# 
# High freq. dielectric constant tensor:
#      x y z
#    x 1.716190 0.000000 0.000000 
#    y 0.000000 1.682110 0.000000 
#    z 0.000000 0.000000 1.706560 
# 
# From -- ./inp_files/20942.got.cif
#   From: 2010.03.12/outbox.cif.g09.slc.cpg/sg59_11_cif.got.tgz:20942.got - 2010.04.16 16:29:54.
