data_PCOD8241366
_publ_section_title
;
Structure prediction by ZEFSAII (Michael W. Deem and Ramdas Pophale) SiO2 
 PCOD8241366
Probable space group: P M M N
;
_chemical_formula_sum "Si O2"
_cell_formula_units_Z 48
_cell_length_a 31.097943
_cell_length_b 8.938320
_cell_length_c 9.171141
_cell_angle_alpha 90.000000
_cell_angle_beta 90.000000
_cell_angle_gamma 90.000000
_cell_volume 2549.241221
_symmetry_space_group_name_H-M "P M M N"
_symmetry_group_IT_number 59
_space_group.IT_coordinate_system_code '2'
_symmetry_cell_setting 'orthorhombic'
loop_
_space_group_symop_operation_xyz
x,y,z
1/2-x,1/2-y,z
1/2+x,-y,-z
-x,1/2+y,-z
-x,-y,-z
1/2+x,1/2+y,-z
1/2-x,y,z
x,1/2-y,z
loop_
_atom_site_type_symbol
_atom_site_label
_atom_site_fract_x
_atom_site_fract_y
_atom_site_fract_z
Si Si1 0.250000 0.078137 0.334798
Si Si2 0.999100 0.573240 0.343022
Si Si3 0.157779 0.427022 0.349960
Si Si4 0.655888 0.078679 0.339424
Si Si5 0.750000 0.418042 0.375322
Si Si6 0.083933 0.425502 0.836135
Si Si7 0.574901 0.925018 0.831005
O O1 0.250000 0.250000 0.295143
O O2 0.296322 0.013115 0.280702
O O3 0.250000 0.049808 0.507362
O O4 0.000697 0.750000 0.360706
O O5 0.955723 0.521053 0.262767
O O6 0.000000 0.500000 0.500000
O O7 0.039354 0.521014 0.249691
O O8 0.160271 0.250000 0.379798
O O9 0.147748 0.504533 0.503505
O O10 0.121141 0.467458 0.234995
O O11 0.641954 0.250000 0.353960
O O12 0.705701 0.063146 0.284733
O O13 0.627413 0.002658 0.216082
O O14 0.750000 0.250000 0.446792
O O15 0.091225 0.250000 0.825164
O O16 0.074482 0.473849 0.001245
O O17 0.564666 0.750000 0.810396
#
# Coordination Sequence:
#
# PCOD8241366 Si02
#       7
#     4   8   8   8   4   8   8
#     4   8  14  26  47  74 100 128 164 204 249 298
#     4  11  23  38  57  79 103 133 171 214 258 307
#     4   9  17  31  52  76 102 132 167 209 253 298
#     4  10  19  32  53  78 104 136 174 214 254 300
#     4   8  16  30  47  72 104 134 168 212 255 292
#     4  10  22  38  53  74 106 139 170 209 258 308
#     4  10  21  37  55  76 105 137 169 210 258 306
#
# _framework density 18.829132000000001
#
# number of rings (size 3 to 8) (size 9 to 14) (size 15 to 20)
#    0.000    2.333    0.000    2.500    0.000    7.333 
#    0.000    0.833    0.000    2.000    0.000    3.500 
#    0.000    0.000    0.000    0.000    0.000    0.000 
#
# Total GULP energy -594905.422976 kJ/mol
# GULP energy per Si atom -12393.862979 kJ/mol
# Density = 1.878628 g / cm^3
# Si number density = 18.829132 Si / 1000 Ang^3
#
#
#
# Elastic Constant Matrix: (Units=GPa)
#
#
# Indices 1 2 3 4 5 6 
#
# 1 161.0029 46.7698 77.0567 0.0000 0.0000 0.0000
# 2 46.7698 41.8030 43.4413 0.0000 0.0000 0.0000
# 3 77.0567 43.4413 125.7356 0.0000 0.0000 0.0000
# 4 0.0000 0.0000 0.0000 22.0575 0.0000 0.0000
# 5 0.0000 0.0000 0.0000 0.0000 6.3186 0.0000
# 6 0.0000 0.0000 0.0000 0.0000 0.0000 29.4187
#
#
#
# Elastic Compliance Matrix: (Units=1/GPa)
#
#
# Indices 1 2 3 4 5 6 
#
# 1 0.010139 -0.007624 -0.003580 0.000000 0.000000 0.000000
# 2 -0.007624 0.043054 -0.010203 0.000000 0.000000 0.000000
# 3 -0.003580 -0.010203 0.013672 0.000000 0.000000 0.000000
# 4 0.000000 0.000000 0.000000 0.045336 0.000000 0.000000
# 5 0.000000 0.000000 0.000000 0.000000 0.158264 0.000000
# 6 0.000000 0.000000 0.000000 0.000000 0.000000 0.033992
#
#
# Mechanical properties :
#
#
# Convention : Reuss Voigt Hill
#
# Bulk Modulus (GPa) = 41.57565 73.67523 57.62544
# Shear Modulus (GPa) = 14.07314 22.31052 18.19183
#
# Velocity S-wave (km/s) = 2.73685 3.44596 3.11167
# Velocity P-wave (km/s) = 5.66706 7.41931 6.60158
#
# Compressibility (1/GPa) = 0.02405254
#
# Stress axis : x y z
#
# Youngs Moduli (GPa) = 98.63014 23.22669 73.14188
#
# Poissons Ratio (x) = 0.17707 0.26182
# Poissons Ratio (y) = 0.75192 0.74626
# Poissons Ratio (z) = 0.35306 0.23698
#
# Static dielectric constant tensor:
#      x y z
#    x 3.943010 0.000000 0.000000 
#    y 0.000000 3.445690 0.000000 
#    z 0.000000 0.000000 3.440320 
# 
# 
# High freq. dielectric constant tensor:
#      x y z
#    x 1.758700 0.000000 0.000000 
#    y 0.000000 1.727700 0.000000 
#    z 0.000000 0.000000 1.703960 
# 
# From -- ./inp_files/6412.got.cif
#   From: 2010.03.12/outbox.cif.g09.slc.cpg/sg59_4_cif.got.tgz:6412.got - 2010.04.16 16:29:54.
