data_PCOD8241150
_publ_section_title
;
Structure prediction by ZEFSAII (Michael W. Deem and Ramdas Pophale) SiO2 
 PCOD8241150
Probable space group: P M M N
;
_chemical_formula_sum "Si O2"
_cell_formula_units_Z 64
_cell_length_a 24.441429
_cell_length_b 9.212453
_cell_length_c 14.997041
_cell_angle_alpha 90.000000
_cell_angle_beta 90.000000
_cell_angle_gamma 90.000000
_cell_volume 3376.816474
_symmetry_space_group_name_H-M "P M M N"
_symmetry_group_IT_number 59
_space_group.IT_coordinate_system_code '2'
_symmetry_cell_setting 'orthorhombic'
loop_
_space_group_symop_operation_xyz
x,y,z
1/2-x,1/2-y,z
1/2+x,-y,-z
-x,1/2+y,-z
-x,-y,-z
1/2+x,1/2+y,-z
1/2-x,y,z
x,1/2-y,z
loop_
_atom_site_type_symbol
_atom_site_label
_atom_site_fract_x
_atom_site_fract_y
_atom_site_fract_z
Si Si1 0.810254 0.578836 0.060292
Si Si2 0.459175 0.594084 0.552114
Si Si3 0.810751 0.914990 0.378332
Si Si4 0.649424 0.081457 0.530864
Si Si5 0.109514 0.922882 0.273733
Si Si6 0.887613 0.923371 0.216558
Si Si7 0.185588 0.416089 0.140565
Si Si8 0.995653 0.413455 0.248512
O O1 0.750000 0.510211 0.076944
O O2 0.805147 0.750000 0.070642
O O3 0.853131 0.518768 0.131960
O O4 0.830412 0.541549 0.960455
O O5 0.500000 0.500000 0.500000
O O6 0.461496 0.750000 0.504359
O O7 0.398626 0.536832 0.537809
O O8 0.475081 0.603885 0.652675
O O9 0.750000 0.926596 0.334694
O O10 0.826244 0.750000 0.399383
O O11 0.855114 0.975063 0.305763
O O12 0.804782 0.994960 0.475611
O O13 0.665499 0.250000 0.534468
O O14 0.632777 0.026720 0.629539
O O15 0.100591 0.750000 0.271230
O O16 0.154929 0.970782 0.203532
O O17 0.052838 0.000761 0.247572
O O18 0.895055 0.750000 0.216516
O O19 0.947327 0.995699 0.201594
O O20 0.250000 0.434334 0.156102
O O21 0.168023 0.250000 0.161820
O O22 0.002862 0.250000 0.207390
#
# Coordination Sequence:
#
# PCOD8241150 Si02
#       8
#     8   8   8   8   8   8   8   8
#     4   8  15  32  60  88 110 138 179 224 271 326
#     4  10  19  32  51  73 100 136 181 225 264 310
#     4  10  21  34  50  77 111 145 182 224 268 319
#     4  10  21  36  51  72 103 141 182 222 266 316
#     4  11  23  38  57  81 110 144 186 230 273 321
#     4  10  19  33  56  83 112 144 179 221 270 323
#     4   9  19  38  63  87 110 138 176 224 276 327
#     4  11  22  35  53  79 112 146 183 224 270 324
#
# _framework density 18.952763000000001
#
# number of rings (size 3 to 8) (size 9 to 14) (size 15 to 20)
#    0.000    2.125    2.500    1.875    0.000    4.500 
#    0.000    3.750    0.000    1.875    0.000    0.000 
#    0.000    0.000    0.000    0.000    0.000    0.000 
#
# Total GULP energy -792873.233158 kJ/mol
# GULP energy per Si atom -12388.644268 kJ/mol
# Density = 1.890963 g / cm^3
# Si number density = 18.952763 Si / 1000 Ang^3
#
#
#
# Elastic Constant Matrix: (Units=GPa)
#
#
# Indices 1 2 3 4 5 6 
#
# 1 87.6111 35.4963 49.1637 0.0000 0.0000 0.0000
# 2 35.4963 59.8202 40.1403 0.0000 0.0000 0.0000
# 3 49.1637 40.1403 100.3269 0.0000 0.0000 0.0000
# 4 0.0000 0.0000 0.0000 19.0665 0.0000 0.0000
# 5 0.0000 0.0000 0.0000 0.0000 32.1367 0.0000
# 6 0.0000 0.0000 0.0000 0.0000 0.0000 29.5183
#
#
#
# Elastic Compliance Matrix: (Units=1/GPa)
#
#
# Indices 1 2 3 4 5 6 
#
# 1 0.017302 -0.006258 -0.005975 0.000000 0.000000 0.000000
# 2 -0.006258 0.025115 -0.006982 0.000000 0.000000 0.000000
# 3 -0.005975 -0.006982 0.015689 0.000000 0.000000 0.000000
# 4 0.000000 0.000000 0.000000 0.052448 0.000000 0.000000
# 5 0.000000 0.000000 0.000000 0.000000 0.031117 0.000000
# 6 0.000000 0.000000 0.000000 0.000000 0.000000 0.033877
#
#
# Mechanical properties :
#
#
# Convention : Reuss Voigt Hill
#
# Bulk Modulus (GPa) = 50.82102 55.26210 53.04156
# Shear Modulus (GPa) = 22.67198 24.34150 23.50674
#
# Velocity S-wave (km/s) = 3.46242 3.58764 3.52558
# Velocity P-wave (km/s) = 6.54654 6.81048 6.67981
#
# Compressibility (1/GPa) = 0.01967690
#
# Stress axis : x y z
#
# Youngs Moduli (GPa) = 57.79556 39.81713 63.73938
#
# Poissons Ratio (x) = 0.24916 0.38085
# Poissons Ratio (y) = 0.36166 0.44502
# Poissons Ratio (z) = 0.34534 0.27800
#
# Static dielectric constant tensor:
#      x y z
#    x 3.655680 0.000000 0.000000 
#    y 0.000000 3.502820 0.000000 
#    z 0.000000 0.000000 3.434900 
# 
# 
# High freq. dielectric constant tensor:
#      x y z
#    x 1.742930 0.000000 0.000000 
#    y 0.000000 1.720390 0.000000 
#    z 0.000000 0.000000 1.726940 
# 
# From -- ./inp_files/24744.got.cif
#   From: 2010.03.12/outbox.cif.g09.slc.cpg/sg59_13_cif.got.tgz:24744.got - 2010.04.16 16:29:54.
