data_PCOD8241349
_publ_section_title
;
Structure prediction by ZEFSAII (Michael W. Deem and Ramdas Pophale) SiO2 
 PCOD8241349
Probable space group: P M M N
;
_chemical_formula_sum "Si O2"
_cell_formula_units_Z 56
_cell_length_a 9.118104
_cell_length_b 18.264721
_cell_length_c 17.874200
_cell_angle_alpha 90.000000
_cell_angle_beta 90.000000
_cell_angle_gamma 90.000000
_cell_volume 2976.762576
_symmetry_space_group_name_H-M "P M M N"
_symmetry_group_IT_number 59
_space_group.IT_coordinate_system_code '2'
_symmetry_cell_setting 'orthorhombic'
loop_
_space_group_symop_operation_xyz
x,y,z
1/2-x,1/2-y,z
1/2+x,-y,-z
-x,1/2+y,-z
-x,-y,-z
1/2+x,1/2+y,-z
1/2-x,y,z
x,1/2-y,z
loop_
_atom_site_type_symbol
_atom_site_label
_atom_site_fract_x
_atom_site_fract_y
_atom_site_fract_z
Si Si1 0.921042 0.568753 0.912720
Si Si2 0.578672 0.919409 0.083132
Si Si3 0.920022 0.334655 0.794404
Si Si4 0.924510 0.918463 0.634409
Si Si5 0.576180 0.415507 0.647659
Si Si6 0.423926 0.168589 0.221141
Si Si7 0.922935 0.165191 0.499296
O O1 0.750000 0.550577 0.902173
O O2 0.974995 0.631333 0.856048
O O3 0.008888 0.495981 0.892203
O O4 0.955524 0.596666 0.996161
O O5 0.750000 0.922854 0.099017
O O6 0.508499 0.854278 0.130845
O O7 0.750000 0.352600 0.808518
O O8 0.943936 0.250000 0.775445
O O9 0.984204 0.381194 0.724790
O O10 0.750000 0.914991 0.627097
O O11 0.981760 0.877980 0.708778
O O12 0.994085 0.879192 0.563937
O O13 0.981640 0.001836 0.638067
O O14 0.750000 0.414252 0.651110
O O15 0.521815 0.366285 0.578554
O O16 0.250000 0.172907 0.223847
O O17 0.492090 0.250000 0.224743
O O18 0.750000 0.153983 0.489151
O O19 0.967172 0.250000 0.494586
#
# Coordination Sequence:
#
# PCOD8241349 Si02
#       7
#     8   8   8   8   8   8   8
#     4   9  18  34  55  75  99 137 179 211 245 301
#     4  10  20  33  52  78 106 134 167 214 265 306
#     4  10  20  35  56  78 101 134 175 214 253 304
#     4  10  19  32  53  77 100 128 164 208 252 295
#     4   9  18  34  55  76  98 131 175 212 244 294
#     4   9  17  30  50  75 100 129 168 209 247 294
#     4  10  20  34  52  74 102 133 165 205 252 301
#
# _framework density 18.812384999999999
#
# number of rings (size 3 to 8) (size 9 to 14) (size 15 to 20)
#    0.000    2.429    0.000    2.571    0.000    6.286 
#    0.000    5.000    0.000    3.000    0.000    0.000 
#    0.000    0.000    0.000    0.000    0.000    0.000 
#
# Total GULP energy -694505.996079 kJ/mol
# GULP energy per Si atom -12401.892787 kJ/mol
# Density = 1.876957 g / cm^3
# Si number density = 18.812385 Si / 1000 Ang^3
#
#
#
# Elastic Constant Matrix: (Units=GPa)
#
#
# Indices 1 2 3 4 5 6 
#
# 1 36.3948 32.5389 32.2922 0.0000 0.0000 0.0000
# 2 32.5389 130.2008 65.0865 0.0000 0.0000 0.0000
# 3 32.2922 65.0865 126.4142 0.0000 0.0000 0.0000
# 4 0.0000 0.0000 0.0000 38.2255 0.0000 0.0000
# 5 0.0000 0.0000 0.0000 0.0000 26.4672 0.0000
# 6 0.0000 0.0000 0.0000 0.0000 0.0000 23.3247
#
#
#
# Elastic Compliance Matrix: (Units=1/GPa)
#
#
# Indices 1 2 3 4 5 6 
#
# 1 0.039174 -0.006447 -0.006688 0.000000 0.000000 0.000000
# 2 -0.006447 0.011403 -0.004224 0.000000 0.000000 0.000000
# 3 -0.006688 -0.004224 0.011794 0.000000 0.000000 0.000000
# 4 0.000000 0.000000 0.000000 0.026161 0.000000 0.000000
# 5 0.000000 0.000000 0.000000 0.000000 0.037783 0.000000
# 6 0.000000 0.000000 0.000000 0.000000 0.000000 0.042873
#
#
# Mechanical properties :
#
#
# Convention : Reuss Voigt Hill
#
# Bulk Modulus (GPa) = 36.16189 61.42721 48.79455
# Shear Modulus (GPa) = 23.46058 28.47626 25.96842
#
# Velocity S-wave (km/s) = 3.53524 3.89485 3.71939
# Velocity P-wave (km/s) = 5.99399 7.27667 6.66625
#
# Compressibility (1/GPa) = 0.02765342
#
# Stress axis : x y z
#
# Youngs Moduli (GPa) = 25.52699 87.69332 84.79034
#
# Poissons Ratio (x) = 0.56537 0.56704
# Poissons Ratio (y) = 0.16457 0.35818
# Poissons Ratio (z) = 0.17071 0.37045
#
# Static dielectric constant tensor:
#      x y z
#    x 3.119020 0.000000 0.000000 
#    y 0.000000 3.671560 0.000000 
#    z 0.000000 0.000000 3.637870 
# 
# 
# High freq. dielectric constant tensor:
#      x y z
#    x 1.692100 0.000000 0.000000 
#    y 0.000000 1.740660 0.000000 
#    z 0.000000 0.000000 1.746210 
# 
# From -- ./inp_files/20905.got.cif
#   From: 2010.03.12/outbox.cif.g09.slc.cpg/sg59_11_cif.got.tgz:20905.got - 2010.04.16 16:29:54.
