data_PCOD8241465
_publ_section_title
;
Structure prediction by ZEFSAII (Michael W. Deem and Ramdas Pophale) SiO2 
 PCOD8241465
Probable space group: P M M N
;
_chemical_formula_sum "Si O2"
_cell_formula_units_Z 64
_cell_length_a 9.292004
_cell_length_b 15.176951
_cell_length_c 23.739305
_cell_angle_alpha 90.000000
_cell_angle_beta 90.000000
_cell_angle_gamma 90.000000
_cell_volume 3347.818618
_symmetry_space_group_name_H-M "P M M N"
_symmetry_group_IT_number 59
_space_group.IT_coordinate_system_code '2'
_symmetry_cell_setting 'orthorhombic'
loop_
_space_group_symop_operation_xyz
x,y,z
1/2-x,1/2-y,z
1/2+x,-y,-z
-x,1/2+y,-z
-x,-y,-z
1/2+x,1/2+y,-z
1/2-x,y,z
x,1/2-y,z
loop_
_atom_site_type_symbol
_atom_site_label
_atom_site_fract_x
_atom_site_fract_y
_atom_site_fract_z
Si Si1 0.083148 0.150153 0.561127
Si Si2 0.082911 0.850250 0.550171
Si Si3 0.913306 0.652446 0.840409
Si Si4 0.584994 0.393180 0.052373
Si Si5 0.914096 0.600445 0.055436
Si Si6 0.581900 0.493465 0.358389
Si Si7 0.084565 0.350247 0.820883
Si Si8 0.579162 0.000924 0.757079
O O1 0.250000 0.141663 0.546125
O O2 0.041755 0.250000 0.578665
O O3 0.999374 0.119542 0.505707
O O4 0.042829 0.086390 0.612545
O O5 0.250000 0.860637 0.536442
O O6 0.042953 0.750000 0.566815
O O7 0.037683 0.913118 0.601171
O O8 0.750000 0.629269 0.858145
O O9 0.922023 0.750000 0.812874
O O10 0.969715 0.580989 0.795812
O O11 0.010199 0.654386 0.895743
O O12 0.750000 0.364151 0.050522
O O13 0.564983 0.496581 0.060882
O O14 0.512546 0.361086 0.994260
O O15 0.750000 0.625584 0.041485
O O16 0.964048 0.643233 0.114087
O O17 0.750000 0.489619 0.342135
O O18 0.485444 0.483153 0.303773
O O19 0.250000 0.382271 0.814894
O O20 0.067654 0.250000 0.800316
O O21 0.983410 0.409006 0.782011
O O22 0.750000 0.009020 0.752709
#
# Coordination Sequence:
#
# PCOD8241465 Si02
#       8
#     8   8   8   8   8   8   8   8
#     4   9  18  33  54  81 111 143 179 218 262 317
#     4   9  18  33  54  82 114 145 178 221 272 321
#     4  10  22  40  59  78 106 146 187 229 283 341
#     4  10  19  32  55  85 114 142 178 225 275 329
#     4   9  18  33  54  82 115 146 177 216 270 336
#     4  10  21  36  55  78 109 147 185 223 268 327
#     4  10  21  39  62  83 107 145 187 225 274 337
#     4  11  24  40  58  81 110 143 187 240 284 322
#
# _framework density 19.116924999999998
#
# number of rings (size 3 to 8) (size 9 to 14) (size 15 to 20)
#    0.000    2.250    1.250    1.125    0.000    4.500 
#    0.000    2.500    0.000    0.000    0.000    0.000 
#    0.000    0.000    0.000    0.000    0.000    0.000 
#
# Total GULP energy -793780.033868 kJ/mol
# GULP energy per Si atom -12402.813029 kJ/mol
# Density = 1.907341 g / cm^3
# Si number density = 19.116925 Si / 1000 Ang^3
#
#
#
# Elastic Constant Matrix: (Units=GPa)
#
#
# Indices 1 2 3 4 5 6 
#
# 1 70.5650 28.6940 49.4763 0.0000 0.0000 0.0000
# 2 28.6940 76.9918 39.1077 0.0000 0.0000 0.0000
# 3 49.4763 39.1077 107.7184 0.0000 0.0000 0.0000
# 4 0.0000 0.0000 0.0000 0.9972 0.0000 0.0000
# 5 0.0000 0.0000 0.0000 0.0000 36.9031 0.0000
# 6 0.0000 0.0000 0.0000 0.0000 0.0000 22.1159
#
#
#
# Elastic Compliance Matrix: (Units=1/GPa)
#
#
# Indices 1 2 3 4 5 6 
#
# 1 0.021736 -0.003715 -0.008635 0.000000 0.000000 0.000000
# 2 -0.003715 0.016560 -0.004306 0.000000 0.000000 0.000000
# 3 -0.008635 -0.004306 0.014813 0.000000 0.000000 0.000000
# 4 0.000000 0.000000 0.000000 1.002826 0.000000 0.000000
# 5 0.000000 0.000000 0.000000 0.000000 0.027098 0.000000
# 6 0.000000 0.000000 0.000000 0.000000 0.000000 0.045216
#
#
# Mechanical properties :
#
#
# Convention : Reuss Voigt Hill
#
# Bulk Modulus (GPa) = 50.51089 54.42571 52.46830
# Shear Modulus (GPa) = 4.28023 21.20306 12.74165
#
# Velocity S-wave (km/s) = 1.49794 3.33397 2.58449
# Velocity P-wave (km/s) = 5.42874 6.58424 6.03421
#
# Compressibility (1/GPa) = 0.01979771
#
# Stress axis : x y z
#
# Youngs Moduli (GPa) = 46.00598 60.38633 67.50843
#
# Poissons Ratio (x) = 0.22432 0.58294
# Poissons Ratio (y) = 0.17090 0.29069
# Poissons Ratio (z) = 0.39727 0.26002
#
# Static dielectric constant tensor:
#      x y z
#    x 3.474030 0.000000 0.000000 
#    y 0.000000 3.639600 0.000000 
#    z 0.000000 0.000000 3.387800 
# 
# 
# High freq. dielectric constant tensor:
#      x y z
#    x 1.739210 0.000000 0.000000 
#    y 0.000000 1.752420 0.000000 
#    z 0.000000 0.000000 1.735370 
# 
# From -- ./inp_files/31518.got.cif
#   From: 2010.03.12/outbox.cif.g09.slc.cpg/sg59_16_cif.got.tgz:31518.got - 2010.04.16 16:29:54.
