data_PCOD8241475
_publ_section_title
;
Structure prediction by ZEFSAII (Michael W. Deem and Ramdas Pophale) SiO2 
 PCOD8241475
Probable space group: P M M N
;
_chemical_formula_sum "Si O2"
_cell_formula_units_Z 64
_cell_length_a 9.005993
_cell_length_b 19.245514
_cell_length_c 18.834587
_cell_angle_alpha 90.000000
_cell_angle_beta 90.000000
_cell_angle_gamma 90.000000
_cell_volume 3264.504121
_symmetry_space_group_name_H-M "P M M N"
_symmetry_group_IT_number 59
_space_group.IT_coordinate_system_code '2'
_symmetry_cell_setting 'orthorhombic'
loop_
_space_group_symop_operation_xyz
x,y,z
1/2-x,1/2-y,z
1/2+x,-y,-z
-x,1/2+y,-z
-x,-y,-z
1/2+x,1/2+y,-z
1/2-x,y,z
x,1/2-y,z
loop_
_atom_site_type_symbol
_atom_site_label
_atom_site_fract_x
_atom_site_fract_y
_atom_site_fract_z
Si Si1 0.077515 0.941578 0.705229
Si Si2 0.917572 0.169036 0.669961
Si Si3 0.422964 0.571666 0.077783
Si Si4 0.580470 0.170080 0.507260
Si Si5 0.080348 0.418838 0.782281
Si Si6 0.923240 0.588525 0.937786
Si Si7 0.575477 0.831042 0.798079
Si Si8 0.574399 0.548208 0.558917
O O1 0.250000 0.930728 0.686020
O O2 0.010788 0.869591 0.734736
O O3 0.989498 0.968641 0.636396
O O4 0.055280 0.000082 0.765123
O O5 0.750000 0.151173 0.694187
O O6 0.949753 0.250000 0.679415
O O7 0.939485 0.146826 0.588543
O O8 0.034999 0.126889 0.715271
O O9 0.250000 0.584833 0.074701
O O10 0.485606 0.604810 0.149818
O O11 0.465977 0.490570 0.079832
O O12 0.493519 0.610387 0.009946
O O13 0.750000 0.156066 0.483267
O O14 0.538732 0.250000 0.497233
O O15 0.466966 0.127725 0.458500
O O16 0.250000 0.403448 0.800024
O O17 0.750000 0.597003 0.951879
O O18 0.976197 0.638316 0.874012
O O19 0.750000 0.843958 0.787061
O O20 0.534381 0.750000 0.795369
O O21 0.500000 0.500000 0.500000
O O22 0.750000 0.536578 0.558681
#
# Coordination Sequence:
#
# PCOD8241475 Si02
#       8
#     8   8   8   8   8   8   8   8
#     4  11  24  40  59  85 117 152 196 242 290 347
#     4   9  19  36  58  83 111 145 183 225 280 344
#     4  10  19  32  56  83 110 147 188 232 284 336
#     4   9  19  38  62  85 111 147 190 235 287 349
#     4  11  22  35  55  84 115 149 189 235 283 337
#     4   9  18  34  55  82 113 145 187 236 286 338
#     4  10  21  39  62  87 118 157 199 244 297 353
#     4  12  25  40  60  86 118 153 193 243 298 351
#
# _framework density 19.604816
#
# number of rings (size 3 to 8) (size 9 to 14) (size 15 to 20)
#    0.000    1.875    1.250    3.750    0.000    6.250 
#    0.000    1.875    0.000    2.250    0.000    0.000 
#    0.000    0.000    0.000    0.000    0.000    0.000 
#
# Total GULP energy -793827.290253 kJ/mol
# GULP energy per Si atom -12403.551410 kJ/mol
# Density = 1.956019 g / cm^3
# Si number density = 19.604816 Si / 1000 Ang^3
#
#
#
# Elastic Constant Matrix: (Units=GPa)
#
#
# Indices 1 2 3 4 5 6 
#
# 1 89.8907 28.1800 52.7161 0.0000 0.0000 0.0000
# 2 28.1800 45.3588 22.6756 0.0000 0.0000 0.0000
# 3 52.7161 22.6756 98.8025 0.0000 0.0000 0.0000
# 4 0.0000 0.0000 0.0000 31.8033 0.0000 0.0000
# 5 0.0000 0.0000 0.0000 0.0000 38.3321 0.0000
# 6 0.0000 0.0000 0.0000 0.0000 0.0000 28.7440
#
#
#
# Elastic Compliance Matrix: (Units=1/GPa)
#
#
# Indices 1 2 3 4 5 6 
#
# 1 0.018075 -0.007239 -0.007983 0.000000 0.000000 0.000000
# 2 -0.007239 0.027803 -0.002518 0.000000 0.000000 0.000000
# 3 -0.007983 -0.002518 0.014958 0.000000 0.000000 0.000000
# 4 0.000000 0.000000 0.000000 0.031443 0.000000 0.000000
# 5 0.000000 0.000000 0.000000 0.000000 0.026088 0.000000
# 6 0.000000 0.000000 0.000000 0.000000 0.000000 0.034790
#
#
# Mechanical properties :
#
#
# Convention : Reuss Voigt Hill
#
# Bulk Modulus (GPa) = 39.43815 49.02172 44.22993
# Shear Modulus (GPa) = 25.36907 28.47456 26.92181
#
# Velocity S-wave (km/s) = 3.60115 3.81521 3.70972
# Velocity P-wave (km/s) = 6.11975 6.66835 6.39993
#
# Compressibility (1/GPa) = 0.02535616
#
# Stress axis : x y z
#
# Youngs Moduli (GPa) = 55.32357 35.96754 66.85201
#
# Poissons Ratio (x) = 0.26037 0.53367
# Poissons Ratio (y) = 0.40049 0.16837
# Poissons Ratio (z) = 0.44164 0.09058
#
# Static dielectric constant tensor:
#      x y z
#    x 3.508330 0.000000 0.000000 
#    y 0.000000 3.439990 0.000000 
#    z 0.000000 0.000000 3.595340 
# 
# 
# High freq. dielectric constant tensor:
#      x y z
#    x 1.763160 0.000000 0.000000 
#    y 0.000000 1.749610 0.000000 
#    z 0.000000 0.000000 1.771140 
# 
# From -- ./inp_files/26296.got.cif
#   From: 2010.03.12/outbox.cif.g09.slc.cpg/sg59_14_cif.got.tgz:26296.got - 2010.04.16 16:29:54.
