data_PCOD8241843
_publ_section_title
;
Structure prediction by ZEFSAII (Michael W. Deem and Ramdas Pophale) SiO2 
 PCOD8241843
Probable space group: P M M N
;
_chemical_formula_sum "Si O2"
_cell_formula_units_Z 56
_cell_length_a 19.065121
_cell_length_b 9.054450
_cell_length_c 17.665574
_cell_angle_alpha 90.000000
_cell_angle_beta 90.000000
_cell_angle_gamma 90.000000
_cell_volume 3049.505311
_symmetry_space_group_name_H-M "P M M N"
_symmetry_group_IT_number 59
_space_group.IT_coordinate_system_code '2'
_symmetry_cell_setting 'orthorhombic'
loop_
_space_group_symop_operation_xyz
x,y,z
1/2-x,1/2-y,z
1/2+x,-y,-z
-x,1/2+y,-z
-x,-y,-z
1/2+x,1/2+y,-z
1/2-x,y,z
x,1/2-y,z
loop_
_atom_site_type_symbol
_atom_site_label
_atom_site_fract_x
_atom_site_fract_y
_atom_site_fract_z
Si Si1 0.407434 0.577840 0.236940
Si Si2 0.672153 0.424660 0.911605
Si Si3 0.833318 0.083825 0.476496
Si Si4 0.433790 0.924520 0.962257
Si Si5 0.330565 0.078080 0.672470
Si Si6 0.434661 0.079098 0.805019
Si Si7 0.830989 0.576144 0.626898
O O1 0.390874 0.750000 0.250452
O O2 0.371287 0.517328 0.160493
O O3 0.489928 0.547811 0.231418
O O4 0.377735 0.484568 0.305711
O O5 0.750000 0.494888 0.911097
O O6 0.676749 0.250000 0.906460
O O7 0.633949 0.471720 0.988877
O O8 0.750000 0.080549 0.475013
O O9 0.862610 0.250000 0.480947
O O10 0.861258 0.008516 0.399839
O O11 0.860109 0.994489 0.549393
O O12 0.445714 0.750000 0.963402
O O13 0.421608 0.978774 0.877633
O O14 0.500000 0.000000 0.000000
O O15 0.250000 0.035445 0.689458
O O16 0.338279 0.250000 0.653913
O O17 0.375719 0.032608 0.745051
O O18 0.428350 0.250000 0.829098
O O19 0.750000 0.532008 0.641217
O O20 0.840200 0.750000 0.620568
#
# Coordination Sequence:
#
# PCOD8241843 Si02
#       7
#     8   8   8   8   8   8   8
#     4  10  19  34  54  75 104 142 181 219 259 314
#     4   9  18  33  54  79 105 137 178 221 264 310
#     4   9  17  31  53  79 106 139 181 223 264 315
#     4  11  21  36  57  79 106 141 179 220 266 319
#     4   9  18  34  56  80 109 142 175 220 274 319
#     4  10  21  37  56  80 108 141 181 217 263 323
#     4  10  20  33  51  78 110 140 175 220 269 320
#
# _framework density 18.363633
#
# number of rings (size 3 to 8) (size 9 to 14) (size 15 to 20)
#    0.000    2.286    1.429    1.714    0.000    4.857 
#    0.000    0.714    0.000    2.143    0.000    0.000 
#    0.000    0.000    0.000    0.000    0.000    0.000 
#
# Total GULP energy -694499.611189 kJ/mol
# GULP energy per Si atom -12401.778771 kJ/mol
# Density = 1.832184 g / cm^3
# Si number density = 18.363633 Si / 1000 Ang^3
#
#
#
# Elastic Constant Matrix: (Units=GPa)
#
#
# Indices 1 2 3 4 5 6 
#
# 1 98.0459 39.4741 64.9077 0.0000 0.0000 0.0000
# 2 39.4741 78.1789 69.9070 0.0000 0.0000 0.0000
# 3 64.9077 69.9070 165.0907 0.0000 0.0000 0.0000
# 4 0.0000 0.0000 0.0000 39.1892 0.0000 0.0000
# 5 0.0000 0.0000 0.0000 0.0000 26.0176 0.0000
# 6 0.0000 0.0000 0.0000 0.0000 0.0000 18.2450
#
#
#
# Elastic Compliance Matrix: (Units=1/GPa)
#
#
# Indices 1 2 3 4 5 6 
#
# 1 0.014375 -0.003548 -0.004149 0.000000 0.000000 0.000000
# 2 -0.003548 0.021461 -0.007693 0.000000 0.000000 0.000000
# 3 -0.004149 -0.007693 0.010946 0.000000 0.000000 0.000000
# 4 0.000000 0.000000 0.000000 0.025517 0.000000 0.000000
# 5 0.000000 0.000000 0.000000 0.000000 0.038435 0.000000
# 6 0.000000 0.000000 0.000000 0.000000 0.000000 0.054809
#
#
# Mechanical properties :
#
#
# Convention : Reuss Voigt Hill
#
# Bulk Modulus (GPa) = 62.49113 76.65479 69.57296
# Shear Modulus (GPa) = 24.79442 27.82549 26.30995
#
# Velocity S-wave (km/s) = 3.67848 3.89684 3.78924
# Velocity P-wave (km/s) = 7.22117 7.87912 7.55731
#
# Compressibility (1/GPa) = 0.01600227
#
# Stress axis : x y z
#
# Youngs Moduli (GPa) = 69.56748 46.59513 91.35626
#
# Poissons Ratio (x) = 0.16531 0.37906
# Poissons Ratio (y) = 0.24681 0.70280
# Poissons Ratio (z) = 0.28865 0.35845
#
# Static dielectric constant tensor:
#      x y z
#    x 3.458970 0.000000 0.000000 
#    y 0.000000 3.302700 0.000000 
#    z 0.000000 0.000000 3.538860 
# 
# 
# High freq. dielectric constant tensor:
#      x y z
#    x 1.698840 0.000000 0.000000 
#    y 0.000000 1.701060 0.000000 
#    z 0.000000 0.000000 1.724360 
# 
# From -- ./inp_files/28103.got.cif
#   From: 2010.03.12/outbox.cif.g09.slc.cpg/sg59_15_cif.got.tgz:28103.got - 2010.04.16 16:29:54.
