data_PCOD8241113
_publ_section_title
;
Structure prediction by ZEFSAII (Michael W. Deem and Ramdas Pophale) SiO2 
 PCOD8241113
Probable space group: P M M N
;
_chemical_formula_sum "Si O2"
_cell_formula_units_Z 64
_cell_length_a 19.505000
_cell_length_b 8.998069
_cell_length_c 18.735763
_cell_angle_alpha 90.000000
_cell_angle_beta 90.000000
_cell_angle_gamma 90.000000
_cell_volume 3288.263849
_symmetry_space_group_name_H-M "P M M N"
_symmetry_group_IT_number 59
_space_group.IT_coordinate_system_code '2'
_symmetry_cell_setting 'orthorhombic'
loop_
_space_group_symop_operation_xyz
x,y,z
1/2-x,1/2-y,z
1/2+x,-y,-z
-x,1/2+y,-z
-x,-y,-z
1/2+x,1/2+y,-z
1/2-x,y,z
x,1/2-y,z
loop_
_atom_site_type_symbol
_atom_site_label
_atom_site_fract_x
_atom_site_fract_y
_atom_site_fract_z
Si Si1 0.456502 0.579048 0.711000
Si Si2 0.675675 0.574534 0.500015
Si Si3 0.461995 0.075286 0.565841
Si Si4 0.171839 0.924550 0.799739
Si Si5 0.831057 0.915752 0.057022
Si Si6 0.409086 0.423091 0.211259
Si Si7 0.328956 0.574401 0.086185
Si Si8 0.670990 0.580159 0.655732
O O1 0.456230 0.750000 0.687029
O O2 0.483154 0.486634 0.642800
O O3 0.380468 0.529310 0.736464
O O4 0.509415 0.554920 0.776714
O O5 0.750000 0.512651 0.474460
O O6 0.681491 0.750000 0.511405
O O7 0.618596 0.534318 0.442230
O O8 0.656615 0.505740 0.578137
O O9 0.476054 0.250000 0.562616
O O10 0.500000 0.000000 0.500000
O O11 0.250000 0.971561 0.779101
O O12 0.167872 0.750000 0.814730
O O13 0.144738 0.005117 0.870663
O O14 0.750000 0.908319 0.057316
O O15 0.862616 0.750000 0.053584
O O16 0.855438 0.009029 0.988780
O O17 0.390154 0.250000 0.199690
O O18 0.381846 0.514152 0.144333
O O19 0.372744 0.494162 0.281339
O O20 0.250000 0.526035 0.102700
O O21 0.334604 0.750000 0.082201
O O22 0.750000 0.564259 0.676377
O O23 0.646936 0.750000 0.652271
#
# Coordination Sequence:
#
# PCOD8241113 Si02
#       8
#     8   8   8   8   8   8   8   8
#     4  10  22  38  55  78 107 139 178 220 264 318
#     4   8  15  29  49  74 101 129 167 214 261 309
#     4  11  22  36  56  79 106 141 178 219 266 317
#     4   9  18  35  58  81 108 142 176 216 271 325
#     4   9  17  31  54  82 108 136 176 222 261 305
#     4  10  19  32  50  72 102 139 180 223 259 301
#     4  10  20  33  51  78 111 143 174 211 258 312
#     4   8  13  23  43  69  94 123 161 205 251 296
#
# _framework density 19.463159000000001
#
# number of rings (size 3 to 8) (size 9 to 14) (size 15 to 20)
#    0.000    2.625    0.000    3.000    0.000    6.250 
#    0.000    0.625    0.000    1.125    0.000    1.750 
#    0.000    0.000    0.000    0.000    0.000    0.000 
#
# Total GULP energy -793247.768032 kJ/mol
# GULP energy per Si atom -12394.496376 kJ/mol
# Density = 1.941886 g / cm^3
# Si number density = 19.463159 Si / 1000 Ang^3
#
#
#
# Elastic Constant Matrix: (Units=GPa)
#
#
# Indices 1 2 3 4 5 6 
#
# 1 66.4199 33.1422 43.8902 0.0000 0.0000 0.0000
# 2 33.1422 73.3227 48.1550 0.0000 0.0000 0.0000
# 3 43.8902 48.1550 108.3774 0.0000 0.0000 0.0000
# 4 0.0000 0.0000 0.0000 31.5782 0.0000 0.0000
# 5 0.0000 0.0000 0.0000 0.0000 29.2452 0.0000
# 6 0.0000 0.0000 0.0000 0.0000 0.0000 17.9096
#
#
#
# Elastic Compliance Matrix: (Units=1/GPa)
#
#
# Indices 1 2 3 4 5 6 
#
# 1 0.022192 -0.005830 -0.006397 0.000000 0.000000 0.000000
# 2 -0.005830 0.020789 -0.006877 0.000000 0.000000 0.000000
# 3 -0.006397 -0.006877 0.014873 0.000000 0.000000 0.000000
# 4 0.000000 0.000000 0.000000 0.031667 0.000000 0.000000
# 5 0.000000 0.000000 0.000000 0.000000 0.034194 0.000000
# 6 0.000000 0.000000 0.000000 0.000000 0.000000 0.055836
#
#
# Mechanical properties :
#
#
# Convention : Reuss Voigt Hill
#
# Bulk Modulus (GPa) = 50.89498 55.38830 53.14164
# Shear Modulus (GPa) = 22.29096 23.94211 23.11654
#
# Velocity S-wave (km/s) = 3.38788 3.51112 3.45005
# Velocity P-wave (km/s) = 6.44281 6.70500 6.57522
#
# Compressibility (1/GPa) = 0.01964830
#
# Stress axis : x y z
#
# Youngs Moduli (GPa) = 45.06219 48.10125 67.23598
#
# Poissons Ratio (x) = 0.28041 0.43010
# Poissons Ratio (y) = 0.26269 0.46235
# Poissons Ratio (z) = 0.28825 0.33077
#
# Static dielectric constant tensor:
#      x y z
#    x 3.775970 0.000000 0.000000 
#    y 0.000000 3.320140 0.000000 
#    z 0.000000 0.000000 3.603790 
# 
# 
# High freq. dielectric constant tensor:
#      x y z
#    x 1.751570 0.000000 0.000000 
#    y 0.000000 1.727930 0.000000 
#    z 0.000000 0.000000 1.756690 
# 
# From -- ./inp_files/28299.got.cif
#   From: 2010.03.12/outbox.cif.g09.slc.cpg/sg59_15_cif.got.tgz:28299.got - 2010.04.16 16:29:54.
