data_PCOD8241708
_publ_section_title
;
Structure prediction by ZEFSAII (Michael W. Deem and Ramdas Pophale) SiO2 
 PCOD8241708
Probable space group: P M M N
;
_chemical_formula_sum "Si O2"
_cell_formula_units_Z 64
_cell_length_a 31.890934
_cell_length_b 9.277957
_cell_length_c 11.609837
_cell_angle_alpha 90.000000
_cell_angle_beta 90.000000
_cell_angle_gamma 90.000000
_cell_volume 3435.150085
_symmetry_space_group_name_H-M "P M M N"
_symmetry_group_IT_number 59
_space_group.IT_coordinate_system_code '2'
_symmetry_cell_setting 'orthorhombic'
loop_
_space_group_symop_operation_xyz
x,y,z
1/2-x,1/2-y,z
1/2+x,-y,-z
-x,1/2+y,-z
-x,-y,-z
1/2+x,1/2+y,-z
1/2-x,y,z
x,1/2-y,z
loop_
_atom_site_type_symbol
_atom_site_label
_atom_site_fract_x
_atom_site_fract_y
_atom_site_fract_z
Si Si1 0.202075 0.906327 0.225138
Si Si2 0.844806 0.915211 0.620927
Si Si3 0.890647 0.913269 0.393489
Si Si4 0.545573 0.423255 0.989428
Si Si5 0.915666 0.089019 0.745674
Si Si6 0.040249 0.909190 0.488743
Si Si7 0.701781 0.581943 0.994275
Si Si8 0.618756 0.582729 0.129066
O O1 0.250000 0.879573 0.205857
O O2 0.179391 0.750000 0.229164
O O3 0.196112 0.993363 0.345057
O O4 0.185378 0.998377 0.117849
O O5 0.838560 0.750000 0.653104
O O6 0.852974 0.935808 0.485167
O O7 0.879791 0.978351 0.708174
O O8 0.907950 0.750000 0.405401
O O9 0.876375 0.946734 0.264907
O O10 0.925540 0.025826 0.427203
O O11 0.541054 0.250000 0.008339
O O12 0.580548 0.487185 0.077780
O O13 0.500000 0.500000 0.000000
O O14 0.562047 0.461860 0.862313
O O15 0.897004 0.250000 0.761041
O O16 0.949673 0.089585 0.645481
O O17 0.031884 0.750000 0.534976
O O18 0.000000 0.000000 0.500000
O O19 0.750000 0.538407 0.032415
O O20 0.701339 0.750000 0.965357
O O21 0.665744 0.542188 0.086681
O O22 0.608196 0.750000 0.103203
#
# Coordination Sequence:
#
# PCOD8241708 Si02
#       8
#     8   8   8   8   8   8   8   8
#     4  10  20  33  52  79 111 144 175 216 272 328
#     4  10  19  33  55  80 105 135 176 222 267 319
#     4   9  20  37  54  76 107 144 182 222 273 328
#     4  11  24  39  55  79 109 145 186 229 278 334
#     4   9  20  37  54  73 102 137 171 213 268 320
#     4  10  20  34  54  78 102 134 176 223 272 320
#     4   9  18  34  58  87 114 144 186 231 275 328
#     4  10  21  38  58  80 113 152 186 229 282 332
#
# _framework density 18.630918999999999
#
# number of rings (size 3 to 8) (size 9 to 14) (size 15 to 20)
#    0.000    2.250    0.000    2.250    1.750    5.750 
#    0.000    0.625    0.000    2.250    0.000    1.750 
#    0.000    0.000    0.000    0.000    0.000    0.000 
#
# Total GULP energy -792965.374350 kJ/mol
# GULP energy per Si atom -12390.083974 kJ/mol
# Density = 1.858851 g / cm^3
# Si number density = 18.630919 Si / 1000 Ang^3
#
#
#
# Elastic Constant Matrix: (Units=GPa)
#
#
# Indices 1 2 3 4 5 6 
#
# 1 71.3490 37.8700 60.6217 0.0000 0.0000 0.0000
# 2 37.8700 111.0091 65.3004 0.0000 0.0000 0.0000
# 3 60.6217 65.3004 124.4652 0.0000 0.0000 0.0000
# 4 0.0000 0.0000 0.0000 17.4539 0.0000 0.0000
# 5 0.0000 0.0000 0.0000 0.0000 16.0600 0.0000
# 6 0.0000 0.0000 0.0000 0.0000 0.0000 25.0592
#
#
#
# Elastic Compliance Matrix: (Units=1/GPa)
#
#
# Indices 1 2 3 4 5 6 
#
# 1 0.024188 -0.001911 -0.010778 0.000000 0.000000 0.000000
# 2 -0.001911 0.013180 -0.005984 0.000000 0.000000 0.000000
# 3 -0.010778 -0.005984 0.016423 0.000000 0.000000 0.000000
# 4 0.000000 0.000000 0.000000 0.057294 0.000000 0.000000
# 5 0.000000 0.000000 0.000000 0.000000 0.062267 0.000000
# 6 0.000000 0.000000 0.000000 0.000000 0.000000 0.039906
#
#
# Mechanical properties :
#
#
# Convention : Reuss Voigt Hill
#
# Bulk Modulus (GPa) = 60.81046 70.48970 65.65008
# Shear Modulus (GPa) = 19.52470 21.25003 20.38737
#
# Velocity S-wave (km/s) = 3.24075 3.38091 3.31157
# Velocity P-wave (km/s) = 6.83474 7.29093 7.06652
#
# Compressibility (1/GPa) = 0.01644454
#
# Stress axis : x y z
#
# Youngs Moduli (GPa) = 41.34350 75.86989 60.88861
#
# Poissons Ratio (x) = 0.14501 0.65625
# Poissons Ratio (y) = 0.07902 0.36437
# Poissons Ratio (z) = 0.44560 0.45402
#
# Static dielectric constant tensor:
#      x y z
#    x 3.442420 0.000000 0.000000 
#    y 0.000000 3.860010 0.000000 
#    z 0.000000 0.000000 3.442700 
# 
# 
# High freq. dielectric constant tensor:
#      x y z
#    x 1.720750 0.000000 0.000000 
#    y 0.000000 1.735000 0.000000 
#    z 0.000000 0.000000 1.719470 
# 
# From -- ./inp_files/19214.got.cif
#   From: 2010.03.12/outbox.cif.g09.slc.cpg/sg59_10_cif.got.tgz:19214.got - 2010.04.16 16:29:54.
