data_PCOD8241623
_publ_section_title
;
Structure prediction by ZEFSAII (Michael W. Deem and Ramdas Pophale) SiO2 
 PCOD8241623
Probable space group: P M M N
;
_chemical_formula_sum "Si O2"
_cell_formula_units_Z 56
_cell_length_a 8.876282
_cell_length_b 23.211547
_cell_length_c 15.441644
_cell_angle_alpha 90.000000
_cell_angle_beta 90.000000
_cell_angle_gamma 90.000000
_cell_volume 3181.476454
_symmetry_space_group_name_H-M "P M M N"
_symmetry_group_IT_number 59
_space_group.IT_coordinate_system_code '2'
_symmetry_cell_setting 'orthorhombic'
loop_
_space_group_symop_operation_xyz
x,y,z
1/2-x,1/2-y,z
1/2+x,-y,-z
-x,1/2+y,-z
-x,-y,-z
1/2+x,1/2+y,-z
1/2-x,y,z
x,1/2-y,z
loop_
_atom_site_type_symbol
_atom_site_label
_atom_site_fract_x
_atom_site_fract_y
_atom_site_fract_z
Si Si1 0.576155 0.385351 0.662905
Si Si2 0.417282 0.818550 0.985668
Si Si3 0.570423 0.314242 0.825669
Si Si4 0.072346 0.185139 0.185367
Si Si5 0.578008 0.183625 0.491706
Si Si6 0.572051 0.502248 0.405576
Si Si7 0.072204 0.388878 0.347034
O O1 0.750000 0.405274 0.670659
O O2 0.513949 0.357820 0.751874
O O3 0.558704 0.336908 0.589834
O O4 0.472277 0.439629 0.642977
O O5 0.250000 0.843577 0.971232
O O6 0.413119 0.750000 0.986800
O O7 0.481952 0.838134 0.079692
O O8 0.519338 0.841121 0.906583
O O9 0.750000 0.310520 0.824329
O O10 0.504742 0.250000 0.808706
O O11 0.250000 0.186608 0.185704
O O12 0.008266 0.250000 0.199014
O O13 0.012668 0.145266 0.262873
O O14 0.750000 0.174190 0.460588
O O15 0.530822 0.250000 0.486672
O O16 0.466022 0.147596 0.432073
O O17 0.500000 0.500000 0.500000
O O18 0.750000 0.498110 0.416501
O O19 0.512994 0.449486 0.348080
O O20 0.250000 0.399751 0.344288
#
# Coordination Sequence:
#
# PCOD8241623 Si02
#       7
#     8   8   8   8   8   8   8
#     4  10  19  33  54  77 104 137 172 211 253 303
#     4   8  14  26  47  75 105 137 171 205 243 295
#     4   8  14  27  50  80 110 138 169 205 249 303
#     4   9  18  32  50  75 106 137 167 204 257 311
#     4  10  20  32  49  76 107 137 168 204 251 307
#     4  12  24  39  56  74  98 132 176 221 260 305
#     4  11  22  36  54  74 100 136 175 217 260 306
#
# _framework density 17.601890999999998
#
# number of rings (size 3 to 8) (size 9 to 14) (size 15 to 20)
#    0.000    2.286    1.429    3.429    0.000    3.714 
#    0.000    2.143    0.000    3.000    0.000    0.000 
#    0.000    0.000    0.000    0.000    0.000    0.000 
#
# Total GULP energy -694321.770042 kJ/mol
# GULP energy per Si atom -12398.603036 kJ/mol
# Density = 1.756183 g / cm^3
# Si number density = 17.601891 Si / 1000 Ang^3
#
#
#
# Elastic Constant Matrix: (Units=GPa)
#
#
# Indices 1 2 3 4 5 6 
#
# 1 57.4109 28.8556 30.3984 0.0000 0.0000 0.0000
# 2 28.8556 85.6274 39.2383 0.0000 0.0000 0.0000
# 3 30.3984 39.2383 131.0714 0.0000 0.0000 0.0000
# 4 0.0000 0.0000 0.0000 16.0235 0.0000 0.0000
# 5 0.0000 0.0000 0.0000 0.0000 24.0953 0.0000
# 6 0.0000 0.0000 0.0000 0.0000 0.0000 23.7236
#
#
#
# Elastic Compliance Matrix: (Units=1/GPa)
#
#
# Indices 1 2 3 4 5 6 
#
# 1 0.022184 -0.005932 -0.003369 0.000000 0.000000 0.000000
# 2 -0.005932 0.015121 -0.003151 0.000000 0.000000 0.000000
# 3 -0.003369 -0.003151 0.009354 0.000000 0.000000 0.000000
# 4 0.000000 0.000000 0.000000 0.062408 0.000000 0.000000
# 5 0.000000 0.000000 0.000000 0.000000 0.041502 0.000000
# 6 0.000000 0.000000 0.000000 0.000000 0.000000 0.042152
#
#
# Mechanical properties :
#
#
# Convention : Reuss Voigt Hill
#
# Bulk Modulus (GPa) = 45.96611 52.34381 49.15496
# Shear Modulus (GPa) = 22.23436 24.47630 23.35533
#
# Velocity S-wave (km/s) = 3.55798 3.73305 3.64657
# Velocity P-wave (km/s) = 6.56125 6.95579 6.76140
#
# Compressibility (1/GPa) = 0.02175516
#
# Stress axis : x y z
#
# Youngs Moduli (GPa) = 45.07837 66.13124 106.90449
#
# Poissons Ratio (x) = 0.39228 0.36017
# Poissons Ratio (y) = 0.26739 0.33687
# Poissons Ratio (z) = 0.15187 0.20839
#
# Static dielectric constant tensor:
#      x y z
#    x 3.120360 0.000000 0.000000 
#    y 0.000000 3.271850 0.000000 
#    z 0.000000 0.000000 3.587000 
# 
# 
# High freq. dielectric constant tensor:
#      x y z
#    x 1.662900 0.000000 0.000000 
#    y 0.000000 1.660090 0.000000 
#    z 0.000000 0.000000 1.688270 
# 
# From -- ./inp_files/20901.got.cif
#   From: 2010.03.12/outbox.cif.g09.slc.cpg/sg59_11_cif.got.tgz:20901.got - 2010.04.16 16:29:54.
