data_PCOD8241093
_publ_section_title
;
Structure prediction by ZEFSAII (Michael W. Deem and Ramdas Pophale) SiO2 
 PCOD8241093
Probable space group: P M M N
;
_chemical_formula_sum "Si O2"
_cell_formula_units_Z 56
_cell_length_a 14.013671
_cell_length_b 8.908389
_cell_length_c 24.195869
_cell_angle_alpha 90.000000
_cell_angle_beta 90.000000
_cell_angle_gamma 90.000000
_cell_volume 3020.593718
_symmetry_space_group_name_H-M "P M M N"
_symmetry_group_IT_number 59
_space_group.IT_coordinate_system_code '2'
_symmetry_cell_setting 'orthorhombic'
loop_
_space_group_symop_operation_xyz
x,y,z
1/2-x,1/2-y,z
1/2+x,-y,-z
-x,1/2+y,-z
-x,-y,-z
1/2+x,1/2+y,-z
1/2-x,y,z
x,1/2-y,z
loop_
_atom_site_type_symbol
_atom_site_label
_atom_site_fract_x
_atom_site_fract_y
_atom_site_fract_z
Si Si1 0.750000 0.421911 0.313900
Si Si2 0.459466 0.078203 0.807574
Si Si3 0.956138 0.070525 0.310738
Si Si4 0.641634 0.575856 0.495256
Si Si5 0.473604 0.925716 0.414379
Si Si6 0.641422 0.424365 0.002622
Si Si7 0.750000 0.917556 0.205530
Si Si8 0.021860 0.425767 0.086025
O O1 0.750000 0.250000 0.329590
O O2 0.648234 0.489219 0.333669
O O3 0.750000 0.445941 0.248225
O O4 0.490813 0.250000 0.800753
O O5 0.348628 0.065416 0.828325
O O6 0.478113 0.997270 0.749192
O O7 0.524202 0.002447 0.854120
O O8 0.959548 0.250000 0.306285
O O9 0.031376 0.010319 0.355508
O O10 0.750000 0.538677 0.477212
O O11 0.628613 0.750000 0.510282
O O12 0.616064 0.480210 0.549554
O O13 0.571908 0.529874 0.445386
O O14 0.465254 0.750000 0.403726
O O15 0.750000 0.462462 0.018695
O O16 0.627338 0.250000 0.988553
O O17 0.575021 0.471612 0.053957
O O18 0.612907 0.517624 0.948342
O O19 0.750000 0.750000 0.233838
O O20 0.029921 0.250000 0.095042
#
# Coordination Sequence:
#
# PCOD8241093 Si02
#       8
#     4   8   8   8   8   8   4   8
#     4   8  16  28  42  64  94 130 168 202 241 290
#     4  10  19  32  49  72 103 138 173 211 254 304
#     4  10  19  32  49  72 103 138 173 211 254 304
#     4   9  19  36  55  75 102 137 174 214 258 303
#     4  10  20  33  52  79 106 135 172 213 257 307
#     4   9  19  36  55  75 102 137 174 214 258 303
#     4   8  16  28  42  64  94 130 168 202 241 290
#     4  10  20  33  52  79 106 135 172 213 257 307
#
# _framework density 18.539401999999999
#
# number of rings (size 3 to 8) (size 9 to 14) (size 15 to 20)
#    0.000    2.571    0.000    1.714    2.000    2.857 
#    0.000    0.000    0.000    0.857    0.000    0.000 
#    0.000    0.000    0.000    0.000    0.000    0.000 
#
# Total GULP energy -694055.819146 kJ/mol
# GULP energy per Si atom -12393.853913 kJ/mol
# Density = 1.849721 g / cm^3
# Si number density = 18.539402 Si / 1000 Ang^3
#
#
#
# Elastic Constant Matrix: (Units=GPa)
#
#
# Indices 1 2 3 4 5 6 
#
# 1 50.0750 13.7674 12.7053 0.0000 0.0000 0.0000
# 2 13.7674 70.6591 42.5382 0.0000 0.0000 0.0000
# 3 12.7053 42.5382 98.4983 0.0000 0.0000 0.0000
# 4 0.0000 0.0000 0.0000 32.4811 0.0000 0.0000
# 5 0.0000 0.0000 0.0000 0.0000 20.8802 0.0000
# 6 0.0000 0.0000 0.0000 0.0000 0.0000 23.9692
#
#
#
# Elastic Compliance Matrix: (Units=1/GPa)
#
#
# Indices 1 2 3 4 5 6 
#
# 1 0.021220 -0.003360 -0.001286 0.000000 0.000000 0.000000
# 2 -0.003360 0.019657 -0.008056 0.000000 0.000000 0.000000
# 3 -0.001286 -0.008056 0.013797 0.000000 0.000000 0.000000
# 4 0.000000 0.000000 0.000000 0.030787 0.000000 0.000000
# 5 0.000000 0.000000 0.000000 0.000000 0.047892 0.000000
# 6 0.000000 0.000000 0.000000 0.000000 0.000000 0.041720
#
#
# Mechanical properties :
#
#
# Convention : Reuss Voigt Hill
#
# Bulk Modulus (GPa) = 34.16435 39.69492 36.92963
# Shear Modulus (GPa) = 23.78291 25.48087 24.63189
#
# Velocity S-wave (km/s) = 3.58555 3.71134 3.64898
# Velocity P-wave (km/s) = 5.96737 6.31054 6.14135
#
# Compressibility (1/GPa) = 0.02927028
#
# Stress axis : x y z
#
# Youngs Moduli (GPa) = 47.12486 50.87266 72.47775
#
# Poissons Ratio (x) = 0.17096 0.09320
# Poissons Ratio (y) = 0.15836 0.58386
# Poissons Ratio (z) = 0.06060 0.40982
#
# Static dielectric constant tensor:
#      x y z
#    x 3.314000 0.000000 0.000000 
#    y 0.000000 3.388420 0.000000 
#    z 0.000000 0.000000 3.180400 
# 
# 
# High freq. dielectric constant tensor:
#      x y z
#    x 1.692240 0.000000 0.000000 
#    y 0.000000 1.725850 0.000000 
#    z 0.000000 0.000000 1.705740 
# 
# From -- ./inp_files/30492.got.cif
#   From: 2010.03.12/outbox.cif.g09.slc.cpg/sg59_16_cif.got.tgz:30492.got - 2010.04.16 16:29:54.
