data_PCOD8241156
_publ_section_title
;
Structure prediction by ZEFSAII (Michael W. Deem and Ramdas Pophale) SiO2 
 PCOD8241156
Probable space group: P M M N
;
_chemical_formula_sum "Si O2"
_cell_formula_units_Z 64
_cell_length_a 9.108962
_cell_length_b 24.493872
_cell_length_c 15.357467
_cell_angle_alpha 90.000000
_cell_angle_beta 90.000000
_cell_angle_gamma 90.000000
_cell_volume 3426.462042
_symmetry_space_group_name_H-M "P M M N"
_symmetry_group_IT_number 59
_space_group.IT_coordinate_system_code '2'
_symmetry_cell_setting 'orthorhombic'
loop_
_space_group_symop_operation_xyz
x,y,z
1/2-x,1/2-y,z
1/2+x,-y,-z
-x,1/2+y,-z
-x,-y,-z
1/2+x,1/2+y,-z
1/2-x,y,z
x,1/2-y,z
loop_
_atom_site_type_symbol
_atom_site_label
_atom_site_fract_x
_atom_site_fract_y
_atom_site_fract_z
Si Si1 0.410454 0.188394 0.807363
Si Si2 0.578867 0.187557 0.639801
Si Si3 0.577947 0.021718 0.371401
Si Si4 0.081175 0.688822 0.832859
Si Si5 0.082428 0.413200 0.224158
Si Si6 0.077538 0.657513 0.026064
Si Si7 0.918256 0.553535 0.973665
Si Si8 0.920094 0.078053 0.549719
O O1 0.250000 0.159633 0.819506
O O2 0.382528 0.250000 0.780529
O O3 0.498637 0.163574 0.725668
O O4 0.505431 0.189740 0.894935
O O5 0.750000 0.187770 0.661580
O O6 0.531484 0.250000 0.612354
O O7 0.542548 0.142470 0.564943
O O8 0.750000 0.015476 0.356022
O O9 0.506643 0.046894 0.285931
O O10 0.541485 0.063157 0.450296
O O11 0.513195 0.961439 0.387525
O O12 0.250000 0.671602 0.820062
O O13 0.051817 0.750000 0.798634
O O14 0.041091 0.687436 0.935257
O O15 0.983354 0.647981 0.775774
O O16 0.250000 0.409547 0.255547
O O17 0.068038 0.438029 0.128787
O O18 0.250000 0.652643 0.041978
O O19 0.003623 0.598825 0.027653
O O20 0.750000 0.552131 0.003927
O O21 0.000000 0.500000 0.000000
O O22 0.750000 0.066310 0.569744
#
# Coordination Sequence:
#
# PCOD8241156 Si02
#       8
#     8   8   8   8   8   8   8   8
#     4  10  20  32  47  71 103 135 168 207 249 297
#     4   9  18  34  55  77 104 138 173 211 258 312
#     4  10  20  35  57  82 106 135 173 216 262 311
#     4   9  18  33  53  76 102 134 174 218 261 307
#     4  10  21  36  54  77 106 138 172 214 263 313
#     4  10  19  32  51  73  98 132 174 216 257 303
#     4  10  21  36  52  72 100 135 173 213 259 307
#     4   9  19  36  57  81 106 133 170 214 260 312
#
# _framework density 18.678156999999999
#
# number of rings (size 3 to 8) (size 9 to 14) (size 15 to 20)
#    0.000    2.375    0.000    2.250    0.000    5.500 
#    0.000    1.875    0.000    2.250    0.000    0.000 
#    0.000    0.000    0.000    0.000    0.000    0.000 
#
# Total GULP energy -793390.891334 kJ/mol
# GULP energy per Si atom -12396.732677 kJ/mol
# Density = 1.863564 g / cm^3
# Si number density = 18.678157 Si / 1000 Ang^3
#
#
#
# Elastic Constant Matrix: (Units=GPa)
#
#
# Indices 1 2 3 4 5 6 
#
# 1 94.3165 42.9003 26.0945 0.0000 0.0000 0.0000
# 2 42.9003 107.7261 26.5334 0.0000 0.0000 0.0000
# 3 26.0945 26.5334 40.9332 0.0000 0.0000 0.0000
# 4 0.0000 0.0000 0.0000 28.3970 0.0000 0.0000
# 5 0.0000 0.0000 0.0000 0.0000 28.5273 0.0000
# 6 0.0000 0.0000 0.0000 0.0000 0.0000 31.5126
#
#
#
# Elastic Compliance Matrix: (Units=1/GPa)
#
#
# Indices 1 2 3 4 5 6 
#
# 1 0.014240 -0.004088 -0.006428 0.000000 0.000000 0.000000
# 2 -0.004088 0.012220 -0.005315 0.000000 0.000000 0.000000
# 3 -0.006428 -0.005315 0.031973 0.000000 0.000000 0.000000
# 4 0.000000 0.000000 0.000000 0.035215 0.000000 0.000000
# 5 0.000000 0.000000 0.000000 0.000000 0.035054 0.000000
# 6 0.000000 0.000000 0.000000 0.000000 0.000000 0.031733
#
#
# Mechanical properties :
#
#
# Convention : Reuss Voigt Hill
#
# Bulk Modulus (GPa) = 37.35371 48.22582 42.78976
# Shear Modulus (GPa) = 24.87283 27.51722 26.19502
#
# Velocity S-wave (km/s) = 3.65314 3.84243 3.74898
# Velocity P-wave (km/s) = 6.15109 6.74990 6.45744
#
# Compressibility (1/GPa) = 0.02677110
#
# Stress axis : x y z
#
# Youngs Moduli (GPa) = 70.22236 81.83433 31.27592
#
# Poissons Ratio (x) = 0.33451 0.20106
# Poissons Ratio (y) = 0.28705 0.16624
# Poissons Ratio (z) = 0.45142 0.43496
#
# Static dielectric constant tensor:
#      x y z
#    x 3.535800 0.000000 0.000000 
#    y 0.000000 3.102840 0.000000 
#    z 0.000000 0.000000 3.461950 
# 
# 
# High freq. dielectric constant tensor:
#      x y z
#    x 1.736080 0.000000 0.000000 
#    y 0.000000 1.724560 0.000000 
#    z 0.000000 0.000000 1.705550 
# 
# From -- ./inp_files/21509.got.cif
#   From: 2010.03.12/outbox.cif.g09.slc.cpg/sg59_11_cif.got.tgz:21509.got - 2010.04.16 16:29:54.
