data_PCOD8241202
_publ_section_title
;
Structure prediction by ZEFSAII (Michael W. Deem and Ramdas Pophale) SiO2 
 PCOD8241202
Probable space group: P M M N
;
_chemical_formula_sum "Si O2"
_cell_formula_units_Z 64
_cell_length_a 8.866935
_cell_length_b 20.397328
_cell_length_c 19.571325
_cell_angle_alpha 90.000000
_cell_angle_beta 90.000000
_cell_angle_gamma 90.000000
_cell_volume 3539.704707
_symmetry_space_group_name_H-M "P M M N"
_symmetry_group_IT_number 59
_space_group.IT_coordinate_system_code '2'
_symmetry_cell_setting 'orthorhombic'
loop_
_space_group_symop_operation_xyz
x,y,z
1/2-x,1/2-y,z
1/2+x,-y,-z
-x,1/2+y,-z
-x,-y,-z
1/2+x,1/2+y,-z
1/2-x,y,z
x,1/2-y,z
loop_
_atom_site_type_symbol
_atom_site_label
_atom_site_fract_x
_atom_site_fract_y
_atom_site_fract_z
Si Si1 0.924186 0.522789 0.674436
Si Si2 0.928153 0.060774 0.460470
Si Si3 0.923706 0.869831 0.186134
Si Si4 0.423999 0.977727 0.812905
Si Si5 0.576334 0.675188 0.458361
Si Si6 0.922462 0.323462 0.946447
Si Si7 0.072742 0.559348 0.959869
Si Si8 0.075375 0.631199 0.324946
O O1 0.750000 0.540670 0.664926
O O2 0.954226 0.445842 0.665191
O O3 0.020609 0.561129 0.618100
O O4 0.977160 0.546624 0.749075
O O5 0.750000 0.054133 0.466088
O O6 0.977572 0.129332 0.493029
O O7 0.000000 0.000000 0.500000
O O8 0.750000 0.854687 0.201207
O O9 0.952594 0.946069 0.171920
O O10 0.975407 0.829944 0.120247
O O11 0.019879 0.845559 0.250816
O O12 0.250000 0.964062 0.795369
O O13 0.478706 0.939184 0.880585
O O14 0.750000 0.652852 0.461822
O O15 0.557243 0.750000 0.483150
O O16 0.519984 0.669979 0.380776
O O17 0.750000 0.339328 0.926077
O O18 0.939142 0.250000 0.975375
O O19 0.977469 0.372289 0.006057
O O20 0.250000 0.547799 0.962719
O O21 0.000000 0.500000 0.000000
O O22 0.250000 0.649023 0.333207
#
# Coordination Sequence:
#
# PCOD8241202 Si02
#       8
#     8   8   8   8   8   8   8   8
#     4  10  20  34  55  84 112 142 181 226 275 326
#     4  12  23  37  60  86 114 148 186 231 276 327
#     4  10  19  32  51  75 106 142 182 225 268 318
#     4   9  18  32  51  78 107 137 175 223 275 323
#     4  11  24  40  58  82 114 150 187 229 277 328
#     4  10  21  35  51  74 106 143 179 218 267 323
#     4  10  19  33  54  78 105 136 177 222 268 319
#     4  10  20  34  54  79 110 148 187 226 268 324
#
# _framework density 18.080604000000001
#
# number of rings (size 3 to 8) (size 9 to 14) (size 15 to 20)
#    0.000    1.750    2.500    2.625    0.000    3.750 
#    0.000    0.000    0.000    0.750    0.000    1.750 
#    0.000    0.000    0.000    0.000    0.000    0.000 
#
# Total GULP energy -793842.433405 kJ/mol
# GULP energy per Si atom -12403.788022 kJ/mol
# Density = 1.803945 g / cm^3
# Si number density = 18.080604 Si / 1000 Ang^3
#
#
#
# Elastic Constant Matrix: (Units=GPa)
#
#
# Indices 1 2 3 4 5 6 
#
# 1 98.9219 40.0549 51.8231 0.0000 0.0000 0.0000
# 2 40.0549 80.7170 53.4657 0.0000 0.0000 0.0000
# 3 51.8231 53.4657 126.6320 0.0000 0.0000 0.0000
# 4 0.0000 0.0000 0.0000 24.0673 0.0000 0.0000
# 5 0.0000 0.0000 0.0000 0.0000 33.4500 0.0000
# 6 0.0000 0.0000 0.0000 0.0000 0.0000 22.0131
#
#
#
# Elastic Compliance Matrix: (Units=1/GPa)
#
#
# Indices 1 2 3 4 5 6 
#
# 1 0.013883 -0.004339 -0.003849 0.000000 0.000000 0.000000
# 2 -0.004339 0.018555 -0.006058 0.000000 0.000000 0.000000
# 3 -0.003849 -0.006058 0.012030 0.000000 0.000000 0.000000
# 4 0.000000 0.000000 0.000000 0.041550 0.000000 0.000000
# 5 0.000000 0.000000 0.000000 0.000000 0.029895 0.000000
# 6 0.000000 0.000000 0.000000 0.000000 0.000000 0.045428
#
#
# Mechanical properties :
#
#
# Convention : Reuss Voigt Hill
#
# Bulk Modulus (GPa) = 62.60191 66.32868 64.46529
# Shear Modulus (GPa) = 25.62002 26.63456 26.12729
#
# Velocity S-wave (km/s) = 3.76838 3.84226 3.80550
# Velocity P-wave (km/s) = 7.32347 7.51323 7.41895
#
# Compressibility (1/GPa) = 0.01597395
#
# Stress axis : x y z
#
# Youngs Moduli (GPa) = 72.03268 53.89273 83.12498
#
# Poissons Ratio (x) = 0.23387 0.31996
# Poissons Ratio (y) = 0.31258 0.50361
# Poissons Ratio (z) = 0.27726 0.32651
#
# Static dielectric constant tensor:
#      x y z
#    x 3.412920 0.000000 0.000000 
#    y 0.000000 3.184390 0.000000 
#    z 0.000000 0.000000 3.488880 
# 
# 
# High freq. dielectric constant tensor:
#      x y z
#    x 1.708880 0.000000 0.000000 
#    y 0.000000 1.672950 0.000000 
#    z 0.000000 0.000000 1.704820 
# 
# From -- ./inp_files/26231.got.cif
#   From: 2010.03.12/outbox.cif.g09.slc.cpg/sg59_14_cif.got.tgz:26231.got - 2010.04.16 16:29:54.
