data_PCOD8241740
_publ_section_title
;
Structure prediction by ZEFSAII (Michael W. Deem and Ramdas Pophale) SiO2 
 PCOD8241740
Probable space group: P M M N
;
_chemical_formula_sum "Si O2"
_cell_formula_units_Z 64
_cell_length_a 8.770161
_cell_length_b 19.682435
_cell_length_c 19.141761
_cell_angle_alpha 90.000000
_cell_angle_beta 90.000000
_cell_angle_gamma 90.000000
_cell_volume 3304.214870
_symmetry_space_group_name_H-M "P M M N"
_symmetry_group_IT_number 59
_space_group.IT_coordinate_system_code '2'
_symmetry_cell_setting 'orthorhombic'
loop_
_space_group_symop_operation_xyz
x,y,z
1/2-x,1/2-y,z
1/2+x,-y,-z
-x,1/2+y,-z
-x,-y,-z
1/2+x,1/2+y,-z
1/2-x,y,z
x,1/2-y,z
loop_
_atom_site_type_symbol
_atom_site_label
_atom_site_fract_x
_atom_site_fract_y
_atom_site_fract_z
Si Si1 0.929515 0.946261 0.708230
Si Si2 0.923977 0.170370 0.675906
Si Si3 0.425532 0.568312 0.080871
Si Si4 0.569574 0.176600 0.520420
Si Si5 0.072879 0.428830 0.779284
Si Si6 0.926930 0.589969 0.940112
Si Si7 0.568789 0.827086 0.806308
Si Si8 0.430135 0.547814 0.558518
O O1 0.750000 0.946539 0.696229
O O2 0.983813 0.873511 0.740276
O O3 0.009410 0.965488 0.635700
O O4 0.973757 0.004409 0.762814
O O5 0.750000 0.144886 0.687023
O O6 0.934990 0.250000 0.691063
O O7 0.982411 0.153549 0.597629
O O8 0.038601 0.131500 0.725996
O O9 0.250000 0.586072 0.093271
O O10 0.524963 0.597840 0.144372
O O11 0.455199 0.487919 0.079623
O O12 0.479598 0.605811 0.010364
O O13 0.750000 0.182996 0.523258
O O14 0.498068 0.250000 0.501010
O O15 0.517231 0.123786 0.461849
O O16 0.250000 0.447582 0.776558
O O17 0.750000 0.604133 0.954621
O O18 0.989960 0.638616 0.878315
O O19 0.750000 0.826064 0.808493
O O20 0.504020 0.750000 0.798605
O O21 0.500000 0.500000 0.500000
O O22 0.250000 0.538176 0.557633
#
# Coordination Sequence:
#
# PCOD8241740 Si02
#       8
#     8   8   8   8   8   8   8   8
#     4  11  22  38  57  81 114 151 192 236 286 344
#     4   9  18  35  59  83 108 143 184 227 283 346
#     4  10  19  33  55  82 110 145 184 228 280 334
#     4   8  16  33  56  78 102 138 181 221 270 335
#     4  12  23  35  55  83 114 149 190 236 281 333
#     4   9  17  33  55  82 109 141 185 232 280 333
#     4   9  18  35  59  84 113 151 194 240 292 345
#     4  11  22  36  56  84 114 147 184 233 288 340
#
# _framework density 19.369199999999999
#
# number of rings (size 3 to 8) (size 9 to 14) (size 15 to 20)
#    0.000    2.125    1.250    3.750    0.000    2.250 
#    0.000    1.250    0.000    7.875    0.000    0.000 
#    0.000    0.000    0.000    0.000    0.000    0.000 
#
# Total GULP energy -793510.504894 kJ/mol
# GULP energy per Si atom -12398.601639 kJ/mol
# Density = 1.932511 g / cm^3
# Si number density = 19.369200 Si / 1000 Ang^3
#
#
#
# Elastic Constant Matrix: (Units=GPa)
#
#
# Indices 1 2 3 4 5 6 
#
# 1 64.4407 23.3608 33.4419 0.0000 0.0000 0.0000
# 2 23.3608 66.0902 36.9054 0.0000 0.0000 0.0000
# 3 33.4419 36.9054 117.0506 0.0000 0.0000 0.0000
# 4 0.0000 0.0000 0.0000 27.6587 0.0000 0.0000
# 5 0.0000 0.0000 0.0000 0.0000 29.1543 0.0000
# 6 0.0000 0.0000 0.0000 0.0000 0.0000 18.5356
#
#
#
# Elastic Compliance Matrix: (Units=1/GPa)
#
#
# Indices 1 2 3 4 5 6 
#
# 1 0.019279 -0.004538 -0.004077 0.000000 0.000000 0.000000
# 2 -0.004538 0.019432 -0.004830 0.000000 0.000000 0.000000
# 3 -0.004077 -0.004830 0.011231 0.000000 0.000000 0.000000
# 4 0.000000 0.000000 0.000000 0.036155 0.000000 0.000000
# 5 0.000000 0.000000 0.000000 0.000000 0.034300 0.000000
# 6 0.000000 0.000000 0.000000 0.000000 0.000000 0.053950
#
#
# Mechanical properties :
#
#
# Convention : Reuss Voigt Hill
#
# Bulk Modulus (GPa) = 43.38121 48.33310 45.85715
# Shear Modulus (GPa) = 23.93228 25.32794 24.63011
#
# Velocity S-wave (km/s) = 3.51890 3.62005 3.56984
# Velocity P-wave (km/s) = 6.24146 6.51773 6.38109
#
# Compressibility (1/GPa) = 0.02305146
#
# Stress axis : x y z
#
# Youngs Moduli (GPa) = 51.86950 51.46122 89.03726
#
# Poissons Ratio (x) = 0.23352 0.36304
# Poissons Ratio (y) = 0.23537 0.43009
# Poissons Ratio (z) = 0.21149 0.24858
#
# Static dielectric constant tensor:
#      x y z
#    x 3.273970 0.000000 0.000000 
#    y 0.000000 3.344400 0.000000 
#    z 0.000000 0.000000 3.684690 
# 
# 
# High freq. dielectric constant tensor:
#      x y z
#    x 1.730880 0.000000 0.000000 
#    y 0.000000 1.743490 0.000000 
#    z 0.000000 0.000000 1.764200 
# 
# From -- ./inp_files/26294.got.cif
#   From: 2010.03.12/outbox.cif.g09.slc.cpg/sg59_14_cif.got.tgz:26294.got - 2010.04.16 16:29:54.
