data_PCOD8241402
_publ_section_title
;
Structure prediction by ZEFSAII (Michael W. Deem and Ramdas Pophale) SiO2 
 PCOD8241402
Probable space group: P M M N
;
_chemical_formula_sum "Si O2"
_cell_formula_units_Z 48
_cell_length_a 21.120175
_cell_length_b 9.585857
_cell_length_c 12.209698
_cell_angle_alpha 90.000000
_cell_angle_beta 90.000000
_cell_angle_gamma 90.000000
_cell_volume 2471.914132
_symmetry_space_group_name_H-M "P M M N"
_symmetry_group_IT_number 59
_space_group.IT_coordinate_system_code '2'
_symmetry_cell_setting 'orthorhombic'
loop_
_space_group_symop_operation_xyz
x,y,z
1/2-x,1/2-y,z
1/2+x,-y,-z
-x,1/2+y,-z
-x,-y,-z
1/2+x,1/2+y,-z
1/2-x,y,z
x,1/2-y,z
loop_
_atom_site_type_symbol
_atom_site_label
_atom_site_fract_x
_atom_site_fract_y
_atom_site_fract_z
Si Si1 0.176789 0.596854 0.596441
Si Si2 0.357073 0.590826 0.358715
Si Si3 0.003241 0.906727 0.394402
Si Si4 0.890102 0.588500 0.243385
Si Si5 0.320906 0.411621 0.159463
Si Si6 0.566205 0.914702 0.004321
O O1 0.250000 0.614029 0.579411
O O2 0.145782 0.750000 0.616250
O O3 0.150096 0.532302 0.482884
O O4 0.165810 0.499508 0.701567
O O5 0.331430 0.750000 0.352155
O O6 0.430919 0.582868 0.329992
O O7 0.319915 0.496743 0.272544
O O8 0.989490 0.750000 0.433806
O O9 0.953254 0.958029 0.305756
O O10 0.000000 0.000000 0.500000
O O11 0.873546 0.750000 0.258135
O O12 0.898873 0.549937 0.117429
O O13 0.250000 0.433432 0.106097
O O14 0.330832 0.250000 0.187603
O O15 0.380090 0.461314 0.083845
O O16 0.550059 0.750000 0.995175
O O17 0.500000 0.000000 0.000000
#
# Coordination Sequence:
#
# PCOD8241402 Si02
#       6
#     8   8   8   8   8   8
#     4  10  21  36  54  79 112 149 187 227 276 334
#     4  10  20  36  58  83 114 151 188 232 285 342
#     4  10  19  32  53  81 111 142 179 223 274 336
#     4  10  21  36  56  83 112 144 185 228 278 340
#     4  10  22  39  59  85 116 153 198 245 293 346
#     4  10  22  41  63  87 116 151 193 243 294 345
#
# _framework density 19.418150000000001
#
# number of rings (size 3 to 8) (size 9 to 14) (size 15 to 20)
#    0.000    2.000    1.667    1.500    0.000    6.000 
#    0.000    1.667    0.000    0.000    0.000    0.000 
#    0.000    0.000    0.000    0.000    0.000    0.000 
#
# Total GULP energy -594962.976080 kJ/mol
# GULP energy per Si atom -12395.062002 kJ/mol
# Density = 1.937395 g / cm^3
# Si number density = 19.418150 Si / 1000 Ang^3
#
#
#
# Elastic Constant Matrix: (Units=GPa)
#
#
# Indices 1 2 3 4 5 6 
#
# 1 76.3128 28.6179 19.1845 0.0000 0.0000 0.0000
# 2 28.6179 62.2734 47.4992 0.0000 0.0000 0.0000
# 3 19.1845 47.4992 107.4476 0.0000 0.0000 0.0000
# 4 0.0000 0.0000 0.0000 30.2650 0.0000 0.0000
# 5 0.0000 0.0000 0.0000 0.0000 28.7014 0.0000
# 6 0.0000 0.0000 0.0000 0.0000 0.0000 29.6881
#
#
#
# Elastic Compliance Matrix: (Units=1/GPa)
#
#
# Indices 1 2 3 4 5 6 
#
# 1 0.015857 -0.007736 0.000589 0.000000 0.000000 0.000000
# 2 -0.007736 0.028002 -0.010997 0.000000 0.000000 0.000000
# 3 0.000589 -0.010997 0.014063 0.000000 0.000000 0.000000
# 4 0.000000 0.000000 0.000000 0.033041 0.000000 0.000000
# 5 0.000000 0.000000 0.000000 0.000000 0.034841 0.000000
# 6 0.000000 0.000000 0.000000 0.000000 0.000000 0.033683
#
#
# Mechanical properties :
#
#
# Convention : Reuss Voigt Hill
#
# Bulk Modulus (GPa) = 46.22705 48.51520 47.37112
# Shear Modulus (GPa) = 24.63187 27.77974 26.20581
#
# Velocity S-wave (km/s) = 3.56546 3.78644 3.67761
# Velocity P-wave (km/s) = 6.38810 6.64491 6.51777
#
# Compressibility (1/GPa) = 0.02163236
#
# Stress axis : x y z
#
# Youngs Moduli (GPa) = 63.06325 35.71216 71.10681
#
# Poissons Ratio (x) = 0.27628 -0.04186
# Poissons Ratio (y) = 0.48787 0.78199
# Poissons Ratio (z) = -0.03712 0.39274
#
# Static dielectric constant tensor:
#      x y z
#    x 3.725940 0.000000 0.000000 
#    y 0.000000 3.555870 0.000000 
#    z 0.000000 0.000000 3.844770 
# 
# 
# High freq. dielectric constant tensor:
#      x y z
#    x 1.766180 0.000000 0.000000 
#    y 0.000000 1.747190 0.000000 
#    z 0.000000 0.000000 1.749240 
# 
# From -- ./inp_files/18590.got.cif
#   From: 2010.03.12/outbox.cif.g09.slc.cpg/sg59_10_cif.got.tgz:18590.got - 2010.04.16 16:29:54.
