data_PCOD8241322
_publ_section_title
;
Structure prediction by ZEFSAII (Michael W. Deem and Ramdas Pophale) SiO2 
 PCOD8241322
Probable space group: P M M N
;
_chemical_formula_sum "Si O2"
_cell_formula_units_Z 56
_cell_length_a 19.471552
_cell_length_b 8.941668
_cell_length_c 17.448537
_cell_angle_alpha 90.000000
_cell_angle_beta 90.000000
_cell_angle_gamma 90.000000
_cell_volume 3037.932557
_symmetry_space_group_name_H-M "P M M N"
_symmetry_group_IT_number 59
_space_group.IT_coordinate_system_code '2'
_symmetry_cell_setting 'orthorhombic'
loop_
_space_group_symop_operation_xyz
x,y,z
1/2-x,1/2-y,z
1/2+x,-y,-z
-x,1/2+y,-z
-x,-y,-z
1/2+x,1/2+y,-z
1/2-x,y,z
x,1/2-y,z
loop_
_atom_site_type_symbol
_atom_site_label
_atom_site_fract_x
_atom_site_fract_y
_atom_site_fract_z
Si Si1 0.552665 0.574722 0.894672
Si Si2 0.830375 0.921950 0.623515
Si Si3 0.671250 0.921543 0.171020
Si Si4 0.596105 0.424621 0.042660
Si Si5 0.416113 0.427544 0.686512
Si Si6 0.565257 0.073482 0.733286
Si Si7 0.826370 0.572171 0.451469
O O1 0.565479 0.750000 0.889681
O O2 0.473957 0.534331 0.913015
O O3 0.574706 0.501513 0.815381
O O4 0.600427 0.507960 0.961431
O O5 0.750000 0.941384 0.640327
O O6 0.852578 0.750000 0.635708
O O7 0.847766 0.976025 0.537186
O O8 0.871424 0.027661 0.680652
O O9 0.750000 0.936406 0.195592
O O10 0.651250 0.750000 0.153728
O O11 0.625996 0.987540 0.240374
O O12 0.658335 0.017925 0.094905
O O13 0.603147 0.250000 0.027110
O O14 0.411247 0.250000 0.684252
O O15 0.494630 0.482156 0.693186
O O16 0.381561 0.493657 0.609059
O O17 0.564305 0.250000 0.745062
O O18 0.750000 0.510596 0.431846
O O19 0.824017 0.750000 0.447610
#
# Coordination Sequence:
#
# PCOD8241322 Si02
#       7
#     8   8   8   8   8   8   8
#     4  10  20  35  56  78 103 137 177 217 260 314
#     4   9  19  36  56  76 101 137 181 226 270 320
#     4  10  19  32  52  78 111 149 184 219 259 311
#     4  10  20  34  54  78 105 138 175 218 265 311
#     4   9  17  29  48  78 111 140 178 221 261 308
#     4  11  21  33  53  81 112 140 171 220 274 321
#     4   8  14  28  51  76 103 140 184 223 259 306
#
# _framework density 18.433589000000001
#
# number of rings (size 3 to 8) (size 9 to 14) (size 15 to 20)
#    0.000    2.429    1.429    2.571    0.000    4.000 
#    0.000    0.714    0.000    6.000    0.000    2.000 
#    0.000    0.000    0.000    0.000    0.000    0.000 
#
# Total GULP energy -694445.431350 kJ/mol
# GULP energy per Si atom -12400.811274 kJ/mol
# Density = 1.839163 g / cm^3
# Si number density = 18.433589 Si / 1000 Ang^3
#
#
#
# Elastic Constant Matrix: (Units=GPa)
#
#
# Indices 1 2 3 4 5 6 
#
# 1 75.0946 28.5542 59.4566 0.0000 0.0000 0.0000
# 2 28.5542 55.9190 42.8200 0.0000 0.0000 0.0000
# 3 59.4566 42.8200 150.3248 0.0000 0.0000 0.0000
# 4 0.0000 0.0000 0.0000 22.2480 0.0000 0.0000
# 5 0.0000 0.0000 0.0000 0.0000 31.0611 0.0000
# 6 0.0000 0.0000 0.0000 0.0000 0.0000 23.5145
#
#
#
# Elastic Compliance Matrix: (Units=1/GPa)
#
#
# Indices 1 2 3 4 5 6 
#
# 1 0.020622 -0.005480 -0.006596 0.000000 0.000000 0.000000
# 2 -0.005480 0.024328 -0.004762 0.000000 0.000000 0.000000
# 3 -0.006596 -0.004762 0.010618 0.000000 0.000000 0.000000
# 4 0.000000 0.000000 0.000000 0.044948 0.000000 0.000000
# 5 0.000000 0.000000 0.000000 0.000000 0.032195 0.000000
# 6 0.000000 0.000000 0.000000 0.000000 0.000000 0.042527
#
#
# Mechanical properties :
#
#
# Convention : Reuss Voigt Hill
#
# Bulk Modulus (GPa) = 45.67863 60.33333 53.00598
# Shear Modulus (GPa) = 23.12560 25.39857 24.26209
#
# Velocity S-wave (km/s) = 3.54579 3.71596 3.63187
# Velocity P-wave (km/s) = 6.44960 7.15627 6.81211
#
# Compressibility (1/GPa) = 0.02189207
#
# Stress axis : x y z
#
# Youngs Moduli (GPa) = 48.49113 41.10477 94.18369
#
# Poissons Ratio (x) = 0.22525 0.62120
# Poissons Ratio (y) = 0.26573 0.44854
# Poissons Ratio (z) = 0.31983 0.19576
#
# Static dielectric constant tensor:
#      x y z
#    x 3.329950 0.000000 0.000000 
#    y 0.000000 3.075150 0.000000 
#    z 0.000000 0.000000 3.530060 
# 
# 
# High freq. dielectric constant tensor:
#      x y z
#    x 1.702610 0.000000 0.000000 
#    y 0.000000 1.687970 0.000000 
#    z 0.000000 0.000000 1.724850 
# 
# From -- ./inp_files/28054.got.cif
#   From: 2010.03.12/outbox.cif.g09.slc.cpg/sg59_15_cif.got.tgz:28054.got - 2010.04.16 16:29:54.
