data_PCOD8241800
_publ_section_title
;
Structure prediction by ZEFSAII (Michael W. Deem and Ramdas Pophale) SiO2 
 PCOD8241800
Probable space group: P M M N
;
_chemical_formula_sum "Si O2"
_cell_formula_units_Z 48
_cell_length_a 30.848693
_cell_length_b 8.535204
_cell_length_c 9.619498
_cell_angle_alpha 90.000000
_cell_angle_beta 90.000000
_cell_angle_gamma 90.000000
_cell_volume 2532.812745
_symmetry_space_group_name_H-M "P M M N"
_symmetry_group_IT_number 59
_space_group.IT_coordinate_system_code '2'
_symmetry_cell_setting 'orthorhombic'
loop_
_space_group_symop_operation_xyz
x,y,z
1/2-x,1/2-y,z
1/2+x,-y,-z
-x,1/2+y,-z
-x,-y,-z
1/2+x,1/2+y,-z
1/2-x,y,z
x,1/2-y,z
loop_
_atom_site_type_symbol
_atom_site_label
_atom_site_fract_x
_atom_site_fract_y
_atom_site_fract_z
Si Si1 0.862910 0.066547 0.933392
Si Si2 0.627627 0.433689 0.501595
Si Si3 0.488126 0.064683 0.850013
Si Si4 0.702097 0.064894 0.701320
Si Si5 0.430902 0.066435 0.275549
Si Si6 0.890341 0.932336 0.212080
O O1 0.863701 0.250000 0.966244
O O2 0.820257 0.016350 0.846846
O O3 0.905268 0.024769 0.844629
O O4 0.861897 0.971842 0.076900
O O5 0.621376 0.250000 0.527568
O O6 0.672262 0.493207 0.573299
O O7 0.587145 0.522914 0.572356
O O8 0.629806 0.472173 0.339761
O O9 0.493228 0.250000 0.849356
O O10 0.439570 0.013166 0.812140
O O11 0.519218 0.987545 0.734113
O O12 0.500000 0.000000 0.000000
O O13 0.750000 0.987755 0.691471
O O14 0.706278 0.250000 0.694325
O O15 0.426733 0.250000 0.248138
O O16 0.887190 0.750000 0.245805
#
# Coordination Sequence:
#
# PCOD8241800 Si02
#       6
#     8   8   8   8   8   8
#     4  10  19  33  57  83 109 142 182 226 270 325
#     4  10  21  37  58  82 110 147 186 228 277 332
#     4  11  22  35  54  79 108 147 193 236 278 322
#     4   8  16  34  60  87 109 134 177 228 274 327
#     4  11  21  35  55  79 110 148 186 230 275 323
#     4  11  23  37  54  79 113 149 183 228 281 327
#
# _framework density 18.951263000000001
#
# number of rings (size 3 to 8) (size 9 to 14) (size 15 to 20)
#    0.000    1.833    1.667    4.500    0.000    2.667 
#    0.000    0.833    0.000   23.000    0.000    0.000 
#    0.000    0.000    0.000    0.000    0.000    0.000 
#
# Total GULP energy -595321.324804 kJ/mol
# GULP energy per Si atom -12402.527600 kJ/mol
# Density = 1.890813 g / cm^3
# Si number density = 18.951263 Si / 1000 Ang^3
#
#
#
# Elastic Constant Matrix: (Units=GPa)
#
#
# Indices 1 2 3 4 5 6 
#
# 1 125.0032 31.4698 54.5719 0.0000 0.0000 0.0000
# 2 31.4698 49.5767 11.7984 0.0000 0.0000 0.0000
# 3 54.5719 11.7984 119.1048 0.0000 0.0000 0.0000
# 4 0.0000 0.0000 0.0000 33.6980 0.0000 0.0000
# 5 0.0000 0.0000 0.0000 0.0000 21.6642 0.0000
# 6 0.0000 0.0000 0.0000 0.0000 0.0000 17.4464
#
#
#
# Elastic Compliance Matrix: (Units=1/GPa)
#
#
# Indices 1 2 3 4 5 6 
#
# 1 0.011633 -0.006263 -0.004709 0.000000 0.000000 0.000000
# 2 -0.006263 0.024030 0.000489 0.000000 0.000000 0.000000
# 3 -0.004709 0.000489 0.010505 0.000000 0.000000 0.000000
# 4 0.000000 0.000000 0.000000 0.029675 0.000000 0.000000
# 5 0.000000 0.000000 0.000000 0.000000 0.046159 0.000000
# 6 0.000000 0.000000 0.000000 0.000000 0.000000 0.057318
#
#
# Mechanical properties :
#
#
# Convention : Reuss Voigt Hill
#
# Bulk Modulus (GPa) = 39.68064 54.37387 47.02726
# Shear Modulus (GPa) = 23.95926 27.61803 25.78865
#
# Velocity S-wave (km/s) = 3.55950 3.82163 3.69289
# Velocity P-wave (km/s) = 6.15443 6.94455 6.56140
#
# Compressibility (1/GPa) = 0.02520120
#
# Stress axis : x y z
#
# Youngs Moduli (GPa) = 85.96587 41.61458 95.19031
#
# Poissons Ratio (x) = 0.26064 0.44829
# Poissons Ratio (y) = 0.53842 -0.04658
# Poissons Ratio (z) = 0.40485 -0.02036
#
# Static dielectric constant tensor:
#      x y z
#    x 3.750110 0.000000 0.000000 
#    y 0.000000 3.360570 0.000000 
#    z 0.000000 0.000000 3.423920 
# 
# 
# High freq. dielectric constant tensor:
#      x y z
#    x 1.724890 0.000000 0.000000 
#    y 0.000000 1.733870 0.000000 
#    z 0.000000 0.000000 1.734280 
# 
# From -- ./inp_files/6241.got.cif
#   From: 2010.03.12/outbox.cif.g09.slc.cpg/sg59_4_cif.got.tgz:6241.got - 2010.04.16 16:29:54.
