data_PCOD8241512
_publ_section_title
;
Structure prediction by ZEFSAII (Michael W. Deem and Ramdas Pophale) SiO2 
 PCOD8241512
Probable space group: P M M N
;
_chemical_formula_sum "Si O2"
_cell_formula_units_Z 64
_cell_length_a 8.938391
_cell_length_b 29.165483
_cell_length_c 14.852006
_cell_angle_alpha 90.000000
_cell_angle_beta 90.000000
_cell_angle_gamma 90.000000
_cell_volume 3871.806437
_symmetry_space_group_name_H-M "P M M N"
_symmetry_group_IT_number 59
_space_group.IT_coordinate_system_code '2'
_symmetry_cell_setting 'orthorhombic'
loop_
_space_group_symop_operation_xyz
x,y,z
1/2-x,1/2-y,z
1/2+x,-y,-z
-x,1/2+y,-z
-x,-y,-z
1/2+x,1/2+y,-z
1/2-x,y,z
x,1/2-y,z
loop_
_atom_site_type_symbol
_atom_site_label
_atom_site_fract_x
_atom_site_fract_y
_atom_site_fract_z
Si Si1 0.077775 0.066525 0.949356
Si Si2 0.574782 0.301749 0.517221
Si Si3 0.421543 0.534917 0.881942
Si Si4 0.924741 0.560650 0.358829
Si Si5 0.421110 0.302124 0.708001
Si Si6 0.074408 0.388956 0.456931
Si Si7 0.924204 0.457395 0.325086
Si Si8 0.926601 0.382270 0.797274
O O1 0.250000 0.081143 0.946522
O O2 0.980182 0.103520 0.896233
O O3 0.049537 0.018307 0.900763
O O4 0.024318 0.065441 0.052825
O O5 0.750000 0.310192 0.529295
O O6 0.542913 0.250000 0.481379
O O7 0.496391 0.309648 0.612138
O O8 0.506688 0.339456 0.449646
O O9 0.250000 0.547557 0.901205
O O10 0.466646 0.545070 0.779781
O O11 0.750000 0.566659 0.336691
O O12 0.971325 0.585026 0.451440
O O13 0.966114 0.507079 0.365501
O O14 0.016070 0.582676 0.277897
O O15 0.250000 0.318642 0.699162
O O16 0.431970 0.250000 0.740561
O O17 0.507252 0.331852 0.781406
O O18 0.250000 0.380848 0.450887
O O19 0.022584 0.419176 0.373249
O O20 0.750000 0.446904 0.340732
O O21 0.750000 0.380519 0.793960
#
# Coordination Sequence:
#
# PCOD8241512 Si02
#       8
#     8   8   8   8   8   8   8   8
#     4  10  19  33  52  72 100 132 165 209 253 298
#     4  10  20  34  52  74  99 129 168 211 255 302
#     4   9  18  33  51  73  98 130 169 211 254 296
#     4  10  20  35  49  68 101 141 177 211 249 293
#     4  10  20  34  52  73 100 133 167 207 255 304
#     4  11  22  33  50  74 102 137 176 212 251 304
#     4  10  20  35  52  69 101 140 175 216 255 295
#     4  12  22  31  50  76 103 136 172 209 248 303
#
# _framework density 16.529751000000001
#
# number of rings (size 3 to 8) (size 9 to 14) (size 15 to 20)
#    0.000    1.750    2.500    3.000    0.000    3.500 
#    0.000    0.000    0.000    0.000    0.000    0.875 
#    0.000    1.000    0.000    0.000    0.000    0.000 
#
# Total GULP energy -793801.508280 kJ/mol
# GULP energy per Si atom -12403.148567 kJ/mol
# Density = 1.649213 g / cm^3
# Si number density = 16.529751 Si / 1000 Ang^3
#
#
#
# Elastic Constant Matrix: (Units=GPa)
#
#
# Indices 1 2 3 4 5 6 
#
# 1 98.0336 54.5553 42.6287 0.0000 0.0000 0.0000
# 2 54.5553 102.1593 46.5826 0.0000 0.0000 0.0000
# 3 42.6287 46.5826 76.2423 0.0000 0.0000 0.0000
# 4 0.0000 0.0000 0.0000 18.1129 0.0000 0.0000
# 5 0.0000 0.0000 0.0000 0.0000 28.5859 0.0000
# 6 0.0000 0.0000 0.0000 0.0000 0.0000 27.4010
#
#
#
# Elastic Compliance Matrix: (Units=1/GPa)
#
#
# Indices 1 2 3 4 5 6 
#
# 1 0.015830 -0.006124 -0.005109 0.000000 0.000000 0.000000
# 2 -0.006124 0.015938 -0.006314 0.000000 0.000000 0.000000
# 3 -0.005109 -0.006314 0.019830 0.000000 0.000000 0.000000
# 4 0.000000 0.000000 0.000000 0.055209 0.000000 0.000000
# 5 0.000000 0.000000 0.000000 0.000000 0.034982 0.000000
# 6 0.000000 0.000000 0.000000 0.000000 0.000000 0.036495
#
#
# Mechanical properties :
#
#
# Convention : Reuss Voigt Hill
#
# Bulk Modulus (GPa) = 60.58983 62.66316 61.62649
# Shear Modulus (GPa) = 22.84348 23.66454 23.25401
#
# Velocity S-wave (km/s) = 3.72151 3.78780 3.75480
# Velocity P-wave (km/s) = 7.42972 7.55788 7.49407
#
# Compressibility (1/GPa) = 0.01650442
#
# Stress axis : x y z
#
# Youngs Moduli (GPa) = 63.16995 62.74360 50.42743
#
# Poissons Ratio (x) = 0.38424 0.25766
# Poissons Ratio (y) = 0.38685 0.31839
# Poissons Ratio (z) = 0.32276 0.39615
#
# Static dielectric constant tensor:
#      x y z
#    x 3.188850 0.000000 0.000000 
#    y 0.000000 3.171910 0.000000 
#    z 0.000000 0.000000 2.990530 
# 
# 
# High freq. dielectric constant tensor:
#      x y z
#    x 1.648440 0.000000 0.000000 
#    y 0.000000 1.626920 0.000000 
#    z 0.000000 0.000000 1.615330 
# 
# From -- ./inp_files/21945.got.cif
#   From: 2010.03.12/outbox.cif.g09.slc.cpg/sg59_11_cif.got.tgz:21945.got - 2010.04.16 16:29:54.
