data_PCOD8241092
_publ_section_title
;
Structure prediction by ZEFSAII (Michael W. Deem and Ramdas Pophale) SiO2 
 PCOD8241092
Probable space group: P M M N
;
_chemical_formula_sum "Si O2"
_cell_formula_units_Z 64
_cell_length_a 18.984878
_cell_length_b 9.107929
_cell_length_c 19.796539
_cell_angle_alpha 90.000000
_cell_angle_beta 90.000000
_cell_angle_gamma 90.000000
_cell_volume 3423.077382
_symmetry_space_group_name_H-M "P M M N"
_symmetry_group_IT_number 59
_space_group.IT_coordinate_system_code '2'
_symmetry_cell_setting 'orthorhombic'
loop_
_space_group_symop_operation_xyz
x,y,z
1/2-x,1/2-y,z
1/2+x,-y,-z
-x,1/2+y,-z
-x,-y,-z
1/2+x,1/2+y,-z
1/2-x,y,z
x,1/2-y,z
loop_
_atom_site_type_symbol
_atom_site_label
_atom_site_fract_x
_atom_site_fract_y
_atom_site_fract_z
Si Si1 0.944525 0.576463 0.633372
Si Si2 0.669118 0.081852 0.289260
Si Si3 0.671368 0.923324 0.529173
Si Si4 0.084018 0.075833 0.599153
Si Si5 0.671911 0.924625 0.884571
Si Si6 0.594619 0.419567 0.153938
Si Si7 0.170132 0.422751 0.963555
Si Si8 0.052239 0.075177 0.213322
O O1 0.958691 0.750000 0.630310
O O2 0.871645 0.533722 0.596480
O O3 0.939879 0.518154 0.710093
O O4 0.007440 0.496756 0.593857
O O5 0.750000 0.046099 0.304122
O O6 0.649892 0.250000 0.308021
O O7 0.654234 0.054564 0.210397
O O8 0.621254 0.972870 0.331956
O O9 0.750000 0.992747 0.532923
O O10 0.677767 0.750000 0.523059
O O11 0.630662 0.983011 0.463310
O O12 0.075607 0.250000 0.598134
O O13 0.750000 0.983470 0.866003
O O14 0.672057 0.750000 0.881246
O O15 0.616165 0.990149 0.831271
O O16 0.651309 0.973680 0.960364
O O17 0.586902 0.250000 0.135046
O O18 0.614989 0.502762 0.086155
O O19 0.520757 0.482320 0.181913
O O20 0.250000 0.471085 0.946188
O O21 0.162114 0.250000 0.955991
O O22 0.053648 0.250000 0.213381
#
# Coordination Sequence:
#
# PCOD8241092 Si02
#       8
#     8   8   8   8   8   8   8   8
#     4  10  19  35  57  77 104 139 174 214 257 308
#     4  10  20  34  52  74 102 138 177 213 252 301
#     4   9  19  34  53  80 108 133 169 219 266 303
#     4  11  21  34  53  77 108 141 171 210 258 310
#     4   8  15  29  49  74 102 130 164 209 257 301
#     4  10  19  32  49  72 103 133 166 209 254 301
#     4   9  18  32  49  71 101 134 168 207 251 302
#     4   9  17  30  50  74 100 131 167 209 252 296
#
# _framework density 18.696628
#
# number of rings (size 3 to 8) (size 9 to 14) (size 15 to 20)
#    0.000    2.500    1.250    2.250    0.000    3.000 
#    0.000    3.125    0.000    2.625    0.000    0.000 
#    0.000    0.000    0.000    0.000    0.000    0.000 
#
# Total GULP energy -793556.852326 kJ/mol
# GULP energy per Si atom -12399.325818 kJ/mol
# Density = 1.865407 g / cm^3
# Si number density = 18.696628 Si / 1000 Ang^3
#
#
#
# Elastic Constant Matrix: (Units=GPa)
#
#
# Indices 1 2 3 4 5 6 
#
# 1 142.2732 30.1020 84.0459 0.0000 0.0000 0.0000
# 2 30.1020 30.5763 26.5832 0.0000 0.0000 0.0000
# 3 84.0459 26.5832 126.3972 0.0000 0.0000 0.0000
# 4 0.0000 0.0000 0.0000 20.3207 0.0000 0.0000
# 5 0.0000 0.0000 0.0000 0.0000 40.3169 0.0000
# 6 0.0000 0.0000 0.0000 0.0000 0.0000 21.4718
#
#
#
# Elastic Compliance Matrix: (Units=1/GPa)
#
#
# Indices 1 2 3 4 5 6 
#
# 1 0.012468 -0.006200 -0.006986 0.000000 0.000000 0.000000
# 2 -0.006200 0.043107 -0.004943 0.000000 0.000000 0.000000
# 3 -0.006986 -0.004943 0.013596 0.000000 0.000000 0.000000
# 4 0.000000 0.000000 0.000000 0.049211 0.000000 0.000000
# 5 0.000000 0.000000 0.000000 0.000000 0.024804 0.000000
# 6 0.000000 0.000000 0.000000 0.000000 0.000000 0.046573
#
#
# Mechanical properties :
#
#
# Convention : Reuss Voigt Hill
#
# Bulk Modulus (GPa) = 30.38435 64.52322 47.45379
# Shear Modulus (GPa) = 21.09813 26.98958 24.04386
#
# Velocity S-wave (km/s) = 3.36288 3.80353 3.58997
# Velocity P-wave (km/s) = 5.60046 7.33994 6.52839
#
# Compressibility (1/GPa) = 0.03291168
#
# Stress axis : x y z
#
# Youngs Moduli (GPa) = 80.20842 23.19812 73.54859
#
# Poissons Ratio (x) = 0.14384 0.51381
# Poissons Ratio (y) = 0.49733 0.36356
# Poissons Ratio (z) = 0.56034 0.11467
#
# Static dielectric constant tensor:
#      x y z
#    x 3.732960 0.000000 0.000000 
#    y 0.000000 2.978150 0.000000 
#    z 0.000000 0.000000 3.544310 
# 
# 
# High freq. dielectric constant tensor:
#      x y z
#    x 1.735600 0.000000 0.000000 
#    y 0.000000 1.676950 0.000000 
#    z 0.000000 0.000000 1.733710 
# 
# From -- ./inp_files/30815.got.cif
#   From: 2010.03.12/outbox.cif.g09.slc.cpg/sg59_16_cif.got.tgz:30815.got - 2010.04.16 16:29:54.
