data_PCOD8241081
_publ_section_title
;
Structure prediction by ZEFSAII (Michael W. Deem and Ramdas Pophale) SiO2 
 PCOD8241081
Probable space group: P M M N
;
_chemical_formula_sum "Si O2"
_cell_formula_units_Z 56
_cell_length_a 26.489356
_cell_length_b 8.459889
_cell_length_c 14.414823
_cell_angle_alpha 90.000000
_cell_angle_beta 90.000000
_cell_angle_gamma 90.000000
_cell_volume 3230.318755
_symmetry_space_group_name_H-M "P M M N"
_symmetry_group_IT_number 59
_space_group.IT_coordinate_system_code '2'
_symmetry_cell_setting 'orthorhombic'
loop_
_space_group_symop_operation_xyz
x,y,z
1/2-x,1/2-y,z
1/2+x,-y,-z
-x,1/2+y,-z
-x,-y,-z
1/2+x,1/2+y,-z
1/2-x,y,z
x,1/2-y,z
loop_
_atom_site_type_symbol
_atom_site_label
_atom_site_fract_x
_atom_site_fract_y
_atom_site_fract_z
Si Si1 0.888761 0.436402 0.480763
Si Si2 0.938320 0.565767 0.316856
Si Si3 0.377417 0.566081 0.233133
Si Si4 0.455903 0.933722 0.876136
Si Si5 0.807819 0.935757 0.615884
Si Si6 0.432061 0.065026 0.066885
Si Si7 0.456594 0.433757 0.367705
O O1 0.895837 0.250000 0.481172
O O2 0.889599 0.505368 0.375659
O O3 0.836563 0.478888 0.531574
O O4 0.936349 0.518953 0.531346
O O5 0.947194 0.750000 0.331726
O O6 0.930854 0.529499 0.208329
O O7 0.984609 0.466278 0.358567
O O8 0.366399 0.750000 0.221107
O O9 0.330021 0.485659 0.284302
O O10 0.385959 0.488359 0.132330
O O11 0.427686 0.540173 0.292796
O O12 0.450766 0.750000 0.854134
O O13 0.514600 0.983156 0.886378
O O14 0.425656 0.975822 0.969334
O O15 0.750000 0.989520 0.611777
O O16 0.814318 0.750000 0.603285
O O17 0.429882 0.250000 0.047690
O O18 0.445299 0.250000 0.347498
#
# Coordination Sequence:
#
# PCOD8241081 Si02
#       7
#     8   8   8   8   8   8   8
#     4  11  22  35  51  72  99 131 168 209 254 303
#     4  12  22  33  48  69 100 137 175 211 250 297
#     4  11  20  31  51  76 103 135 171 210 254 305
#     4  10  20  32  48  70 100 137 176 214 249 292
#     4  10  21  38  58  79 103 130 164 209 260 312
#     4  10  19  32  49  70 101 137 173 212 251 296
#     4  11  20  32  47  68  99 134 172 210 249 296
#
# _framework density 17.335750999999998
#
# number of rings (size 3 to 8) (size 9 to 14) (size 15 to 20)
#    0.000    1.286    1.429    8.571    0.000    2.286 
#    0.000    0.000    0.000    0.000    0.000    1.000 
#    0.000    8.000    0.000    0.000    0.000    0.000 
#
# Total GULP energy -694558.639964 kJ/mol
# GULP energy per Si atom -12402.832856 kJ/mol
# Density = 1.729629 g / cm^3
# Si number density = 17.335751 Si / 1000 Ang^3
#
#
#
# Elastic Constant Matrix: (Units=GPa)
#
#
# Indices 1 2 3 4 5 6 
#
# 1 67.0449 19.8013 47.0425 0.0000 0.0000 0.0000
# 2 19.8013 82.0783 26.4903 0.0000 0.0000 0.0000
# 3 47.0425 26.4903 113.9654 0.0000 0.0000 0.0000
# 4 0.0000 0.0000 0.0000 32.4463 0.0000 0.0000
# 5 0.0000 0.0000 0.0000 0.0000 14.4228 0.0000
# 6 0.0000 0.0000 0.0000 0.0000 0.0000 21.0253
#
#
#
# Elastic Compliance Matrix: (Units=1/GPa)
#
#
# Indices 1 2 3 4 5 6 
#
# 1 0.021463 -0.002507 -0.008277 0.000000 0.000000 0.000000
# 2 -0.002507 0.013464 -0.002095 0.000000 0.000000 0.000000
# 3 -0.008277 -0.002095 0.012678 0.000000 0.000000 0.000000
# 4 0.000000 0.000000 0.000000 0.030820 0.000000 0.000000
# 5 0.000000 0.000000 0.000000 0.000000 0.069334 0.000000
# 6 0.000000 0.000000 0.000000 0.000000 0.000000 0.047562
#
#
# Mechanical properties :
#
#
# Convention : Reuss Voigt Hill
#
# Bulk Modulus (GPa) = 45.76957 49.97299 47.87128
# Shear Modulus (GPa) = 21.89504 24.89585 23.39545
#
# Velocity S-wave (km/s) = 3.55773 3.79370 3.67761
# Velocity P-wave (km/s) = 6.58299 6.93388 6.76071
#
# Compressibility (1/GPa) = 0.02184858
#
# Stress axis : x y z
#
# Youngs Moduli (GPa) = 46.59123 74.27017 78.87613
#
# Poissons Ratio (x) = 0.18617 0.65285
# Poissons Ratio (y) = 0.11679 0.16524
# Poissons Ratio (z) = 0.38563 0.15559
#
# Static dielectric constant tensor:
#      x y z
#    x 2.917420 0.000000 0.000000 
#    y 0.000000 3.286090 0.000000 
#    z 0.000000 0.000000 3.396820 
# 
# 
# High freq. dielectric constant tensor:
#      x y z
#    x 1.615120 0.000000 0.000000 
#    y 0.000000 1.691280 0.000000 
#    z 0.000000 0.000000 1.674790 
# 
# From -- ./inp_files/24944.got.cif
#   From: 2010.03.12/outbox.cif.g09.slc.cpg/sg59_13_cif.got.tgz:24944.got - 2010.04.16 16:29:54.
