data_PCOD8241785
_publ_section_title
;
Structure prediction by ZEFSAII (Michael W. Deem and Ramdas Pophale) SiO2 
 PCOD8241785
Probable space group: P M M N
;
_chemical_formula_sum "Si O2"
_cell_formula_units_Z 48
_cell_length_a 9.024143
_cell_length_b 19.002620
_cell_length_c 15.052451
_cell_angle_alpha 90.000000
_cell_angle_beta 90.000000
_cell_angle_gamma 90.000000
_cell_volume 2581.229825
_symmetry_space_group_name_H-M "P M M N"
_symmetry_group_IT_number 59
_space_group.IT_coordinate_system_code '2'
_symmetry_cell_setting 'orthorhombic'
loop_
_space_group_symop_operation_xyz
x,y,z
1/2-x,1/2-y,z
1/2+x,-y,-z
-x,1/2+y,-z
-x,-y,-z
1/2+x,1/2+y,-z
1/2-x,y,z
x,1/2-y,z
loop_
_atom_site_type_symbol
_atom_site_label
_atom_site_fract_x
_atom_site_fract_y
_atom_site_fract_z
Si Si1 0.925395 0.671647 0.390897
Si Si2 0.423729 0.432569 0.459577
Si Si3 0.079277 0.832592 0.874435
Si Si4 0.079122 0.169014 0.946891
Si Si5 0.925264 0.564905 0.742927
Si Si6 0.075172 0.419141 0.774491
O O1 0.750000 0.677154 0.381875
O O2 0.995097 0.750000 0.387562
O O3 0.971762 0.635903 0.483953
O O4 0.986431 0.624972 0.309411
O O5 0.500000 0.500000 0.500000
O O6 0.250000 0.445480 0.466886
O O7 0.474351 0.421697 0.358529
O O8 0.250000 0.854880 0.867719
O O9 0.055821 0.750000 0.860885
O O10 0.986608 0.869961 0.798090
O O11 0.019596 0.856124 0.970570
O O12 0.250000 0.157479 0.972594
O O13 0.048243 0.250000 0.922199
O O14 0.032846 0.123003 0.862767
O O15 0.750000 0.561232 0.753112
O O16 0.993878 0.493256 0.779668
O O17 0.250000 0.432047 0.766310
#
# Coordination Sequence:
#
# PCOD8241785 Si02
#       6
#     8   8   8   8   8   8
#     4   9  17  31  54  83 110 140 182 227 271 326
#     4  10  20  35  56  80 109 147 185 226 274 326
#     4  10  22  40  60  81 107 144 187 230 279 333
#     4   9  18  34  57  84 112 143 182 230 282 332
#     4  11  23  36  55  83 113 149 187 228 277 328
#     4  10  19  33  56  83 112 147 182 225 277 332
#
# _framework density 18.595787000000001
#
# number of rings (size 3 to 8) (size 9 to 14) (size 15 to 20)
#    0.000    2.167    1.667    1.500    0.000    5.667 
#    0.000    1.667    0.000    3.000    0.000    0.000 
#    0.000    0.000    0.000    0.000    0.000    0.000 
#
# Total GULP energy -595329.942871 kJ/mol
# GULP energy per Si atom -12402.707143 kJ/mol
# Density = 1.855346 g / cm^3
# Si number density = 18.595787 Si / 1000 Ang^3
#
#
#
# Elastic Constant Matrix: (Units=GPa)
#
#
# Indices 1 2 3 4 5 6 
#
# 1 52.2716 34.5684 51.3964 0.0000 0.0000 0.0000
# 2 34.5684 89.8354 64.0091 0.0000 0.0000 0.0000
# 3 51.3964 64.0091 155.5501 0.0000 0.0000 0.0000
# 4 0.0000 0.0000 0.0000 38.6384 0.0000 0.0000
# 5 0.0000 0.0000 0.0000 0.0000 23.9611 0.0000
# 6 0.0000 0.0000 0.0000 0.0000 0.0000 27.7696
#
#
#
# Elastic Compliance Matrix: (Units=1/GPa)
#
#
# Indices 1 2 3 4 5 6 
#
# 1 0.030813 -0.006512 -0.007502 0.000000 0.000000 0.000000
# 2 -0.006512 0.017125 -0.004895 0.000000 0.000000 0.000000
# 3 -0.007502 -0.004895 0.010922 0.000000 0.000000 0.000000
# 4 0.000000 0.000000 0.000000 0.025881 0.000000 0.000000
# 5 0.000000 0.000000 0.000000 0.000000 0.041734 0.000000
# 6 0.000000 0.000000 0.000000 0.000000 0.000000 0.036011
#
#
# Mechanical properties :
#
#
# Convention : Reuss Voigt Hill
#
# Bulk Modulus (GPa) = 47.52240 66.40054 56.96147
# Shear Modulus (GPa) = 24.11746 27.91935 26.01841
#
# Velocity S-wave (km/s) = 3.60520 3.87897 3.74459
# Velocity P-wave (km/s) = 6.55293 7.47306 7.02807
#
# Compressibility (1/GPa) = 0.02104271
#
# Stress axis : x y z
#
# Youngs Moduli (GPa) = 32.45349 58.39309 91.55875
#
# Poissons Ratio (x) = 0.38025 0.68684
# Poissons Ratio (y) = 0.21133 0.44822
# Poissons Ratio (z) = 0.24345 0.28586
#
# Static dielectric constant tensor:
#      x y z
#    x 3.255620 0.000000 0.000000 
#    y 0.000000 3.274560 0.000000 
#    z 0.000000 0.000000 3.650220 
# 
# 
# High freq. dielectric constant tensor:
#      x y z
#    x 1.702680 0.000000 0.000000 
#    y 0.000000 1.725640 0.000000 
#    z 0.000000 0.000000 1.734650 
# 
# From -- ./inp_files/20305.got.cif
#   From: 2010.03.12/outbox.cif.g09.slc.cpg/sg59_11_cif.got.tgz:20305.got - 2010.04.16 16:29:54.
