data_PCOD8241270
_publ_section_title
;
Structure prediction by ZEFSAII (Michael W. Deem and Ramdas Pophale) SiO2 
 PCOD8241270
Probable space group: P M M N
;
_chemical_formula_sum "Si O2"
_cell_formula_units_Z 64
_cell_length_a 17.595445
_cell_length_b 9.003893
_cell_length_c 22.477613
_cell_angle_alpha 90.000000
_cell_angle_beta 90.000000
_cell_angle_gamma 90.000000
_cell_volume 3561.072125
_symmetry_space_group_name_H-M "P M M N"
_symmetry_group_IT_number 59
_space_group.IT_coordinate_system_code '2'
_symmetry_cell_setting 'orthorhombic'
loop_
_space_group_symop_operation_xyz
x,y,z
1/2-x,1/2-y,z
1/2+x,-y,-z
-x,1/2+y,-z
-x,-y,-z
1/2+x,1/2+y,-z
1/2-x,y,z
x,1/2-y,z
loop_
_atom_site_type_symbol
_atom_site_label
_atom_site_fract_x
_atom_site_fract_y
_atom_site_fract_z
Si Si1 0.036423 0.923686 0.613033
Si Si2 0.109157 0.924259 0.429927
Si Si3 0.335924 0.575293 0.936263
Si Si4 0.163118 0.080266 0.545611
Si Si5 0.034923 0.424746 0.857867
Si Si6 0.521012 0.577698 0.743617
Si Si7 0.061953 0.579442 0.037746
Si Si8 0.835859 0.421844 0.700438
O O1 0.033889 0.750000 0.598290
O O2 0.021889 0.955265 0.682174
O O3 0.117440 0.991706 0.596164
O O4 0.974593 0.006070 0.572370
O O5 0.102635 0.750000 0.442965
O O6 0.153615 0.958079 0.369045
O O7 0.155653 0.002056 0.481931
O O8 0.250000 0.519184 0.926300
O O9 0.343014 0.750000 0.922757
O O10 0.391563 0.489102 0.891726
O O11 0.356858 0.542775 0.006629
O O12 0.250000 0.073545 0.565905
O O13 0.134576 0.250000 0.541189
O O14 0.047006 0.250000 0.850223
O O15 0.028546 0.497461 0.793547
O O16 0.955034 0.462539 0.893202
O O17 0.525459 0.750000 0.758656
O O18 0.606981 0.516478 0.740863
O O19 0.043486 0.750000 0.030242
O O20 0.000000 0.500000 0.000000
O O21 0.750000 0.463504 0.718794
O O22 0.853311 0.250000 0.712851
#
# Coordination Sequence:
#
# PCOD8241270 Si02
#       8
#     8   8   8   8   8   8   8   8
#     4  10  21  37  55  74  98 131 171 213 256 303
#     4  10  19  33  55  79 103 131 164 203 251 310
#     4   9  17  31  52  77 105 135 168 209 254 298
#     4  11  23  36  51  74 103 132 164 207 259 311
#     4  10  19  32  52  76 103 136 174 213 251 297
#     4  10  21  36  54  75 100 135 177 215 253 299
#     4   8  15  28  47  72  99 128 161 196 240 291
#     4   9  18  33  53  77 103 131 165 207 255 304
#
# _framework density 17.972116
#
# number of rings (size 3 to 8) (size 9 to 14) (size 15 to 20)
#    0.000    2.375    0.000    2.625    0.000    4.500 
#    0.000    1.250    0.000    3.000    0.000    0.000 
#    0.000    0.000    0.000    0.000    0.000    0.000 
#
# Total GULP energy -793268.929863 kJ/mol
# GULP energy per Si atom -12394.827029 kJ/mol
# Density = 1.793121 g / cm^3
# Si number density = 17.972116 Si / 1000 Ang^3
#
#
#
# Elastic Constant Matrix: (Units=GPa)
#
#
# Indices 1 2 3 4 5 6 
#
# 1 101.9982 41.0434 43.5413 0.0000 0.0000 0.0000
# 2 41.0434 78.1980 36.5625 0.0000 0.0000 0.0000
# 3 43.5413 36.5625 72.3612 0.0000 0.0000 0.0000
# 4 0.0000 0.0000 0.0000 26.6963 0.0000 0.0000
# 5 0.0000 0.0000 0.0000 0.0000 23.3997 0.0000
# 6 0.0000 0.0000 0.0000 0.0000 0.0000 29.1072
#
#
#
# Elastic Compliance Matrix: (Units=1/GPa)
#
#
# Indices 1 2 3 4 5 6 
#
# 1 0.014342 -0.004573 -0.006319 0.000000 0.000000 0.000000
# 2 -0.004573 0.018202 -0.006445 0.000000 0.000000 0.000000
# 3 -0.006319 -0.006445 0.020879 0.000000 0.000000 0.000000
# 4 0.000000 0.000000 0.000000 0.037458 0.000000 0.000000
# 5 0.000000 0.000000 0.000000 0.000000 0.042736 0.000000
# 6 0.000000 0.000000 0.000000 0.000000 0.000000 0.034356
#
#
# Mechanical properties :
#
#
# Convention : Reuss Voigt Hill
#
# Bulk Modulus (GPa) = 53.34081 54.98354 54.16217
# Shear Modulus (GPa) = 23.93536 24.60130 24.26833
#
# Velocity S-wave (km/s) = 3.65335 3.70382 3.67867
# Velocity P-wave (km/s) = 6.89494 6.99652 6.94591
#
# Compressibility (1/GPa) = 0.01874737
#
# Stress axis : x y z
#
# Youngs Moduli (GPa) = 69.72665 54.93953 47.89582
#
# Poissons Ratio (x) = 0.25123 0.30266
# Poissons Ratio (y) = 0.31885 0.30871
# Poissons Ratio (z) = 0.44061 0.35411
#
# Static dielectric constant tensor:
#      x y z
#    x 3.557050 0.000000 0.000000 
#    y 0.000000 3.643150 0.000000 
#    z 0.000000 0.000000 3.401450 
# 
# 
# High freq. dielectric constant tensor:
#      x y z
#    x 1.687170 0.000000 0.000000 
#    y 0.000000 1.706870 0.000000 
#    z 0.000000 0.000000 1.685350 
# 
# From -- ./inp_files/29392.got.cif
#   From: 2010.03.12/outbox.cif.g09.slc.cpg/sg59_15_cif.got.tgz:29392.got - 2010.04.16 16:29:54.
