data_PCOD8241325
_publ_section_title
;
Structure prediction by ZEFSAII (Michael W. Deem and Ramdas Pophale) SiO2 
 PCOD8241325
Probable space group: P M M N
;
_chemical_formula_sum "Si O2"
_cell_formula_units_Z 64
_cell_length_a 15.791896
_cell_length_b 19.109880
_cell_length_c 11.458861
_cell_angle_alpha 90.000000
_cell_angle_beta 90.000000
_cell_angle_gamma 90.000000
_cell_volume 3458.069253
_symmetry_space_group_name_H-M "P M M N"
_symmetry_group_IT_number 59
_space_group.IT_coordinate_system_code '2'
_symmetry_cell_setting 'orthorhombic'
loop_
_space_group_symop_operation_xyz
x,y,z
1/2-x,1/2-y,z
1/2+x,-y,-z
-x,1/2+y,-z
-x,-y,-z
1/2+x,1/2+y,-z
1/2-x,y,z
x,1/2-y,z
loop_
_atom_site_type_symbol
_atom_site_label
_atom_site_fract_x
_atom_site_fract_y
_atom_site_fract_z
Si Si1 0.402665 0.830494 0.448322
Si Si2 0.647608 0.411469 0.328731
Si Si3 0.654395 0.937262 0.707811
Si Si4 0.077923 0.169152 0.682614
Si Si5 0.504682 0.072622 0.152265
Si Si6 0.661397 0.403859 0.765571
Si Si7 0.845290 0.551513 0.449544
Si Si8 0.502105 0.907632 0.112245
O O1 0.378281 0.750000 0.436076
O O2 0.384319 0.852974 0.580732
O O3 0.497921 0.843507 0.402485
O O4 0.342323 0.875788 0.366290
O O5 0.750000 0.407389 0.304592
O O6 0.592418 0.399683 0.210653
O O7 0.615522 0.486607 0.378216
O O8 0.750000 0.902184 0.714763
O O9 0.579652 0.899412 0.780763
O O10 0.614908 0.938949 0.577594
O O11 0.661175 0.013197 0.762045
O O12 0.104789 0.250000 0.688923
O O13 0.151219 0.123440 0.623093
O O14 0.067983 0.139353 0.814175
O O15 0.512248 0.988713 0.145260
O O16 0.491611 0.105837 0.024755
O O17 0.750000 0.378131 0.820514
O O18 0.588263 0.376265 0.848832
O O19 0.750000 0.529756 0.474363
#
# Coordination Sequence:
#
# PCOD8241325 Si02
#       8
#     8   8   8   8   8   8   8   8
#     4  10  20  32  50  77 107 140 176 214 262 320
#     4  11  21  32  51  80 111 142 174 212 262 321
#     4   9  17  30  51  78 102 129 168 213 263 315
#     4  10  20  35  54  76 102 136 178 223 271 316
#     4  10  19  33  52  72 103 139 172 217 261 304
#     4   9  16  28  47  70  99 133 168 211 257 301
#     4  10  19  32  52  79 107 134 171 216 268 327
#     4   9  19  33  49  72  98 133 177 216 256 304
#
# _framework density 18.507435999999998
#
# number of rings (size 3 to 8) (size 9 to 14) (size 15 to 20)
#    0.000    2.250    2.500    1.125    0.000    2.750 
#    0.000    3.125    0.000    0.750    0.000    1.750 
#    0.000    0.000    0.000    0.000    0.000    0.000 
#
# Total GULP energy -792942.118465 kJ/mol
# GULP energy per Si atom -12389.720601 kJ/mol
# Density = 1.846531 g / cm^3
# Si number density = 18.507436 Si / 1000 Ang^3
#
#
#
# Elastic Constant Matrix: (Units=GPa)
#
#
# Indices 1 2 3 4 5 6 
#
# 1 68.7432 0.4001 39.4419 0.0000 0.0000 0.0000
# 2 0.4001 25.0292 -6.6368 0.0000 0.0000 0.0000
# 3 39.4419 -6.6368 101.1797 0.0000 0.0000 0.0000
# 4 0.0000 0.0000 0.0000 18.6476 0.0000 0.0000
# 5 0.0000 0.0000 0.0000 0.0000 10.9913 0.0000
# 6 0.0000 0.0000 0.0000 0.0000 0.0000 8.4297
#
#
#
# Elastic Compliance Matrix: (Units=1/GPa)
#
#
# Indices 1 2 3 4 5 6 
#
# 1 0.018866 -0.002292 -0.007505 0.000000 0.000000 0.000000
# 2 -0.002292 0.040939 0.003579 0.000000 0.000000 0.000000
# 3 -0.007505 0.003579 0.013044 0.000000 0.000000 0.000000
# 4 0.000000 0.000000 0.000000 0.053626 0.000000 0.000000
# 5 0.000000 0.000000 0.000000 0.000000 0.090981 0.000000
# 6 0.000000 0.000000 0.000000 0.000000 0.000000 0.118629
#
#
# Mechanical properties :
#
#
# Convention : Reuss Voigt Hill
#
# Bulk Modulus (GPa) = 16.55259 29.04026 22.79643
# Shear Modulus (GPa) = 13.56272 18.39683 15.97978
#
# Velocity S-wave (km/s) = 2.71001 3.15623 2.94160
# Velocity P-wave (km/s) = 4.33075 5.38587 4.88687
#
# Compressibility (1/GPa) = 0.06041349
#
# Stress axis : x y z
#
# Youngs Moduli (GPa) = 53.00504 24.42662 76.66570
#
# Poissons Ratio (x) = 0.05598 0.57535
# Poissons Ratio (y) = 0.12146 -0.27436
# Poissons Ratio (z) = 0.39779 -0.08741
#
# Static dielectric constant tensor:
#      x y z
#    x 3.629210 0.000000 0.000000 
#    y 0.000000 3.070360 0.000000 
#    z 0.000000 0.000000 3.381640 
# 
# 
# High freq. dielectric constant tensor:
#      x y z
#    x 1.719630 0.000000 0.000000 
#    y 0.000000 1.680350 0.000000 
#    z 0.000000 0.000000 1.710170 
# 
# From -- ./inp_files/10673.got.cif
#   From: 2010.03.12/outbox.cif.g09.slc.cpg/sg59_6_cif.got.tgz:10673.got - 2010.04.16 16:29:54.
