data_PCOD8241180
_publ_section_title
;
Structure prediction by ZEFSAII (Michael W. Deem and Ramdas Pophale) SiO2 
 PCOD8241180
Probable space group: P M M N
;
_chemical_formula_sum "Si O2"
_cell_formula_units_Z 56
_cell_length_a 10.364864
_cell_length_b 13.954665
_cell_length_c 21.306190
_cell_angle_alpha 90.000000
_cell_angle_beta 90.000000
_cell_angle_gamma 90.000000
_cell_volume 3081.689075
_symmetry_space_group_name_H-M "P M M N"
_symmetry_group_IT_number 59
_space_group.IT_coordinate_system_code '2'
_symmetry_cell_setting 'orthorhombic'
loop_
_space_group_symop_operation_xyz
x,y,z
1/2-x,1/2-y,z
1/2+x,-y,-z
-x,1/2+y,-z
-x,-y,-z
1/2+x,1/2+y,-z
1/2-x,y,z
x,1/2-y,z
loop_
_atom_site_type_symbol
_atom_site_label
_atom_site_fract_x
_atom_site_fract_y
_atom_site_fract_z
Si Si1 0.898243 0.035368 0.584980
Si Si2 0.102850 0.139643 0.502488
Si Si3 0.890985 0.639822 0.193031
Si Si4 0.601281 0.025337 0.730528
Si Si5 0.400969 0.145866 0.186569
Si Si6 0.890133 0.550198 0.933861
Si Si7 0.972739 0.641869 0.053418
O O1 0.750000 0.069253 0.573564
O O2 0.932703 0.033471 0.657871
O O3 0.998250 0.110346 0.554822
O O4 0.918235 0.928312 0.557833
O O5 0.250000 0.127104 0.528224
O O6 0.078749 0.250000 0.482728
O O7 0.750000 0.599424 0.214038
O O8 0.900506 0.750000 0.211500
O O9 0.896715 0.626947 0.117971
O O10 0.009155 0.591570 0.228386
O O11 0.750000 0.055215 0.743705
O O12 0.574753 0.916256 0.751080
O O13 0.250000 0.160559 0.175163
O O14 0.466391 0.250000 0.196208
O O15 0.468657 0.094483 0.125574
O O16 0.750000 0.539343 0.905287
O O17 0.922873 0.441911 0.953697
O O18 0.884307 0.623772 0.992455
O O19 0.031342 0.750000 0.050591
#
# Coordination Sequence:
#
# PCOD8241180 Si02
#       7
#     8   8   8   8   8   8   8
#     4   9  19  34  53  78 110 141 172 213 260 305
#     4   9  18  34  56  81 108 138 173 212 255 305
#     4  10  21  36  53  74 103 141 180 217 263 318
#     4  10  20  35  53  78 108 139 176 217 259 306
#     4   9  17  30  50  75 101 130 167 214 265 314
#     4  10  19  32  51  75 101 129 169 222 273 318
#     4  10  20  33  51  74 100 133 173 218 267 319
#
# _framework density 18.171854
#
# number of rings (size 3 to 8) (size 9 to 14) (size 15 to 20)
#    0.000    2.429    1.429    0.857    0.000    4.000 
#    0.000    7.143    0.000    0.429    0.000    2.000 
#    0.000    0.000    0.000    0.000    0.000    0.000 
#
# Total GULP energy -693738.390403 kJ/mol
# GULP energy per Si atom -12388.185543 kJ/mol
# Density = 1.813049 g / cm^3
# Si number density = 18.171854 Si / 1000 Ang^3
#
#
#
# Elastic Constant Matrix: (Units=GPa)
#
#
# Indices 1 2 3 4 5 6 
#
# 1 70.6875 37.4591 38.4038 0.0000 0.0000 0.0000
# 2 37.4591 110.3978 32.5900 0.0000 0.0000 0.0000
# 3 38.4038 32.5900 87.4782 0.0000 0.0000 0.0000
# 4 0.0000 0.0000 0.0000 17.6362 0.0000 0.0000
# 5 0.0000 0.0000 0.0000 0.0000 21.9608 0.0000
# 6 0.0000 0.0000 0.0000 0.0000 0.0000 18.3022
#
#
#
# Elastic Compliance Matrix: (Units=1/GPa)
#
#
# Indices 1 2 3 4 5 6 
#
# 1 0.020673 -0.004871 -0.007261 0.000000 0.000000 0.000000
# 2 -0.004871 0.011325 -0.002081 0.000000 0.000000 0.000000
# 3 -0.007261 -0.002081 0.015394 0.000000 0.000000 0.000000
# 4 0.000000 0.000000 0.000000 0.056702 0.000000 0.000000
# 5 0.000000 0.000000 0.000000 0.000000 0.045536 0.000000
# 6 0.000000 0.000000 0.000000 0.000000 0.000000 0.054638
#
#
# Mechanical properties :
#
#
# Convention : Reuss Voigt Hill
#
# Bulk Modulus (GPa) = 52.72353 53.94102 53.33228
# Shear Modulus (GPa) = 20.91917 22.25389 21.58653
#
# Velocity S-wave (km/s) = 3.39659 3.50328 3.45035
# Velocity P-wave (km/s) = 6.66778 6.79060 6.72947
#
# Compressibility (1/GPa) = 0.01896686
#
# Stress axis : x y z
#
# Youngs Moduli (GPa) = 48.37275 88.29863 64.95963
#
# Poissons Ratio (x) = 0.43011 0.47166
# Poissons Ratio (y) = 0.23563 0.13517
# Poissons Ratio (z) = 0.35123 0.18373
#
# Static dielectric constant tensor:
#      x y z
#    x 3.220680 0.000000 0.000000 
#    y 0.000000 3.509710 0.000000 
#    z 0.000000 0.000000 3.339280 
# 
# 
# High freq. dielectric constant tensor:
#      x y z
#    x 1.679330 0.000000 0.000000 
#    y 0.000000 1.709850 0.000000 
#    z 0.000000 0.000000 1.701830 
# 
# From -- ./inp_files/30063.got.cif
#   From: 2010.03.12/outbox.cif.g09.slc.cpg/sg59_16_cif.got.tgz:30063.got - 2010.04.16 16:29:54.
