data_PCOD8241517
_publ_section_title
;
Structure prediction by ZEFSAII (Michael W. Deem and Ramdas Pophale) SiO2 
 PCOD8241517
Probable space group: P M M N
;
_chemical_formula_sum "Si O2"
_cell_formula_units_Z 64
_cell_length_a 19.766402
_cell_length_b 9.195215
_cell_length_c 20.034520
_cell_angle_alpha 90.000000
_cell_angle_beta 90.000000
_cell_angle_gamma 90.000000
_cell_volume 3641.400551
_symmetry_space_group_name_H-M "P M M N"
_symmetry_group_IT_number 59
_space_group.IT_coordinate_system_code '2'
_symmetry_cell_setting 'orthorhombic'
loop_
_space_group_symop_operation_xyz
x,y,z
1/2-x,1/2-y,z
1/2+x,-y,-z
-x,1/2+y,-z
-x,-y,-z
1/2+x,1/2+y,-z
1/2-x,y,z
x,1/2-y,z
loop_
_atom_site_type_symbol
_atom_site_label
_atom_site_fract_x
_atom_site_fract_y
_atom_site_fract_z
Si Si1 0.324738 0.577378 0.590264
Si Si2 0.435162 0.578974 0.693066
Si Si3 0.672808 0.915796 0.921838
Si Si4 0.328437 0.581804 0.439026
Si Si5 0.390616 0.581141 0.196485
Si Si6 0.564220 0.580013 0.028851
Si Si7 0.410652 0.078508 0.328617
Si Si8 0.453407 0.417161 0.823449
O O1 0.250000 0.518462 0.610340
O O2 0.324172 0.750000 0.593634
O O3 0.381236 0.513822 0.640330
O O4 0.342087 0.530839 0.514826
O O5 0.426909 0.750000 0.700478
O O6 0.510069 0.536933 0.668089
O O7 0.419326 0.510992 0.765208
O O8 0.750000 0.932729 0.943813
O O9 0.655443 0.750000 0.901296
O O10 0.659092 0.019120 0.859350
O O11 0.629485 0.963997 0.985977
O O12 0.250000 0.558778 0.420267
O O13 0.348813 0.750000 0.428590
O O14 0.375408 0.479588 0.394819
O O15 0.374726 0.750000 0.207662
O O16 0.375896 0.497906 0.265315
O O17 0.466679 0.552900 0.172295
O O18 0.547921 0.750000 0.025864
O O19 0.577980 0.534302 0.105639
O O20 0.500000 0.500000 0.000000
O O21 0.399784 0.250000 0.322577
O O22 0.438296 0.250000 0.807122
#
# Coordination Sequence:
#
# PCOD8241517 Si02
#       8
#     8   8   8   8   8   8   8   8
#     4   8  15  31  54  75  97 129 169 210 250 296
#     4   9  18  32  51  76 102 130 166 206 248 297
#     4  10  21  35  51  74 104 135 166 205 255 305
#     4   9  18  33  52  72  95 129 172 210 247 297
#     4  10  19  33  52  72  97 131 169 206 245 293
#     4  10  19  33  54  76  99 130 170 209 248 298
#     4  10  20  32  48  74 106 134 163 204 252 299
#     4   9  18  32  50  75 102 127 162 205 248 292
#
# _framework density 17.575654
#
# number of rings (size 3 to 8) (size 9 to 14) (size 15 to 20)
#    0.000    2.625    1.250    1.500    0.000    3.000 
#    0.000    1.250    0.000    1.875    0.000    0.000 
#    0.000    0.000    0.000    0.000    0.000    0.000 
#
# Total GULP energy -793629.859987 kJ/mol
# GULP energy per Si atom -12400.466562 kJ/mol
# Density = 1.753565 g / cm^3
# Si number density = 17.575654 Si / 1000 Ang^3
#
#
#
# Elastic Constant Matrix: (Units=GPa)
#
#
# Indices 1 2 3 4 5 6 
#
# 1 92.8610 40.7070 78.6555 0.0000 0.0000 0.0000
# 2 40.7070 58.1704 51.5043 0.0000 0.0000 0.0000
# 3 78.6555 51.5043 149.1663 0.0000 0.0000 0.0000
# 4 0.0000 0.0000 0.0000 31.0557 0.0000 0.0000
# 5 0.0000 0.0000 0.0000 0.0000 29.8145 0.0000
# 6 0.0000 0.0000 0.0000 0.0000 0.0000 18.0308
#
#
#
# Elastic Compliance Matrix: (Units=1/GPa)
#
#
# Indices 1 2 3 4 5 6 
#
# 1 0.021349 -0.007162 -0.008784 0.000000 0.000000 0.000000
# 2 -0.007162 0.027163 -0.005602 0.000000 0.000000 0.000000
# 3 -0.008784 -0.005602 0.013270 0.000000 0.000000 0.000000
# 4 0.000000 0.000000 0.000000 0.032200 0.000000 0.000000
# 5 0.000000 0.000000 0.000000 0.000000 0.033541 0.000000
# 6 0.000000 0.000000 0.000000 0.000000 0.000000 0.055461
#
#
# Mechanical properties :
#
#
# Convention : Reuss Voigt Hill
#
# Bulk Modulus (GPa) = 53.51934 71.32570 62.42252
# Shear Modulus (GPa) = 21.52299 24.40228 22.96263
#
# Velocity S-wave (km/s) = 3.50321 3.73018 3.61848
# Velocity P-wave (km/s) = 6.84692 7.69562 7.28364
#
# Compressibility (1/GPa) = 0.01868483
#
# Stress axis : x y z
#
# Youngs Moduli (GPa) = 46.84069 36.81465 75.35595
#
# Poissons Ratio (x) = 0.26367 0.66196
# Poissons Ratio (y) = 0.33547 0.42217
# Poissons Ratio (z) = 0.41147 0.20625
#
# Static dielectric constant tensor:
#      x y z
#    x 3.290360 0.000000 0.000000 
#    y 0.000000 3.129870 0.000000 
#    z 0.000000 0.000000 3.430570 
# 
# 
# High freq. dielectric constant tensor:
#      x y z
#    x 1.665920 0.000000 0.000000 
#    y 0.000000 1.666880 0.000000 
#    z 0.000000 0.000000 1.687350 
# 
# From -- ./inp_files/28180.got.cif
#   From: 2010.03.12/outbox.cif.g09.slc.cpg/sg59_15_cif.got.tgz:28180.got - 2010.04.16 16:29:54.
