data_PCOD8241720
_publ_section_title
;
Structure prediction by ZEFSAII (Michael W. Deem and Ramdas Pophale) SiO2 
 PCOD8241720
Probable space group: P M M N
;
_chemical_formula_sum "Si O2"
_cell_formula_units_Z 64
_cell_length_a 15.711413
_cell_length_b 13.405403
_cell_length_c 16.365733
_cell_angle_alpha 90.000000
_cell_angle_beta 90.000000
_cell_angle_gamma 90.000000
_cell_volume 3446.915056
_symmetry_space_group_name_H-M "P M M N"
_symmetry_group_IT_number 59
_space_group.IT_coordinate_system_code '2'
_symmetry_cell_setting 'orthorhombic'
loop_
_space_group_symop_operation_xyz
x,y,z
1/2-x,1/2-y,z
1/2+x,-y,-z
-x,1/2+y,-z
-x,-y,-z
1/2+x,1/2+y,-z
1/2-x,y,z
x,1/2-y,z
loop_
_atom_site_type_symbol
_atom_site_label
_atom_site_fract_x
_atom_site_fract_y
_atom_site_fract_z
Si Si1 0.849317 0.142118 0.738660
Si Si2 0.503280 0.365970 0.330204
Si Si3 0.847578 0.638669 0.313498
Si Si4 0.563133 0.000949 0.188025
Si Si5 0.346768 0.863589 0.933007
Si Si6 0.650500 0.519599 0.611789
Si Si7 0.153322 0.536810 0.571268
Si Si8 0.559480 0.364829 0.902058
O O1 0.750000 0.144857 0.726434
O O2 0.888620 0.250000 0.714318
O O3 0.869285 0.118935 0.832656
O O4 0.885449 0.058939 0.678131
O O5 0.505104 0.250000 0.308574
O O6 0.506260 0.427555 0.245471
O O7 0.414331 0.387909 0.377979
O O8 0.585415 0.390276 0.386533
O O9 0.750000 0.643209 0.286951
O O10 0.883621 0.750000 0.328609
O O11 0.897395 0.587683 0.240288
O O12 0.859565 0.575882 0.396406
O O13 0.634425 0.068111 0.145143
O O14 0.512892 0.945532 0.116001
O O15 0.250000 0.878827 0.959586
O O16 0.364847 0.750000 0.906910
O O17 0.403084 0.893797 0.010500
O O18 0.750000 0.551748 0.624836
O O19 0.638348 0.466155 0.525171
O O20 0.250000 0.573875 0.591219
O O21 0.526312 0.250000 0.902029
#
# Coordination Sequence:
#
# PCOD8241720 Si02
#       8
#     8   8   8   8   8   8   8   8
#     4   9  17  31  53  80 107 136 173 220 272 322
#     4  11  23  37  54  79 112 151 190 227 270 327
#     4   9  18  33  53  77 105 138 178 224 272 326
#     4  11  20  35  53  79 109 142 177 220 273 328
#     4  10  21  36  55  79 106 139 179 222 270 326
#     4  10  20  37  57  80 111 147 185 229 276 329
#     4   9  20  37  57  80 109 143 186 235 283 326
#     4  10  19  33  55  81 107 135 172 221 273 324
#
# _framework density 18.567326999999999
#
# number of rings (size 3 to 8) (size 9 to 14) (size 15 to 20)
#    0.000    2.125    1.250    2.250    0.000    3.500 
#    0.000    2.500    0.000    0.000    0.000    0.000 
#    0.000    0.000    0.000    0.000    0.000    0.000 
#
# Total GULP energy -793368.728599 kJ/mol
# GULP energy per Si atom -12396.386384 kJ/mol
# Density = 1.852507 g / cm^3
# Si number density = 18.567327 Si / 1000 Ang^3
#
#
#
# Elastic Constant Matrix: (Units=GPa)
#
#
# Indices 1 2 3 4 5 6 
#
# 1 73.2417 35.6039 19.9589 0.0000 0.0000 0.0000
# 2 35.6039 88.9588 23.7341 0.0000 0.0000 0.0000
# 3 19.9589 23.7341 64.3587 0.0000 0.0000 0.0000
# 4 0.0000 0.0000 0.0000 22.8117 0.0000 0.0000
# 5 0.0000 0.0000 0.0000 0.0000 31.0087 0.0000
# 6 0.0000 0.0000 0.0000 0.0000 0.0000 24.8239
#
#
#
# Elastic Compliance Matrix: (Units=1/GPa)
#
#
# Indices 1 2 3 4 5 6 
#
# 1 0.017511 -0.006166 -0.003157 0.000000 0.000000 0.000000
# 2 -0.006166 0.014639 -0.003486 0.000000 0.000000 0.000000
# 3 -0.003157 -0.003486 0.017803 0.000000 0.000000 0.000000
# 4 0.000000 0.000000 0.000000 0.043837 0.000000 0.000000
# 5 0.000000 0.000000 0.000000 0.000000 0.032249 0.000000
# 6 0.000000 0.000000 0.000000 0.000000 0.000000 0.040284
#
#
# Mechanical properties :
#
#
# Convention : Reuss Voigt Hill
#
# Bulk Modulus (GPa) = 41.09394 42.79479 41.94437
# Shear Modulus (GPa) = 24.99341 25.54634 25.26987
#
# Velocity S-wave (km/s) = 3.67290 3.71330 3.69316
# Velocity P-wave (km/s) = 6.33777 6.44075 6.38947
#
# Compressibility (1/GPa) = 0.02433449
#
# Stress axis : x y z
#
# Youngs Moduli (GPa) = 57.10646 68.30947 56.17185
#
# Poissons Ratio (x) = 0.42122 0.17731
# Poissons Ratio (y) = 0.35214 0.19583
# Poissons Ratio (z) = 0.18026 0.23815
#
# Static dielectric constant tensor:
#      x y z
#    x 3.406030 0.000000 0.000000 
#    y 0.000000 3.529180 0.000000 
#    z 0.000000 0.000000 3.366750 
# 
# 
# High freq. dielectric constant tensor:
#      x y z
#    x 1.719390 0.000000 0.000000 
#    y 0.000000 1.715780 0.000000 
#    z 0.000000 0.000000 1.721340 
# 
# From -- ./inp_files/22732.got.cif
#   From: 2010.03.12/outbox.cif.g09.slc.cpg/sg59_12_cif.got.tgz:22732.got - 2010.04.16 16:29:54.
