data_PCOD8241873
_publ_section_title
;
Structure prediction by ZEFSAII (Michael W. Deem and Ramdas Pophale) SiO2 
 PCOD8241873
Probable space group: P M M N
;
_chemical_formula_sum "Si O2"
_cell_formula_units_Z 64
_cell_length_a 9.098397
_cell_length_b 23.798542
_cell_length_c 14.981891
_cell_angle_alpha 90.000000
_cell_angle_beta 90.000000
_cell_angle_gamma 90.000000
_cell_volume 3244.007631
_symmetry_space_group_name_H-M "P M M N"
_symmetry_group_IT_number 59
_space_group.IT_coordinate_system_code '2'
_symmetry_cell_setting 'orthorhombic'
loop_
_space_group_symop_operation_xyz
x,y,z
1/2-x,1/2-y,z
1/2+x,-y,-z
-x,1/2+y,-z
-x,-y,-z
1/2+x,1/2+y,-z
1/2-x,y,z
x,1/2-y,z
loop_
_atom_site_type_symbol
_atom_site_label
_atom_site_fract_x
_atom_site_fract_y
_atom_site_fract_z
Si Si1 0.921041 0.864047 0.057919
Si Si2 0.420447 0.815993 0.538186
Si Si3 0.418573 0.814240 0.212318
Si Si4 0.576699 0.629046 0.372694
Si Si5 0.416093 0.016906 0.870340
Si Si6 0.576146 0.894446 0.674368
Si Si7 0.084273 0.494498 0.661971
Si Si8 0.580076 0.592985 0.874678
O O1 0.750000 0.854014 0.080565
O O2 0.974926 0.925483 0.088423
O O3 0.018403 0.819043 0.111396
O O4 0.949102 0.859577 0.950637
O O5 0.250000 0.832868 0.534106
O O6 0.441730 0.750000 0.549886
O O7 0.496967 0.834913 0.447467
O O8 0.496954 0.844858 0.622277
O O9 0.250000 0.834310 0.214578
O O10 0.431373 0.750000 0.243596
O O11 0.514430 0.853147 0.276790
O O12 0.750000 0.641297 0.374003
O O13 0.545635 0.562838 0.391196
O O14 0.250000 0.006641 0.900563
O O15 0.431944 0.021358 0.764661
O O16 0.507723 0.964722 0.907642
O O17 0.750000 0.888896 0.661727
O O18 0.523428 0.887297 0.777427
O O19 0.526005 0.955161 0.635883
O O20 0.250000 0.514340 0.639902
O O21 0.750000 0.579047 0.866215
#
# Coordination Sequence:
#
# PCOD8241873 Si02
#       8
#     8   8   8   8   8   8   8   8
#     4  10  19  34  54  79 112 151 194 237 282 336
#     4  11  25  44  64  86 112 147 194 244 293 346
#     4  11  24  39  55  80 116 155 196 243 290 343
#     4  11  22  39  64  91 118 150 188 233 289 352
#     4   9  16  29  50  79 115 151 187 226 272 335
#     4  10  21  38  60  88 119 153 194 240 291 346
#     4   9  18  34  56  86 122 155 186 226 281 346
#     4   9  19  33  53  83 116 147 188 238 286 337
#
# _framework density 19.728683
#
# number of rings (size 3 to 8) (size 9 to 14) (size 15 to 20)
#    0.000    2.000    1.250    2.250    0.000    6.500 
#    0.000    0.625    0.000    3.750    0.000    0.000 
#    0.000    0.000    0.000    0.000    0.000    0.000 
#
# Total GULP energy -793602.977671 kJ/mol
# GULP energy per Si atom -12400.046526 kJ/mol
# Density = 1.968378 g / cm^3
# Si number density = 19.728683 Si / 1000 Ang^3
#
#
#
# Elastic Constant Matrix: (Units=GPa)
#
#
# Indices 1 2 3 4 5 6 
#
# 1 103.5324 54.5099 48.8188 0.0000 0.0000 0.0000
# 2 54.5099 82.8028 44.0416 0.0000 0.0000 0.0000
# 3 48.8188 44.0416 70.0033 0.0000 0.0000 0.0000
# 4 0.0000 0.0000 0.0000 30.9821 0.0000 0.0000
# 5 0.0000 0.0000 0.0000 0.0000 28.4567 0.0000
# 6 0.0000 0.0000 0.0000 0.0000 0.0000 32.0093
#
#
#
# Elastic Compliance Matrix: (Units=1/GPa)
#
#
# Indices 1 2 3 4 5 6 
#
# 1 0.016889 -0.007295 -0.007189 0.000000 0.000000 0.000000
# 2 -0.007295 0.021301 -0.008314 0.000000 0.000000 0.000000
# 3 -0.007189 -0.008314 0.024529 0.000000 0.000000 0.000000
# 4 0.000000 0.000000 0.000000 0.032277 0.000000 0.000000
# 5 0.000000 0.000000 0.000000 0.000000 0.035141 0.000000
# 6 0.000000 0.000000 0.000000 0.000000 0.000000 0.031241
#
#
# Mechanical properties :
#
#
# Convention : Reuss Voigt Hill
#
# Bulk Modulus (GPa) = 58.39709 61.23102 59.81405
# Shear Modulus (GPa) = 23.50927 25.55416 24.53172
#
# Velocity S-wave (km/s) = 3.45574 3.60290 3.53009
# Velocity P-wave (km/s) = 6.75183 6.95786 6.85562
#
# Compressibility (1/GPa) = 0.01712414
#
# Stress axis : x y z
#
# Youngs Moduli (GPa) = 59.20919 46.94551 40.76778
#
# Poissons Ratio (x) = 0.34246 0.29307
# Poissons Ratio (y) = 0.43192 0.33895
# Poissons Ratio (z) = 0.42565 0.39032
#
# Static dielectric constant tensor:
#      x y z
#    x 3.617600 0.000000 0.000000 
#    y 0.000000 3.482380 0.000000 
#    z 0.000000 0.000000 3.711110 
# 
# 
# High freq. dielectric constant tensor:
#      x y z
#    x 1.770780 0.000000 0.000000 
#    y 0.000000 1.753220 0.000000 
#    z 0.000000 0.000000 1.772660 
# 
# From -- ./inp_files/21448.got.cif
#   From: 2010.03.12/outbox.cif.g09.slc.cpg/sg59_11_cif.got.tgz:21448.got - 2010.04.16 16:29:54.
