data_PCOD8241837
_publ_section_title
;
Structure prediction by ZEFSAII (Michael W. Deem and Ramdas Pophale) SiO2 
 PCOD8241837
Probable space group: P M M N
;
_chemical_formula_sum "Si O2"
_cell_formula_units_Z 48
_cell_length_a 9.143986
_cell_length_b 19.282201
_cell_length_c 15.070811
_cell_angle_alpha 90.000000
_cell_angle_beta 90.000000
_cell_angle_gamma 90.000000
_cell_volume 2657.227765
_symmetry_space_group_name_H-M "P M M N"
_symmetry_group_IT_number 59
_space_group.IT_coordinate_system_code '2'
_symmetry_cell_setting 'orthorhombic'
loop_
_space_group_symop_operation_xyz
x,y,z
1/2-x,1/2-y,z
1/2+x,-y,-z
-x,1/2+y,-z
-x,-y,-z
1/2+x,1/2+y,-z
1/2-x,y,z
x,1/2-y,z
loop_
_atom_site_type_symbol
_atom_site_label
_atom_site_fract_x
_atom_site_fract_y
_atom_site_fract_z
Si Si1 0.423520 0.594081 0.772214
Si Si2 0.423822 0.326727 0.872604
Si Si3 0.423426 0.061033 0.736470
Si Si4 0.580975 0.830469 0.926591
Si Si5 0.579696 0.566240 0.462198
Si Si6 0.081086 0.170118 0.385310
O O1 0.250000 0.598020 0.770952
O O2 0.480816 0.515572 0.760380
O O3 0.480883 0.622062 0.865396
O O4 0.482644 0.640539 0.692626
O O5 0.250000 0.325451 0.866440
O O6 0.483928 0.250000 0.847924
O O7 0.491608 0.383181 0.805103
O O8 0.469148 0.345948 0.972842
O O9 0.250000 0.062973 0.743895
O O10 0.475360 0.081554 0.637578
O O11 0.750000 0.850282 0.911923
O O12 0.556308 0.750000 0.902740
O O13 0.500000 0.500000 0.500000
O O14 0.750000 0.548179 0.461379
O O15 0.543898 0.632737 0.522103
O O16 0.250000 0.159397 0.358677
O O17 0.042378 0.250000 0.399544
#
# Coordination Sequence:
#
# PCOD8241837 Si02
#       6
#     8   8   8   8   8   8
#     4  11  21  32  49  75 106 137 167 204 255 307
#     4   8  15  30  52  75  99 130 167 209 256 301
#     4   9  18  31  49  75 103 129 164 210 252 299
#     4   9  18  33  52  73  99 132 170 210 251 298
#     4  10  19  34  54  74 102 136 167 206 254 301
#     4  10  21  35  52  76 103 133 173 215 250 292
#
# _framework density 18.063939000000001
#
# number of rings (size 3 to 8) (size 9 to 14) (size 15 to 20)
#    0.000    2.500    1.667    2.000    0.000    4.000 
#    0.000    3.333    0.000    2.000    0.000    0.000 
#    0.000    0.000    0.000    0.000    0.000    0.000 
#
# Total GULP energy -595172.337761 kJ/mol
# GULP energy per Si atom -12399.423703 kJ/mol
# Density = 1.802283 g / cm^3
# Si number density = 18.063939 Si / 1000 Ang^3
#
#
#
# Elastic Constant Matrix: (Units=GPa)
#
#
# Indices 1 2 3 4 5 6 
#
# 1 38.8721 41.3255 39.7557 0.0000 0.0000 0.0000
# 2 41.3255 152.3769 98.8394 0.0000 0.0000 0.0000
# 3 39.7557 98.8394 162.2527 0.0000 0.0000 0.0000
# 4 0.0000 0.0000 0.0000 40.6507 0.0000 0.0000
# 5 0.0000 0.0000 0.0000 0.0000 18.7760 0.0000
# 6 0.0000 0.0000 0.0000 0.0000 0.0000 22.0136
#
#
#
# Elastic Compliance Matrix: (Units=1/GPa)
#
#
# Indices 1 2 3 4 5 6 
#
# 1 0.038527 -0.007151 -0.005084 0.000000 0.000000 0.000000
# 2 -0.007151 0.012177 -0.005666 0.000000 0.000000 0.000000
# 3 -0.005084 -0.005666 0.010860 0.000000 0.000000 0.000000
# 4 0.000000 0.000000 0.000000 0.024600 0.000000 0.000000
# 5 0.000000 0.000000 0.000000 0.000000 0.053259 0.000000
# 6 0.000000 0.000000 0.000000 0.000000 0.000000 0.045427
#
#
# Mechanical properties :
#
#
# Convention : Reuss Voigt Hill
#
# Bulk Modulus (GPa) = 38.81496 79.26031 59.03764
# Shear Modulus (GPa) = 21.81120 27.86013 24.83567
#
# Velocity S-wave (km/s) = 3.47860 3.93148 3.71195
# Velocity P-wave (km/s) = 6.13746 8.03627 7.15018
#
# Compressibility (1/GPa) = 0.02576326
#
# Stress axis : x y z
#
# Youngs Moduli (GPa) = 25.95562 82.12029 92.07854
#
# Poissons Ratio (x) = 0.58726 0.46811
# Poissons Ratio (y) = 0.18561 0.52170
# Poissons Ratio (z) = 0.13195 0.46528
#
# Static dielectric constant tensor:
#      x y z
#    x 2.999430 0.000000 0.000000 
#    y 0.000000 4.063600 0.000000 
#    z 0.000000 0.000000 3.623060 
# 
# 
# High freq. dielectric constant tensor:
#      x y z
#    x 1.661490 0.000000 0.000000 
#    y 0.000000 1.705460 0.000000 
#    z 0.000000 0.000000 1.713340 
# 
# From -- ./inp_files/20447.got.cif
#   From: 2010.03.12/outbox.cif.g09.slc.cpg/sg59_11_cif.got.tgz:20447.got - 2010.04.16 16:29:54.
