data_PCOD8241778
_publ_section_title
;
Structure prediction by ZEFSAII (Michael W. Deem and Ramdas Pophale) SiO2 
 PCOD8241778
Probable space group: P M M N
;
_chemical_formula_sum "Si O2"
_cell_formula_units_Z 48
_cell_length_a 8.788743
_cell_length_b 19.109906
_cell_length_c 15.168579
_cell_angle_alpha 90.000000
_cell_angle_beta 90.000000
_cell_angle_gamma 90.000000
_cell_volume 2547.593978
_symmetry_space_group_name_H-M "P M M N"
_symmetry_group_IT_number 59
_space_group.IT_coordinate_system_code '2'
_symmetry_cell_setting 'orthorhombic'
loop_
_space_group_symop_operation_xyz
x,y,z
1/2-x,1/2-y,z
1/2+x,-y,-z
-x,1/2+y,-z
-x,-y,-z
1/2+x,1/2+y,-z
1/2-x,y,z
x,1/2-y,z
loop_
_atom_site_type_symbol
_atom_site_label
_atom_site_fract_x
_atom_site_fract_y
_atom_site_fract_z
Si Si1 0.929975 0.072321 0.531715
Si Si2 0.572463 0.168851 0.866522
Si Si3 0.429771 0.421801 0.718346
Si Si4 0.929029 0.072911 0.026187
Si Si5 0.930757 0.171788 0.375318
Si Si6 0.930552 0.073815 0.222071
O O1 0.750000 0.063728 0.534250
O O2 0.981108 0.132721 0.464163
O O3 0.991227 0.095563 0.626188
O O4 0.000000 0.000000 0.500000
O O5 0.750000 0.155795 0.847543
O O6 0.533707 0.250000 0.875859
O O7 0.475314 0.138102 0.786737
O O8 0.521155 0.132752 0.957896
O O9 0.250000 0.422176 0.704742
O O10 0.490446 0.496453 0.753522
O O11 0.750000 0.062301 0.026987
O O12 0.986261 0.094320 0.123955
O O13 0.000000 0.000000 0.000000
O O14 0.750000 0.174779 0.368883
O O15 0.999577 0.250000 0.375696
O O16 0.997797 0.130018 0.290972
O O17 0.750000 0.073669 0.228147
#
# Coordination Sequence:
#
# PCOD8241778 Si02
#       6
#     8   8   8   8   8   8
#     4  11  21  35  57  86 115 150 191 234 282 339
#     4  10  22  38  55  82 118 151 187 233 286 343
#     4  11  21  36  58  84 111 146 193 239 283 337
#     4  10  19  33  56  83 110 143 182 229 277 330
#     4   9  18  33  54  81 111 141 177 225 279 330
#     4   9  17  31  53  82 110 137 180 231 276 329
#
# _framework density 18.841307
#
# number of rings (size 3 to 8) (size 9 to 14) (size 15 to 20)
#    0.000    2.000    3.333    1.000    0.000    1.667 
#    0.000    5.000    0.000    1.500    0.000    0.000 
#    0.000    0.000    0.000    0.000    0.000    0.000 
#
# Total GULP energy -595248.372143 kJ/mol
# GULP energy per Si atom -12401.007753 kJ/mol
# Density = 1.879842 g / cm^3
# Si number density = 18.841307 Si / 1000 Ang^3
#
#
#
# Elastic Constant Matrix: (Units=GPa)
#
#
# Indices 1 2 3 4 5 6 
#
# 1 37.5821 30.2478 38.2487 0.0000 0.0000 0.0000
# 2 30.2478 159.6657 87.9431 0.0000 0.0000 0.0000
# 3 38.2487 87.9431 197.1644 0.0000 0.0000 0.0000
# 4 0.0000 0.0000 0.0000 36.0087 0.0000 0.0000
# 5 0.0000 0.0000 0.0000 0.0000 25.1710 0.0000
# 6 0.0000 0.0000 0.0000 0.0000 0.0000 24.1242
#
#
#
# Elastic Compliance Matrix: (Units=1/GPa)
#
#
# Indices 1 2 3 4 5 6 
#
# 1 0.034821 -0.003813 -0.005054 0.000000 0.000000 0.000000
# 2 -0.003813 0.008720 -0.003150 0.000000 0.000000 0.000000
# 3 -0.005054 -0.003150 0.007457 0.000000 0.000000 0.000000
# 4 0.000000 0.000000 0.000000 0.027771 0.000000 0.000000
# 5 0.000000 0.000000 0.000000 0.000000 0.039728 0.000000
# 6 0.000000 0.000000 0.000000 0.000000 0.000000 0.041452
#
#
# Mechanical properties :
#
#
# Convention : Reuss Voigt Hill
#
# Bulk Modulus (GPa) = 37.08554 78.58794 57.83674
# Shear Modulus (GPa) = 25.91036 32.92564 29.41800
#
# Velocity S-wave (km/s) = 3.71238 4.18487 3.95569
# Velocity P-wave (km/s) = 6.17264 8.07167 7.18517
#
# Compressibility (1/GPa) = 0.02696468
#
# Stress axis : x y z
#
# Youngs Moduli (GPa) = 28.71815 114.67392 134.09369
#
# Poissons Ratio (x) = 0.43722 0.67778
# Poissons Ratio (y) = 0.10949 0.42239
# Poissons Ratio (z) = 0.14516 0.36122
#
# Static dielectric constant tensor:
#      x y z
#    x 3.182220 0.000000 0.000000 
#    y 0.000000 3.577190 0.000000 
#    z 0.000000 0.000000 3.938670 
# 
# 
# High freq. dielectric constant tensor:
#      x y z
#    x 1.699030 0.000000 0.000000 
#    y 0.000000 1.731420 0.000000 
#    z 0.000000 0.000000 1.752400 
# 
# From -- ./inp_files/20318.got.cif
#   From: 2010.03.12/outbox.cif.g09.slc.cpg/sg59_11_cif.got.tgz:20318.got - 2010.04.16 16:29:54.
