data_PCOD8241258
_publ_section_title
;
Structure prediction by ZEFSAII (Michael W. Deem and Ramdas Pophale) SiO2 
 PCOD8241258
Probable space group: P M M N
;
_chemical_formula_sum "Si O2"
_cell_formula_units_Z 56
_cell_length_a 13.629213
_cell_length_b 10.344019
_cell_length_c 21.274309
_cell_angle_alpha 90.000000
_cell_angle_beta 90.000000
_cell_angle_gamma 90.000000
_cell_volume 2999.269916
_symmetry_space_group_name_H-M "P M M N"
_symmetry_group_IT_number 59
_space_group.IT_coordinate_system_code '2'
_symmetry_cell_setting 'orthorhombic'
loop_
_space_group_symop_operation_xyz
x,y,z
1/2-x,1/2-y,z
1/2+x,-y,-z
-x,1/2+y,-z
-x,-y,-z
1/2+x,1/2+y,-z
1/2-x,y,z
x,1/2-y,z
loop_
_atom_site_type_symbol
_atom_site_label
_atom_site_fract_x
_atom_site_fract_y
_atom_site_fract_z
Si Si1 0.517792 0.900291 0.229648
Si Si2 0.860722 0.968371 0.546512
Si Si3 0.362071 0.103512 0.007843
Si Si4 0.467386 0.896322 0.086317
Si Si5 0.864812 0.102790 0.293923
Si Si6 0.356208 0.599539 0.325860
Si Si7 0.566882 0.390436 0.427351
O O1 0.547660 0.750000 0.242385
O O2 0.477484 0.917176 0.160018
O O3 0.436071 0.955698 0.277786
O O4 0.608342 0.998857 0.239641
O O5 0.750000 0.907575 0.550916
O O6 0.877992 0.075564 0.600563
O O7 0.874065 0.025496 0.477359
O O8 0.950696 0.870354 0.557291
O O9 0.250000 0.081810 0.987401
O O10 0.378088 0.250000 0.033462
O O11 0.388990 0.000298 0.061621
O O12 0.427438 0.078857 0.946116
O O13 0.430579 0.750000 0.071834
O O14 0.750000 0.098234 0.304561
O O15 0.898020 0.250000 0.276226
O O16 0.917248 0.052375 0.357810
O O17 0.250000 0.537814 0.308816
O O18 0.352799 0.750000 0.314374
O O19 0.616343 0.250000 0.428901
#
# Coordination Sequence:
#
# PCOD8241258 Si02
#       7
#     8   8   8   8   8   8   8
#     4  10  20  35  55  80 109 140 178 220 262 309
#     4  10  19  32  52  75  98 128 171 220 270 319
#     4   9  18  34  55  79 109 143 179 218 261 311
#     4   9  19  34  54  81 111 143 176 218 265 312
#     4  10  21  37  54  74 105 144 183 222 267 320
#     4   9  17  30  49  73 102 134 169 212 261 314
#     4  10  20  34  52  73 100 135 174 220 272 325
#
# _framework density 18.671209999999999
#
# number of rings (size 3 to 8) (size 9 to 14) (size 15 to 20)
#    0.000    2.429    1.429    0.857    0.000    4.000 
#    0.000    2.857    0.000    2.143    0.000    0.000 
#    0.000    0.000    0.000    0.000    0.000    0.000 
#
# Total GULP energy -693927.517343 kJ/mol
# GULP energy per Si atom -12391.562810 kJ/mol
# Density = 1.862871 g / cm^3
# Si number density = 18.671210 Si / 1000 Ang^3
#
#
#
# Elastic Constant Matrix: (Units=GPa)
#
#
# Indices 1 2 3 4 5 6 
#
# 1 79.8395 29.3954 20.5070 0.0000 0.0000 0.0000
# 2 29.3954 75.1054 35.5735 0.0000 0.0000 0.0000
# 3 20.5070 35.5735 76.1057 0.0000 0.0000 0.0000
# 4 0.0000 0.0000 0.0000 20.3880 0.0000 0.0000
# 5 0.0000 0.0000 0.0000 0.0000 18.6733 0.0000
# 6 0.0000 0.0000 0.0000 0.0000 0.0000 22.6301
#
#
#
# Elastic Compliance Matrix: (Units=1/GPa)
#
#
# Indices 1 2 3 4 5 6 
#
# 1 0.014792 -0.005011 -0.001644 0.000000 0.000000 0.000000
# 2 -0.005011 0.018798 -0.007436 0.000000 0.000000 0.000000
# 3 -0.001644 -0.007436 0.017058 0.000000 0.000000 0.000000
# 4 0.000000 0.000000 0.000000 0.049048 0.000000 0.000000
# 5 0.000000 0.000000 0.000000 0.000000 0.053552 0.000000
# 6 0.000000 0.000000 0.000000 0.000000 0.000000 0.044189
#
#
# Mechanical properties :
#
#
# Convention : Reuss Voigt Hill
#
# Bulk Modulus (GPa) = 44.51019 44.66693 44.58856
# Shear Modulus (GPa) = 21.44914 22.04326 21.74620
#
# Velocity S-wave (km/s) = 3.39304 3.43972 3.41646
# Velocity P-wave (km/s) = 6.26427 6.30479 6.28456
#
# Compressibility (1/GPa) = 0.02246676
#
# Stress axis : x y z
#
# Youngs Moduli (GPa) = 67.60292 53.19678 58.62205
#
# Poissons Ratio (x) = 0.26657 0.09635
# Poissons Ratio (y) = 0.33876 0.43594
# Poissons Ratio (z) = 0.11111 0.39559
#
# Static dielectric constant tensor:
#      x y z
#    x 3.594060 0.000000 0.000000 
#    y 0.000000 3.345920 0.000000 
#    z 0.000000 0.000000 3.300340 
# 
# 
# High freq. dielectric constant tensor:
#      x y z
#    x 1.727880 0.000000 0.000000 
#    y 0.000000 1.711430 0.000000 
#    z 0.000000 0.000000 1.716020 
# 
# From -- ./inp_files/30111.got.cif
#   From: 2010.03.12/outbox.cif.g09.slc.cpg/sg59_16_cif.got.tgz:30111.got - 2010.04.16 16:29:54.
