data_PCOD8241575
_publ_section_title
;
Structure prediction by ZEFSAII (Michael W. Deem and Ramdas Pophale) SiO2 
 PCOD8241575
Probable space group: P M M N
;
_chemical_formula_sum "Si O2"
_cell_formula_units_Z 64
_cell_length_a 8.865894
_cell_length_b 19.208960
_cell_length_c 20.608287
_cell_angle_alpha 90.000000
_cell_angle_beta 90.000000
_cell_angle_gamma 90.000000
_cell_volume 3509.686140
_symmetry_space_group_name_H-M "P M M N"
_symmetry_group_IT_number 59
_space_group.IT_coordinate_system_code '2'
_symmetry_cell_setting 'orthorhombic'
loop_
_space_group_symop_operation_xyz
x,y,z
1/2-x,1/2-y,z
1/2+x,-y,-z
-x,1/2+y,-z
-x,-y,-z
1/2+x,1/2+y,-z
1/2-x,y,z
x,1/2-y,z
loop_
_atom_site_type_symbol
_atom_site_label
_atom_site_fract_x
_atom_site_fract_y
_atom_site_fract_z
Si Si1 0.075449 0.466654 0.182052
Si Si2 0.578964 0.827071 0.240592
Si Si3 0.924007 0.533808 0.303594
Si Si4 0.072169 0.037908 0.939439
Si Si5 0.927383 0.032936 0.437316
Si Si6 0.071655 0.673284 0.621681
Si Si7 0.073540 0.828991 0.106997
Si Si8 0.076934 0.172637 0.243429
O O1 0.250000 0.483747 0.167147
O O2 0.046929 0.383218 0.186278
O O3 0.030533 0.497939 0.251172
O O4 0.972720 0.498260 0.126101
O O5 0.750000 0.831511 0.213435
O O6 0.544862 0.750000 0.268684
O O7 0.555150 0.882605 0.297959
O O8 0.468127 0.844899 0.181476
O O9 0.750000 0.511760 0.291527
O O10 0.977669 0.511910 0.374932
O O11 0.250000 0.037356 0.946978
O O12 0.015039 0.117671 0.939105
O O13 0.000000 0.000000 0.000000
O O14 0.750000 0.030102 0.446582
O O15 0.983576 0.113058 0.427749
O O16 0.000000 0.000000 0.500000
O O17 0.250000 0.674335 0.622785
O O18 0.008694 0.750000 0.601163
O O19 0.021081 0.653389 0.693927
O O20 0.250000 0.841420 0.098076
O O21 0.027424 0.750000 0.088373
O O22 0.250000 0.169026 0.265877
O O23 0.035810 0.250000 0.217234
#
# Coordination Sequence:
#
# PCOD8241575 Si02
#       8
#     8   8   8   8   8   8   8   8
#     4  11  21  34  56  84 112 143 180 225 278 332
#     4   9  17  30  51  79 109 143 181 224 277 329
#     4  10  19  33  53  78 107 140 181 230 275 327
#     4  12  25  41  60  83 115 153 193 235 281 333
#     4  10  21  35  51  75 108 144 185 227 276 329
#     4   9  17  31  52  76 103 137 178 223 270 325
#     4  10  20  35  57  86 117 146 183 230 278 334
#     4   9  18  32  52  81 113 142 176 221 272 328
#
# _framework density 18.235247999999999
#
# number of rings (size 3 to 8) (size 9 to 14) (size 15 to 20)
#    0.000    2.000    2.500    1.875    0.000    2.250 
#    0.000    1.250    0.000    3.000    0.000    0.000 
#    0.000    0.000    0.000    0.000    0.000    0.000 
#
# Total GULP energy -793460.708645 kJ/mol
# GULP energy per Si atom -12397.823573 kJ/mol
# Density = 1.819374 g / cm^3
# Si number density = 18.235248 Si / 1000 Ang^3
#
#
#
# Elastic Constant Matrix: (Units=GPa)
#
#
# Indices 1 2 3 4 5 6 
#
# 1 70.3288 48.3182 38.3658 0.0000 0.0000 0.0000
# 2 48.3182 150.8922 68.5329 0.0000 0.0000 0.0000
# 3 38.3658 68.5329 95.9302 0.0000 0.0000 0.0000
# 4 0.0000 0.0000 0.0000 30.3881 0.0000 0.0000
# 5 0.0000 0.0000 0.0000 0.0000 30.1400 0.0000
# 6 0.0000 0.0000 0.0000 0.0000 0.0000 25.3107
#
#
#
# Elastic Compliance Matrix: (Units=1/GPa)
#
#
# Indices 1 2 3 4 5 6 
#
# 1 0.019726 -0.004046 -0.004998 0.000000 0.000000 0.000000
# 2 -0.004046 0.010640 -0.005983 0.000000 0.000000 0.000000
# 3 -0.004998 -0.005983 0.016698 0.000000 0.000000 0.000000
# 4 0.000000 0.000000 0.000000 0.032908 0.000000 0.000000
# 5 0.000000 0.000000 0.000000 0.000000 0.033178 0.000000
# 6 0.000000 0.000000 0.000000 0.000000 0.000000 0.039509
#
#
# Mechanical properties :
#
#
# Convention : Reuss Voigt Hill
#
# Bulk Modulus (GPa) = 58.79591 69.73164 64.26378
# Shear Modulus (GPa) = 26.54155 27.96338 27.25246
#
# Velocity S-wave (km/s) = 3.81925 3.92021 3.87006
# Velocity P-wave (km/s) = 7.19457 7.66902 7.43558
#
# Compressibility (1/GPa) = 0.01700799
#
# Stress axis : x y z
#
# Youngs Moduli (GPa) = 50.69577 93.98061 59.88844
#
# Poissons Ratio (x) = 0.38028 0.29933
# Poissons Ratio (y) = 0.20513 0.35833
# Poissons Ratio (z) = 0.25339 0.56232
#
# Static dielectric constant tensor:
#      x y z
#    x 3.363150 0.000000 0.000000 
#    y 0.000000 4.024180 0.000000 
#    z 0.000000 0.000000 3.210160 
# 
# 
# High freq. dielectric constant tensor:
#      x y z
#    x 1.706960 0.000000 0.000000 
#    y 0.000000 1.731870 0.000000 
#    z 0.000000 0.000000 1.667060 
# 
# From -- ./inp_files/29387.got.cif
#   From: 2010.03.12/outbox.cif.g09.slc.cpg/sg59_15_cif.got.tgz:29387.got - 2010.04.16 16:29:54.
