data_PCOD8241927
_publ_section_title
;
Structure prediction by ZEFSAII (Michael W. Deem and Ramdas Pophale) SiO2 
 PCOD8241927
Probable space group: P M M N
;
_chemical_formula_sum "Si O2"
_cell_formula_units_Z 64
_cell_length_a 14.983745
_cell_length_b 9.015811
_cell_length_c 23.950139
_cell_angle_alpha 90.000000
_cell_angle_beta 90.000000
_cell_angle_gamma 90.000000
_cell_volume 3235.438959
_symmetry_space_group_name_H-M "P M M N"
_symmetry_group_IT_number 59
_space_group.IT_coordinate_system_code '2'
_symmetry_cell_setting 'orthorhombic'
loop_
_space_group_symop_operation_xyz
x,y,z
1/2-x,1/2-y,z
1/2+x,-y,-z
-x,1/2+y,-z
-x,-y,-z
1/2+x,1/2+y,-z
1/2-x,y,z
x,1/2-y,z
loop_
_atom_site_type_symbol
_atom_site_label
_atom_site_fract_x
_atom_site_fract_y
_atom_site_fract_z
Si Si1 0.008172 0.925977 0.299053
Si Si2 0.854717 0.576404 0.492115
Si Si3 0.150806 0.417225 0.226122
Si Si4 0.151970 0.425516 0.776256
Si Si5 0.648288 0.082221 0.004876
Si Si6 0.116107 0.583923 0.117772
Si Si7 0.587895 0.913840 0.108889
Si Si8 0.002794 0.575898 0.582646
O O1 0.006693 0.750000 0.307329
O O2 0.919685 0.986816 0.267733
O O3 0.014777 0.004226 0.358062
O O4 0.093202 0.970872 0.262815
O O5 0.750000 0.525413 0.498379
O O6 0.857537 0.750000 0.478055
O O7 0.905511 0.491044 0.442436
O O8 0.912742 0.540840 0.547431
O O9 0.250000 0.415428 0.251805
O O10 0.110824 0.250000 0.226757
O O11 0.158923 0.475503 0.162889
O O12 0.250000 0.469112 0.753978
O O13 0.138911 0.250000 0.781472
O O14 0.140180 0.490536 0.839237
O O15 0.750000 0.070691 0.024482
O O16 0.613409 0.250000 0.002045
O O17 0.635599 0.013259 0.943283
O O18 0.589715 0.002399 0.051353
O O19 0.158354 0.750000 0.121543
O O20 0.012247 0.594533 0.130427
O O21 0.626464 0.750000 0.096478
O O22 0.017636 0.750000 0.588526
#
# Coordination Sequence:
#
# PCOD8241927 Si02
#       8
#     8   8   8   8   8   8   8   8
#     4  11  22  39  61  86 119 160 202 240 286 348
#     4   9  19  38  63  89 121 164 206 243 291 348
#     4  11  24  40  59  84 114 149 191 243 300 350
#     4   9  18  34  56  81 109 144 189 239 287 339
#     4  10  21  34  49  75 109 141 176 226 289 352
#     4  10  20  37  58  79 105 141 185 232 288 354
#     4  10  19  34  56  79 103 138 185 234 285 344
#     4  10  21  37  59  91 127 160 199 251 299 340
#
# _framework density 19.780933000000001
#
# number of rings (size 3 to 8) (size 9 to 14) (size 15 to 20)
#    0.000    2.000    1.250    2.250    0.000    5.000 
#    0.000    2.500    0.000    1.875    0.000    0.000 
#    0.000    0.000    0.000    0.000    0.000    0.000 
#
# Total GULP energy -793433.954228 kJ/mol
# GULP energy per Si atom -12397.405535 kJ/mol
# Density = 1.973591 g / cm^3
# Si number density = 19.780933 Si / 1000 Ang^3
#
#
#
# Elastic Constant Matrix: (Units=GPa)
#
#
# Indices 1 2 3 4 5 6 
#
# 1 117.4891 25.3419 38.1096 0.0000 0.0000 0.0000
# 2 25.3419 45.6280 31.5016 0.0000 0.0000 0.0000
# 3 38.1096 31.5016 118.5265 0.0000 0.0000 0.0000
# 4 0.0000 0.0000 0.0000 35.8847 0.0000 0.0000
# 5 0.0000 0.0000 0.0000 0.0000 10.2329 0.0000
# 6 0.0000 0.0000 0.0000 0.0000 0.0000 23.1131
#
#
#
# Elastic Compliance Matrix: (Units=1/GPa)
#
#
# Indices 1 2 3 4 5 6 
#
# 1 0.010099 -0.004124 -0.002151 0.000000 0.000000 0.000000
# 2 -0.004124 0.028526 -0.006256 0.000000 0.000000 0.000000
# 3 -0.002151 -0.006256 0.010791 0.000000 0.000000 0.000000
# 4 0.000000 0.000000 0.000000 0.027867 0.000000 0.000000
# 5 0.000000 0.000000 0.000000 0.000000 0.097724 0.000000
# 6 0.000000 0.000000 0.000000 0.000000 0.000000 0.043265
#
#
# Mechanical properties :
#
#
# Convention : Reuss Voigt Hill
#
# Bulk Modulus (GPa) = 41.05982 52.39443 46.72713
# Shear Modulus (GPa) = 19.88465 26.29218 23.08842
#
# Velocity S-wave (km/s) = 3.17400 3.64973 3.42015
# Velocity P-wave (km/s) = 5.85104 6.65624 6.26659
#
# Compressibility (1/GPa) = 0.02435471
#
# Stress axis : x y z
#
# Youngs Moduli (GPa) = 99.02349 35.05635 92.66893
#
# Poissons Ratio (x) = 0.14456 0.19933
# Poissons Ratio (y) = 0.40835 0.57969
# Poissons Ratio (z) = 0.21300 0.21930
#
# Static dielectric constant tensor:
#      x y z
#    x 3.678500 0.000000 0.000000 
#    y 0.000000 3.450240 0.000000 
#    z 0.000000 0.000000 3.553440 
# 
# 
# High freq. dielectric constant tensor:
#      x y z
#    x 1.780500 0.000000 0.000000 
#    y 0.000000 1.750810 0.000000 
#    z 0.000000 0.000000 1.770650 
# 
# From -- ./inp_files/32180.got.cif
#   From: 2010.03.12/outbox.cif.g09.slc.cpg/sg59_17_cif.got.tgz:32180.got - 2010.04.16 16:29:54.
