data_PCOD8241114
_publ_section_title
;
Structure prediction by ZEFSAII (Michael W. Deem and Ramdas Pophale) SiO2 
 PCOD8241114
Probable space group: P M M N
;
_chemical_formula_sum "Si O2"
_cell_formula_units_Z 64
_cell_length_a 9.058599
_cell_length_b 24.025263
_cell_length_c 15.260752
_cell_angle_alpha 90.000000
_cell_angle_beta 90.000000
_cell_angle_gamma 90.000000
_cell_volume 3321.277171
_symmetry_space_group_name_H-M "P M M N"
_symmetry_group_IT_number 59
_space_group.IT_coordinate_system_code '2'
_symmetry_cell_setting 'orthorhombic'
loop_
_space_group_symop_operation_xyz
x,y,z
1/2-x,1/2-y,z
1/2+x,-y,-z
-x,1/2+y,-z
-x,-y,-z
1/2+x,1/2+y,-z
1/2-x,y,z
x,1/2-y,z
loop_
_atom_site_type_symbol
_atom_site_label
_atom_site_fract_x
_atom_site_fract_y
_atom_site_fract_z
Si Si1 0.085958 0.629297 0.364314
Si Si2 0.587364 0.601521 0.204208
Si Si3 0.920268 0.893583 0.840896
Si Si4 0.423688 0.685671 0.706087
Si Si5 0.078209 0.058525 0.978737
Si Si6 0.911556 0.477738 0.258308
Si Si7 0.587576 0.002032 0.587455
Si Si8 0.578159 0.684820 0.526430
O O1 0.250000 0.656284 0.364844
O O2 0.100902 0.563843 0.376458
O O3 0.012520 0.640232 0.267992
O O4 0.988818 0.654626 0.441969
O O5 0.750000 0.629437 0.194183
O O6 0.607593 0.543030 0.252102
O O7 0.514851 0.588987 0.108760
O O8 0.750000 0.888232 0.813198
O O9 0.938816 0.894031 0.946128
O O10 0.012597 0.846376 0.790784
O O11 0.985965 0.954189 0.818358
O O12 0.250000 0.675132 0.698628
O O13 0.461447 0.750000 0.722079
O O14 0.498424 0.664729 0.615779
O O15 0.250000 0.043453 0.962684
O O16 0.000000 0.000000 0.000000
O O17 0.750000 0.448723 0.258445
O O18 0.996236 0.462311 0.347551
O O19 0.750000 0.976103 0.574230
O O20 0.500000 0.000000 0.500000
O O21 0.750000 0.669471 0.533460
O O22 0.552630 0.750000 0.512979
#
# Coordination Sequence:
#
# PCOD8241114 Si02
#       8
#     8   8   8   8   8   8   8   8
#     4  10  21  35  53  78 107 142 180 221 271 324
#     4   9  18  34  53  75 108 146 183 225 269 316
#     4  11  22  34  54  82 111 144 182 227 277 331
#     4  10  22  40  60  81 108 142 182 229 277 327
#     4  10  20  34  54  81 112 148 188 228 271 321
#     4  10  19  32  50  72 103 142 182 222 264 314
#     4  10  21  34  47  68 102 142 182 219 263 319
#     4  10  21  38  61  86 110 140 180 226 277 332
#
# _framework density 19.269696
#
# number of rings (size 3 to 8) (size 9 to 14) (size 15 to 20)
#    0.000    2.000    1.250    2.250    1.750    4.500 
#    0.000    0.000    0.000    0.750    0.000    1.750 
#    0.000    0.000    0.000    0.000    0.000    0.000 
#
# Total GULP energy -793147.350358 kJ/mol
# GULP energy per Si atom -12392.927349 kJ/mol
# Density = 1.922584 g / cm^3
# Si number density = 19.269696 Si / 1000 Ang^3
#
#
#
# Elastic Constant Matrix: (Units=GPa)
#
#
# Indices 1 2 3 4 5 6 
#
# 1 134.6444 22.7958 71.5238 0.0000 0.0000 0.0000
# 2 22.7958 37.1923 22.9556 0.0000 0.0000 0.0000
# 3 71.5238 22.9556 151.5309 0.0000 0.0000 0.0000
# 4 0.0000 0.0000 0.0000 23.7178 0.0000 0.0000
# 5 0.0000 0.0000 0.0000 0.0000 29.8327 0.0000
# 6 0.0000 0.0000 0.0000 0.0000 0.0000 23.7060
#
#
#
# Elastic Compliance Matrix: (Units=1/GPa)
#
#
# Indices 1 2 3 4 5 6 
#
# 1 0.010348 -0.003671 -0.004328 0.000000 0.000000 0.000000
# 2 -0.003671 0.030963 -0.002958 0.000000 0.000000 0.000000
# 3 -0.004328 -0.002958 0.009090 0.000000 0.000000 0.000000
# 4 0.000000 0.000000 0.000000 0.042162 0.000000 0.000000
# 5 0.000000 0.000000 0.000000 0.000000 0.033520 0.000000
# 6 0.000000 0.000000 0.000000 0.000000 0.000000 0.042183
#
#
# Mechanical properties :
#
#
# Convention : Reuss Voigt Hill
#
# Bulk Modulus (GPa) = 35.10362 61.99089 48.54726
# Shear Modulus (GPa) = 25.04056 29.19080 27.11568
#
# Velocity S-wave (km/s) = 3.60874 3.89634 3.75529
# Velocity P-wave (km/s) = 5.96830 7.24444 6.63711
#
# Compressibility (1/GPa) = 0.02848709
#
# Stress axis : x y z
#
# Youngs Moduli (GPa) = 96.64144 32.29670 110.00767
#
# Poissons Ratio (x) = 0.11856 0.47611
# Poissons Ratio (y) = 0.35476 0.32540
# Poissons Ratio (z) = 0.41827 0.09553
#
# Static dielectric constant tensor:
#      x y z
#    x 3.819670 0.000000 0.000000 
#    y 0.000000 3.054490 0.000000 
#    z 0.000000 0.000000 3.601020 
# 
# 
# High freq. dielectric constant tensor:
#      x y z
#    x 1.765600 0.000000 0.000000 
#    y 0.000000 1.707290 0.000000 
#    z 0.000000 0.000000 1.759380 
# 
# From -- ./inp_files/21523.got.cif
#   From: 2010.03.12/outbox.cif.g09.slc.cpg/sg59_11_cif.got.tgz:21523.got - 2010.04.16 16:29:54.
