data_PCOD8241564
_publ_section_title
;
Structure prediction by ZEFSAII (Michael W. Deem and Ramdas Pophale) SiO2 
 PCOD8241564
Probable space group: P M M N
;
_chemical_formula_sum "Si O2"
_cell_formula_units_Z 48
_cell_length_a 8.730345
_cell_length_b 14.657246
_cell_length_c 20.452159
_cell_angle_alpha 90.000000
_cell_angle_beta 90.000000
_cell_angle_gamma 90.000000
_cell_volume 2617.115825
_symmetry_space_group_name_H-M "P M M N"
_symmetry_group_IT_number 59
_space_group.IT_coordinate_system_code '2'
_symmetry_cell_setting 'orthorhombic'
loop_
_space_group_symop_operation_xyz
x,y,z
1/2-x,1/2-y,z
1/2+x,-y,-z
-x,1/2+y,-z
-x,-y,-z
1/2+x,1/2+y,-z
1/2-x,y,z
x,1/2-y,z
loop_
_atom_site_type_symbol
_atom_site_label
_atom_site_fract_x
_atom_site_fract_y
_atom_site_fract_z
Si Si1 0.580244 0.750000 0.579336
Si Si2 0.432141 0.250000 0.021641
Si Si3 0.576831 0.948284 0.558618
Si Si4 0.933150 0.053391 0.300425
Si Si5 0.568618 0.940978 0.179155
Si Si6 0.432005 0.560484 0.942562
Si Si7 0.923335 0.250000 0.291946
Si Si8 0.067593 0.250000 0.871495
O O1 0.750000 0.750000 0.614129
O O2 0.566179 0.841923 0.537136
O O3 0.439845 0.750000 0.629679
O O4 0.250000 0.250000 0.027074
O O5 0.498942 0.161603 0.057567
O O6 0.487254 0.250000 0.946486
O O7 0.750000 0.981944 0.565263
O O8 0.498274 0.968520 0.628231
O O9 0.500000 0.000000 0.500000
O O10 0.750000 0.057914 0.305764
O O11 0.995620 0.151767 0.271182
O O12 0.988545 0.975310 0.250151
O O13 0.750000 0.934455 0.178078
O O14 0.500700 0.840245 0.164225
O O15 0.515654 0.013208 0.124731
O O16 0.250000 0.565060 0.949760
O O17 0.500000 0.500000 0.000000
O O18 0.750000 0.250000 0.268262
O O19 0.250000 0.250000 0.869329
#
# Coordination Sequence:
#
# PCOD8241564 Si02
#       8
#     4   4   8   8   8   8   4   4
#     4   8  16  30  48  70  96 130 169 203 242 299
#     4  11  21  36  56  79 110 144 184 233 278 326
#     4  10  19  33  53  77 105 137 173 215 261 310
#     4   9  17  31  51  75 101 134 175 217 265 318
#     4   9  18  32  53  77 104 139 179 221 266 319
#     4  11  21  35  55  81 108 140 182 229 277 328
#     4   8  14  25  45  70  96 123 158 208 259 306
#     4   9  16  31  53  75 100 139 183 220 259 313
#
# _framework density 18.340800000000002
#
# number of rings (size 3 to 8) (size 9 to 14) (size 15 to 20)
#    0.000    2.500    1.667    1.250    0.000    1.333 
#    0.000    5.000    0.000    7.000    0.000    0.000 
#    0.000    0.000    0.000    0.000    0.000    0.000 
#
# Total GULP energy -594684.847044 kJ/mol
# GULP energy per Si atom -12389.267647 kJ/mol
# Density = 1.829906 g / cm^3
# Si number density = 18.340800 Si / 1000 Ang^3
#
#
#
# Elastic Constant Matrix: (Units=GPa)
#
#
# Indices 1 2 3 4 5 6 
#
# 1 51.4379 34.2552 31.9356 0.0000 0.0000 0.0000
# 2 34.2552 171.5092 84.9054 0.0000 0.0000 0.0000
# 3 31.9356 84.9054 128.3914 0.0000 0.0000 0.0000
# 4 0.0000 0.0000 0.0000 33.1407 0.0000 0.0000
# 5 0.0000 0.0000 0.0000 0.0000 22.5621 0.0000
# 6 0.0000 0.0000 0.0000 0.0000 0.0000 24.7841
#
#
#
# Elastic Compliance Matrix: (Units=1/GPa)
#
#
# Indices 1 2 3 4 5 6 
#
# 1 0.023810 -0.002711 -0.004130 0.000000 0.000000 0.000000
# 2 -0.002711 0.008977 -0.005262 0.000000 0.000000 0.000000
# 3 -0.004130 -0.005262 0.012296 0.000000 0.000000 0.000000
# 4 0.000000 0.000000 0.000000 0.030174 0.000000 0.000000
# 5 0.000000 0.000000 0.000000 0.000000 0.044322 0.000000
# 6 0.000000 0.000000 0.000000 0.000000 0.000000 0.040348
#
#
# Mechanical properties :
#
#
# Convention : Reuss Voigt Hill
#
# Bulk Modulus (GPa) = 47.89909 72.61456 60.25682
# Shear Modulus (GPa) = 26.16522 29.44686 27.80604
#
# Velocity S-wave (km/s) = 3.78115 4.01126 3.89791
# Velocity P-wave (km/s) = 6.72574 7.81866 7.29270
#
# Compressibility (1/GPa) = 0.02087722
#
# Stress axis : x y z
#
# Youngs Moduli (GPa) = 41.99853 111.39380 81.32892
#
# Poissons Ratio (x) = 0.30202 0.33585
# Poissons Ratio (y) = 0.11387 0.42797
# Poissons Ratio (z) = 0.17343 0.58618
#
# Static dielectric constant tensor:
#      x y z
#    x 3.380060 0.000000 0.000000 
#    y 0.000000 3.726030 0.000000 
#    z 0.000000 0.000000 3.233940 
# 
# 
# High freq. dielectric constant tensor:
#      x y z
#    x 1.689440 0.000000 0.000000 
#    y 0.000000 1.727580 0.000000 
#    z 0.000000 0.000000 1.688710 
# 
# From -- ./inp_files/25644.got.cif
#   From: 2010.03.12/outbox.cif.g09.slc.cpg/sg59_13_cif.got.tgz:25644.got - 2010.04.16 16:29:54.
