data_PCOD8241485
_publ_section_title
;
Structure prediction by ZEFSAII (Michael W. Deem and Ramdas Pophale) SiO2 
 PCOD8241485
Probable space group: P M M N
;
_chemical_formula_sum "Si O2"
_cell_formula_units_Z 64
_cell_length_a 9.335730
_cell_length_b 28.138001
_cell_length_c 15.393231
_cell_angle_alpha 90.000000
_cell_angle_beta 90.000000
_cell_angle_gamma 90.000000
_cell_volume 4043.629073
_symmetry_space_group_name_H-M "P M M N"
_symmetry_group_IT_number 59
_space_group.IT_coordinate_system_code '2'
_symmetry_cell_setting 'orthorhombic'
loop_
_space_group_symop_operation_xyz
x,y,z
1/2-x,1/2-y,z
1/2+x,-y,-z
-x,1/2+y,-z
-x,-y,-z
1/2+x,1/2+y,-z
1/2-x,y,z
x,1/2-y,z
loop_
_atom_site_type_symbol
_atom_site_label
_atom_site_fract_x
_atom_site_fract_y
_atom_site_fract_z
Si Si1 0.083261 0.695754 0.336602
Si Si2 0.084296 0.194205 0.999389
Si Si3 0.083305 0.194424 0.308035
Si Si4 0.083965 0.953187 0.097884
Si Si5 0.918355 0.149870 0.843308
Si Si6 0.914048 0.457437 0.100810
Si Si7 0.091557 0.306470 0.501867
Si Si8 0.418000 0.854080 0.843687
O O1 0.250000 0.692876 0.354263
O O2 0.034078 0.750000 0.320399
O O3 0.038343 0.665176 0.253409
O O4 0.010124 0.673468 0.422413
O O5 0.250000 0.177922 0.998259
O O6 0.072228 0.250000 0.015531
O O7 0.001684 0.168280 0.076215
O O8 0.010477 0.181492 0.908620
O O9 0.250000 0.183381 0.288288
O O10 0.053534 0.250000 0.294278
O O11 0.041896 0.177799 0.405610
O O12 0.979662 0.165354 0.245805
O O13 0.250000 0.964056 0.107580
O O14 0.041020 0.905432 0.148425
O O15 0.038333 0.945985 0.997806
O O16 0.002719 0.998281 0.139267
O O17 0.750000 0.158561 0.862642
O O18 0.750000 0.472889 0.103494
O O19 0.942527 0.410726 0.157778
O O20 0.250000 0.326292 0.520306
O O21 0.092206 0.250000 0.503425
O O22 0.250000 0.841726 0.852946
#
# Coordination Sequence:
#
# PCOD8241485 Si02
#       8
#     8   8   8   8   8   8   8   8
#     4   9  17  28  45  69  95 123 154 188 225 268
#     4  11  23  34  44  63  93 128 163 193 221 264
#     4   9  18  32  48  68  95 125 157 192 229 271
#     4   9  17  31  49  67  88 117 153 192 233 276
#     4  10  19  33  49  68  94 124 157 192 232 276
#     4   9  18  32  47  66  90 116 151 193 234 276
#     4   8  15  29  47  65  90 123 154 189 230 268
#     4  11  21  33  48  68  93 123 156 191 233 278
#
# _framework density 15.827367000000001
#
# number of rings (size 3 to 8) (size 9 to 14) (size 15 to 20)
#    0.000    2.500    1.250    2.250    0.000    5.750 
#    0.000    2.500    0.000    0.000    0.000    0.875 
#    0.000    0.000    0.000    0.000    0.000    0.000 
#
# Total GULP energy -793524.231196 kJ/mol
# GULP energy per Si atom -12398.816112 kJ/mol
# Density = 1.579134 g / cm^3
# Si number density = 15.827367 Si / 1000 Ang^3
#
#
#
# Elastic Constant Matrix: (Units=GPa)
#
#
# Indices 1 2 3 4 5 6 
#
# 1 68.4875 36.7464 45.6548 0.0000 0.0000 0.0000
# 2 36.7464 66.9710 30.5135 0.0000 0.0000 0.0000
# 3 45.6548 30.5135 94.9884 0.0000 0.0000 0.0000
# 4 0.0000 0.0000 0.0000 5.2180 0.0000 0.0000
# 5 0.0000 0.0000 0.0000 0.0000 29.2765 0.0000
# 6 0.0000 0.0000 0.0000 0.0000 0.0000 25.5630
#
#
#
# Elastic Compliance Matrix: (Units=1/GPa)
#
#
# Indices 1 2 3 4 5 6 
#
# 1 0.026305 -0.010160 -0.009379 0.000000 0.000000 0.000000
# 2 -0.010160 0.021416 -0.001996 0.000000 0.000000 0.000000
# 3 -0.009379 -0.001996 0.015677 0.000000 0.000000 0.000000
# 4 0.000000 0.000000 0.000000 0.191643 0.000000 0.000000
# 5 0.000000 0.000000 0.000000 0.000000 0.034157 0.000000
# 6 0.000000 0.000000 0.000000 0.000000 0.000000 0.039119
#
#
# Mechanical properties :
#
#
# Convention : Reuss Voigt Hill
#
# Bulk Modulus (GPa) = 49.19636 50.69739 49.94687
# Shear Modulus (GPa) = 13.22178 19.84697 16.53437
#
# Velocity S-wave (km/s) = 2.89342 3.54498 3.23564
# Velocity P-wave (km/s) = 6.50485 6.98977 6.75166
#
# Compressibility (1/GPa) = 0.02032671
#
# Stress axis : x y z
#
# Youngs Moduli (GPa) = 38.01594 46.69400 63.78783
#
# Poissons Ratio (x) = 0.47440 0.59829
# Poissons Ratio (y) = 0.38623 0.12735
# Poissons Ratio (z) = 0.35656 0.09322
#
# Static dielectric constant tensor:
#      x y z
#    x 3.108440 0.000000 0.000000 
#    y 0.000000 2.930450 0.000000 
#    z 0.000000 0.000000 3.053410 
# 
# 
# High freq. dielectric constant tensor:
#      x y z
#    x 1.613260 0.000000 0.000000 
#    y 0.000000 1.587590 0.000000 
#    z 0.000000 0.000000 1.596050 
# 
# From -- ./inp_files/21972.got.cif
#   From: 2010.03.12/outbox.cif.g09.slc.cpg/sg59_11_cif.got.tgz:21972.got - 2010.04.16 16:29:54.
