data_PCOD8241044
_publ_section_title
;
Structure prediction by ZEFSAII (Michael W. Deem and Ramdas Pophale) SiO2 
 PCOD8241044
Probable space group: P M M N
;
_chemical_formula_sum "Si O2"
_cell_formula_units_Z 44
_cell_length_a 13.548060
_cell_length_b 10.249891
_cell_length_c 16.485247
_cell_angle_alpha 90.000000
_cell_angle_beta 90.000000
_cell_angle_gamma 90.000000
_cell_volume 2289.242589
_symmetry_space_group_name_H-M "P M M N"
_symmetry_group_IT_number 59
_space_group.IT_coordinate_system_code '2'
_symmetry_cell_setting 'orthorhombic'
loop_
_space_group_symop_operation_xyz
x,y,z
1/2-x,1/2-y,z
1/2+x,-y,-z
-x,1/2+y,-z
-x,-y,-z
1/2+x,1/2+y,-z
1/2-x,y,z
x,1/2-y,z
loop_
_atom_site_type_symbol
_atom_site_label
_atom_site_fract_x
_atom_site_fract_y
_atom_site_fract_z
Si Si1 0.137848 0.750000 0.744006
Si Si2 0.356620 0.503237 0.851287
Si Si3 0.061332 0.895406 0.188409
Si Si4 0.509490 0.750000 0.597502
Si Si5 0.864158 0.511438 0.651827
Si Si6 0.913254 0.400374 0.986987
Si Si7 0.862385 0.250000 0.551365
O O1 0.250000 0.750000 0.713315
O O2 0.113270 0.875761 0.796174
O O3 0.069713 0.750000 0.667083
O O4 0.250000 0.442537 0.825020
O O5 0.445488 0.401810 0.837945
O O6 0.337652 0.556938 0.942939
O O7 0.081367 0.750000 0.221809
O O8 0.093166 0.998240 0.256793
O O9 0.125692 0.919009 0.105865
O O10 0.578017 0.622467 0.602745
O O11 0.447955 0.750000 0.514988
O O12 0.750000 0.551867 0.657362
O O13 0.878997 0.376525 0.605790
O O14 0.946473 0.250000 0.998944
O O15 0.000000 0.500000 0.000000
O O16 0.750000 0.250000 0.515475
#
# Coordination Sequence:
#
# PCOD8241044 Si02
#       7
#     4   8   8   4   8   8   4
#     4  10  19  31  54  84 110 143 191 238 284 338
#     4  10  19  33  53  81 115 151 197 247 290 337
#     4  10  20  36  57  83 115 158 197 237 291 348
#     4  12  22  40  64  88 118 149 188 235 295 339
#     4  11  23  40  62  89 119 152 192 235 283 344
#     4   9  18  31  51  77 108 150 197 241 286 334
#     4  10  23  43  66  90 116 146 185 233 291 357
#
# _framework density 19.220330000000001
#
# number of rings (size 3 to 8) (size 9 to 14) (size 15 to 20)
#    0.000    1.818    3.636    1.091    0.000    1.091 
#    0.000    1.818    0.000    1.091    0.000    0.000 
#    0.000    0.000    0.000    0.000    0.000    0.000 
#
# Total GULP energy -545145.659055 kJ/mol
# GULP energy per Si atom -12389.674069 kJ/mol
# Density = 1.917658 g / cm^3
# Si number density = 19.220330 Si / 1000 Ang^3
#
#
#
# Elastic Constant Matrix: (Units=GPa)
#
#
# Indices 1 2 3 4 5 6 
#
# 1 92.4310 31.8352 50.5483 0.0000 0.0000 0.0000
# 2 31.8352 86.0148 27.6547 0.0000 0.0000 0.0000
# 3 50.5483 27.6547 105.3131 0.0000 0.0000 0.0000
# 4 0.0000 0.0000 0.0000 22.5835 0.0000 0.0000
# 5 0.0000 0.0000 0.0000 0.0000 164.1489 0.0000
# 6 0.0000 0.0000 0.0000 0.0000 0.0000 43.7621
#
#
#
# Elastic Compliance Matrix: (Units=1/GPa)
#
#
# Indices 1 2 3 4 5 6 
#
# 1 0.015675 -0.003695 -0.006554 0.000000 0.000000 0.000000
# 2 -0.003695 0.013569 -0.001790 0.000000 0.000000 0.000000
# 3 -0.006554 -0.001790 0.013111 0.000000 0.000000 0.000000
# 4 0.000000 0.000000 0.000000 0.044280 0.000000 0.000000
# 5 0.000000 0.000000 0.000000 0.000000 0.006092 0.000000
# 6 0.000000 0.000000 0.000000 0.000000 0.000000 0.022851
#
#
# Mechanical properties :
#
#
# Convention : Reuss Voigt Hill
#
# Bulk Modulus (GPa) = 54.70706 55.98172 55.34439
# Shear Modulus (GPa) = 34.30589 57.68027 45.99308
#
# Velocity S-wave (km/s) = 4.22936 5.48408 4.89707
# Velocity P-wave (km/s) = 7.23705 8.32405 7.79951
#
# Compressibility (1/GPa) = 0.01827917
#
# Stress axis : x y z
#
# Youngs Moduli (GPa) = 63.79397 73.69881 76.27093
#
# Poissons Ratio (x) = 0.27229 0.49986
# Poissons Ratio (y) = 0.23569 0.13651
# Poissons Ratio (z) = 0.41809 0.13190
#
# Static dielectric constant tensor:
#      x y z
#    x 2.939490 0.000000 0.000000 
#    y 0.000000 3.445120 0.000000 
#    z 0.000000 0.000000 3.813330 
# 
# 
# High freq. dielectric constant tensor:
#      x y z
#    x 1.744340 0.000000 0.000000 
#    y 0.000000 1.744190 0.000000 
#    z 0.000000 0.000000 1.751240 
# 
# From -- ./inp_files/27333.got.cif
#   From: 2010.03.12/outbox.cif.g09.slc.cpg/sg59_14_cif.got.tgz:27333.got - 2010.04.16 16:29:54.
