data_PCOD8241043
_publ_section_title
;
Structure prediction by ZEFSAII (Michael W. Deem and Ramdas Pophale) SiO2 
 PCOD8241043
Probable space group: P M M N
;
_chemical_formula_sum "Si O2"
_cell_formula_units_Z 64
_cell_length_a 27.189673
_cell_length_b 10.124868
_cell_length_c 12.107510
_cell_angle_alpha 90.000000
_cell_angle_beta 90.000000
_cell_angle_gamma 90.000000
_cell_volume 3333.098828
_symmetry_space_group_name_H-M "P M M N"
_symmetry_group_IT_number 59
_space_group.IT_coordinate_system_code '2'
_symmetry_cell_setting 'orthorhombic'
loop_
_space_group_symop_operation_xyz
x,y,z
1/2-x,1/2-y,z
1/2+x,-y,-z
-x,1/2+y,-z
-x,-y,-z
1/2+x,1/2+y,-z
1/2-x,y,z
x,1/2-y,z
loop_
_atom_site_type_symbol
_atom_site_label
_atom_site_fract_x
_atom_site_fract_y
_atom_site_fract_z
Si Si1 0.693190 0.401168 0.774867
Si Si2 0.459333 0.101852 0.178238
Si Si3 0.360101 0.898862 0.438575
Si Si4 0.531551 0.892494 0.204606
Si Si5 0.142274 0.400939 0.812317
Si Si6 0.192638 0.597041 0.654437
Si Si7 0.031204 0.966121 0.394045
Si Si8 0.144179 0.099142 0.072647
O O1 0.750000 0.405695 0.743417
O O2 0.676950 0.250000 0.803072
O O3 0.662589 0.462978 0.672092
O O4 0.683464 0.496626 0.878379
O O5 0.474350 0.250000 0.147277
O O6 0.409327 0.059872 0.118493
O O7 0.454874 0.089294 0.312675
O O8 0.497607 0.996622 0.866192
O O9 0.340366 0.750000 0.438995
O O10 0.338215 0.962018 0.550530
O O11 0.418930 0.900146 0.437054
O O12 0.532212 0.750000 0.141866
O O13 0.587217 0.938026 0.226934
O O14 0.502983 0.869528 0.320829
O O15 0.155616 0.250000 0.778621
O O16 0.179712 0.504237 0.757977
O O17 0.145586 0.418850 0.942623
O O18 0.250000 0.584015 0.627618
O O19 0.178799 0.750000 0.681149
O O20 0.000000 0.000000 0.500000
O O21 0.157216 0.250000 0.106422
#
# Coordination Sequence:
#
# PCOD8241043 Si02
#       8
#     8   8   8   8   8   8   8   8
#     4  10  20  36  60  87 112 142 187 239 289 342
#     4   9  20  35  52  79 113 146 186 232 277 327
#     4  10  19  35  59  86 115 150 185 228 285 345
#     4   9  19  35  53  79 110 146 189 230 274 328
#     4  10  22  40  60  81 113 154 195 237 285 339
#     4  10  22  40  61  86 115 147 188 238 289 343
#     4  10  19  31  53  83 113 150 184 227 271 330
#     4  10  21  39  58  80 114 155 193 235 288 341
#
# _framework density 19.201350000000001
#
# number of rings (size 3 to 8) (size 9 to 14) (size 15 to 20)
#    0.750    1.500    1.250    1.500    0.000    5.500 
#    0.000    3.750    0.000    1.500    0.000    0.000 
#    0.000    0.000    0.000    0.000    0.000    0.000 
#
# Total GULP energy -793108.495775 kJ/mol
# GULP energy per Si atom -12392.320246 kJ/mol
# Density = 1.915765 g / cm^3
# Si number density = 19.201350 Si / 1000 Ang^3
#
#
#
# Elastic Constant Matrix: (Units=GPa)
#
#
# Indices 1 2 3 4 5 6 
#
# 1 94.7760 35.3906 38.8741 0.0000 0.0000 0.0000
# 2 35.3906 82.6792 32.4649 0.0000 0.0000 0.0000
# 3 38.8741 32.4649 91.5798 0.0000 0.0000 0.0000
# 4 0.0000 0.0000 0.0000 24.2773 0.0000 0.0000
# 5 0.0000 0.0000 0.0000 0.0000 23.5598 0.0000
# 6 0.0000 0.0000 0.0000 0.0000 0.0000 33.0497
#
#
#
# Elastic Compliance Matrix: (Units=1/GPa)
#
#
# Indices 1 2 3 4 5 6 
#
# 1 0.013944 -0.004234 -0.004418 0.000000 0.000000 0.000000
# 2 -0.004234 0.015336 -0.003639 0.000000 0.000000 0.000000
# 3 -0.004418 -0.003639 0.014085 0.000000 0.000000 0.000000
# 4 0.000000 0.000000 0.000000 0.041191 0.000000 0.000000
# 5 0.000000 0.000000 0.000000 0.000000 0.042445 0.000000
# 6 0.000000 0.000000 0.000000 0.000000 0.000000 0.030257
#
#
# Mechanical properties :
#
#
# Convention : Reuss Voigt Hill
#
# Bulk Modulus (GPa) = 53.24103 53.61046 53.42575
# Shear Modulus (GPa) = 26.58109 26.99771 26.78940
#
# Velocity S-wave (km/s) = 3.72470 3.75378 3.73927
# Velocity P-wave (km/s) = 6.80337 6.83875 6.82108
#
# Compressibility (1/GPa) = 0.01878251
#
# Stress axis : x y z
#
# Youngs Moduli (GPa) = 71.71307 65.20449 70.99703
#
# Poissons Ratio (x) = 0.27608 0.31368
# Poissons Ratio (y) = 0.30363 0.25839
# Poissons Ratio (z) = 0.31685 0.23731
#
# Static dielectric constant tensor:
#      x y z
#    x 3.446480 0.000000 0.000000 
#    y 0.000000 3.439380 0.000000 
#    z 0.000000 0.000000 3.406190 
# 
# 
# High freq. dielectric constant tensor:
#      x y z
#    x 1.749320 0.000000 0.000000 
#    y 0.000000 1.733680 0.000000 
#    z 0.000000 0.000000 1.739660 
# 
# From -- ./inp_files/13215.got.cif
#   From: 2010.03.12/outbox.cif.g09.slc.cpg/sg59_7_cif.got.tgz:13215.got - 2010.04.16 16:29:54.
