data_PCOD8241261
_publ_section_title
;
Structure prediction by ZEFSAII (Michael W. Deem and Ramdas Pophale) SiO2 
 PCOD8241261
Probable space group: P M M N
;
_chemical_formula_sum "Si O2"
_cell_formula_units_Z 40
_cell_length_a 17.211977
_cell_length_b 16.785464
_cell_length_c 7.747630
_cell_angle_alpha 90.000000
_cell_angle_beta 90.000000
_cell_angle_gamma 90.000000
_cell_volume 2238.375688
_symmetry_space_group_name_H-M "P M M N"
_symmetry_group_IT_number 59
_space_group.IT_coordinate_system_code '2'
_symmetry_cell_setting 'orthorhombic'
loop_
_space_group_symop_operation_xyz
x,y,z
1/2-x,1/2-y,z
1/2+x,-y,-z
-x,1/2+y,-z
-x,-y,-z
1/2+x,1/2+y,-z
1/2-x,y,z
x,1/2-y,z
loop_
_atom_site_type_symbol
_atom_site_label
_atom_site_fract_x
_atom_site_fract_y
_atom_site_fract_z
Si Si1 0.995574 0.840519 0.607258
Si Si2 0.554493 0.429259 0.064629
Si Si3 0.334677 0.339377 0.250110
Si Si4 0.478153 0.342329 0.772517
Si Si5 0.838371 0.937940 0.090444
O O1 0.019711 0.750000 0.653144
O O2 0.901946 0.850946 0.609923
O O3 0.019391 0.862160 0.411107
O O4 0.035643 0.898877 0.743297
O O5 0.640793 0.467473 0.074229
O O6 0.500000 0.500000 0.000000
O O7 0.541626 0.359824 0.923188
O O8 0.250000 0.355000 0.336055
O O9 0.338260 0.250000 0.172250
O O10 0.349660 0.400001 0.096485
O O11 0.454629 0.250000 0.781815
O O12 0.398963 0.393709 0.783829
O O13 0.750000 0.929071 0.158086
#
# Coordination Sequence:
#
# PCOD8241261 Si02
#       5
#     8   8   8   8   8
#     4  10  19  32  52  76 100 131 172 212 251 296
#     4  10  19  33  51  73 104 136 167 210 252 303
#     4   9  16  28  46  69 102 136 162 196 246 301
#     4  10  20  33  55  79  99 132 173 212 254 300
#     4  10  20  33  50  75 105 136 166 202 253 309
#
# _framework density 17.870100999999998
#
# number of rings (size 3 to 8) (size 9 to 14) (size 15 to 20)
#    0.000    2.200    4.000    1.200    0.000    5.200 
#    0.000    2.000    0.000    2.400    0.000    2.800 
#    0.000    0.000    0.000    0.000    0.000    0.000 
#
# Total GULP energy -495633.979606 kJ/mol
# GULP energy per Si atom -12390.849490 kJ/mol
# Density = 1.782943 g / cm^3
# Si number density = 17.870101 Si / 1000 Ang^3
#
#
#
# Elastic Constant Matrix: (Units=GPa)
#
#
# Indices 1 2 3 4 5 6 
#
# 1 48.7436 41.5883 27.0071 0.0000 0.0000 0.0000
# 2 41.5883 74.4681 41.2976 0.0000 0.0000 0.0000
# 3 27.0071 41.2976 100.4730 0.0000 0.0000 0.0000
# 4 0.0000 0.0000 0.0000 21.1223 0.0000 0.0000
# 5 0.0000 0.0000 0.0000 0.0000 14.9225 0.0000
# 6 0.0000 0.0000 0.0000 0.0000 0.0000 26.8979
#
#
#
# Elastic Compliance Matrix: (Units=1/GPa)
#
#
# Indices 1 2 3 4 5 6 
#
# 1 0.039499 -0.020945 -0.002008 0.000000 0.000000 0.000000
# 2 -0.020945 0.028500 -0.006084 0.000000 0.000000 0.000000
# 3 -0.002008 -0.006084 0.012994 0.000000 0.000000 0.000000
# 4 0.000000 0.000000 0.000000 0.047343 0.000000 0.000000
# 5 0.000000 0.000000 0.000000 0.000000 0.067013 0.000000
# 6 0.000000 0.000000 0.000000 0.000000 0.000000 0.037178
#
#
# Mechanical properties :
#
#
# Convention : Reuss Voigt Hill
#
# Bulk Modulus (GPa) = 43.63581 49.27452 46.45516
# Shear Modulus (GPa) = 16.76497 20.17465 18.46981
#
# Velocity S-wave (km/s) = 3.06626 3.36365 3.21839
# Velocity P-wave (km/s) = 6.08336 6.53598 6.31373
#
# Compressibility (1/GPa) = 0.02291696
#
# Stress axis : x y z
#
# Youngs Moduli (GPa) = 25.31725 35.08757 76.96118
#
# Poissons Ratio (x) = 0.73492 0.15454
# Poissons Ratio (y) = 0.53028 0.46826
# Poissons Ratio (z) = 0.05084 0.21349
#
# Static dielectric constant tensor:
#      x y z
#    x 3.444030 0.000000 0.000000 
#    y 0.000000 3.581330 0.000000 
#    z 0.000000 0.000000 3.264420 
# 
# 
# High freq. dielectric constant tensor:
#      x y z
#    x 1.656780 0.000000 0.000000 
#    y 0.000000 1.691040 0.000000 
#    z 0.000000 0.000000 1.685750 
# 
# From -- ./inp_files/8804.got.cif
#   From: 2010.03.12/outbox.cif.g09.slc.cpg/sg59_5_cif.got.tgz:8804.got - 2010.04.16 16:29:54.
