data_PCOD8241957
_publ_section_title
;
Structure prediction by ZEFSAII (Michael W. Deem and Ramdas Pophale) SiO2 
 PCOD8241957
Probable space group: P M M N
;
_chemical_formula_sum "Si O2"
_cell_formula_units_Z 56
_cell_length_a 14.047877
_cell_length_b 14.239942
_cell_length_c 14.811583
_cell_angle_alpha 90.000000
_cell_angle_beta 90.000000
_cell_angle_gamma 90.000000
_cell_volume 2962.923189
_symmetry_space_group_name_H-M "P M M N"
_symmetry_group_IT_number 59
_space_group.IT_coordinate_system_code '2'
_symmetry_cell_setting 'orthorhombic'
loop_
_space_group_symop_operation_xyz
x,y,z
1/2-x,1/2-y,z
1/2+x,-y,-z
-x,1/2+y,-z
-x,-y,-z
1/2+x,1/2+y,-z
1/2-x,y,z
x,1/2-y,z
loop_
_atom_site_type_symbol
_atom_site_label
_atom_site_fract_x
_atom_site_fract_y
_atom_site_fract_z
Si Si1 0.498282 0.352893 0.844562
Si Si2 0.362265 0.975343 0.819108
Si Si3 0.859088 0.645736 0.816375
Si Si4 0.863154 0.355114 0.347973
Si Si5 0.012821 0.602095 0.961853
Si Si6 0.862973 0.355392 0.547636
Si Si7 0.138272 0.540375 0.278615
O O1 0.473541 0.250000 0.803906
O O2 0.408942 0.422251 0.830437
O O3 0.590902 0.395440 0.797414
O O4 0.524523 0.334015 0.949948
O O5 0.250000 0.987987 0.823691
O O6 0.399255 0.931151 0.724635
O O7 0.394991 0.901313 0.896437
O O8 0.750000 0.631037 0.846482
O O9 0.874659 0.750000 0.775149
O O10 0.920661 0.634069 0.906250
O O11 0.886972 0.569072 0.739979
O O12 0.750000 0.353448 0.346225
O O13 0.900525 0.250000 0.324039
O O14 0.900138 0.384664 0.447901
O O15 0.000000 0.500000 0.000000
O O16 0.750000 0.356215 0.546414
O O17 0.898771 0.250000 0.571443
O O18 0.900878 0.429161 0.622572
O O19 0.250000 0.559416 0.271753
#
# Coordination Sequence:
#
# PCOD8241957 Si02
#       7
#     8   8   8   8   8   8   8
#     4  11  23  38  54  78 110 146 182 220 269 325
#     4  10  21  37  56  80 109 144 184 227 270 313
#     4  10  20  35  57  80 105 141 180 218 267 328
#     4   8  15  30  53  80 107 138 181 226 268 315
#     4  10  20  37  53  77 105 140 178 224 268 309
#     4   8  14  27  51  81 109 139 175 218 269 322
#     4  10  19  34  56  82 110 139 174 222 275 323
#
# _framework density 18.900254
#
# number of rings (size 3 to 8) (size 9 to 14) (size 15 to 20)
#    0.000    2.429    2.857    1.714    0.000    5.143 
#    0.000    0.714    0.000    0.857    0.000    4.000 
#    0.000    0.000    0.000    0.000    0.000    0.000 
#
# Total GULP energy -693898.416736 kJ/mol
# GULP energy per Si atom -12391.043156 kJ/mol
# Density = 1.885724 g / cm^3
# Si number density = 18.900254 Si / 1000 Ang^3
#
#
#
# Elastic Constant Matrix: (Units=GPa)
#
#
# Indices 1 2 3 4 5 6 
#
# 1 60.1503 35.5469 37.9207 0.0000 0.0000 0.0000
# 2 35.5469 141.5528 73.4882 0.0000 0.0000 0.0000
# 3 37.9207 73.4882 145.5936 0.0000 0.0000 0.0000
# 4 0.0000 0.0000 0.0000 28.1700 0.0000 0.0000
# 5 0.0000 0.0000 0.0000 0.0000 19.1727 0.0000
# 6 0.0000 0.0000 0.0000 0.0000 0.0000 16.4536
#
#
#
# Elastic Compliance Matrix: (Units=1/GPa)
#
#
# Indices 1 2 3 4 5 6 
#
# 1 0.020966 -0.003293 -0.003799 0.000000 0.000000 0.000000
# 2 -0.003293 0.010090 -0.004235 0.000000 0.000000 0.000000
# 3 -0.003799 -0.004235 0.009996 0.000000 0.000000 0.000000
# 4 0.000000 0.000000 0.000000 0.035499 0.000000 0.000000
# 5 0.000000 0.000000 0.000000 0.000000 0.052157 0.000000
# 6 0.000000 0.000000 0.000000 0.000000 0.000000 0.060777
#
#
# Mechanical properties :
#
#
# Convention : Reuss Voigt Hill
#
# Bulk Modulus (GPa) = 54.35401 71.24537 62.79969
# Shear Modulus (GPa) = 22.90729 26.11532 24.51130
#
# Velocity S-wave (km/s) = 3.48517 3.72121 3.60512
# Velocity P-wave (km/s) = 6.70940 7.49937 7.11535
#
# Compressibility (1/GPa) = 0.01839791
#
# Stress axis : x y z
#
# Youngs Moduli (GPa) = 47.69684 99.10558 100.04404
#
# Poissons Ratio (x) = 0.32634 0.38002
# Poissons Ratio (y) = 0.15706 0.42373
# Poissons Ratio (z) = 0.18118 0.41975
#
# Static dielectric constant tensor:
#      x y z
#    x 3.193170 0.000000 0.000000 
#    y 0.000000 3.685990 0.000000 
#    z 0.000000 0.000000 3.990550 
# 
# 
# High freq. dielectric constant tensor:
#      x y z
#    x 1.708340 0.000000 0.000000 
#    y 0.000000 1.736880 0.000000 
#    z 0.000000 0.000000 1.736420 
# 
# From -- ./inp_files/23303.got.cif
#   From: 2010.03.12/outbox.cif.g09.slc.cpg/sg59_12_cif.got.tgz:23303.got - 2010.04.16 16:29:54.
