data_PCOD8241499
_publ_section_title
;
Structure prediction by ZEFSAII (Michael W. Deem and Ramdas Pophale) SiO2 
 PCOD8241499
Probable space group: P M M N
;
_chemical_formula_sum "Si O2"
_cell_formula_units_Z 56
_cell_length_a 9.104212
_cell_length_b 21.452921
_cell_length_c 16.987806
_cell_angle_alpha 90.000000
_cell_angle_beta 90.000000
_cell_angle_gamma 90.000000
_cell_volume 3317.921360
_symmetry_space_group_name_H-M "P M M N"
_symmetry_group_IT_number 59
_space_group.IT_coordinate_system_code '2'
_symmetry_cell_setting 'orthorhombic'
loop_
_space_group_symop_operation_xyz
x,y,z
1/2-x,1/2-y,z
1/2+x,-y,-z
-x,1/2+y,-z
-x,-y,-z
1/2+x,1/2+y,-z
1/2-x,y,z
x,1/2-y,z
loop_
_atom_site_type_symbol
_atom_site_label
_atom_site_fract_x
_atom_site_fract_y
_atom_site_fract_z
Si Si1 0.577533 0.474415 0.377996
Si Si2 0.423941 0.941265 0.958704
Si Si3 0.078133 0.820255 0.053677
Si Si4 0.583006 0.418205 0.533982
Si Si5 0.076639 0.374381 0.800457
Si Si6 0.082076 0.820335 0.344585
Si Si7 0.923352 0.484902 0.205803
O O1 0.750000 0.483033 0.368881
O O2 0.537132 0.419942 0.441157
O O3 0.516896 0.538494 0.412160
O O4 0.511172 0.461316 0.290264
O O5 0.250000 0.950615 0.967833
O O6 0.472348 0.940660 0.866495
O O7 0.475122 0.874265 0.993197
O O8 0.500000 0.000000 0.000000
O O9 0.250000 0.827276 0.069551
O O10 0.042593 0.750000 0.021738
O O11 0.996503 0.829047 0.136071
O O12 0.750000 0.442641 0.541598
O O13 0.566467 0.348733 0.567611
O O14 0.250000 0.367142 0.807187
O O15 0.023182 0.445159 0.814406
O O16 0.025626 0.355388 0.714109
O O17 0.250000 0.826141 0.314447
O O18 0.029823 0.750000 0.351671
O O19 0.750000 0.485237 0.212455
#
# Coordination Sequence:
#
# PCOD8241499 Si02
#       7
#     8   8   8   8   8   8   8
#     4   9  16  29  47  66  89 115 143 186 233 268
#     4  10  19  33  51  70  94 124 159 197 238 285
#     4  10  21  35  50  69  96 130 162 195 238 289
#     4   9  17  28  45  66  87 117 154 183 218 268
#     4  11  20  31  48  71  97 125 159 194 233 282
#     4  10  20  32  44  63  96 131 158 186 224 275
#     4   9  17  29  47  70  95 119 147 192 241 276
#
# _framework density 16.878038
#
# number of rings (size 3 to 8) (size 9 to 14) (size 15 to 20)
#    0.000    2.286    2.857    0.857    0.000    2.286 
#    0.000    0.714    0.000    0.857    0.000    6.000 
#    0.000    0.000    0.000    5.857    0.000    6.857 
#
# Total GULP energy -693947.679832 kJ/mol
# GULP energy per Si atom -12391.922854 kJ/mol
# Density = 1.683962 g / cm^3
# Si number density = 16.878038 Si / 1000 Ang^3
#
#
#
# Elastic Constant Matrix: (Units=GPa)
#
#
# Indices 1 2 3 4 5 6 
#
# 1 23.7193 24.4195 20.9580 0.0000 0.0000 0.0000
# 2 24.4195 99.2385 57.9040 0.0000 0.0000 0.0000
# 3 20.9580 57.9040 134.8031 0.0000 0.0000 0.0000
# 4 0.0000 0.0000 0.0000 24.7727 0.0000 0.0000
# 5 0.0000 0.0000 0.0000 0.0000 18.4077 0.0000
# 6 0.0000 0.0000 0.0000 0.0000 0.0000 17.4950
#
#
#
# Elastic Compliance Matrix: (Units=1/GPa)
#
#
# Indices 1 2 3 4 5 6 
#
# 1 0.057921 -0.012008 -0.003847 0.000000 0.000000 0.000000
# 2 -0.012008 0.015936 -0.004979 0.000000 0.000000 0.000000
# 3 -0.003847 -0.004979 0.010155 0.000000 0.000000 0.000000
# 4 0.000000 0.000000 0.000000 0.040367 0.000000 0.000000
# 5 0.000000 0.000000 0.000000 0.000000 0.054325 0.000000
# 6 0.000000 0.000000 0.000000 0.000000 0.000000 0.057159
#
#
# Mechanical properties :
#
#
# Convention : Reuss Voigt Hill
#
# Bulk Modulus (GPa) = 23.61529 51.59154 37.60342
# Shear Modulus (GPa) = 17.14405 22.43370 19.78888
#
# Velocity S-wave (km/s) = 3.19056 3.64973 3.42784
# Velocity P-wave (km/s) = 5.25309 6.95660 6.16398
#
# Compressibility (1/GPa) = 0.04234545
#
# Stress axis : x y z
#
# Youngs Moduli (GPa) = 17.26479 62.74947 98.47515
#
# Poissons Ratio (x) = 0.75349 0.37885
# Poissons Ratio (y) = 0.20731 0.49026
# Poissons Ratio (z) = 0.06642 0.31240
#
# Static dielectric constant tensor:
#      x y z
#    x 3.035090 0.000000 0.000000 
#    y 0.000000 3.188290 0.000000 
#    z 0.000000 0.000000 3.603190 
# 
# 
# High freq. dielectric constant tensor:
#      x y z
#    x 1.636170 0.000000 0.000000 
#    y 0.000000 1.629120 0.000000 
#    z 0.000000 0.000000 1.656990 
# 
# From -- ./inp_files/26005.got.cif
#   From: 2010.03.12/outbox.cif.g09.slc.cpg/sg59_14_cif.got.tgz:26005.got - 2010.04.16 16:29:54.
