data_PCOD8241633
_publ_section_title
;
Structure prediction by ZEFSAII (Michael W. Deem and Ramdas Pophale) SiO2 
 PCOD8241633
Probable space group: P M M N
;
_chemical_formula_sum "Si O2"
_cell_formula_units_Z 48
_cell_length_a 8.918707
_cell_length_b 18.246500
_cell_length_c 15.578705
_cell_angle_alpha 90.000000
_cell_angle_beta 90.000000
_cell_angle_gamma 90.000000
_cell_volume 2535.203476
_symmetry_space_group_name_H-M "P M M N"
_symmetry_group_IT_number 59
_space_group.IT_coordinate_system_code '2'
_symmetry_cell_setting 'orthorhombic'
loop_
_space_group_symop_operation_xyz
x,y,z
1/2-x,1/2-y,z
1/2+x,-y,-z
-x,1/2+y,-z
-x,-y,-z
1/2+x,1/2+y,-z
1/2-x,y,z
x,1/2-y,z
loop_
_atom_site_type_symbol
_atom_site_label
_atom_site_fract_x
_atom_site_fract_y
_atom_site_fract_z
Si Si1 0.416662 0.337066 0.013696
Si Si2 0.071591 0.424529 0.666157
Si Si3 0.071569 0.168245 0.825939
Si Si4 0.571910 0.832195 0.496336
Si Si5 0.427270 0.082394 0.336313
Si Si6 0.921368 0.336614 0.182487
O O1 0.250000 0.368925 0.031481
O O2 0.407508 0.250000 0.011797
O O3 0.528720 0.363987 0.088008
O O4 0.477340 0.362497 0.919920
O O5 0.250000 0.431352 0.666388
O O6 0.010950 0.386110 0.752818
O O7 0.013795 0.376750 0.585982
O O8 0.001988 0.503862 0.659338
O O9 0.250000 0.172503 0.822545
O O10 0.006275 0.250000 0.809686
O O11 0.750000 0.828779 0.495828
O O12 0.505220 0.750000 0.493281
O O13 0.513800 0.871546 0.582298
O O14 0.250000 0.073215 0.337926
O O15 0.473703 0.124589 0.250948
O O16 0.750000 0.360321 0.196740
O O17 0.943155 0.250000 0.191754
#
# Coordination Sequence:
#
# PCOD8241633 Si02
#       6
#     8   8   8   8   8   8
#     4   8  14  27  49  76 103 130 163 205 254 306
#     4  10  19  33  54  78 105 134 167 210 255 300
#     4   8  14  27  51  80 104 130 168 211 254 303
#     4   9  18  33  55  80 101 128 170 214 254 300
#     4  11  22  35  51  73 106 143 174 205 248 304
#     4  10  20  34  53  77 102 130 170 217 259 298
#
# _framework density 18.933392000000001
#
# number of rings (size 3 to 8) (size 9 to 14) (size 15 to 20)
#    0.000    2.667    0.000    3.500    0.000    3.667 
#    0.000    2.500    0.000    5.000    0.000    0.000 
#    0.000    0.000    0.000    0.000    0.000    0.000 
#
# Total GULP energy -595097.660213 kJ/mol
# GULP energy per Si atom -12397.867921 kJ/mol
# Density = 1.889030 g / cm^3
# Si number density = 18.933392 Si / 1000 Ang^3
#
#
#
# Elastic Constant Matrix: (Units=GPa)
#
#
# Indices 1 2 3 4 5 6 
#
# 1 31.3627 22.6082 25.5122 0.0000 0.0000 0.0000
# 2 22.6082 96.1073 68.1102 0.0000 0.0000 0.0000
# 3 25.5122 68.1102 172.8428 0.0000 0.0000 0.0000
# 4 0.0000 0.0000 0.0000 15.3759 0.0000 0.0000
# 5 0.0000 0.0000 0.0000 0.0000 11.9189 0.0000
# 6 0.0000 0.0000 0.0000 0.0000 0.0000 24.7676
#
#
#
# Elastic Compliance Matrix: (Units=1/GPa)
#
#
# Indices 1 2 3 4 5 6 
#
# 1 0.039492 -0.007158 -0.003009 0.000000 0.000000 0.000000
# 2 -0.007158 0.015734 -0.005144 0.000000 0.000000 0.000000
# 3 -0.003009 -0.005144 0.008257 0.000000 0.000000 0.000000
# 4 0.000000 0.000000 0.000000 0.065037 0.000000 0.000000
# 5 0.000000 0.000000 0.000000 0.000000 0.083900 0.000000
# 6 0.000000 0.000000 0.000000 0.000000 0.000000 0.040375
#
#
# Mechanical properties :
#
#
# Convention : Reuss Voigt Hill
#
# Bulk Modulus (GPa) = 30.42970 59.19712 44.81341
# Shear Modulus (GPa) = 16.98542 22.68462 19.83502
#
# Velocity S-wave (km/s) = 2.99844 3.46515 3.24021
# Velocity P-wave (km/s) = 5.30041 6.88067 6.14158
#
# Compressibility (1/GPa) = 0.03286263
#
# Stress axis : x y z
#
# Youngs Moduli (GPa) = 25.32139 63.55623 121.11592
#
# Poissons Ratio (x) = 0.45494 0.36438
# Poissons Ratio (y) = 0.18125 0.62297
# Poissons Ratio (z) = 0.07618 0.32691
#
# Static dielectric constant tensor:
#      x y z
#    x 3.137570 0.000000 0.000000 
#    y 0.000000 3.409600 0.000000 
#    z 0.000000 0.000000 3.931590 
# 
# 
# High freq. dielectric constant tensor:
#      x y z
#    x 1.698340 0.000000 0.000000 
#    y 0.000000 1.720570 0.000000 
#    z 0.000000 0.000000 1.757820 
# 
# From -- ./inp_files/20453.got.cif
#   From: 2010.03.12/outbox.cif.g09.slc.cpg/sg59_11_cif.got.tgz:20453.got - 2010.04.16 16:29:54.
