data_PCOD8241649
_publ_section_title
;
Structure prediction by ZEFSAII (Michael W. Deem and Ramdas Pophale) SiO2 
 PCOD8241649
Probable space group: P M M N
;
_chemical_formula_sum "Si O2"
_cell_formula_units_Z 64
_cell_length_a 9.065345
_cell_length_b 20.856622
_cell_length_c 17.656654
_cell_angle_alpha 90.000000
_cell_angle_beta 90.000000
_cell_angle_gamma 90.000000
_cell_volume 3338.387254
_symmetry_space_group_name_H-M "P M M N"
_symmetry_group_IT_number 59
_space_group.IT_coordinate_system_code '2'
_symmetry_cell_setting 'orthorhombic'
loop_
_space_group_symop_operation_xyz
x,y,z
1/2-x,1/2-y,z
1/2+x,-y,-z
-x,1/2+y,-z
-x,-y,-z
1/2+x,1/2+y,-z
1/2-x,y,z
x,1/2-y,z
loop_
_atom_site_type_symbol
_atom_site_label
_atom_site_fract_x
_atom_site_fract_y
_atom_site_fract_z
Si Si1 0.576598 0.427885 0.080552
Si Si2 0.924432 0.322858 0.200439
Si Si3 0.925348 0.677264 0.198865
Si Si4 0.416750 0.141351 0.352562
Si Si5 0.417716 0.498756 0.418969
Si Si6 0.573461 0.891942 0.349516
Si Si7 0.415314 0.320376 0.508041
Si Si8 0.076443 0.426709 0.922457
O O1 0.750000 0.420130 0.068987
O O2 0.515828 0.375075 0.139898
O O3 0.538306 0.500984 0.106960
O O4 0.500358 0.412386 0.001514
O O5 0.750000 0.326301 0.203745
O O6 0.975599 0.250000 0.179613
O O7 0.982808 0.343614 0.281611
O O8 0.750000 0.678740 0.198477
O O9 0.985949 0.750000 0.185476
O O10 0.983068 0.650288 0.279140
O O11 0.983096 0.627303 0.135592
O O12 0.250000 0.163855 0.333134
O O13 0.487644 0.179319 0.424660
O O14 0.421201 0.068958 0.378954
O O15 0.500000 0.500000 0.500000
O O16 0.250000 0.522052 0.432271
O O17 0.500274 0.538641 0.352635
O O18 0.750000 0.896384 0.347829
O O19 0.507716 0.862448 0.427660
O O20 0.250000 0.348146 0.496221
O O21 0.411754 0.250000 0.542805
O O22 0.250000 0.419793 0.934137
#
# Coordination Sequence:
#
# PCOD8241649 Si02
#       8
#     8   8   8   8   8   8   8   8
#     4   9  19  36  56  79 109 144 180 219 269 329
#     4  10  22  38  56  81 112 144 180 223 272 327
#     4   9  18  32  54  85 114 141 181 228 269 319
#     4  10  21  36  53  77 107 141 182 226 269 318
#     4  11  22  37  55  79 107 139 183 231 277 324
#     4  10  19  33  54  79 108 142 180 221 271 323
#     4   9  16  29  50  73 100 137 179 219 259 310
#     4   9  18  34  56  82 110 141 181 225 268 316
#
# _framework density 19.170933999999999
#
# number of rings (size 3 to 8) (size 9 to 14) (size 15 to 20)
#    0.000    2.375    1.250    1.125    1.750    4.250 
#    0.000    0.625    0.000    2.250    0.000    0.000 
#    0.000    0.000    0.000    0.000    0.000    0.000 
#
# Total GULP energy -793027.179447 kJ/mol
# GULP energy per Si atom -12391.049679 kJ/mol
# Density = 1.912730 g / cm^3
# Si number density = 19.170934 Si / 1000 Ang^3
#
#
#
# Elastic Constant Matrix: (Units=GPa)
#
#
# Indices 1 2 3 4 5 6 
#
# 1 25.1621 27.3148 28.9207 0.0000 0.0000 0.0000
# 2 27.3148 132.6792 74.3985 0.0000 0.0000 0.0000
# 3 28.9207 74.3985 133.9483 0.0000 0.0000 0.0000
# 4 0.0000 0.0000 0.0000 32.9473 0.0000 0.0000
# 5 0.0000 0.0000 0.0000 0.0000 26.2845 0.0000
# 6 0.0000 0.0000 0.0000 0.0000 0.0000 18.8275
#
#
#
# Elastic Compliance Matrix: (Units=1/GPa)
#
#
# Indices 1 2 3 4 5 6 
#
# 1 0.057038 -0.007025 -0.008413 0.000000 0.000000 0.000000
# 2 -0.007025 0.011811 -0.005044 0.000000 0.000000 0.000000
# 3 -0.008413 -0.005044 0.012083 0.000000 0.000000 0.000000
# 4 0.000000 0.000000 0.000000 0.030351 0.000000 0.000000
# 5 0.000000 0.000000 0.000000 0.000000 0.038045 0.000000
# 6 0.000000 0.000000 0.000000 0.000000 0.000000 0.053114
#
#
# Mechanical properties :
#
#
# Convention : Reuss Voigt Hill
#
# Bulk Modulus (GPa) = 25.01908 61.45084 43.23496
# Shear Modulus (GPa) = 19.47570 26.35558 22.91564
#
# Velocity S-wave (km/s) = 3.19077 3.71181 3.46111
# Velocity P-wave (km/s) = 5.16271 7.10590 6.21077
#
# Compressibility (1/GPa) = 0.03996950
#
# Stress axis : x y z
#
# Youngs Moduli (GPa) = 17.53210 84.66442 82.75811
#
# Poissons Ratio (x) = 0.59476 0.69627
# Poissons Ratio (y) = 0.12316 0.41740
# Poissons Ratio (z) = 0.14750 0.42701
#
# Static dielectric constant tensor:
#      x y z
#    x 3.236270 0.000000 0.000000 
#    y 0.000000 3.875360 0.000000 
#    z 0.000000 0.000000 3.700960 
# 
# 
# High freq. dielectric constant tensor:
#      x y z
#    x 1.706190 0.000000 0.000000 
#    y 0.000000 1.764110 0.000000 
#    z 0.000000 0.000000 1.747140 
# 
# From -- ./inp_files/26280.got.cif
#   From: 2010.03.12/outbox.cif.g09.slc.cpg/sg59_14_cif.got.tgz:26280.got - 2010.04.16 16:29:54.
