data_PCOD8241468
_publ_section_title
;
Structure prediction by ZEFSAII (Michael W. Deem and Ramdas Pophale) SiO2 
 PCOD8241468
Probable space group: P M M N
;
_chemical_formula_sum "Si O2"
_cell_formula_units_Z 64
_cell_length_a 8.865933
_cell_length_b 21.797456
_cell_length_c 16.547254
_cell_angle_alpha 90.000000
_cell_angle_beta 90.000000
_cell_angle_gamma 90.000000
_cell_volume 3197.836005
_symmetry_space_group_name_H-M "P M M N"
_symmetry_group_IT_number 59
_space_group.IT_coordinate_system_code '2'
_symmetry_cell_setting 'orthorhombic'
loop_
_space_group_symop_operation_xyz
x,y,z
1/2-x,1/2-y,z
1/2+x,-y,-z
-x,1/2+y,-z
-x,-y,-z
1/2+x,1/2+y,-z
1/2-x,y,z
x,1/2-y,z
loop_
_atom_site_type_symbol
_atom_site_label
_atom_site_fract_x
_atom_site_fract_y
_atom_site_fract_z
Si Si1 0.419309 0.682448 0.856398
Si Si2 0.070950 0.920580 0.979588
Si Si3 0.573694 0.444429 0.409254
Si Si4 0.077101 0.490012 0.156958
Si Si5 0.927617 0.320586 0.711287
Si Si6 0.079077 0.377150 0.275283
Si Si7 0.572171 0.606884 0.151780
Si Si8 0.072658 0.929145 0.407308
O O1 0.250000 0.665259 0.830161
O O2 0.430619 0.750000 0.893644
O O3 0.475686 0.637558 0.925669
O O4 0.519887 0.680936 0.774820
O O5 0.250000 0.933648 0.980183
O O6 0.982905 0.977461 0.935377
O O7 0.013489 0.900291 0.066950
O O8 0.750000 0.454387 0.403874
O O9 0.520887 0.387958 0.354256
O O10 0.497683 0.506992 0.376110
O O11 0.523725 0.424246 0.499095
O O12 0.250000 0.511355 0.150283
O O13 0.056333 0.432842 0.213889
O O14 0.976486 0.544090 0.197601
O O15 0.750000 0.327662 0.725693
O O16 0.967007 0.250000 0.686645
O O17 0.983252 0.368377 0.641369
O O18 0.012607 0.335962 0.795297
O O19 0.250000 0.367447 0.302702
O O20 0.750000 0.613032 0.139246
O O21 0.250000 0.935678 0.396470
#
# Coordination Sequence:
#
# PCOD8241468 Si02
#       8
#     8   8   8   8   8   8   8   8
#     4   9  19  36  56  76 100 134 176 219 261 308
#     4  10  20  35  55  79 107 140 180 226 275 324
#     4  10  19  32  55  86 115 141 173 216 267 322
#     4  10  20  35  54  78 110 145 180 221 271 322
#     4  10  22  41  61  78 102 141 187 230 271 319
#     4  10  20  33  52  79 110 142 174 211 258 313
#     4  12  24  36  53  79 109 140 177 222 271 323
#     4   9  19  36  57  82 110 140 176 220 270 321
#
# _framework density 20.013532999999999
#
# number of rings (size 3 to 8) (size 9 to 14) (size 15 to 20)
#    0.000    2.000    0.000    3.750    0.000    7.000 
#    0.000    1.875    0.000    2.250    0.000    0.000 
#    0.000    0.000    0.000    0.000    0.000    0.000 
#
# Total GULP energy -793350.365286 kJ/mol
# GULP energy per Si atom -12396.099458 kJ/mol
# Density = 1.996798 g / cm^3
# Si number density = 20.013533 Si / 1000 Ang^3
#
#
#
# Elastic Constant Matrix: (Units=GPa)
#
#
# Indices 1 2 3 4 5 6 
#
# 1 59.1930 21.3626 26.1115 0.0000 0.0000 0.0000
# 2 21.3626 76.6837 24.9218 0.0000 0.0000 0.0000
# 3 26.1115 24.9218 76.2528 0.0000 0.0000 0.0000
# 4 0.0000 0.0000 0.0000 20.0189 0.0000 0.0000
# 5 0.0000 0.0000 0.0000 0.0000 29.0221 0.0000
# 6 0.0000 0.0000 0.0000 0.0000 0.0000 26.1881
#
#
#
# Elastic Compliance Matrix: (Units=1/GPa)
#
#
# Indices 1 2 3 4 5 6 
#
# 1 0.020898 -0.003912 -0.005878 0.000000 0.000000 0.000000
# 2 -0.003912 0.015322 -0.003668 0.000000 0.000000 0.000000
# 3 -0.005878 -0.003668 0.016326 0.000000 0.000000 0.000000
# 4 0.000000 0.000000 0.000000 0.049953 0.000000 0.000000
# 5 0.000000 0.000000 0.000000 0.000000 0.034457 0.000000
# 6 0.000000 0.000000 0.000000 0.000000 0.000000 0.038185
#
#
# Mechanical properties :
#
#
# Convention : Reuss Voigt Hill
#
# Bulk Modulus (GPa) = 39.01504 39.65791 39.33647
# Shear Modulus (GPa) = 23.74156 24.36138 24.05147
#
# Velocity S-wave (km/s) = 3.44797 3.49269 3.47040
# Velocity P-wave (km/s) = 5.94878 6.01030 5.97962
#
# Compressibility (1/GPa) = 0.02563114
#
# Stress axis : x y z
#
# Youngs Moduli (GPa) = 47.85039 65.26355 61.25200
#
# Poissons Ratio (x) = 0.25529 0.36003
# Poissons Ratio (y) = 0.18717 0.22470
# Poissons Ratio (z) = 0.28126 0.23941
#
# Static dielectric constant tensor:
#      x y z
#    x 3.631900 0.000000 0.000000 
#    y 0.000000 3.741550 0.000000 
#    z 0.000000 0.000000 3.788600 
# 
# 
# High freq. dielectric constant tensor:
#      x y z
#    x 1.779370 0.000000 0.000000 
#    y 0.000000 1.770550 0.000000 
#    z 0.000000 0.000000 1.784640 
# 
# From -- ./inp_files/21475.got.cif
#   From: 2010.03.12/outbox.cif.g09.slc.cpg/sg59_11_cif.got.tgz:21475.got - 2010.04.16 16:29:54.
