data_PCOD8241789
_publ_section_title
;
Structure prediction by ZEFSAII (Michael W. Deem and Ramdas Pophale) SiO2 
 PCOD8241789
Probable space group: P M M N
;
_chemical_formula_sum "Si O2"
_cell_formula_units_Z 64
_cell_length_a 8.913566
_cell_length_b 17.819884
_cell_length_c 21.456056
_cell_angle_alpha 90.000000
_cell_angle_beta 90.000000
_cell_angle_gamma 90.000000
_cell_volume 3408.052303
_symmetry_space_group_name_H-M "P M M N"
_symmetry_group_IT_number 59
_space_group.IT_coordinate_system_code '2'
_symmetry_cell_setting 'orthorhombic'
loop_
_space_group_symop_operation_xyz
x,y,z
1/2-x,1/2-y,z
1/2+x,-y,-z
-x,1/2+y,-z
-x,-y,-z
1/2+x,1/2+y,-z
1/2-x,y,z
x,1/2-y,z
loop_
_atom_site_type_symbol
_atom_site_label
_atom_site_fract_x
_atom_site_fract_y
_atom_site_fract_z
Si Si1 0.573830 0.162743 0.733553
Si Si2 0.572162 0.524765 0.935925
Si Si3 0.924222 0.164660 0.120014
Si Si4 0.422863 0.836541 0.509648
Si Si5 0.421141 0.599800 0.750179
Si Si6 0.424240 0.448975 0.820629
Si Si7 0.928450 0.421854 0.611032
Si Si8 0.426654 0.409336 0.375554
O O1 0.750000 0.148093 0.741951
O O2 0.534994 0.250000 0.730639
O O3 0.488257 0.127973 0.792681
O O4 0.512223 0.124743 0.670312
O O5 0.750000 0.519782 0.940012
O O6 0.524342 0.610515 0.922314
O O7 0.513795 0.468431 0.883073
O O8 0.500000 0.500000 0.000000
O O9 0.750000 0.142742 0.110307
O O10 0.956871 0.250000 0.100089
O O11 0.965334 0.154086 0.192701
O O12 0.250000 0.856887 0.521269
O O13 0.443324 0.750000 0.492110
O O14 0.490215 0.884435 0.452294
O O15 0.512309 0.854186 0.572078
O O16 0.250000 0.612526 0.730071
O O17 0.450145 0.513990 0.769866
O O18 0.523913 0.621133 0.691784
O O19 0.250000 0.440029 0.837664
O O20 0.750000 0.419189 0.610874
O O21 0.990274 0.506631 0.614040
O O22 0.250000 0.409113 0.378798
#
# Coordination Sequence:
#
# PCOD8241789 Si02
#       8
#     8   8   8   8   8   8   8   8
#     4  10  19  33  56  84 113 144 181 228 283 339
#     4  11  22  38  62  89 119 155 196 235 276 328
#     4   9  19  37  60  87 120 154 190 233 280 330
#     4  10  21  37  54  71  98 140 185 227 276 339
#     4   9  18  33  54  80 109 145 183 219 267 329
#     4  10  20  36  57  82 114 147 184 228 273 327
#     4   9  18  34  55  78 103 137 183 227 275 337
#     4  11  21  33  53  79 107 137 176 231 283 330
#
# _framework density 18.779055
#
# number of rings (size 3 to 8) (size 9 to 14) (size 15 to 20)
#    0.000    2.125    1.250    3.375    0.000    4.750 
#    0.000    3.125    0.000    5.250    0.000    0.000 
#    0.000    0.000    0.000    0.000    0.000    0.000 
#
# Total GULP energy -793798.547828 kJ/mol
# GULP energy per Si atom -12403.102310 kJ/mol
# Density = 1.873631 g / cm^3
# Si number density = 18.779055 Si / 1000 Ang^3
#
#
#
# Elastic Constant Matrix: (Units=GPa)
#
#
# Indices 1 2 3 4 5 6 
#
# 1 84.9596 33.4752 51.8883 0.0000 0.0000 0.0000
# 2 33.4752 67.9056 37.2561 0.0000 0.0000 0.0000
# 3 51.8883 37.2561 126.4573 0.0000 0.0000 0.0000
# 4 0.0000 0.0000 0.0000 20.7242 0.0000 0.0000
# 5 0.0000 0.0000 0.0000 0.0000 27.6758 0.0000
# 6 0.0000 0.0000 0.0000 0.0000 0.0000 28.1468
#
#
#
# Elastic Compliance Matrix: (Units=1/GPa)
#
#
# Indices 1 2 3 4 5 6 
#
# 1 0.017284 -0.005522 -0.005465 0.000000 0.000000 0.000000
# 2 -0.005522 0.019330 -0.003429 0.000000 0.000000 0.000000
# 3 -0.005465 -0.003429 0.011161 0.000000 0.000000 0.000000
# 4 0.000000 0.000000 0.000000 0.048253 0.000000 0.000000
# 5 0.000000 0.000000 0.000000 0.000000 0.036133 0.000000
# 6 0.000000 0.000000 0.000000 0.000000 0.000000 0.035528
#
#
# Mechanical properties :
#
#
# Convention : Reuss Voigt Hill
#
# Bulk Modulus (GPa) = 52.79295 58.28464 55.53879
# Shear Modulus (GPa) = 24.65076 25.75623 25.20350
#
# Velocity S-wave (km/s) = 3.62701 3.70745 3.66745
# Velocity P-wave (km/s) = 6.76121 7.03074 6.89729
#
# Compressibility (1/GPa) = 0.01894192
#
# Stress axis : x y z
#
# Youngs Moduli (GPa) = 57.85782 51.73357 89.60171
#
# Poissons Ratio (x) = 0.28567 0.48968
# Poissons Ratio (y) = 0.31949 0.30725
# Poissons Ratio (z) = 0.31620 0.17740
#
# Static dielectric constant tensor:
#      x y z
#    x 3.271450 0.000000 0.000000 
#    y 0.000000 3.517910 0.000000 
#    z 0.000000 0.000000 3.440180 
# 
# 
# High freq. dielectric constant tensor:
#      x y z
#    x 1.715870 0.000000 0.000000 
#    y 0.000000 1.727160 0.000000 
#    z 0.000000 0.000000 1.729850 
# 
# From -- ./inp_files/29437.got.cif
#   From: 2010.03.12/outbox.cif.g09.slc.cpg/sg59_15_cif.got.tgz:29437.got - 2010.04.16 16:29:54.
