data_PCOD8241528
_publ_section_title
;
Structure prediction by ZEFSAII (Michael W. Deem and Ramdas Pophale) SiO2 
 PCOD8241528
Probable space group: P M M N
;
_chemical_formula_sum "Si O2"
_cell_formula_units_Z 64
_cell_length_a 10.173879
_cell_length_b 25.787615
_cell_length_c 13.257794
_cell_angle_alpha 90.000000
_cell_angle_beta 90.000000
_cell_angle_gamma 90.000000
_cell_volume 3478.315824
_symmetry_space_group_name_H-M "P M M N"
_symmetry_group_IT_number 59
_space_group.IT_coordinate_system_code '2'
_symmetry_cell_setting 'orthorhombic'
loop_
_space_group_symop_operation_xyz
x,y,z
1/2-x,1/2-y,z
1/2+x,-y,-z
-x,1/2+y,-z
-x,-y,-z
1/2+x,1/2+y,-z
1/2-x,y,z
x,1/2-y,z
loop_
_atom_site_type_symbol
_atom_site_label
_atom_site_fract_x
_atom_site_fract_y
_atom_site_fract_z
Si Si1 0.406623 0.308199 0.026167
Si Si2 0.109518 0.012546 0.079285
Si Si3 0.398681 0.892635 0.449010
Si Si4 0.101162 0.115406 0.191490
Si Si5 0.099690 0.144852 0.823143
Si Si6 0.898235 0.436500 0.335921
Si Si7 0.996126 0.456982 0.735977
Si Si8 0.096043 0.190267 0.615928
O O1 0.250000 0.309472 0.021537
O O2 0.461981 0.250000 0.024169
O O3 0.449568 0.333451 0.132926
O O4 0.468672 0.338558 0.928849
O O5 0.250000 0.999742 0.028778
O O6 0.100766 0.072837 0.103677
O O7 0.103515 0.980886 0.183422
O O8 0.000000 0.000000 0.000000
O O9 0.250000 0.870022 0.447714
O O10 0.421596 0.929005 0.545503
O O11 0.416027 0.928828 0.351751
O O12 0.504098 0.845672 0.454315
O O13 0.250000 0.121668 0.235815
O O14 0.000563 0.101135 0.279780
O O15 0.250000 0.158157 0.837558
O O16 0.084251 0.084327 0.796734
O O17 0.048212 0.180451 0.730803
O O18 0.750000 0.420549 0.305001
O O19 0.915662 0.497074 0.310024
O O20 0.250000 0.174678 0.601818
O O21 0.073497 0.250000 0.586571
#
# Coordination Sequence:
#
# PCOD8241528 Si02
#       8
#     8   8   8   8   8   8   8   8
#     4   9  16  28  49  75 101 131 168 209 253 303
#     4  10  20  32  48  71 101 135 168 202 244 297
#     4  10  21  36  54  77 105 137 176 219 265 317
#     4   9  19  34  50  71  99 131 167 208 253 301
#     4   9  16  27  47  77 108 133 161 203 252 303
#     4  10  21  36  54  76 101 134 175 218 264 314
#     4  10  19  33  52  75 104 138 172 210 258 315
#     4   9  18  33  53  78 106 135 170 213 260 308
#
# _framework density 18.399709999999999
#
# number of rings (size 3 to 8) (size 9 to 14) (size 15 to 20)
#    0.000    2.500    0.000    2.250    0.000    6.750 
#    0.000    0.625    0.000    3.375    0.000    0.000 
#    0.000    0.000    0.000    0.000    0.000    0.000 
#
# Total GULP energy -793233.154871 kJ/mol
# GULP energy per Si atom -12394.268045 kJ/mol
# Density = 1.835783 g / cm^3
# Si number density = 18.399710 Si / 1000 Ang^3
#
#
#
# Elastic Constant Matrix: (Units=GPa)
#
#
# Indices 1 2 3 4 5 6 
#
# 1 93.9279 32.5156 47.9941 0.0000 0.0000 0.0000
# 2 32.5156 110.6042 51.2502 0.0000 0.0000 0.0000
# 3 47.9941 51.2502 85.0792 0.0000 0.0000 0.0000
# 4 0.0000 0.0000 0.0000 25.7460 0.0000 0.0000
# 5 0.0000 0.0000 0.0000 0.0000 25.2557 0.0000
# 6 0.0000 0.0000 0.0000 0.0000 0.0000 19.9947
#
#
#
# Elastic Compliance Matrix: (Units=1/GPa)
#
#
# Indices 1 2 3 4 5 6 
#
# 1 0.014995 -0.000678 -0.008050 0.000000 0.000000 0.000000
# 2 -0.000678 0.012573 -0.007191 0.000000 0.000000 0.000000
# 3 -0.008050 -0.007191 0.020627 0.000000 0.000000 0.000000
# 4 0.000000 0.000000 0.000000 0.038841 0.000000 0.000000
# 5 0.000000 0.000000 0.000000 0.000000 0.039595 0.000000
# 6 0.000000 0.000000 0.000000 0.000000 0.000000 0.050013
#
#
# Mechanical properties :
#
#
# Convention : Reuss Voigt Hill
#
# Bulk Modulus (GPa) = 61.14168 61.45900 61.30034
# Shear Modulus (GPa) = 23.37174 24.72271 24.04723
#
# Velocity S-wave (km/s) = 3.56789 3.66956 3.61908
# Velocity P-wave (km/s) = 7.09048 7.17139 7.13105
#
# Compressibility (1/GPa) = 0.01635545
#
# Stress axis : x y z
#
# Youngs Moduli (GPa) = 66.69092 79.53761 48.48067
#
# Poissons Ratio (x) = 0.05392 0.39028
# Poissons Ratio (y) = 0.04521 0.34863
# Poissons Ratio (z) = 0.53688 0.57196
#
# Static dielectric constant tensor:
#      x y z
#    x 3.259400 0.000000 0.000000 
#    y 0.000000 3.509090 0.000000 
#    z 0.000000 0.000000 3.394220 
# 
# 
# High freq. dielectric constant tensor:
#      x y z
#    x 1.690510 0.000000 0.000000 
#    y 0.000000 1.710280 0.000000 
#    z 0.000000 0.000000 1.712860 
# 
# From -- ./inp_files/16246.got.cif
#   From: 2010.03.12/outbox.cif.g09.slc.cpg/sg59_9_cif.got.tgz:16246.got - 2010.04.16 16:29:54.
