data_PCOD8241680
_publ_section_title
;
Structure prediction by ZEFSAII (Michael W. Deem and Ramdas Pophale) SiO2 
 PCOD8241680
Probable space group: P M M N
;
_chemical_formula_sum "Si O2"
_cell_formula_units_Z 64
_cell_length_a 8.894882
_cell_length_b 22.256525
_cell_length_c 17.587551
_cell_angle_alpha 90.000000
_cell_angle_beta 90.000000
_cell_angle_gamma 90.000000
_cell_volume 3481.792761
_symmetry_space_group_name_H-M "P M M N"
_symmetry_group_IT_number 59
_space_group.IT_coordinate_system_code '2'
_symmetry_cell_setting 'orthorhombic'
loop_
_space_group_symop_operation_xyz
x,y,z
1/2-x,1/2-y,z
1/2+x,-y,-z
-x,1/2+y,-z
-x,-y,-z
1/2+x,1/2+y,-z
1/2-x,y,z
x,1/2-y,z
loop_
_atom_site_type_symbol
_atom_site_label
_atom_site_fract_x
_atom_site_fract_y
_atom_site_fract_z
Si Si1 0.577221 0.681061 0.070548
Si Si2 0.577224 0.562139 0.489938
Si Si3 0.921701 0.011603 0.079217
Si Si4 0.427345 0.049414 0.674254
Si Si5 0.919913 0.150778 0.083053
Si Si6 0.426412 0.080631 0.346685
Si Si7 0.572041 0.414385 0.822394
Si Si8 0.923745 0.317223 0.249574
O O1 0.750000 0.661616 0.078762
O O2 0.553208 0.750000 0.093235
O O3 0.477836 0.642015 0.127423
O O4 0.530178 0.670835 0.983574
O O5 0.500000 0.500000 0.500000
O O6 0.750000 0.546669 0.489894
O O7 0.535188 0.585475 0.405106
O O8 0.538047 0.601540 0.565126
O O9 0.750000 0.989108 0.074752
O O10 0.932163 0.080640 0.100672
O O11 0.009393 0.976180 0.143950
O O12 0.000000 0.000000 0.000000
O O13 0.250000 0.046569 0.690956
O O14 0.508000 0.090367 0.737308
O O15 0.488512 0.981036 0.674063
O O16 0.750000 0.167962 0.058811
O O17 0.967423 0.183630 0.160508
O O18 0.250000 0.069088 0.334400
O O19 0.476032 0.135482 0.294441
O O20 0.750000 0.416482 0.821266
O O21 0.750000 0.335833 0.259074
O O22 0.953301 0.250000 0.281302
#
# Coordination Sequence:
#
# PCOD8241680 Si02
#       8
#     8   8   8   8   8   8   8   8
#     4  11  24  40  58  78 101 135 180 227 274 324
#     4   8  16  30  51  79 109 139 169 207 258 316
#     4  11  21  34  54  81 111 141 175 218 271 327
#     4  10  19  34  56  82 112 143 177 220 272 328
#     4  10  21  37  57  78 103 139 180 223 269 317
#     4  10  19  33  54  82 113 142 177 219 268 328
#     4  12  24  37  55  81 111 144 180 222 271 321
#     4  10  21  36  53  75 106 146 190 229 267 316
#
# _framework density 18.381335
#
# number of rings (size 3 to 8) (size 9 to 14) (size 15 to 20)
#    0.000    1.750    1.250    3.750    0.000    4.750 
#    0.000    0.000    0.000    0.750    0.000    1.750 
#    0.000    0.000    0.000    0.000    0.000    0.000 
#
# Total GULP energy -793288.257618 kJ/mol
# GULP energy per Si atom -12395.129025 kJ/mol
# Density = 1.833950 g / cm^3
# Si number density = 18.381335 Si / 1000 Ang^3
#
#
#
# Elastic Constant Matrix: (Units=GPa)
#
#
# Indices 1 2 3 4 5 6 
#
# 1 106.8467 27.7920 50.7512 0.0000 0.0000 0.0000
# 2 27.7920 60.2911 25.4758 0.0000 0.0000 0.0000
# 3 50.7512 25.4758 115.3477 0.0000 0.0000 0.0000
# 4 0.0000 0.0000 0.0000 11.6489 0.0000 0.0000
# 5 0.0000 0.0000 0.0000 0.0000 31.0412 0.0000
# 6 0.0000 0.0000 0.0000 0.0000 0.0000 20.7581
#
#
#
# Elastic Compliance Matrix: (Units=1/GPa)
#
#
# Indices 1 2 3 4 5 6 
#
# 1 0.012581 -0.003817 -0.004692 0.000000 0.000000 0.000000
# 2 -0.003817 0.019451 -0.002617 0.000000 0.000000 0.000000
# 3 -0.004692 -0.002617 0.011312 0.000000 0.000000 0.000000
# 4 0.000000 0.000000 0.000000 0.085845 0.000000 0.000000
# 5 0.000000 0.000000 0.000000 0.000000 0.032215 0.000000
# 6 0.000000 0.000000 0.000000 0.000000 0.000000 0.048174
#
#
# Mechanical properties :
#
#
# Convention : Reuss Voigt Hill
#
# Bulk Modulus (GPa) = 47.41029 54.50261 50.95645
# Shear Modulus (GPa) = 20.93270 24.58740 22.76005
#
# Velocity S-wave (km/s) = 3.37828 3.66133 3.52265
# Velocity P-wave (km/s) = 6.40825 6.89849 6.65788
#
# Compressibility (1/GPa) = 0.02109247
#
# Stress axis : x y z
#
# Youngs Moduli (GPa) = 79.48636 51.41077 88.40188
#
# Poissons Ratio (x) = 0.19621 0.41482
# Poissons Ratio (y) = 0.30336 0.23133
# Poissons Ratio (z) = 0.37298 0.13453
#
# Static dielectric constant tensor:
#      x y z
#    x 3.422580 0.000000 0.000000 
#    y 0.000000 3.191760 0.000000 
#    z 0.000000 0.000000 5.667980 
# 
# 
# High freq. dielectric constant tensor:
#      x y z
#    x 1.723450 0.000000 0.000000 
#    y 0.000000 1.685840 0.000000 
#    z 0.000000 0.000000 1.725100 
# 
# From -- ./inp_files/26358.got.cif
#   From: 2010.03.12/outbox.cif.g09.slc.cpg/sg59_14_cif.got.tgz:26358.got - 2010.04.16 16:29:54.
