data_PCOD8241674
_publ_section_title
;
Structure prediction by ZEFSAII (Michael W. Deem and Ramdas Pophale) SiO2 
 PCOD8241674
Probable space group: P M M N
;
_chemical_formula_sum "Si O2"
_cell_formula_units_Z 48
_cell_length_a 19.009100
_cell_length_b 8.878156
_cell_length_c 14.882580
_cell_angle_alpha 90.000000
_cell_angle_beta 90.000000
_cell_angle_gamma 90.000000
_cell_volume 2511.669853
_symmetry_space_group_name_H-M "P M M N"
_symmetry_group_IT_number 59
_space_group.IT_coordinate_system_code '2'
_symmetry_cell_setting 'orthorhombic'
loop_
_space_group_symop_operation_xyz
x,y,z
1/2-x,1/2-y,z
1/2+x,-y,-z
-x,1/2+y,-z
-x,-y,-z
1/2+x,1/2+y,-z
1/2-x,y,z
x,1/2-y,z
loop_
_atom_site_type_symbol
_atom_site_label
_atom_site_fract_x
_atom_site_fract_y
_atom_site_fract_z
Si Si1 0.331157 0.078817 0.206110
Si Si2 0.829677 0.571170 0.465311
Si Si3 0.095003 0.927123 0.367216
Si Si4 0.897408 0.077199 0.950706
Si Si5 0.059045 0.428699 0.677737
Si Si6 0.446659 0.424036 0.879037
O O1 0.250000 0.070795 0.232754
O O2 0.358918 0.250000 0.214837
O O3 0.373990 0.968309 0.270601
O O4 0.341127 0.020655 0.104475
O O5 0.750000 0.511710 0.453537
O O6 0.831335 0.750000 0.468855
O O7 0.861609 0.512863 0.557493
O O8 0.876015 0.510623 0.381758
O O9 0.102210 0.750000 0.382881
O O10 0.013721 0.980926 0.368963
O O11 0.873785 0.250000 0.951198
O O12 0.972147 0.053912 0.903082
O O13 0.898502 0.018462 0.052862
O O14 0.058447 0.250000 0.683642
O O15 0.066157 0.490839 0.779198
O O16 0.424599 0.250000 0.886058
#
# Coordination Sequence:
#
# PCOD8241674 Si02
#       6
#     8   8   8   8   8   8
#     4  11  23  37  54  79 112 148 186 229 279 336
#     4  10  21  37  56  79 109 145 182 223 275 331
#     4  11  21  36  57  81 108 142 184 230 280 329
#     4  10  19  33  54  81 111 144 180 222 274 326
#     4   9  18  35  57  81 109 143 186 230 268 320
#     4   9  17  33  55  79 109 142 180 225 269 319
#
# _framework density 19.110792
#
# number of rings (size 3 to 8) (size 9 to 14) (size 15 to 20)
#    0.000    2.000    1.667    2.500    0.000    4.333 
#    0.000    2.500    0.000    3.000    0.000    0.000 
#    0.000    0.000    0.000    0.000    0.000    0.000 
#
# Total GULP energy -595290.320987 kJ/mol
# GULP energy per Si atom -12401.881687 kJ/mol
# Density = 1.906730 g / cm^3
# Si number density = 19.110792 Si / 1000 Ang^3
#
#
#
# Elastic Constant Matrix: (Units=GPa)
#
#
# Indices 1 2 3 4 5 6 
#
# 1 108.8893 21.9592 60.6537 0.0000 0.0000 0.0000
# 2 21.9592 30.0821 20.3128 0.0000 0.0000 0.0000
# 3 60.6537 20.3128 114.3955 0.0000 0.0000 0.0000
# 4 0.0000 0.0000 0.0000 30.8237 0.0000 0.0000
# 5 0.0000 0.0000 0.0000 0.0000 26.4218 0.0000
# 6 0.0000 0.0000 0.0000 0.0000 0.0000 22.1480
#
#
#
# Elastic Compliance Matrix: (Units=1/GPa)
#
#
# Indices 1 2 3 4 5 6 
#
# 1 0.013889 -0.005870 -0.006322 0.000000 0.000000 0.000000
# 2 -0.005870 0.040252 -0.004035 0.000000 0.000000 0.000000
# 3 -0.006322 -0.004035 0.012810 0.000000 0.000000 0.000000
# 4 0.000000 0.000000 0.000000 0.032443 0.000000 0.000000
# 5 0.000000 0.000000 0.000000 0.000000 0.037848 0.000000
# 6 0.000000 0.000000 0.000000 0.000000 0.000000 0.045151
#
#
# Mechanical properties :
#
#
# Convention : Reuss Voigt Hill
#
# Bulk Modulus (GPa) = 28.98773 51.02425 40.00599
# Shear Modulus (GPa) = 22.09031 25.90813 23.99922
#
# Velocity S-wave (km/s) = 3.40355 3.68595 3.54756
# Velocity P-wave (km/s) = 5.53595 6.69867 6.14487
#
# Compressibility (1/GPa) = 0.03449736
#
# Stress axis : x y z
#
# Youngs Moduli (GPa) = 72.00125 24.84353 78.06451
#
# Poissons Ratio (x) = 0.14583 0.49350
# Poissons Ratio (y) = 0.42263 0.31500
# Poissons Ratio (z) = 0.45517 0.10025
#
# Static dielectric constant tensor:
#      x y z
#    x 3.505810 0.000000 0.000000 
#    y 0.000000 3.334920 0.000000 
#    z 0.000000 0.000000 3.662470 
# 
# 
# High freq. dielectric constant tensor:
#      x y z
#    x 1.729330 0.000000 0.000000 
#    y 0.000000 1.728810 0.000000 
#    z 0.000000 0.000000 1.753340 
# 
# From -- ./inp_files/20296.got.cif
#   From: 2010.03.12/outbox.cif.g09.slc.cpg/sg59_11_cif.got.tgz:20296.got - 2010.04.16 16:29:54.
