data_PCOD8241228
_publ_section_title
;
Structure prediction by ZEFSAII (Michael W. Deem and Ramdas Pophale) SiO2 
 PCOD8241228
Probable space group: P M M N
;
_chemical_formula_sum "Si O2"
_cell_formula_units_Z 40
_cell_length_a 8.595504
_cell_length_b 23.204082
_cell_length_c 10.303658
_cell_angle_alpha 90.000000
_cell_angle_beta 90.000000
_cell_angle_gamma 90.000000
_cell_volume 2055.072621
_symmetry_space_group_name_H-M "P M M N"
_symmetry_group_IT_number 59
_space_group.IT_coordinate_system_code '2'
_symmetry_cell_setting 'orthorhombic'
loop_
_space_group_symop_operation_xyz
x,y,z
1/2-x,1/2-y,z
1/2+x,-y,-z
-x,1/2+y,-z
-x,-y,-z
1/2+x,1/2+y,-z
1/2-x,y,z
x,1/2-y,z
loop_
_atom_site_type_symbol
_atom_site_label
_atom_site_fract_x
_atom_site_fract_y
_atom_site_fract_z
Si Si1 0.565139 0.876048 0.751181
Si Si2 0.935324 0.813625 0.004126
Si Si3 0.565120 0.887439 0.244019
Si Si4 0.935412 0.684132 0.492181
Si Si5 0.566063 0.997926 0.854500
O O1 0.750000 0.874232 0.746569
O O2 0.501334 0.836470 0.867426
O O3 0.498093 0.849532 0.617876
O O4 0.507669 0.940958 0.778490
O O5 0.750000 0.813148 0.005515
O O6 0.002205 0.750000 0.027133
O O7 0.997304 0.854040 0.118170
O O8 0.750000 0.893621 0.245409
O O9 0.505125 0.852059 0.368579
O O10 0.490680 0.950506 0.237578
O O11 0.750000 0.686012 0.494061
O O12 0.999041 0.750000 0.487527
O O13 0.750000 0.998100 0.868119
O O14 0.500000 0.000000 0.000000
#
# Coordination Sequence:
#
# PCOD8241228 Si02
#       5
#     8   8   8   8   8
#     4   9  17  29  47  74 105 135 171 215 262 306
#     4   9  15  25  45  72 100 131 169 212 256 300
#     4  10  19  32  51  79 108 135 169 212 259 311
#     4   9  17  30  50  78 109 136 168 216 265 307
#     4  11  21  35  54  77 106 140 177 220 264 311
#
# _framework density 19.464032
#
# number of rings (size 3 to 8) (size 9 to 14) (size 15 to 20)
#    0.000    2.400    2.000    1.800    0.000    5.600 
#    0.000    0.000    0.000    3.600    0.000    0.000 
#    0.000    0.000    0.000    0.000    0.000    0.000 
#
# Total GULP energy -495884.927790 kJ/mol
# GULP energy per Si atom -12397.123195 kJ/mol
# Density = 1.941973 g / cm^3
# Si number density = 19.464032 Si / 1000 Ang^3
#
#
#
# Elastic Constant Matrix: (Units=GPa)
#
#
# Indices 1 2 3 4 5 6 
#
# 1 20.2971 15.2412 9.8804 0.0000 0.0000 0.0000
# 2 15.2412 168.4917 66.5614 0.0000 0.0000 0.0000
# 3 9.8804 66.5614 150.5421 0.0000 0.0000 0.0000
# 4 0.0000 0.0000 0.0000 44.4129 0.0000 0.0000
# 5 0.0000 0.0000 0.0000 0.0000 10.9171 0.0000
# 6 0.0000 0.0000 0.0000 0.0000 0.0000 24.6412
#
#
#
# Elastic Compliance Matrix: (Units=1/GPa)
#
#
# Indices 1 2 3 4 5 6 
#
# 1 0.053196 -0.004159 -0.001652 0.000000 0.000000 0.000000
# 2 -0.004159 0.007516 -0.003050 0.000000 0.000000 0.000000
# 3 -0.001652 -0.003050 0.008100 0.000000 0.000000 0.000000
# 4 0.000000 0.000000 0.000000 0.022516 0.000000 0.000000
# 5 0.000000 0.000000 0.000000 0.000000 0.091599 0.000000
# 6 0.000000 0.000000 0.000000 0.000000 0.000000 0.040582
#
#
# Mechanical properties :
#
#
# Convention : Reuss Voigt Hill
#
# Bulk Modulus (GPa) = 19.57403 58.07744 38.82574
# Shear Modulus (GPa) = 19.36016 32.50412 25.93214
#
# Velocity S-wave (km/s) = 3.15725 4.09095 3.65404
# Velocity P-wave (km/s) = 4.83418 7.22617 6.14764
#
# Compressibility (1/GPa) = 0.05108809
#
# Stress axis : x y z
#
# Youngs Moduli (GPa) = 18.79850 133.04545 123.46016
#
# Poissons Ratio (x) = 0.55336 0.20400
# Poissons Ratio (y) = 0.07819 0.37659
# Poissons Ratio (z) = 0.03106 0.40583
#
# Static dielectric constant tensor:
#      x y z
#    x 2.901030 0.000000 0.000000 
#    y 0.000000 3.885050 0.000000 
#    z 0.000000 0.000000 3.772420 
# 
# 
# High freq. dielectric constant tensor:
#      x y z
#    x 1.690420 0.000000 0.000000 
#    y 0.000000 1.779110 0.000000 
#    z 0.000000 0.000000 1.766240 
# 
# From -- ./inp_files/5650.got.cif
#   From: 2010.03.12/outbox.cif.g09.slc.cpg/sg59_3_cif.got.tgz:5650.got - 2010.04.16 16:29:54.
