data_PCOD8241170
_publ_section_title
;
Structure prediction by ZEFSAII (Michael W. Deem and Ramdas Pophale) SiO2 
 PCOD8241170
Probable space group: P M M N
;
_chemical_formula_sum "Si O2"
_cell_formula_units_Z 48
_cell_length_a 8.557783
_cell_length_b 30.357589
_cell_length_c 10.221259
_cell_angle_alpha 90.000000
_cell_angle_beta 90.000000
_cell_angle_gamma 90.000000
_cell_volume 2655.418276
_symmetry_space_group_name_H-M "P M M N"
_symmetry_group_IT_number 59
_space_group.IT_coordinate_system_code '2'
_symmetry_cell_setting 'orthorhombic'
loop_
_space_group_symop_operation_xyz
x,y,z
1/2-x,1/2-y,z
1/2+x,-y,-z
-x,1/2+y,-z
-x,-y,-z
1/2+x,1/2+y,-z
1/2-x,y,z
x,1/2-y,z
loop_
_atom_site_type_symbol
_atom_site_label
_atom_site_fract_x
_atom_site_fract_y
_atom_site_fract_z
Si Si1 0.069356 0.702160 0.758028
Si Si2 0.932760 0.023470 0.626108
Si Si3 0.567133 0.886708 0.779521
Si Si4 0.565629 0.890857 0.473148
Si Si5 0.566681 0.796162 0.475587
Si Si6 0.566151 0.023947 0.125894
O O1 0.250000 0.695854 0.721440
O O2 0.045812 0.750000 0.831312
O O3 0.010004 0.658790 0.835783
O O4 0.966813 0.703404 0.628501
O O5 0.750000 0.013525 0.640691
O O6 0.965123 0.075299 0.611660
O O7 0.000000 0.000000 0.500000
O O8 0.022033 0.005464 0.750640
O O9 0.750000 0.882937 0.800851
O O10 0.524641 0.895033 0.627092
O O11 0.503415 0.927082 0.864349
O O12 0.750000 0.898865 0.451939
O O13 0.508714 0.842838 0.417333
O O14 0.750000 0.795165 0.456831
O O15 0.496035 0.750000 0.414551
O O16 0.750000 0.028048 0.114349
O O17 0.500000 0.000000 0.000000
#
# Coordination Sequence:
#
# PCOD8241170 Si02
#       6
#     8   8   8   8   8   8
#     4   9  16  25  40  66 100 135 172 214 261 311
#     4  12  23  36  55  79 107 141 182 222 266 315
#     4  10  19  32  51  74 104 139 177 217 264 319
#     4   9  17  29  48  74 104 136 176 220 265 314
#     4   8  14  25  41  63  96 135 171 210 259 314
#     4  12  25  41  59  79 107 141 179 224 273 328
#
# _framework density 18.076248
#
# number of rings (size 3 to 8) (size 9 to 14) (size 15 to 20)
#    0.000    2.000    1.667    5.000    0.000    3.667 
#    0.000    0.000    0.000    0.000    0.000    1.167 
#    0.000    6.667    0.000    0.000    0.000    0.000 
#
# Total GULP energy -594638.234968 kJ/mol
# GULP energy per Si atom -12388.296562 kJ/mol
# Density = 1.803511 g / cm^3
# Si number density = 18.076248 Si / 1000 Ang^3
#
#
#
# Elastic Constant Matrix: (Units=GPa)
#
#
# Indices 1 2 3 4 5 6 
#
# 1 18.4263 27.5488 7.4922 0.0000 0.0000 0.0000
# 2 27.5488 192.8966 36.9438 0.0000 0.0000 0.0000
# 3 7.4922 36.9438 54.3979 0.0000 0.0000 0.0000
# 4 0.0000 0.0000 0.0000 14.5388 0.0000 0.0000
# 5 0.0000 0.0000 0.0000 0.0000 18.0888 0.0000
# 6 0.0000 0.0000 0.0000 0.0000 0.0000 30.7674
#
#
#
# Elastic Compliance Matrix: (Units=1/GPa)
#
#
# Indices 1 2 3 4 5 6 
#
# 1 0.069502 -0.009303 -0.003255 0.000000 0.000000 0.000000
# 2 -0.009303 0.007204 -0.003612 0.000000 0.000000 0.000000
# 3 -0.003255 -0.003612 0.021284 0.000000 0.000000 0.000000
# 4 0.000000 0.000000 0.000000 0.068781 0.000000 0.000000
# 5 0.000000 0.000000 0.000000 0.000000 0.055283 0.000000
# 6 0.000000 0.000000 0.000000 0.000000 0.000000 0.032502
#
#
# Mechanical properties :
#
#
# Convention : Reuss Voigt Hill
#
# Bulk Modulus (GPa) = 15.23168 45.52116 30.37642
# Shear Modulus (GPa) = 16.19284 25.59474 20.89379
#
# Velocity S-wave (km/s) = 2.99625 3.76697 3.40350
# Velocity P-wave (km/s) = 4.51826 6.64512 5.68209
#
# Compressibility (1/GPa) = 0.06565263
#
# Stress axis : x y z
#
# Youngs Moduli (GPa) = 14.38809 138.80430 46.98347
#
# Poissons Ratio (x) = 1.29125 0.15291
# Poissons Ratio (y) = 0.13385 0.16968
# Poissons Ratio (z) = 0.04683 0.50130
#
# Static dielectric constant tensor:
#      x y z
#    x 3.391640 0.000000 0.000000 
#    y 0.000000 4.231940 0.000000 
#    z 0.000000 0.000000 2.583050 
# 
# 
# High freq. dielectric constant tensor:
#      x y z
#    x 1.707230 0.000000 0.000000 
#    y 0.000000 1.740510 0.000000 
#    z 0.000000 0.000000 1.619490 
# 
# From -- ./inp_files/6181.got.cif
#   From: 2010.03.12/outbox.cif.g09.slc.cpg/sg59_4_cif.got.tgz:6181.got - 2010.04.16 16:29:54.
