data_PCOD8241102
_publ_section_title
;
Structure prediction by ZEFSAII (Michael W. Deem and Ramdas Pophale) SiO2 
 PCOD8241102
Probable space group: P M M N
;
_chemical_formula_sum "Si O2"
_cell_formula_units_Z 64
_cell_length_a 9.185507
_cell_length_b 18.436923
_cell_length_c 20.829680
_cell_angle_alpha 90.000000
_cell_angle_beta 90.000000
_cell_angle_gamma 90.000000
_cell_volume 3527.558075
_symmetry_space_group_name_H-M "P M M N"
_symmetry_group_IT_number 59
_space_group.IT_coordinate_system_code '2'
_symmetry_cell_setting 'orthorhombic'
loop_
_space_group_symop_operation_xyz
x,y,z
1/2-x,1/2-y,z
1/2+x,-y,-z
-x,1/2+y,-z
-x,-y,-z
1/2+x,1/2+y,-z
1/2-x,y,z
x,1/2-y,z
loop_
_atom_site_type_symbol
_atom_site_label
_atom_site_fract_x
_atom_site_fract_y
_atom_site_fract_z
Si Si1 0.921007 0.166303 0.366737
Si Si2 0.580363 0.334639 0.118761
Si Si3 0.414469 0.336223 0.992996
Si Si4 0.922769 0.916203 0.246368
Si Si5 0.581854 0.335828 0.867637
Si Si6 0.588136 0.663653 0.509967
Si Si7 0.422537 0.918050 0.756342
Si Si8 0.923052 0.669265 0.370206
O O1 0.750000 0.155993 0.372604
O O2 0.963679 0.250000 0.356090
O O3 0.985840 0.121448 0.306792
O O4 0.988274 0.134338 0.432370
O O5 0.750000 0.349967 0.106130
O O6 0.552300 0.250000 0.131322
O O7 0.492194 0.364177 0.057495
O O8 0.519376 0.377913 0.180136
O O9 0.250000 0.366682 0.990046
O O10 0.414799 0.250000 0.992740
O O11 0.504221 0.365234 0.931971
O O12 0.750000 0.907700 0.236915
O O13 0.975192 0.885404 0.315022
O O14 0.003308 0.871329 0.192274
O O15 0.974143 0.999105 0.242656
O O16 0.750000 0.359040 0.870009
O O17 0.564444 0.250000 0.861356
O O18 0.750000 0.631931 0.520133
O O19 0.592686 0.750000 0.510669
O O20 0.523758 0.640027 0.440148
O O21 0.250000 0.911754 0.754591
O O22 0.750000 0.673717 0.372592
O O23 0.985671 0.750000 0.355939
#
# Coordination Sequence:
#
# PCOD8241102 Si02
#       8
#     8   8   8   8   8   8   8   8
#     4   9  16  28  47  69  93 123 159 196 235 282
#     4   9  16  29  50  72  95 125 158 192 235 285
#     4   9  17  30  50  76 100 120 151 196 237 274
#     4  10  19  32  50  70  94 125 162 200 234 274
#     4  10  20  34  52  74  99 125 153 188 233 283
#     4   8  14  26  44  66  90 115 149 194 239 282
#     4   9  18  31  47  69  96 126 160 197 236 279
#     4   8  14  26  46  69  90 116 152 192 235 283
#
# _framework density 18.142862000000001
#
# number of rings (size 3 to 8) (size 9 to 14) (size 15 to 20)
#    0.000    3.000    0.000    2.250    0.000    4.250 
#    0.000    3.750    0.000    5.250    0.000    0.000 
#    0.000    0.000    0.000    0.000    0.000    0.000 
#
# Total GULP energy -793406.319517 kJ/mol
# GULP energy per Si atom -12396.973742 kJ/mol
# Density = 1.810157 g / cm^3
# Si number density = 18.142862 Si / 1000 Ang^3
#
#
#
# Elastic Constant Matrix: (Units=GPa)
#
#
# Indices 1 2 3 4 5 6 
#
# 1 60.8688 27.8251 58.1028 0.0000 0.0000 0.0000
# 2 27.8251 42.7624 44.6283 0.0000 0.0000 0.0000
# 3 58.1028 44.6283 185.4864 0.0000 0.0000 0.0000
# 4 0.0000 0.0000 0.0000 0.3284 0.0000 0.0000
# 5 0.0000 0.0000 0.0000 0.0000 32.0996 0.0000
# 6 0.0000 0.0000 0.0000 0.0000 0.0000 12.7309
#
#
#
# Elastic Compliance Matrix: (Units=1/GPa)
#
#
# Indices 1 2 3 4 5 6 
#
# 1 0.027261 -0.011786 -0.005704 0.000000 0.000000 0.000000
# 2 -0.011786 0.036321 -0.005047 0.000000 0.000000 0.000000
# 3 -0.005704 -0.005047 0.008392 0.000000 0.000000 0.000000
# 4 0.000000 0.000000 0.000000 3.045405 0.000000 0.000000
# 5 0.000000 0.000000 0.000000 0.000000 0.031153 0.000000
# 6 0.000000 0.000000 0.000000 0.000000 0.000000 0.078549
#
#
# Mechanical properties :
#
#
# Convention : Reuss Voigt Hill
#
# Bulk Modulus (GPa) = 37.17310 61.13669 49.15489
# Shear Modulus (GPa) = 1.52387 19.60253 10.56320
#
# Velocity S-wave (km/s) = 0.91747 3.29059 2.41555
# Velocity P-wave (km/s) = 4.65359 6.94319 5.91032
#
# Compressibility (1/GPa) = 0.02690117
#
# Stress axis : x y z
#
# Youngs Moduli (GPa) = 36.68241 27.53200 119.15805
#
# Poissons Ratio (x) = 0.32449 0.67964
# Poissons Ratio (y) = 0.43234 0.60140
# Poissons Ratio (z) = 0.20922 0.13896
#
# Static dielectric constant tensor:
#      x y z
#    x 3.196960 0.000000 0.000000 
#    y 0.000000 3.135530 0.000000 
#    z 0.000000 0.000000 3.769830 
# 
# 
# High freq. dielectric constant tensor:
#      x y z
#    x 1.673230 0.000000 0.000000 
#    y 0.000000 1.668540 0.000000 
#    z 0.000000 0.000000 1.724200 
# 
# From -- ./inp_files/29590.got.cif
#   From: 2010.03.12/outbox.cif.g09.slc.cpg/sg59_15_cif.got.tgz:29590.got - 2010.04.16 16:29:54.
