data_PCOD8241709
_publ_section_title
;
Structure prediction by ZEFSAII (Michael W. Deem and Ramdas Pophale) SiO2 
 PCOD8241709
Probable space group: P M M N
;
_chemical_formula_sum "Si O2"
_cell_formula_units_Z 64
_cell_length_a 39.882045
_cell_length_b 8.864377
_cell_length_c 9.870688
_cell_angle_alpha 90.000000
_cell_angle_beta 90.000000
_cell_angle_gamma 90.000000
_cell_volume 3489.579220
_symmetry_space_group_name_H-M "P M M N"
_symmetry_group_IT_number 59
_space_group.IT_coordinate_system_code '2'
_symmetry_cell_setting 'orthorhombic'
loop_
_space_group_symop_operation_xyz
x,y,z
1/2-x,1/2-y,z
1/2+x,-y,-z
-x,1/2+y,-z
-x,-y,-z
1/2+x,1/2+y,-z
1/2-x,y,z
x,1/2-y,z
loop_
_atom_site_type_symbol
_atom_site_label
_atom_site_fract_x
_atom_site_fract_y
_atom_site_fract_z
Si Si1 0.966099 0.075069 0.666078
Si Si2 0.657743 0.071498 0.853680
Si Si3 0.412413 0.073605 0.143557
Si Si4 0.587209 0.922791 0.166660
Si Si5 0.710996 0.422429 0.341767
Si Si6 0.336668 0.076198 0.864811
Si Si7 0.286953 0.570864 0.352570
Si Si8 0.964693 0.075324 0.354707
O O1 0.962574 0.250000 0.703018
O O2 0.956028 0.041596 0.511071
O O3 0.942309 0.979369 0.761918
O O4 0.004066 0.024317 0.694007
O O5 0.655839 0.250000 0.845891
O O6 0.685158 0.005611 0.748804
O O7 0.621710 0.007279 0.811838
O O8 0.669246 0.023260 0.002458
O O9 0.406446 0.250000 0.161039
O O10 0.421496 0.034913 0.988335
O O11 0.577423 0.750000 0.197739
O O12 0.626340 0.952153 0.194919
O O13 0.567265 0.033064 0.265400
O O14 0.750000 0.437226 0.305394
O O15 0.699057 0.250000 0.321284
O O16 0.690424 0.532570 0.246067
O O17 0.704078 0.477624 0.494595
O O18 0.332543 0.250000 0.906473
O O19 0.250000 0.507832 0.312700
O O20 0.285853 0.750000 0.345290
O O21 0.973831 0.250000 0.334404
#
# Coordination Sequence:
#
# PCOD8241709 Si02
#       8
#     8   8   8   8   8   8   8   8
#     4  10  21  37  56  79 107 138 173 212 257 311
#     4  10  19  33  55  80 105 136 175 217 262 311
#     4  10  21  37  55  77 107 140 175 215 260 309
#     4   9  20  37  54  74 103 139 175 212 257 310
#     4   9  18  34  55  77 102 135 175 217 261 309
#     4  10  21  36  52  75 108 141 174 213 259 310
#     4   8  16  32  53  77 104 133 170 217 262 307
#     4  10  21  36  56  81 106 135 173 216 260 306
#
# _framework density 18.340319999999998
#
# number of rings (size 3 to 8) (size 9 to 14) (size 15 to 20)
#    0.000    2.500    0.000    3.375    0.000    6.750 
#    0.000    6.250    0.000    2.625    0.000    0.000 
#    0.000    0.000    0.000    0.000    0.000    0.000 
#
# Total GULP energy -793728.727900 kJ/mol
# GULP energy per Si atom -12402.011373 kJ/mol
# Density = 1.829858 g / cm^3
# Si number density = 18.340320 Si / 1000 Ang^3
#
#
#
# Elastic Constant Matrix: (Units=GPa)
#
#
# Indices 1 2 3 4 5 6 
#
# 1 87.8596 30.8378 59.6118 0.0000 0.0000 0.0000
# 2 30.8378 59.0381 30.1205 0.0000 0.0000 0.0000
# 3 59.6118 30.1205 79.6152 0.0000 0.0000 0.0000
# 4 0.0000 0.0000 0.0000 24.2348 0.0000 0.0000
# 5 0.0000 0.0000 0.0000 0.0000 37.6467 0.0000
# 6 0.0000 0.0000 0.0000 0.0000 0.0000 28.7648
#
#
#
# Elastic Compliance Matrix: (Units=1/GPa)
#
#
# Indices 1 2 3 4 5 6 
#
# 1 0.023932 -0.004162 -0.016345 0.000000 0.000000 0.000000
# 2 -0.004162 0.021713 -0.005098 0.000000 0.000000 0.000000
# 3 -0.016345 -0.005098 0.026727 0.000000 0.000000 0.000000
# 4 0.000000 0.000000 0.000000 0.041263 0.000000 0.000000
# 5 0.000000 0.000000 0.000000 0.000000 0.026563 0.000000
# 6 0.000000 0.000000 0.000000 0.000000 0.000000 0.034765
#
#
# Mechanical properties :
#
#
# Convention : Reuss Voigt Hill
#
# Bulk Modulus (GPa) = 47.25274 51.96146 49.60710
# Shear Modulus (GPa) = 21.43824 25.19210 23.31517
#
# Velocity S-wave (km/s) = 3.42265 3.71022 3.56933
# Velocity P-wave (km/s) = 6.43737 6.83722 6.64031
#
# Compressibility (1/GPa) = 0.02116280
#
# Stress axis : x y z
#
# Youngs Moduli (GPa) = 41.78448 46.05469 37.41476
#
# Poissons Ratio (x) = 0.19167 0.61154
# Poissons Ratio (y) = 0.17390 0.19076
# Poissons Ratio (z) = 0.68296 0.23481
#
# Static dielectric constant tensor:
#      x y z
#    x 3.447610 0.000000 0.000000 
#    y 0.000000 3.273240 0.000000 
#    z 0.000000 0.000000 3.398310 
# 
# 
# High freq. dielectric constant tensor:
#      x y z
#    x 1.714740 0.000000 0.000000 
#    y 0.000000 1.707610 0.000000 
#    z 0.000000 0.000000 1.710900 
# 
# From -- ./inp_files/19382.got.cif
#   From: 2010.03.12/outbox.cif.g09.slc.cpg/sg59_10_cif.got.tgz:19382.got - 2010.04.16 16:29:54.
