data_PCOD8241647
_publ_section_title
;
Structure prediction by ZEFSAII (Michael W. Deem and Ramdas Pophale) SiO2 
 PCOD8241647
Probable space group: P M M N
;
_chemical_formula_sum "Si O2"
_cell_formula_units_Z 56
_cell_length_a 9.112087
_cell_length_b 19.231080
_cell_length_c 17.292985
_cell_angle_alpha 90.000000
_cell_angle_beta 90.000000
_cell_angle_gamma 90.000000
_cell_volume 3030.340966
_symmetry_space_group_name_H-M "P M M N"
_symmetry_group_IT_number 59
_space_group.IT_coordinate_system_code '2'
_symmetry_cell_setting 'orthorhombic'
loop_
_space_group_symop_operation_xyz
x,y,z
1/2-x,1/2-y,z
1/2+x,-y,-z
-x,1/2+y,-z
-x,-y,-z
1/2+x,1/2+y,-z
1/2-x,y,z
x,1/2-y,z
loop_
_atom_site_type_symbol
_atom_site_label
_atom_site_fract_x
_atom_site_fract_y
_atom_site_fract_z
Si Si1 0.918337 0.170948 0.670980
Si Si2 0.580255 0.668659 0.883601
Si Si3 0.423926 0.561494 0.778604
Si Si4 0.079392 0.100278 0.540278
Si Si5 0.079966 0.551595 0.601635
Si Si6 0.576981 0.078703 0.814054
Si Si7 0.580659 0.170045 0.960817
O O1 0.750000 0.153600 0.652104
O O2 0.936952 0.250000 0.699074
O O3 0.976883 0.121619 0.739330
O O4 0.010733 0.160295 0.593066
O O5 0.750000 0.646996 0.879569
O O6 0.557313 0.750000 0.868649
O O7 0.489286 0.629739 0.817838
O O8 0.518799 0.647245 0.967256
O O9 0.250000 0.559097 0.788923
O O10 0.469823 0.565390 0.688974
O O11 0.491776 0.493625 0.818598
O O12 0.250000 0.114394 0.531686
O O13 0.010044 0.102534 0.454702
O O14 0.042111 0.027762 0.581777
O O15 0.250000 0.567661 0.588899
O O16 0.750000 0.064617 0.810668
O O17 0.533589 0.122650 0.889217
O O18 0.750000 0.158366 0.983535
O O19 0.552363 0.250000 0.937614
#
# Coordination Sequence:
#
# PCOD8241647 Si02
#       7
#     8   8   8   8   8   8   8
#     4  10  20  34  53  79 114 153 188 225 273 327
#     4  10  22  40  60  82 108 140 181 228 280 335
#     4  11  22  37  58  84 113 143 181 228 277 330
#     4  10  19  33  54  79 106 140 183 226 269 319
#     4   9  19  35  54  78 107 139 179 223 270 324
#     4  10  20  34  55  83 114 147 186 228 272 322
#     4   9  18  35  58  82 110 147 189 228 270 324
#
# _framework density 18.479769000000001
#
# number of rings (size 3 to 8) (size 9 to 14) (size 15 to 20)
#    0.000    2.143    1.429    1.714    0.000    5.714 
#    0.000    0.714    0.000    3.429    0.000    0.000 
#    0.000    0.000    0.000    0.000    0.000    0.000 
#
# Total GULP energy -694639.246593 kJ/mol
# GULP energy per Si atom -12404.272261 kJ/mol
# Density = 1.843771 g / cm^3
# Si number density = 18.479769 Si / 1000 Ang^3
#
#
#
# Elastic Constant Matrix: (Units=GPa)
#
#
# Indices 1 2 3 4 5 6 
#
# 1 74.2984 37.9020 59.0883 0.0000 0.0000 0.0000
# 2 37.9020 66.7603 53.2992 0.0000 0.0000 0.0000
# 3 59.0883 53.2992 135.4704 0.0000 0.0000 0.0000
# 4 0.0000 0.0000 0.0000 32.2089 0.0000 0.0000
# 5 0.0000 0.0000 0.0000 0.0000 30.2544 0.0000
# 6 0.0000 0.0000 0.0000 0.0000 0.0000 28.7992
#
#
#
# Elastic Compliance Matrix: (Units=1/GPa)
#
#
# Indices 1 2 3 4 5 6 
#
# 1 0.022812 -0.007301 -0.007078 0.000000 0.000000 0.000000
# 2 -0.007301 0.024175 -0.006327 0.000000 0.000000 0.000000
# 3 -0.007078 -0.006327 0.012958 0.000000 0.000000 0.000000
# 4 0.000000 0.000000 0.000000 0.031047 0.000000 0.000000
# 5 0.000000 0.000000 0.000000 0.000000 0.033053 0.000000
# 6 0.000000 0.000000 0.000000 0.000000 0.000000 0.034723
#
#
# Mechanical properties :
#
#
# Convention : Reuss Voigt Hill
#
# Bulk Modulus (GPa) = 53.95313 64.12313 59.03813
# Shear Modulus (GPa) = 24.22972 26.66850 25.44911
#
# Velocity S-wave (km/s) = 3.62491 3.80296 3.71500
# Velocity P-wave (km/s) = 6.83952 7.35240 7.10059
#
# Compressibility (1/GPa) = 0.01853460
#
# Stress axis : x y z
#
# Youngs Moduli (GPa) = 43.83590 41.36481 77.17195
#
# Poissons Ratio (x) = 0.30199 0.54620
# Poissons Ratio (y) = 0.32003 0.48827
# Poissons Ratio (z) = 0.31026 0.26172
#
# Static dielectric constant tensor:
#      x y z
#    x 3.366950 0.000000 0.000000 
#    y 0.000000 3.244010 0.000000 
#    z 0.000000 0.000000 3.462010 
# 
# 
# High freq. dielectric constant tensor:
#      x y z
#    x 1.718060 0.000000 0.000000 
#    y 0.000000 1.704000 0.000000 
#    z 0.000000 0.000000 1.723000 
# 
# From -- ./inp_files/21008.got.cif
#   From: 2010.03.12/outbox.cif.g09.slc.cpg/sg59_11_cif.got.tgz:21008.got - 2010.04.16 16:29:54.
