data_PCOD8241930
_publ_section_title
;
Structure prediction by ZEFSAII (Michael W. Deem and Ramdas Pophale) SiO2 
 PCOD8241930
Probable space group: P M M N
;
_chemical_formula_sum "Si O2"
_cell_formula_units_Z 48
_cell_length_a 15.659967
_cell_length_b 8.906039
_cell_length_c 19.232002
_cell_angle_alpha 90.000000
_cell_angle_beta 90.000000
_cell_angle_gamma 90.000000
_cell_volume 2682.254179
_symmetry_space_group_name_H-M "P M M N"
_symmetry_group_IT_number 59
_space_group.IT_coordinate_system_code '2'
_symmetry_cell_setting 'orthorhombic'
loop_
_space_group_symop_operation_xyz
x,y,z
1/2-x,1/2-y,z
1/2+x,-y,-z
-x,1/2+y,-z
-x,-y,-z
1/2+x,1/2+y,-z
1/2-x,y,z
x,1/2-y,z
loop_
_atom_site_type_symbol
_atom_site_label
_atom_site_fract_x
_atom_site_fract_y
_atom_site_fract_z
Si Si1 0.750000 0.412814 0.954533
Si Si2 0.001181 0.577351 0.660273
Si Si3 0.655460 0.571351 0.571128
Si Si4 0.750000 0.416215 0.790478
Si Si5 0.066507 0.569485 0.052355
Si Si6 0.654009 0.926536 0.414108
Si Si7 0.579819 0.923470 0.802465
O O1 0.750000 0.250000 0.990883
O O2 0.750000 0.393797 0.872379
O O3 0.660116 0.492619 0.973574
O O4 0.008159 0.750000 0.638634
O O5 0.918667 0.505887 0.620919
O O6 0.991759 0.558921 0.743227
O O7 0.088399 0.498459 0.639410
O O8 0.750000 0.511429 0.593941
O O9 0.657532 0.750000 0.574720
O O10 0.635428 0.517787 0.492574
O O11 0.750000 0.250000 0.755547
O O12 0.833539 0.509871 0.769296
O O13 0.063749 0.750000 0.051976
O O14 0.047079 0.512817 0.130028
O O15 0.000000 0.500000 0.000000
O O16 0.750000 0.973622 0.392278
O O17 0.642935 0.750000 0.409770
O O18 0.595222 0.750000 0.822347
#
# Coordination Sequence:
#
# PCOD8241930 Si02
#       7
#     4   8   8   4   8   8   8
#     4   7  14  29  49  73  99 129 160 191 240 297
#     4  10  20  31  50  76 102 134 171 213 258 305
#     4   8  15  29  49  73 102 134 168 206 255 310
#     4   9  17  31  49  71 103 139 168 201 252 303
#     4  10  19  34  56  79 106 139 173 212 257 306
#     4   9  18  33  52  71  94 132 176 217 262 309
#     4  10  20  32  49  77 107 137 175 210 254 315
#
# _framework density 17.895396000000002
#
# number of rings (size 3 to 8) (size 9 to 14) (size 15 to 20)
#    0.000    2.833    0.000    3.750    1.167    1.667 
#    0.000    1.250    1.833    1.000    0.000    0.000 
#    0.000    0.000    0.000    0.000    0.000    0.000 
#
# Total GULP energy -594829.063339 kJ/mol
# GULP energy per Si atom -12392.272153 kJ/mol
# Density = 1.785467 g / cm^3
# Si number density = 17.895396 Si / 1000 Ang^3
#
#
#
# Elastic Constant Matrix: (Units=GPa)
#
#
# Indices 1 2 3 4 5 6 
#
# 1 142.3575 43.5081 68.5811 0.0000 0.0000 0.0000
# 2 43.5081 65.8902 34.2479 0.0000 0.0000 0.0000
# 3 68.5811 34.2479 78.4128 0.0000 0.0000 0.0000
# 4 0.0000 0.0000 0.0000 22.7153 0.0000 0.0000
# 5 0.0000 0.0000 0.0000 0.0000 29.4574 0.0000
# 6 0.0000 0.0000 0.0000 0.0000 0.0000 29.0377
#
#
#
# Elastic Compliance Matrix: (Units=1/GPa)
#
#
# Indices 1 2 3 4 5 6 
#
# 1 0.012695 -0.003379 -0.009628 0.000000 0.000000 0.000000
# 2 -0.003379 0.020533 -0.006013 0.000000 0.000000 0.000000
# 3 -0.009628 -0.006013 0.023800 0.000000 0.000000 0.000000
# 4 0.000000 0.000000 0.000000 0.044023 0.000000 0.000000
# 5 0.000000 0.000000 0.000000 0.000000 0.033947 0.000000
# 6 0.000000 0.000000 0.000000 0.000000 0.000000 0.034438
#
#
# Mechanical properties :
#
#
# Convention : Reuss Voigt Hill
#
# Bulk Modulus (GPa) = 52.66141 64.37052 58.51597
# Shear Modulus (GPa) = 23.38560 25.59697 24.49129
#
# Velocity S-wave (km/s) = 3.61888 3.78612 3.70345
# Velocity P-wave (km/s) = 6.85222 7.42708 7.14543
#
# Compressibility (1/GPa) = 0.01898924
#
# Stress axis : x y z
#
# Youngs Moduli (GPa) = 78.76821 48.70164 42.01645
#
# Poissons Ratio (x) = 0.16454 0.40454
# Poissons Ratio (y) = 0.26613 0.25265
# Poissons Ratio (z) = 0.75838 0.29285
#
# Static dielectric constant tensor:
#      x y z
#    x 3.688610 0.000000 0.000000 
#    y 0.000000 3.145580 0.000000 
#    z 0.000000 0.000000 3.089750 
# 
# 
# High freq. dielectric constant tensor:
#      x y z
#    x 1.695510 0.000000 0.000000 
#    y 0.000000 1.674150 0.000000 
#    z 0.000000 0.000000 1.671560 
# 
# From -- ./inp_files/27446.got.cif
#   From: 2010.03.12/outbox.cif.g09.slc.cpg/sg59_14_cif.got.tgz:27446.got - 2010.04.16 16:29:54.
