data_PCOD8241392
_publ_section_title
;
Structure prediction by ZEFSAII (Michael W. Deem and Ramdas Pophale) SiO2 
 PCOD8241392
Probable space group: P M M N
;
_chemical_formula_sum "Si O2"
_cell_formula_units_Z 56
_cell_length_a 13.854577
_cell_length_b 23.594969
_cell_length_c 9.227598
_cell_angle_alpha 90.000000
_cell_angle_beta 90.000000
_cell_angle_gamma 90.000000
_cell_volume 3016.486236
_symmetry_space_group_name_H-M "P M M N"
_symmetry_group_IT_number 59
_space_group.IT_coordinate_system_code '2'
_symmetry_cell_setting 'orthorhombic'
loop_
_space_group_symop_operation_xyz
x,y,z
1/2-x,1/2-y,z
1/2+x,-y,-z
-x,1/2+y,-z
-x,-y,-z
1/2+x,1/2+y,-z
1/2-x,y,z
x,1/2-y,z
loop_
_atom_site_type_symbol
_atom_site_label
_atom_site_fract_x
_atom_site_fract_y
_atom_site_fract_z
Si Si1 0.640615 0.591731 0.831857
Si Si2 0.027502 0.183868 0.323879
Si Si3 0.141628 0.684944 0.145063
Si Si4 0.639764 0.590685 0.174624
Si Si5 0.528324 0.016252 0.159965
Si Si6 0.034574 0.184557 0.659285
Si Si7 0.138369 0.871457 0.846067
O O1 0.750000 0.575148 0.792388
O O2 0.613054 0.651371 0.759360
O O3 0.569108 0.542679 0.768137
O O4 0.625166 0.599056 0.003191
O O5 0.043337 0.250000 0.296412
O O6 0.033431 0.167922 0.492004
O O7 0.922583 0.165499 0.266956
O O8 0.250000 0.670485 0.197008
O O9 0.133160 0.750000 0.095903
O O10 0.071348 0.670840 0.277757
O O11 0.111405 0.647222 0.008499
O O12 0.750000 0.574762 0.209015
O O13 0.570519 0.540239 0.236117
O O14 0.614591 0.648427 0.256759
O O15 0.613553 0.062417 0.164605
O O16 0.500000 0.000000 0.000000
O O17 0.062320 0.250000 0.682361
O O18 0.250000 0.860896 0.810470
#
# Coordination Sequence:
#
# PCOD8241392 Si02
#       7
#     8   8   8   8   8   8   8
#     4   9  19  35  55  80 107 135 171 215 259 306
#     4  10  21  35  52  75 105 142 177 213 261 310
#     4   9  17  30  50  75 102 134 172 214 258 304
#     4  10  20  35  56  79 103 134 171 212 259 307
#     4   9  17  32  54  79 106 134 167 212 261 310
#     4  10  21  36  52  73 104 139 176 217 260 310
#     4  10  19  32  53  80 107 136 174 216 259 311
#
# _framework density 18.564644999999999
#
# number of rings (size 3 to 8) (size 9 to 14) (size 15 to 20)
#    0.000    2.429    0.000    3.429    0.000    4.857 
#    0.000    7.857    0.000    1.714    0.000    0.000 
#    0.000    0.000    0.000    0.000    0.000    0.000 
#
# Total GULP energy -694298.218595 kJ/mol
# GULP energy per Si atom -12398.182475 kJ/mol
# Density = 1.852239 g / cm^3
# Si number density = 18.564645 Si / 1000 Ang^3
#
#
#
# Elastic Constant Matrix: (Units=GPa)
#
#
# Indices 1 2 3 4 5 6 
#
# 1 132.0035 60.4318 49.1464 0.0000 0.0000 0.0000
# 2 60.4318 104.9934 47.4320 0.0000 0.0000 0.0000
# 3 49.1464 47.4320 69.7766 0.0000 0.0000 0.0000
# 4 0.0000 0.0000 0.0000 14.4672 0.0000 0.0000
# 5 0.0000 0.0000 0.0000 0.0000 17.5155 0.0000
# 6 0.0000 0.0000 0.0000 0.0000 0.0000 27.5474
#
#
#
# Elastic Compliance Matrix: (Units=1/GPa)
#
#
# Indices 1 2 3 4 5 6 
#
# 1 0.011448 -0.004253 -0.005173 0.000000 0.000000 0.000000
# 2 -0.004253 0.015325 -0.007422 0.000000 0.000000 0.000000
# 3 -0.005173 -0.007422 0.023020 0.000000 0.000000 0.000000
# 4 0.000000 0.000000 0.000000 0.069122 0.000000 0.000000
# 5 0.000000 0.000000 0.000000 0.000000 0.057092 0.000000
# 6 0.000000 0.000000 0.000000 0.000000 0.000000 0.036301
#
#
# Mechanical properties :
#
#
# Convention : Reuss Voigt Hill
#
# Bulk Modulus (GPa) = 62.11752 68.97710 65.54731
# Shear Modulus (GPa) = 19.89096 21.89023 20.89060
#
# Velocity S-wave (km/s) = 3.27684 3.43758 3.35817
# Velocity P-wave (km/s) = 6.91735 7.27954 7.10075
#
# Compressibility (1/GPa) = 0.01609852
#
# Stress axis : x y z
#
# Youngs Moduli (GPa) = 87.34977 65.25194 43.43986
#
# Poissons Ratio (x) = 0.27748 0.22470
# Poissons Ratio (y) = 0.37146 0.32243
# Poissons Ratio (z) = 0.45184 0.48433
#
# Static dielectric constant tensor:
#      x y z
#    x 3.530120 0.000000 0.000000 
#    y 0.000000 3.554460 0.000000 
#    z 0.000000 0.000000 3.175290 
# 
# 
# High freq. dielectric constant tensor:
#      x y z
#    x 1.729190 0.000000 0.000000 
#    y 0.000000 1.726510 0.000000 
#    z 0.000000 0.000000 1.691990 
# 
# From -- ./inp_files/9382.got.cif
#   From: 2010.03.12/outbox.cif.g09.slc.cpg/sg59_5_cif.got.tgz:9382.got - 2010.04.16 16:29:54.
