data_PCOD8241784
_publ_section_title
;
Structure prediction by ZEFSAII (Michael W. Deem and Ramdas Pophale) SiO2 
 PCOD8241784
Probable space group: P M M N
;
_chemical_formula_sum "Si O2"
_cell_formula_units_Z 56
_cell_length_a 8.938599
_cell_length_b 15.422010
_cell_length_c 21.984799
_cell_angle_alpha 90.000000
_cell_angle_beta 90.000000
_cell_angle_gamma 90.000000
_cell_volume 3030.630114
_symmetry_space_group_name_H-M "P M M N"
_symmetry_group_IT_number 59
_space_group.IT_coordinate_system_code '2'
_symmetry_cell_setting 'orthorhombic'
loop_
_space_group_symop_operation_xyz
x,y,z
1/2-x,1/2-y,z
1/2+x,-y,-z
-x,1/2+y,-z
-x,-y,-z
1/2+x,1/2+y,-z
1/2-x,y,z
x,1/2-y,z
loop_
_atom_site_type_symbol
_atom_site_label
_atom_site_fract_x
_atom_site_fract_y
_atom_site_fract_z
Si Si1 0.079032 0.058759 0.950949
Si Si2 0.924242 0.092678 0.503628
Si Si3 0.923617 0.001633 0.696113
Si Si4 0.078763 0.651836 0.630130
Si Si5 0.418363 0.250000 0.936208
Si Si6 0.425531 0.564804 0.176985
Si Si7 0.420754 0.750000 0.183535
Si Si8 0.423705 0.347372 0.622095
O O1 0.250000 0.030152 0.947846
O O2 0.063310 0.159628 0.973075
O O3 0.012113 0.039794 0.884083
O O4 0.000000 0.000000 0.000000
O O5 0.750000 0.080006 0.517190
O O6 0.953365 0.143453 0.441309
O O7 0.996106 0.148518 0.557123
O O8 0.000000 0.000000 0.500000
O O9 0.750000 0.016726 0.682125
O O10 0.972982 0.910626 0.668467
O O11 0.953483 0.996280 0.768936
O O12 0.011433 0.082061 0.667820
O O13 0.250000 0.626949 0.644200
O O14 0.043548 0.750000 0.650061
O O15 0.250000 0.250000 0.906508
O O16 0.553167 0.250000 0.888806
O O17 0.250000 0.572863 0.160534
O O18 0.487849 0.657443 0.204979
O O19 0.250000 0.750000 0.202283
O O20 0.250000 0.368093 0.612329
O O21 0.448069 0.250000 0.648555
#
# Coordination Sequence:
#
# PCOD8241784 Si02
#       8
#     8   8   8   8   4   8   4   8
#     4  10  19  33  56  83 112 146 183 224 272 324
#     4  11  21  36  59  84 110 141 182 230 285 338
#     4  11  23  37  58  84 113 147 185 232 280 333
#     4  10  22  40  61  81 106 144 187 233 283 335
#     4   8  16  30  48  76 110 140 174 213 258 313
#     4   9  19  34  53  80 112 145 184 224 270 325
#     4   8  14  28  50  74 104 140 174 213 256 313
#     4  11  24  39  55  80 115 152 187 226 275 333
#
# _framework density 18.478006000000001
#
# number of rings (size 3 to 8) (size 9 to 14) (size 15 to 20)
#    0.000    2.000    1.429    2.143    1.000    4.286 
#    0.000    0.000    1.571    0.000    0.000    0.000 
#    0.000    0.000    0.000    0.000    0.000    0.000 
#
# Total GULP energy -694001.003607 kJ/mol
# GULP energy per Si atom -12392.875064 kJ/mol
# Density = 1.843595 g / cm^3
# Si number density = 18.478006 Si / 1000 Ang^3
#
#
#
# Elastic Constant Matrix: (Units=GPa)
#
#
# Indices 1 2 3 4 5 6 
#
# 1 102.6069 50.6173 53.1542 0.0000 0.0000 0.0000
# 2 50.6173 104.2820 51.1054 0.0000 0.0000 0.0000
# 3 53.1542 51.1054 100.6922 0.0000 0.0000 0.0000
# 4 0.0000 0.0000 0.0000 23.5669 0.0000 0.0000
# 5 0.0000 0.0000 0.0000 0.0000 29.2540 0.0000
# 6 0.0000 0.0000 0.0000 0.0000 0.0000 25.4469
#
#
#
# Elastic Compliance Matrix: (Units=1/GPa)
#
#
# Indices 1 2 3 4 5 6 
#
# 1 0.014834 -0.004476 -0.005559 0.000000 0.000000 0.000000
# 2 -0.004476 0.014115 -0.004801 0.000000 0.000000 0.000000
# 3 -0.005559 -0.004801 0.015302 0.000000 0.000000 0.000000
# 4 0.000000 0.000000 0.000000 0.042432 0.000000 0.000000
# 5 0.000000 0.000000 0.000000 0.000000 0.034183 0.000000
# 6 0.000000 0.000000 0.000000 0.000000 0.000000 0.039297
#
#
# Mechanical properties :
#
#
# Convention : Reuss Voigt Hill
#
# Bulk Modulus (GPa) = 68.59024 68.59275 68.59150
# Shear Modulus (GPa) = 25.68116 25.83384 25.75750
#
# Velocity S-wave (km/s) = 3.73208 3.74316 3.73762
# Velocity P-wave (km/s) = 7.46805 7.47553 7.47179
#
# Compressibility (1/GPa) = 0.01457933
#
# Stress axis : x y z
#
# Youngs Moduli (GPa) = 67.41450 70.84768 65.34923
#
# Poissons Ratio (x) = 0.31711 0.36326
# Poissons Ratio (y) = 0.30174 0.31375
# Poissons Ratio (z) = 0.37474 0.34014
#
# Static dielectric constant tensor:
#      x y z
#    x 3.628980 0.000000 0.000000 
#    y 0.000000 3.501660 0.000000 
#    z 0.000000 0.000000 3.261250 
# 
# 
# High freq. dielectric constant tensor:
#      x y z
#    x 1.724650 0.000000 0.000000 
#    y 0.000000 1.719250 0.000000 
#    z 0.000000 0.000000 1.694420 
# 
# From -- ./inp_files/29194.got.cif
#   From: 2010.03.12/outbox.cif.g09.slc.cpg/sg59_15_cif.got.tgz:29194.got - 2010.04.16 16:29:54.
