data_PCOD8241796
_publ_section_title
;
Structure prediction by ZEFSAII (Michael W. Deem and Ramdas Pophale) SiO2 
 PCOD8241796
Probable space group: P M M N
;
_chemical_formula_sum "Si O2"
_cell_formula_units_Z 48
_cell_length_a 27.752977
_cell_length_b 9.173798
_cell_length_c 10.144740
_cell_angle_alpha 90.000000
_cell_angle_beta 90.000000
_cell_angle_gamma 90.000000
_cell_volume 2582.852883
_symmetry_space_group_name_H-M "P M M N"
_symmetry_group_IT_number 59
_space_group.IT_coordinate_system_code '2'
_symmetry_cell_setting 'orthorhombic'
loop_
_space_group_symop_operation_xyz
x,y,z
1/2-x,1/2-y,z
1/2+x,-y,-z
-x,1/2+y,-z
-x,-y,-z
1/2+x,1/2+y,-z
1/2-x,y,z
x,1/2-y,z
loop_
_atom_site_type_symbol
_atom_site_label
_atom_site_fract_x
_atom_site_fract_y
_atom_site_fract_z
Si Si1 0.047423 0.081255 0.147507
Si Si2 0.548360 0.919927 0.158740
Si Si3 0.649230 0.579987 0.743698
Si Si4 0.805078 0.416629 0.977910
Si Si5 0.640144 0.076915 0.237413
Si Si6 0.693705 0.918928 0.467538
O O1 0.033620 0.250000 0.167487
O O2 0.093794 0.034674 0.232543
O O3 0.058726 0.048999 0.994740
O O4 0.003697 0.982502 0.198642
O O5 0.549936 0.750000 0.193170
O O6 0.587816 0.002620 0.247159
O O7 0.656045 0.750000 0.766617
O O8 0.684450 0.505247 0.846832
O O9 0.664814 0.533494 0.597927
O O10 0.750000 0.438506 0.019471
O O11 0.817278 0.250000 0.946858
O O12 0.836908 0.473039 0.099234
O O13 0.635223 0.250000 0.249137
O O14 0.674725 0.020040 0.351537
O O15 0.750000 0.948906 0.490177
O O16 0.684199 0.750000 0.432992
#
# Coordination Sequence:
#
# PCOD8241796 Si02
#       6
#     8   8   8   8   8   8
#     4   9  18  33  55  84 116 146 180 226 283 339
#     4  10  19  33  56  85 115 146 185 230 282 336
#     4  10  20  37  59  84 112 145 186 231 280 335
#     4  10  21  35  53  80 111 142 182 232 280 329
#     4  11  22  37  57  81 113 150 190 233 280 332
#     4  10  22  39  58  81 112 150 189 230 279 334
#
# _framework density 18.584099999999999
#
# number of rings (size 3 to 8) (size 9 to 14) (size 15 to 20)
#    0.000    2.000    1.667    2.000    0.000    4.667 
#    0.000    0.833    0.000    0.000    0.000    0.000 
#    0.000    0.000    0.000    0.000    0.000    0.000 
#
# Total GULP energy -595409.888944 kJ/mol
# GULP energy per Si atom -12404.372686 kJ/mol
# Density = 1.854180 g / cm^3
# Si number density = 18.584100 Si / 1000 Ang^3
#
#
#
# Elastic Constant Matrix: (Units=GPa)
#
#
# Indices 1 2 3 4 5 6 
#
# 1 107.6488 48.1460 38.3407 0.0000 0.0000 0.0000
# 2 48.1460 72.4597 40.3684 0.0000 0.0000 0.0000
# 3 38.3407 40.3684 67.5763 0.0000 0.0000 0.0000
# 4 0.0000 0.0000 0.0000 15.3240 0.0000 0.0000
# 5 0.0000 0.0000 0.0000 0.0000 35.0462 0.0000
# 6 0.0000 0.0000 0.0000 0.0000 0.0000 35.0635
#
#
#
# Elastic Compliance Matrix: (Units=1/GPa)
#
#
# Indices 1 2 3 4 5 6 
#
# 1 0.013752 -0.007180 -0.003513 0.000000 0.000000 0.000000
# 2 -0.007180 0.024434 -0.010522 0.000000 0.000000 0.000000
# 3 -0.003513 -0.010522 0.023077 0.000000 0.000000 0.000000
# 4 0.000000 0.000000 0.000000 0.065257 0.000000 0.000000
# 5 0.000000 0.000000 0.000000 0.000000 0.028534 0.000000
# 6 0.000000 0.000000 0.000000 0.000000 0.000000 0.028520
#
#
# Mechanical properties :
#
#
# Convention : Reuss Voigt Hill
#
# Bulk Modulus (GPa) = 53.10252 55.71055 54.40654
# Shear Modulus (GPa) = 21.52550 25.14204 23.33377
#
# Velocity S-wave (km/s) = 3.40704 3.68214 3.54726
# Velocity P-wave (km/s) = 6.64179 6.93687 6.79093
#
# Compressibility (1/GPa) = 0.01883150
#
# Stress axis : x y z
#
# Youngs Moduli (GPa) = 72.71565 40.92664 43.33306
#
# Poissons Ratio (x) = 0.29387 0.15224
# Poissons Ratio (y) = 0.52213 0.45596
# Poissons Ratio (z) = 0.25546 0.43064
#
# Static dielectric constant tensor:
#      x y z
#    x 3.525610 0.000000 0.000000 
#    y 0.000000 3.372000 0.000000 
#    z 0.000000 0.000000 3.285850 
# 
# 
# High freq. dielectric constant tensor:
#      x y z
#    x 1.735500 0.000000 0.000000 
#    y 0.000000 1.721770 0.000000 
#    z 0.000000 0.000000 1.702290 
# 
# From -- ./inp_files/12926.got.cif
#   From: 2010.03.12/outbox.cif.g09.slc.cpg/sg59_7_cif.got.tgz:12926.got - 2010.04.16 16:29:54.
