data_PCOD8241142
_publ_section_title
;
Structure prediction by ZEFSAII (Michael W. Deem and Ramdas Pophale) SiO2 
 PCOD8241142
Probable space group: P M M N
;
_chemical_formula_sum "Si O2"
_cell_formula_units_Z 48
_cell_length_a 9.489067
_cell_length_b 18.036957
_cell_length_c 15.532675
_cell_angle_alpha 90.000000
_cell_angle_beta 90.000000
_cell_angle_gamma 90.000000
_cell_volume 2658.477802
_symmetry_space_group_name_H-M "P M M N"
_symmetry_group_IT_number 59
_space_group.IT_coordinate_system_code '2'
_symmetry_cell_setting 'orthorhombic'
loop_
_space_group_symop_operation_xyz
x,y,z
1/2-x,1/2-y,z
1/2+x,-y,-z
-x,1/2+y,-z
-x,-y,-z
1/2+x,1/2+y,-z
1/2-x,y,z
x,1/2-y,z
loop_
_atom_site_type_symbol
_atom_site_label
_atom_site_fract_x
_atom_site_fract_y
_atom_site_fract_z
Si Si1 0.592915 0.338301 0.975865
Si Si2 0.082984 0.421282 0.649544
Si Si3 0.086093 0.163381 0.816165
Si Si4 0.587422 0.836194 0.517942
Si Si5 0.582865 0.089563 0.334646
Si Si6 0.917179 0.332296 0.163423
O O1 0.750000 0.369937 0.959788
O O2 0.596850 0.250000 0.975488
O O3 0.533246 0.363340 0.069865
O O4 0.491653 0.368044 0.900756
O O5 0.250000 0.415719 0.652214
O O6 0.023437 0.379545 0.733638
O O7 0.026931 0.381617 0.563555
O O8 0.031305 0.505968 0.649061
O O9 0.250000 0.146692 0.829446
O O10 0.057089 0.250000 0.801572
O O11 0.750000 0.856759 0.536739
O O12 0.571277 0.750000 0.496337
O O13 0.493767 0.855841 0.599836
O O14 0.750000 0.098233 0.346812
O O15 0.534296 0.112226 0.238582
O O16 0.750000 0.326264 0.160507
O O17 0.979984 0.250000 0.181259
#
# Coordination Sequence:
#
# PCOD8241142 Si02
#       6
#     8   8   8   8   8   8
#     4   8  14  26  44  65  89 117 150 189 232 274
#     4   9  18  32  49  69  94 125 156 187 231 282
#     4   9  16  28  47  68  90 120 159 196 227 269
#     4  10  20  34  51  70  94 124 155 188 231 282
#     4  10  19  32  51  72  94 121 156 196 231 270
#     4   8  14  26  45  67  90 118 151 186 228 277
#
# _framework density 18.055444999999999
#
# number of rings (size 3 to 8) (size 9 to 14) (size 15 to 20)
#    0.000    3.000    0.000    2.500    0.000    3.000 
#    0.000    3.333    0.000    5.000    0.000    0.000 
#    0.000    0.000    0.000    0.000    0.000    0.000 
#
# Total GULP energy -595049.770602 kJ/mol
# GULP energy per Si atom -12396.870221 kJ/mol
# Density = 1.801435 g / cm^3
# Si number density = 18.055445 Si / 1000 Ang^3
#
#
#
# Elastic Constant Matrix: (Units=GPa)
#
#
# Indices 1 2 3 4 5 6 
#
# 1 36.0392 18.6014 36.1102 0.0000 0.0000 0.0000
# 2 18.6014 59.6738 31.8851 0.0000 0.0000 0.0000
# 3 36.1102 31.8851 138.8247 0.0000 0.0000 0.0000
# 4 0.0000 0.0000 0.0000 18.4899 0.0000 0.0000
# 5 0.0000 0.0000 0.0000 0.0000 29.0432 0.0000
# 6 0.0000 0.0000 0.0000 0.0000 0.0000 16.0036
#
#
#
# Elastic Compliance Matrix: (Units=1/GPa)
#
#
# Indices 1 2 3 4 5 6 
#
# 1 0.040623 -0.007998 -0.008729 0.000000 0.000000 0.000000
# 2 -0.007998 0.020677 -0.002669 0.000000 0.000000 0.000000
# 3 -0.008729 -0.002669 0.010087 0.000000 0.000000 0.000000
# 4 0.000000 0.000000 0.000000 0.054083 0.000000 0.000000
# 5 0.000000 0.000000 0.000000 0.000000 0.034431 0.000000
# 6 0.000000 0.000000 0.000000 0.000000 0.000000 0.062486
#
#
# Mechanical properties :
#
#
# Convention : Reuss Voigt Hill
#
# Bulk Modulus (GPa) = 30.68092 45.30344 37.99218
# Shear Modulus (GPa) = 18.37936 22.57009 20.47473
#
# Velocity S-wave (km/s) = 3.19398 3.53943 3.37113
# Velocity P-wave (km/s) = 5.53457 6.46910 6.02000
#
# Compressibility (1/GPa) = 0.03259355
#
# Stress axis : x y z
#
# Youngs Moduli (GPa) = 24.61687 48.36323 99.13871
#
# Poissons Ratio (x) = 0.38683 0.86542
# Poissons Ratio (y) = 0.19690 0.26456
# Poissons Ratio (z) = 0.21489 0.12906
#
# Static dielectric constant tensor:
#      x y z
#    x 3.018780 0.000000 0.000000 
#    y 0.000000 3.228500 0.000000 
#    z 0.000000 0.000000 3.742690 
# 
# 
# High freq. dielectric constant tensor:
#      x y z
#    x 1.655940 0.000000 0.000000 
#    y 0.000000 1.683100 0.000000 
#    z 0.000000 0.000000 1.717920 
# 
# From -- ./inp_files/15754.got.cif
#   From: 2010.03.12/outbox.cif.g09.slc.cpg/sg59_8_cif.got.tgz:15754.got - 2010.04.16 16:29:54.
