data_PCOD8241836
_publ_section_title
;
Structure prediction by ZEFSAII (Michael W. Deem and Ramdas Pophale) SiO2 
 PCOD8241836
Probable space group: P M M N
;
_chemical_formula_sum "Si O2"
_cell_formula_units_Z 64
_cell_length_a 8.437511
_cell_length_b 33.817538
_cell_length_c 11.528606
_cell_angle_alpha 90.000000
_cell_angle_beta 90.000000
_cell_angle_gamma 90.000000
_cell_volume 3289.524579
_symmetry_space_group_name_H-M "P M M N"
_symmetry_group_IT_number 59
_space_group.IT_coordinate_system_code '2'
_symmetry_cell_setting 'orthorhombic'
loop_
_space_group_symop_operation_xyz
x,y,z
1/2-x,1/2-y,z
1/2+x,-y,-z
-x,1/2+y,-z
-x,-y,-z
1/2+x,1/2+y,-z
1/2-x,y,z
x,1/2-y,z
loop_
_atom_site_type_symbol
_atom_site_label
_atom_site_fract_x
_atom_site_fract_y
_atom_site_fract_z
Si Si1 0.061126 0.293729 0.758065
Si Si2 0.069349 0.204510 0.496143
Si Si3 0.434130 0.065536 0.485364
Si Si4 0.560885 0.895198 0.866675
Si Si5 0.432670 0.637588 0.641065
Si Si6 0.066509 0.939954 0.265718
Si Si7 0.062519 0.473392 0.253329
Si Si8 0.064342 0.129238 0.883444
O O1 0.250000 0.293731 0.759744
O O2 0.000460 0.250000 0.798655
O O3 0.004863 0.302231 0.626861
O O4 0.991929 0.328699 0.840128
O O5 0.250000 0.189568 0.485908
O O6 0.057426 0.250000 0.461616
O O7 0.958270 0.181737 0.405519
O O8 0.250000 0.059443 0.517081
O O9 0.458868 0.109774 0.438827
O O10 0.542089 0.058831 0.596902
O O11 0.496074 0.035937 0.384383
O O12 0.750000 0.892944 0.863225
O O13 0.489425 0.864641 0.774236
O O14 0.500792 0.939910 0.836355
O O15 0.491743 0.883006 0.992258
O O16 0.250000 0.625212 0.631841
O O17 0.250000 0.932767 0.237655
O O18 0.966357 0.905152 0.209025
O O19 0.007491 0.982643 0.215485
O O20 0.250000 0.471409 0.257134
O O21 0.250000 0.134529 0.896484
#
# Coordination Sequence:
#
# PCOD8241836 Si02
#       8
#     8   8   8   8   8   8   8   8
#     4   8  15  30  53  79 103 127 160 205 252 296
#     4   9  17  31  53  79 107 139 172 207 254 316
#     4  10  19  34  54  74 101 135 172 213 258 315
#     4   9  19  37  55  71  98 139 183 218 251 304
#     4  11  21  33  52  77 104 134 169 214 270 319
#     4  11  21  32  49  76 107 135 169 215 265 313
#     4   8  17  33  51  71 100 138 174 213 259 307
#     4  10  20  34  54  77 101 135 178 218 257 304
#
# _framework density 19.455698999999999
#
# number of rings (size 3 to 8) (size 9 to 14) (size 15 to 20)
#    0.000    2.500    0.000    4.500    0.000    2.250 
#    0.000    6.250    0.000    3.375    0.000    0.000 
#    0.000    0.000    0.000    0.000    0.000    0.000 
#
# Total GULP energy -793391.408687 kJ/mol
# GULP energy per Si atom -12396.740761 kJ/mol
# Density = 1.941142 g / cm^3
# Si number density = 19.455699 Si / 1000 Ang^3
#
#
#
# Elastic Constant Matrix: (Units=GPa)
#
#
# Indices 1 2 3 4 5 6 
#
# 1 24.7702 8.5679 9.1250 0.0000 0.0000 0.0000
# 2 8.5679 140.5349 76.7769 0.0000 0.0000 0.0000
# 3 9.1250 76.7769 100.6220 0.0000 0.0000 0.0000
# 4 0.0000 0.0000 0.0000 23.9172 0.0000 0.0000
# 5 0.0000 0.0000 0.0000 0.0000 15.6738 0.0000
# 6 0.0000 0.0000 0.0000 0.0000 0.0000 19.0081
#
#
#
# Elastic Compliance Matrix: (Units=1/GPa)
#
#
# Indices 1 2 3 4 5 6 
#
# 1 0.041821 -0.000819 -0.003168 0.000000 0.000000 0.000000
# 2 -0.000819 0.012218 -0.009249 0.000000 0.000000 0.000000
# 3 -0.003168 -0.009249 0.017282 0.000000 0.000000 0.000000
# 4 0.000000 0.000000 0.000000 0.041811 0.000000 0.000000
# 5 0.000000 0.000000 0.000000 0.000000 0.063801 0.000000
# 6 0.000000 0.000000 0.000000 0.000000 0.000000 0.052609
#
#
# Mechanical properties :
#
#
# Convention : Reuss Voigt Hill
#
# Bulk Modulus (GPa) = 22.29588 50.54076 36.41832
# Shear Modulus (GPa) = 18.45267 23.15031 20.80149
#
# Velocity S-wave (km/s) = 3.08303 3.45323 3.27337
# Velocity P-wave (km/s) = 4.91509 6.47561 5.74855
#
# Compressibility (1/GPa) = 0.04485134
#
# Stress axis : x y z
#
# Youngs Moduli (GPa) = 23.91124 81.84478 57.86281
#
# Poissons Ratio (x) = 0.06705 0.18328
# Poissons Ratio (y) = 0.01959 0.53514
# Poissons Ratio (z) = 0.07574 0.75694
#
# Static dielectric constant tensor:
#      x y z
#    x 3.145550 0.000000 0.000000 
#    y 0.000000 3.855470 0.000000 
#    z 0.000000 0.000000 3.574730 
# 
# 
# High freq. dielectric constant tensor:
#      x y z
#    x 1.726410 0.000000 0.000000 
#    y 0.000000 1.764640 0.000000 
#    z 0.000000 0.000000 1.744480 
# 
# From -- ./inp_files/14914.got.cif
#   From: 2010.03.12/outbox.cif.g09.slc.cpg/sg59_8_cif.got.tgz:14914.got - 2010.04.16 16:29:54.
