data_PCOD8241066
_publ_section_title
;
Structure prediction by ZEFSAII (Michael W. Deem and Ramdas Pophale) SiO2 
 PCOD8241066
Probable space group: P M M N
;
_chemical_formula_sum "Si O2"
_cell_formula_units_Z 56
_cell_length_a 19.234030
_cell_length_b 8.914488
_cell_length_c 18.045786
_cell_angle_alpha 90.000000
_cell_angle_beta 90.000000
_cell_angle_gamma 90.000000
_cell_volume 3094.158071
_symmetry_space_group_name_H-M "P M M N"
_symmetry_group_IT_number 59
_space_group.IT_coordinate_system_code '2'
_symmetry_cell_setting 'orthorhombic'
loop_
_space_group_symop_operation_xyz
x,y,z
1/2-x,1/2-y,z
1/2+x,-y,-z
-x,1/2+y,-z
-x,-y,-z
1/2+x,1/2+y,-z
1/2-x,y,z
x,1/2-y,z
loop_
_atom_site_type_symbol
_atom_site_label
_atom_site_fract_x
_atom_site_fract_y
_atom_site_fract_z
Si Si1 0.909237 0.572759 0.729496
Si Si2 0.827209 0.072345 0.023794
Si Si3 0.168344 0.925583 0.136492
Si Si4 0.170907 0.571662 0.816470
Si Si5 0.672605 0.572398 0.587928
Si Si6 0.064376 0.928318 0.693955
Si Si7 0.566980 0.927492 0.463382
O O1 0.904071 0.750000 0.730101
O O2 0.876895 0.514029 0.804890
O O3 0.867330 0.505770 0.659367
O O4 0.988946 0.521020 0.722894
O O5 0.750000 0.005891 0.025345
O O6 0.823368 0.250000 0.021618
O O7 0.860883 0.020548 0.102532
O O8 0.860829 0.021584 0.945228
O O9 0.250000 0.965094 0.144609
O O10 0.156533 0.750000 0.148839
O O11 0.250000 0.512066 0.805012
O O12 0.171447 0.750000 0.813008
O O13 0.120822 0.509319 0.752545
O O14 0.750000 0.503239 0.585068
O O15 0.675928 0.750000 0.595416
O O16 0.632965 0.526956 0.513196
O O17 0.068130 0.750000 0.682976
O O18 0.081726 0.007190 0.617080
O O19 0.556086 0.750000 0.459892
O O20 0.500000 0.000000 0.500000
#
# Coordination Sequence:
#
# PCOD8241066 Si02
#       7
#     8   8   8   8   8   8   8
#     4  10  19  32  48  68  99 136 167 196 237 297
#     4   7  11  23  44  69  96 128 164 202 248 293
#     4   9  17  29  47  72  99 126 165 214 251 285
#     4   8  14  27  50  76 100 129 167 210 249 287
#     4   9  18  33  52  72  95 128 167 199 232 287
#     4  10  20  34  52  76 102 129 166 203 243 296
#     4  11  21  36  56  75  98 130 166 203 244 293
#
# _framework density 18.098623
#
# number of rings (size 3 to 8) (size 9 to 14) (size 15 to 20)
#    0.000    2.857    1.429    2.571    0.000    2.000 
#    0.000    0.714    0.000    3.000    0.000    2.000 
#    0.000    0.000    0.000    0.000    0.000    0.000 
#
# Total GULP energy -693826.424699 kJ/mol
# GULP energy per Si atom -12389.757584 kJ/mol
# Density = 1.805743 g / cm^3
# Si number density = 18.098623 Si / 1000 Ang^3
#
#
#
# Elastic Constant Matrix: (Units=GPa)
#
#
# Indices 1 2 3 4 5 6 
#
# 1 124.2026 19.9488 86.3166 0.0000 0.0000 0.0000
# 2 19.9488 17.1483 24.7510 0.0000 0.0000 0.0000
# 3 86.3166 24.7510 196.8722 0.0000 0.0000 0.0000
# 4 0.0000 0.0000 0.0000 24.9411 0.0000 0.0000
# 5 0.0000 0.0000 0.0000 0.0000 32.0911 0.0000
# 6 0.0000 0.0000 0.0000 0.0000 0.0000 11.5477
#
#
#
# Elastic Compliance Matrix: (Units=1/GPa)
#
#
# Indices 1 2 3 4 5 6 
#
# 1 0.012428 -0.008055 -0.004436 0.000000 0.000000 0.000000
# 2 -0.008055 0.076462 -0.006082 0.000000 0.000000 0.000000
# 3 -0.004436 -0.006082 0.007789 0.000000 0.000000 0.000000
# 4 0.000000 0.000000 0.000000 0.040095 0.000000 0.000000
# 5 0.000000 0.000000 0.000000 0.000000 0.031161 0.000000
# 6 0.000000 0.000000 0.000000 0.000000 0.000000 0.086597
#
#
# Mechanical properties :
#
#
# Convention : Reuss Voigt Hill
#
# Bulk Modulus (GPa) = 16.79689 66.69509 41.74599
# Shear Modulus (GPa) = 16.05021 27.52976 21.78998
#
# Velocity S-wave (km/s) = 2.98118 3.90436 3.47357
# Velocity P-wave (km/s) = 4.59900 7.56679 6.26127
#
# Compressibility (1/GPa) = 0.05953484
#
# Stress axis : x y z
#
# Youngs Moduli (GPa) = 80.46228 13.07831 128.38461
#
# Poissons Ratio (x) = 0.10534 0.56956
# Poissons Ratio (y) = 0.64809 0.78077
# Poissons Ratio (z) = 0.35696 0.07954
#
# Static dielectric constant tensor:
#      x y z
#    x 3.477850 0.000000 0.000000 
#    y 0.000000 2.883840 0.000000 
#    z 0.000000 0.000000 3.879410 
# 
# 
# High freq. dielectric constant tensor:
#      x y z
#    x 1.685810 0.000000 0.000000 
#    y 0.000000 1.653710 0.000000 
#    z 0.000000 0.000000 1.725710 
# 
# From -- ./inp_files/28098.got.cif
#   From: 2010.03.12/outbox.cif.g09.slc.cpg/sg59_15_cif.got.tgz:28098.got - 2010.04.16 16:29:54.
