data_PCOD8241950
_publ_section_title
;
Structure prediction by ZEFSAII (Michael W. Deem and Ramdas Pophale) SiO2 
 PCOD8241950
Probable space group: P M M N
;
_chemical_formula_sum "Si O2"
_cell_formula_units_Z 48
_cell_length_a 9.036577
_cell_length_b 15.069084
_cell_length_c 18.587611
_cell_angle_alpha 90.000000
_cell_angle_beta 90.000000
_cell_angle_gamma 90.000000
_cell_volume 2531.129598
_symmetry_space_group_name_H-M "P M M N"
_symmetry_group_IT_number 59
_space_group.IT_coordinate_system_code '2'
_symmetry_cell_setting 'orthorhombic'
loop_
_space_group_symop_operation_xyz
x,y,z
1/2-x,1/2-y,z
1/2+x,-y,-z
-x,1/2+y,-z
-x,-y,-z
1/2+x,1/2+y,-z
1/2-x,y,z
x,1/2-y,z
loop_
_atom_site_type_symbol
_atom_site_label
_atom_site_fract_x
_atom_site_fract_y
_atom_site_fract_z
Si Si1 0.582781 0.250000 0.429431
Si Si2 0.910527 0.042116 0.699919
Si Si3 0.927821 0.562577 0.559101
Si Si4 0.924533 0.996818 0.076651
Si Si5 0.588583 0.897510 0.815407
Si Si6 0.913374 0.250000 0.260894
Si Si7 0.576409 0.850021 0.192060
O O1 0.750000 0.250000 0.463166
O O2 0.493922 0.338682 0.452168
O O3 0.598956 0.250000 0.345143
O O4 0.750000 0.080323 0.675421
O O5 0.015016 0.120992 0.728896
O O6 0.976297 0.981809 0.635320
O O7 0.886310 0.985966 0.771315
O O8 0.750000 0.568113 0.552090
O O9 0.000000 0.500000 0.500000
O O10 0.750000 0.003918 0.067206
O O11 0.986054 0.084748 0.115761
O O12 0.970920 0.910128 0.123374
O O13 0.000000 0.000000 0.000000
O O14 0.750000 0.859736 0.839288
O O15 0.504264 0.834176 0.762144
O O16 0.750000 0.250000 0.226066
O O17 0.750000 0.855988 0.201334
O O18 0.522454 0.750000 0.175737
#
# Coordination Sequence:
#
# PCOD8241950 Si02
#       7
#     4   8   8   8   8   4   8
#     4  11  23  39  63  91 119 156 199 246 303 363
#     4   9  19  35  57  83 111 144 185 232 283 338
#     4  11  23  41  62  88 122 160 201 247 300 361
#     4  10  20  36  56  79 112 149 189 236 289 346
#     4  10  19  34  56  81 109 145 186 228 282 338
#     4  11  21  33  55  87 117 142 183 236 283 337
#     4   9  19  36  58  82 108 144 192 239 286 344
#
# _framework density 18.963864000000001
#
# number of rings (size 3 to 8) (size 9 to 14) (size 15 to 20)
#    0.000    2.000    1.667    2.000    0.000    3.667 
#    3.000    0.000    0.000    0.000    0.000    0.000 
#    0.000    0.000    0.000    0.000    0.000    0.000 
#
# Total GULP energy -594730.336773 kJ/mol
# GULP energy per Si atom -12390.215349 kJ/mol
# Density = 1.892070 g / cm^3
# Si number density = 18.963864 Si / 1000 Ang^3
#
#
#
# Elastic Constant Matrix: (Units=GPa)
#
#
# Indices 1 2 3 4 5 6 
#
# 1 116.6972 56.6030 45.1449 0.0000 0.0000 0.0000
# 2 56.6030 109.3756 43.4471 0.0000 0.0000 0.0000
# 3 45.1449 43.4471 96.6840 0.0000 0.0000 0.0000
# 4 0.0000 0.0000 0.0000 -13.6706 0.0000 0.0000
# 5 0.0000 0.0000 0.0000 0.0000 32.2447 0.0000
# 6 0.0000 0.0000 0.0000 0.0000 0.0000 47.2234
#
#
#
# Elastic Compliance Matrix: (Units=1/GPa)
#
#
# Indices 1 2 3 4 5 6 
#
# 1 0.012355 -0.004994 -0.003525 0.000000 0.000000 0.000000
# 2 -0.004994 0.013148 -0.003577 0.000000 0.000000 0.000000
# 3 -0.003525 -0.003577 0.013596 0.000000 0.000000 0.000000
# 4 0.000000 0.000000 0.000000 -0.073150 0.000000 0.000000
# 5 0.000000 0.000000 0.000000 0.000000 0.031013 0.000000
# 6 0.000000 0.000000 0.000000 0.000000 0.000000 0.021176
#
#
# Mechanical properties :
#
#
# Convention : Reuss Voigt Hill
#
# Bulk Modulus (GPa) = 67.07547 68.12744 67.60146
# Shear Modulus (GPa) = 105.71423 24.99697 65.35560
#
# Velocity S-wave (km/s) = 7.47436 3.63455 5.87691
# Velocity P-wave (km/s) = 10.48499 7.32231 9.04299
#
# Compressibility (1/GPa) = 0.01490858
#
# Stress axis : x y z
#
# Youngs Moduli (GPa) = 80.93937 76.05860 73.55055
#
# Poissons Ratio (x) = 0.37981 0.25926
# Poissons Ratio (y) = 0.40418 0.26306
# Poissons Ratio (z) = 0.28531 0.27203
#
# Static dielectric constant tensor:
#      x y z
#    x 3.958200 0.000000 0.000000 
#    y 0.000000 3.519840 0.000000 
#    z 0.000000 0.000000 3.379260 
# 
# 
# High freq. dielectric constant tensor:
#      x y z
#    x 1.750190 0.000000 0.000000 
#    y 0.000000 1.728760 0.000000 
#    z 0.000000 0.000000 1.726020 
# 
# From -- ./inp_files/25553.got.cif
#   From: 2010.03.12/outbox.cif.g09.slc.cpg/sg59_13_cif.got.tgz:25553.got - 2010.04.16 16:29:54.
