data_PCOD8241181
_publ_section_title
;
Structure prediction by ZEFSAII (Michael W. Deem and Ramdas Pophale) SiO2 
 PCOD8241181
Probable space group: P M M N
;
_chemical_formula_sum "Si O2"
_cell_formula_units_Z 40
_cell_length_a 8.792885
_cell_length_b 27.267399
_cell_length_c 10.277122
_cell_angle_alpha 90.000000
_cell_angle_beta 90.000000
_cell_angle_gamma 90.000000
_cell_volume 2464.033559
_symmetry_space_group_name_H-M "P M M N"
_symmetry_group_IT_number 59
_space_group.IT_coordinate_system_code '2'
_symmetry_cell_setting 'orthorhombic'
loop_
_space_group_symop_operation_xyz
x,y,z
1/2-x,1/2-y,z
1/2+x,-y,-z
-x,1/2+y,-z
-x,-y,-z
1/2+x,1/2+y,-z
1/2-x,y,z
x,1/2-y,z
loop_
_atom_site_type_symbol
_atom_site_label
_atom_site_fract_x
_atom_site_fract_y
_atom_site_fract_z
Si Si1 0.578454 0.855052 0.609753
Si Si2 0.578439 0.949293 0.468678
Si Si3 0.926131 0.193639 0.150228
Si Si4 0.929131 0.137008 0.647074
Si Si5 0.573576 0.806951 0.119348
O O1 0.750000 0.834627 0.625697
O O2 0.578291 0.914623 0.597991
O O3 0.476249 0.840021 0.730676
O O4 0.506254 0.833857 0.474925
O O5 0.750000 0.959065 0.420629
O O6 0.487475 0.919779 0.355184
O O7 0.500000 0.000000 0.500000
O O8 0.750000 0.184504 0.119327
O O9 0.957827 0.250000 0.187457
O O10 0.023402 0.177964 0.025194
O O11 0.750000 0.138626 0.630329
O O12 0.975468 0.161698 0.781152
O O13 0.750000 0.819281 0.137698
O O14 0.538335 0.750000 0.143966
#
# Coordination Sequence:
#
# PCOD8241181 Si02
#       5
#     8   8   8   8   8
#     4   9  19  33  50  74 100 130 167 205 246 295
#     4   9  18  32  52  76 100 128 163 203 251 301
#     4  10  20  33  50  73 101 134 170 205 245 294
#     4  10  19  32  51  75 101 130 166 209 249 291
#     4  10  20  34  51  71 100 137 171 204 246 296
#
# _framework density 16.233546
#
# number of rings (size 3 to 8) (size 9 to 14) (size 15 to 20)
#    1.200    1.200    0.000    3.600    0.000    3.200 
#    0.000    0.000    0.000    1.200    0.000    0.000 
#    0.000    0.000    0.000    0.000    0.000    0.000 
#
# Total GULP energy -495754.090863 kJ/mol
# GULP energy per Si atom -12393.852272 kJ/mol
# Density = 1.619660 g / cm^3
# Si number density = 16.233546 Si / 1000 Ang^3
#
#
#
# Elastic Constant Matrix: (Units=GPa)
#
#
# Indices 1 2 3 4 5 6 
#
# 1 100.3477 28.6412 24.7812 0.0000 0.0000 0.0000
# 2 28.6412 57.6753 35.2759 0.0000 0.0000 0.0000
# 3 24.7812 35.2759 77.9283 0.0000 0.0000 0.0000
# 4 0.0000 0.0000 0.0000 -3.9794 0.0000 0.0000
# 5 0.0000 0.0000 0.0000 0.0000 33.5099 0.0000
# 6 0.0000 0.0000 0.0000 0.0000 0.0000 24.3756
#
#
#
# Elastic Compliance Matrix: (Units=1/GPa)
#
#
# Indices 1 2 3 4 5 6 
#
# 1 0.011739 -0.004904 -0.001513 0.000000 0.000000 0.000000
# 2 -0.004904 0.026026 -0.010222 0.000000 0.000000 0.000000
# 3 -0.001513 -0.010222 0.017940 0.000000 0.000000 0.000000
# 4 0.000000 0.000000 0.000000 -0.251297 0.000000 0.000000
# 5 0.000000 0.000000 0.000000 0.000000 0.029842 0.000000
# 6 0.000000 0.000000 0.000000 0.000000 0.000000 0.041025
#
#
# Mechanical properties :
#
#
# Convention : Reuss Voigt Hill
#
# Bulk Modulus (GPa) = 44.58790 45.92756 45.25773
# Shear Modulus (GPa) = -59.54326 20.59811 -19.47258
#
# Velocity S-wave (km/s) = -6.06290 3.56597 -3.46718
# Velocity P-wave (km/s) = 4.63525 6.73113 3.45127
#
# Compressibility (1/GPa) = 0.02242761
#
# Stress axis : x y z
#
# Youngs Moduli (GPa) = 85.18843 38.42382 55.73999
#
# Poissons Ratio (x) = 0.18843 0.08434
# Poissons Ratio (y) = 0.41776 0.56975
# Poissons Ratio (z) = 0.12889 0.39275
#
# Static dielectric constant tensor:
#      x y z
#    x 3.267450 0.000000 0.000000 
#    y 0.000000 2.835080 0.000000 
#    z 0.000000 0.000000 2.877800 
# 
# 
# High freq. dielectric constant tensor:
#      x y z
#    x 1.648380 0.000000 0.000000 
#    y 0.000000 1.599080 0.000000 
#    z 0.000000 0.000000 1.609090 
# 
# From -- ./inp_files/6030.got.cif
#   From: 2010.03.12/outbox.cif.g09.slc.cpg/sg59_4_cif.got.tgz:6030.got - 2010.04.16 16:29:54.
