data_PCOD8241442
_publ_section_title
;
Structure prediction by ZEFSAII (Michael W. Deem and Ramdas Pophale) SiO2 
 PCOD8241442
Probable space group: P M M N
;
_chemical_formula_sum "Si O2"
_cell_formula_units_Z 36
_cell_length_a 21.487979
_cell_length_b 9.838285
_cell_length_c 8.814467
_cell_angle_alpha 90.000000
_cell_angle_beta 90.000000
_cell_angle_gamma 90.000000
_cell_volume 1863.421175
_symmetry_space_group_name_H-M "P M M N"
_symmetry_group_IT_number 59
_space_group.IT_coordinate_system_code '2'
_symmetry_cell_setting 'orthorhombic'
loop_
_space_group_symop_operation_xyz
x,y,z
1/2-x,1/2-y,z
1/2+x,-y,-z
-x,1/2+y,-z
-x,-y,-z
1/2+x,1/2+y,-z
1/2-x,y,z
x,1/2-y,z
loop_
_atom_site_type_symbol
_atom_site_label
_atom_site_fract_x
_atom_site_fract_y
_atom_site_fract_z
Si Si1 0.602005 0.250000 0.095138
Si Si2 0.359297 0.750000 0.565790
Si Si3 0.100853 0.970026 0.142495
Si Si4 0.533483 0.250000 0.667706
Si Si5 0.589142 0.750000 0.505848
Si Si6 0.319679 0.481982 0.422898
Si Si7 0.957575 0.750000 0.841374
O O1 0.636410 0.250000 0.253958
O O2 0.528526 0.250000 0.113516
O O3 0.622603 0.114993 0.003757
O O4 0.427290 0.750000 0.488059
O O5 0.319739 0.620830 0.515455
O O6 0.048810 0.885092 0.236183
O O7 0.160740 0.993927 0.248464
O O8 0.073472 0.114557 0.088399
O O9 0.460137 0.250000 0.631331
O O10 0.632560 0.881462 0.493821
O O11 0.550449 0.750000 0.660965
O O12 0.250000 0.421259 0.422934
#
# Coordination Sequence:
#
# PCOD8241442 Si02
#       7
#     4   4   8   4   4   8   4
#     4  11  20  35  50  84 113 141 177 218 276 331
#     4  10  21  33  58  80 113 142 173 228 280 321
#     4   9  21  35  56  81 110 149 183 218 276 323
#     4   9  18  35  53  86 110 137 175 221 278 340
#     4  10  20  33  61  84 107 140 180 227 286 322
#     4  10  21  39  57  79 106 144 190 230 264 323
#     4  10  19  32  54  82 115 142 173 224 268 336
#
# _framework density 19.319303000000001
#
# number of rings (size 3 to 8) (size 9 to 14) (size 15 to 20)
#    0.000    2.222    1.111    2.000    3.111    2.667 
#    0.000    2.222    0.000    0.000    0.000    3.111 
#    0.000    0.000    0.000    0.000    0.000    0.000 
#
# Total GULP energy -446459.702724 kJ/mol
# GULP energy per Si atom -12401.658409 kJ/mol
# Density = 1.927533 g / cm^3
# Si number density = 19.319303 Si / 1000 Ang^3
#
#
#
# Elastic Constant Matrix: (Units=GPa)
#
#
# Indices 1 2 3 4 5 6 
#
# 1 100.8924 18.6925 18.8196 0.0000 0.0000 0.0000
# 2 18.6925 120.1197 17.0748 0.0000 0.0000 0.0000
# 3 18.8196 17.0748 67.0649 0.0000 0.0000 0.0000
# 4 0.0000 0.0000 0.0000 4.9524 0.0000 0.0000
# 5 0.0000 0.0000 0.0000 0.0000 17.2189 0.0000
# 6 0.0000 0.0000 0.0000 0.0000 0.0000 8.9463
#
#
#
# Elastic Compliance Matrix: (Units=1/GPa)
#
#
# Indices 1 2 3 4 5 6 
#
# 1 0.010645 -0.001278 -0.002662 0.000000 0.000000 0.000000
# 2 -0.001278 0.008791 -0.001880 0.000000 0.000000 0.000000
# 3 -0.002662 -0.001880 0.016136 0.000000 0.000000 0.000000
# 4 0.000000 0.000000 0.000000 0.201921 0.000000 0.000000
# 5 0.000000 0.000000 0.000000 0.000000 0.058076 0.000000
# 6 0.000000 0.000000 0.000000 0.000000 0.000000 0.111778
#
#
# Mechanical properties :
#
#
# Convention : Reuss Voigt Hill
#
# Bulk Modulus (GPa) = 41.78241 44.13896 42.96068
# Shear Modulus (GPa) = 11.71058 21.78952 16.75005
#
# Velocity S-wave (km/s) = 2.46470 3.36201 2.94770
# Velocity P-wave (km/s) = 5.45655 6.16178 5.81985
#
# Compressibility (1/GPa) = 0.02393352
#
# Stress axis : x y z
#
# Youngs Moduli (GPa) = 93.94217 113.75132 61.97172
#
# Poissons Ratio (x) = 0.14539 0.16495
# Poissons Ratio (y) = 0.12007 0.11648
# Poissons Ratio (z) = 0.25005 0.21380
#
# Static dielectric constant tensor:
#      x y z
#    x 3.251230 0.000000 0.000000 
#    y 0.000000 3.767680 0.000000 
#    z 0.000000 0.000000 3.406470 
# 
# 
# High freq. dielectric constant tensor:
#      x y z
#    x 1.732300 0.000000 0.000000 
#    y 0.000000 1.767420 0.000000 
#    z 0.000000 0.000000 1.734490 
# 
# From -- ./inp_files/11109.got.cif
#   From: 2010.03.12/outbox.cif.g09.slc.cpg/sg59_6_cif.got.tgz:11109.got - 2010.04.16 16:29:54.
