data_PCOD8241343
_publ_section_title
;
Structure prediction by ZEFSAII (Michael W. Deem and Ramdas Pophale) SiO2 
 PCOD8241343
Probable space group: P M M N
;
_chemical_formula_sum "Si O2"
_cell_formula_units_Z 64
_cell_length_a 19.165709
_cell_length_b 9.212526
_cell_length_c 21.323816
_cell_angle_alpha 90.000000
_cell_angle_beta 90.000000
_cell_angle_gamma 90.000000
_cell_volume 3765.030882
_symmetry_space_group_name_H-M "P M M N"
_symmetry_group_IT_number 59
_space_group.IT_coordinate_system_code '2'
_symmetry_cell_setting 'orthorhombic'
loop_
_space_group_symop_operation_xyz
x,y,z
1/2-x,1/2-y,z
1/2+x,-y,-z
-x,1/2+y,-z
-x,-y,-z
1/2+x,1/2+y,-z
1/2-x,y,z
x,1/2-y,z
loop_
_atom_site_type_symbol
_atom_site_label
_atom_site_fract_x
_atom_site_fract_y
_atom_site_fract_z
Si Si1 0.530703 0.084648 0.057737
Si Si2 0.128047 0.084346 0.775398
Si Si3 0.496909 0.087101 0.192143
Si Si4 0.561169 0.582793 0.680326
Si Si5 0.168895 0.581136 0.400274
Si Si6 0.170130 0.418964 0.525954
Si Si7 0.921391 0.918587 0.355720
Si Si8 0.825240 0.418350 0.113479
O O1 0.537130 0.250000 0.036136
O O2 0.478461 0.068776 0.118125
O O3 0.608543 0.021857 0.074068
O O4 0.500000 0.000000 0.000000
O O5 0.141676 0.250000 0.793397
O O6 0.134771 0.058393 0.700658
O O7 0.180126 0.989533 0.817393
O O8 0.049616 0.040768 0.792345
O O9 0.529855 0.250000 0.200241
O O10 0.434886 0.070986 0.243080
O O11 0.566065 0.750000 0.658871
O O12 0.626981 0.494315 0.655601
O O13 0.489344 0.518159 0.652651
O O14 0.250000 0.553819 0.386674
O O15 0.150161 0.750000 0.402552
O O16 0.146337 0.511038 0.466031
O O17 0.250000 0.454914 0.544577
O O18 0.161902 0.250000 0.509657
O O19 0.118942 0.465799 0.581783
O O20 0.944963 0.750000 0.357842
O O21 0.750000 0.447292 0.079829
O O22 0.837968 0.250000 0.124785
#
# Coordination Sequence:
#
# PCOD8241343 Si02
#       8
#     8   8   8   8   8   8   8   8
#     4   9  17  30  49  72  97 126 159 193 230 274
#     4   9  16  26  43  68  95 121 151 189 231 272
#     4   8  16  31  48  68  95 123 151 184 224 273
#     4  10  19  32  53  75  94 122 159 197 235 281
#     4  10  21  36  52  70  93 120 153 199 253 299
#     4   9  18  33  50  66  89 125 165 199 235 287
#     4   9  18  31  47  70 100 129 156 193 240 282
#     4   9  18  32  47  64  92 130 166 197 230 273
#
# _framework density 16.998532999999998
#
# number of rings (size 3 to 8) (size 9 to 14) (size 15 to 20)
#    0.000    2.875    0.000    1.875    0.000    5.500 
#    0.000    1.250    0.000    2.250    0.000    3.500 
#    0.000    0.000    0.000    0.000    0.000    0.000 
#
# Total GULP energy -792922.236727 kJ/mol
# GULP energy per Si atom -12389.409949 kJ/mol
# Density = 1.695984 g / cm^3
# Si number density = 16.998533 Si / 1000 Ang^3
#
#
#
# Elastic Constant Matrix: (Units=GPa)
#
#
# Indices 1 2 3 4 5 6 
#
# 1 76.6815 39.4184 62.6252 0.0000 0.0000 0.0000
# 2 39.4184 68.8810 52.9408 0.0000 0.0000 0.0000
# 3 62.6252 52.9408 128.2149 0.0000 0.0000 0.0000
# 4 0.0000 0.0000 0.0000 28.5209 0.0000 0.0000
# 5 0.0000 0.0000 0.0000 0.0000 20.4948 0.0000
# 6 0.0000 0.0000 0.0000 0.0000 0.0000 23.3769
#
#
#
# Elastic Compliance Matrix: (Units=1/GPa)
#
#
# Indices 1 2 3 4 5 6 
#
# 1 0.023707 -0.006836 -0.008756 0.000000 0.000000 0.000000
# 2 -0.006836 0.023238 -0.006256 0.000000 0.000000 0.000000
# 3 -0.008756 -0.006256 0.014660 0.000000 0.000000 0.000000
# 4 0.000000 0.000000 0.000000 0.035062 0.000000 0.000000
# 5 0.000000 0.000000 0.000000 0.000000 0.048793 0.000000
# 6 0.000000 0.000000 0.000000 0.000000 0.000000 0.042777
#
#
# Mechanical properties :
#
#
# Convention : Reuss Voigt Hill
#
# Bulk Modulus (GPa) = 55.84532 64.86068 60.35300
# Shear Modulus (GPa) = 21.01694 22.39806 21.70750
#
# Velocity S-wave (km/s) = 3.52006 3.63388 3.57742
# Velocity P-wave (km/s) = 7.03174 7.47303 7.25574
#
# Compressibility (1/GPa) = 0.01790660
#
# Stress axis : x y z
#
# Youngs Moduli (GPa) = 42.18245 43.03226 68.21498
#
# Poissons Ratio (x) = 0.29419 0.59732
# Poissons Ratio (y) = 0.28838 0.42676
# Poissons Ratio (z) = 0.36937 0.26921
#
# Static dielectric constant tensor:
#      x y z
#    x 3.045380 0.000000 0.000000 
#    y 0.000000 3.240950 0.000000 
#    z 0.000000 0.000000 3.261220 
# 
# 
# High freq. dielectric constant tensor:
#      x y z
#    x 1.628750 0.000000 0.000000 
#    y 0.000000 1.662070 0.000000 
#    z 0.000000 0.000000 1.649040 
# 
# From -- ./inp_files/30991.got.cif
#   From: 2010.03.12/outbox.cif.g09.slc.cpg/sg59_16_cif.got.tgz:30991.got - 2010.04.16 16:29:54.
