data_PCOD8241309
_publ_section_title
;
Structure prediction by ZEFSAII (Michael W. Deem and Ramdas Pophale) SiO2 
 PCOD8241309
Probable space group: P M M N
;
_chemical_formula_sum "Si O2"
_cell_formula_units_Z 48
_cell_length_a 8.962583
_cell_length_b 22.795206
_cell_length_c 13.458046
_cell_angle_alpha 90.000000
_cell_angle_beta 90.000000
_cell_angle_gamma 90.000000
_cell_volume 2749.531631
_symmetry_space_group_name_H-M "P M M N"
_symmetry_group_IT_number 59
_space_group.IT_coordinate_system_code '2'
_symmetry_cell_setting 'orthorhombic'
loop_
_space_group_symop_operation_xyz
x,y,z
1/2-x,1/2-y,z
1/2+x,-y,-z
-x,1/2+y,-z
-x,-y,-z
1/2+x,1/2+y,-z
1/2-x,y,z
x,1/2-y,z
loop_
_atom_site_type_symbol
_atom_site_label
_atom_site_fract_x
_atom_site_fract_y
_atom_site_fract_z
Si Si1 0.071289 0.750000 0.743956
Si Si2 0.074984 0.750000 0.515521
Si Si3 0.571438 0.475319 0.098940
Si Si4 0.421100 0.359650 0.573852
Si Si5 0.574269 0.867971 0.800955
Si Si6 0.575692 0.540950 0.293402
Si Si7 0.582066 0.559432 0.609171
O O1 0.250000 0.750000 0.748208
O O2 0.012336 0.750000 0.628682
O O3 0.006110 0.694801 0.803919
O O4 0.250000 0.750000 0.521760
O O5 0.025307 0.694423 0.451190
O O6 0.750000 0.471215 0.090482
O O7 0.503267 0.410979 0.119053
O O8 0.517837 0.520782 0.185261
O O9 0.500000 0.500000 0.000000
O O10 0.250000 0.337649 0.573367
O O11 0.465272 0.391085 0.679120
O O12 0.447301 0.411245 0.495705
O O13 0.750000 0.861793 0.825041
O O14 0.542616 0.892255 0.691618
O O15 0.750000 0.533597 0.296854
O O16 0.517803 0.497870 0.379327
O O17 0.750000 0.537765 0.622714
#
# Coordination Sequence:
#
# PCOD8241309 Si02
#       7
#     4   4   8   8   8   8   8
#     4  11  21  33  49  74 109 144 177 213 252 298
#     4  11  23  33  47  72 103 144 183 215 248 292
#     4  10  20  36  56  80 106 133 171 220 273 324
#     4  10  19  33  49  69 100 139 175 208 248 297
#     4  10  19  32  52  78 106 139 175 212 258 311
#     4   9  19  32  50  74 100 130 167 211 258 306
#     4   9  17  28  46  72 102 134 168 202 245 300
#
# _framework density 17.457519000000001
#
# number of rings (size 3 to 8) (size 9 to 14) (size 15 to 20)
#    0.000    2.167    1.667    2.000    0.000    3.333 
#    0.000    0.000    0.000    1.000    0.000    4.667 
#    0.000    0.000    0.000    0.000    0.000    0.000 
#
# Total GULP energy -594994.072024 kJ/mol
# GULP energy per Si atom -12395.709834 kJ/mol
# Density = 1.741778 g / cm^3
# Si number density = 17.457519 Si / 1000 Ang^3
#
#
#
# Elastic Constant Matrix: (Units=GPa)
#
#
# Indices 1 2 3 4 5 6 
#
# 1 61.6267 48.7406 31.3230 0.0000 0.0000 0.0000
# 2 48.7406 118.1333 50.9316 0.0000 0.0000 0.0000
# 3 31.3230 50.9316 53.6118 0.0000 0.0000 0.0000
# 4 0.0000 0.0000 0.0000 47.1509 0.0000 0.0000
# 5 0.0000 0.0000 0.0000 0.0000 22.0534 0.0000
# 6 0.0000 0.0000 0.0000 0.0000 0.0000 34.9097
#
#
#
# Elastic Compliance Matrix: (Units=1/GPa)
#
#
# Indices 1 2 3 4 5 6 
#
# 1 0.026206 -0.007133 -0.008535 0.000000 0.000000 0.000000
# 2 -0.007133 0.016279 -0.011298 0.000000 0.000000 0.000000
# 3 -0.008535 -0.011298 0.034372 0.000000 0.000000 0.000000
# 4 0.000000 0.000000 0.000000 0.021208 0.000000 0.000000
# 5 0.000000 0.000000 0.000000 0.000000 0.045345 0.000000
# 6 0.000000 0.000000 0.000000 0.000000 0.000000 0.028645
#
#
# Mechanical properties :
#
#
# Convention : Reuss Voigt Hill
#
# Bulk Modulus (GPa) = 43.61797 55.04023 49.32910
# Shear Modulus (GPa) = 21.40162 27.64791 24.52477
#
# Velocity S-wave (km/s) = 3.50512 3.98392 3.75217
# Velocity P-wave (km/s) = 6.43588 7.26352 6.86219
#
# Compressibility (1/GPa) = 0.02292633
#
# Stress axis : x y z
#
# Youngs Moduli (GPa) = 38.15933 61.43021 29.09350
#
# Poissons Ratio (x) = 0.43815 0.24831
# Poissons Ratio (y) = 0.27217 0.32869
# Poissons Ratio (z) = 0.32569 0.69401
#
# Static dielectric constant tensor:
#      x y z
#    x 3.268100 0.000000 0.000000 
#    y 0.000000 3.180210 0.000000 
#    z 0.000000 0.000000 3.294780 
# 
# 
# High freq. dielectric constant tensor:
#      x y z
#    x 1.679180 0.000000 0.000000 
#    y 0.000000 1.673330 0.000000 
#    z 0.000000 0.000000 1.648750 
# 
# From -- ./inp_files/20494.got.cif
#   From: 2010.03.12/outbox.cif.g09.slc.cpg/sg59_11_cif.got.tgz:20494.got - 2010.04.16 16:29:54.
