data_PCOD8241155
_publ_section_title
;
Structure prediction by ZEFSAII (Michael W. Deem and Ramdas Pophale) SiO2 
 PCOD8241155
Probable space group: P M M N
;
_chemical_formula_sum "Si O2"
_cell_formula_units_Z 64
_cell_length_a 17.832874
_cell_length_b 9.153651
_cell_length_c 22.611519
_cell_angle_alpha 90.000000
_cell_angle_beta 90.000000
_cell_angle_gamma 90.000000
_cell_volume 3691.011766
_symmetry_space_group_name_H-M "P M M N"
_symmetry_group_IT_number 59
_space_group.IT_coordinate_system_code '2'
_symmetry_cell_setting 'orthorhombic'
loop_
_space_group_symop_operation_xyz
x,y,z
1/2-x,1/2-y,z
1/2+x,-y,-z
-x,1/2+y,-z
-x,-y,-z
1/2+x,1/2+y,-z
1/2-x,y,z
x,1/2-y,z
loop_
_atom_site_type_symbol
_atom_site_label
_atom_site_fract_x
_atom_site_fract_y
_atom_site_fract_z
Si Si1 0.976015 0.921284 0.748450
Si Si2 0.334748 0.580078 0.295440
Si Si3 0.964264 0.577796 0.139728
Si Si4 0.335698 0.578206 0.935958
Si Si5 0.668739 0.076591 0.453140
Si Si6 0.439162 0.916261 0.035540
Si Si7 0.969699 0.080087 0.380343
Si Si8 0.109349 0.578875 0.422798
O O1 0.969719 0.750000 0.761967
O O2 0.021384 0.955303 0.688647
O O3 0.891986 0.986092 0.744092
O O4 0.025447 0.999430 0.798016
O O5 0.250000 0.543412 0.275281
O O6 0.353395 0.750000 0.285053
O O7 0.341989 0.539666 0.364753
O O8 0.950094 0.750000 0.148593
O O9 0.891367 0.510530 0.107020
O O10 0.043752 0.548300 0.104515
O O11 0.250000 0.524662 0.927247
O O12 0.342659 0.750000 0.921130
O O13 0.358004 0.548688 0.005807
O O14 0.750000 0.014022 0.435159
O O15 0.670539 0.250000 0.456089
O O16 0.611157 0.024533 0.402686
O O17 0.649399 0.017182 0.518661
O O18 0.458652 0.750000 0.024253
O O19 0.500000 0.000000 0.000000
O O20 0.981512 0.250000 0.392879
O O21 0.029057 0.995723 0.419828
O O22 0.095920 0.750000 0.427541
#
# Coordination Sequence:
#
# PCOD8241155 Si02
#       8
#     8   8   8   8   8   8   8   8
#     4  10  20  33  48  67  94 129 169 205 237 279
#     4   9  17  30  48  70  94 119 151 193 242 295
#     4  10  19  32  51  73  98 130 168 204 237 277
#     4   9  17  31  52  77 103 128 155 192 239 287
#     4   9  16  27  45  68  91 115 148 192 239 287
#     4   8  15  28  47  71  96 122 152 186 228 278
#     4   9  18  31  46  65  90 122 158 195 235 281
#     4   9  16  27  47  71  91 114 146 187 238 295
#
# _framework density 17.33942
#
# number of rings (size 3 to 8) (size 9 to 14) (size 15 to 20)
#    0.000    2.875    0.000    1.500    0.000    3.000 
#    0.000    1.250    0.000    6.750    0.000    0.000 
#    0.000    0.000    0.000    0.000    0.000    0.000 
#
# Total GULP energy -792960.867081 kJ/mol
# GULP energy per Si atom -12390.013548 kJ/mol
# Density = 1.729995 g / cm^3
# Si number density = 17.339420 Si / 1000 Ang^3
#
#
#
# Elastic Constant Matrix: (Units=GPa)
#
#
# Indices 1 2 3 4 5 6 
#
# 1 135.2910 40.4981 57.2235 0.0000 0.0000 0.0000
# 2 40.4981 47.1541 31.3035 0.0000 0.0000 0.0000
# 3 57.2235 31.3035 74.4342 0.0000 0.0000 0.0000
# 4 0.0000 0.0000 0.0000 20.3214 0.0000 0.0000
# 5 0.0000 0.0000 0.0000 0.0000 23.4805 0.0000
# 6 0.0000 0.0000 0.0000 0.0000 0.0000 24.6073
#
#
#
# Elastic Compliance Matrix: (Units=1/GPa)
#
#
# Indices 1 2 3 4 5 6 
#
# 1 0.011997 -0.005800 -0.006784 0.000000 0.000000 0.000000
# 2 -0.005800 0.032225 -0.009093 0.000000 0.000000 0.000000
# 3 -0.006784 -0.009093 0.022474 0.000000 0.000000 0.000000
# 4 0.000000 0.000000 0.000000 0.049209 0.000000 0.000000
# 5 0.000000 0.000000 0.000000 0.000000 0.042588 0.000000
# 6 0.000000 0.000000 0.000000 0.000000 0.000000 0.040638
#
#
# Mechanical properties :
#
#
# Convention : Reuss Voigt Hill
#
# Bulk Modulus (GPa) = 42.84165 57.21440 50.02803
# Shear Modulus (GPa) = 19.97860 22.20544 21.09202
#
# Velocity S-wave (km/s) = 3.39810 3.58248 3.49151
# Velocity P-wave (km/s) = 6.33699 7.08382 6.72079
#
# Compressibility (1/GPa) = 0.02334177
#
# Stress axis : x y z
#
# Youngs Moduli (GPa) = 83.35418 31.03161 44.49546
#
# Poissons Ratio (x) = 0.17999 0.30185
# Poissons Ratio (y) = 0.48346 0.40462
# Poissons Ratio (z) = 0.56546 0.28218
#
# Static dielectric constant tensor:
#      x y z
#    x 3.780010 0.000000 0.000000 
#    y 0.000000 3.096210 0.000000 
#    z 0.000000 0.000000 3.443120 
# 
# 
# High freq. dielectric constant tensor:
#      x y z
#    x 1.663170 0.000000 0.000000 
#    y 0.000000 1.658800 0.000000 
#    z 0.000000 0.000000 1.661850 
# 
# From -- ./inp_files/29518.got.cif
#   From: 2010.03.12/outbox.cif.g09.slc.cpg/sg59_15_cif.got.tgz:29518.got - 2010.04.16 16:29:54.
