data_PCOD8241140
_publ_section_title
;
Structure prediction by ZEFSAII (Michael W. Deem and Ramdas Pophale) SiO2 
 PCOD8241140
Probable space group: P M M N
;
_chemical_formula_sum "Si O2"
_cell_formula_units_Z 48
_cell_length_a 31.504607
_cell_length_b 8.479238
_cell_length_c 9.112673
_cell_angle_alpha 90.000000
_cell_angle_beta 90.000000
_cell_angle_gamma 90.000000
_cell_volume 2434.314456
_symmetry_space_group_name_H-M "P M M N"
_symmetry_group_IT_number 59
_space_group.IT_coordinate_system_code '2'
_symmetry_cell_setting 'orthorhombic'
loop_
_space_group_symop_operation_xyz
x,y,z
1/2-x,1/2-y,z
1/2+x,-y,-z
-x,1/2+y,-z
-x,-y,-z
1/2+x,1/2+y,-z
1/2-x,y,z
x,1/2-y,z
loop_
_atom_site_type_symbol
_atom_site_label
_atom_site_fract_x
_atom_site_fract_y
_atom_site_fract_z
Si Si1 0.593420 0.935018 0.333953
Si Si2 0.750000 0.435270 0.673542
Si Si3 0.089715 0.936744 0.341149
Si Si4 0.997926 0.933424 0.340235
Si Si5 0.172891 0.934048 0.823905
Si Si6 0.250000 0.431775 0.646053
Si Si7 0.168774 0.937431 0.156017
O O1 0.602529 0.750000 0.309307
O O2 0.546834 0.989024 0.267951
O O3 0.595984 0.971896 0.506707
O O4 0.627304 0.038795 0.247999
O O5 0.750000 0.250000 0.697966
O O6 0.750000 0.468490 0.501980
O O7 0.791821 0.507110 0.751021
O O8 0.093915 0.750000 0.371950
O O9 0.043392 0.976245 0.265499
O O10 0.125152 0.998777 0.228445
O O11 0.993139 0.750000 0.357669
O O12 0.000000 0.000000 0.500000
O O13 0.184505 0.750000 0.818040
O O14 0.208319 0.030403 0.738250
O O15 0.171916 0.998816 0.989925
O O16 0.250000 0.250000 0.602351
O O17 0.169130 0.750000 0.157733
#
# Coordination Sequence:
#
# PCOD8241140 Si02
#       7
#     8   4   8   8   8   4   8
#     4  10  19  32  50  78 110 140 175 221 268 314
#     4  10  19  36  60  84 106 134 171 216 264 312
#     4   9  16  31  54  78 102 139 185 227 267 312
#     4   8  15  27  47  73 104 137 175 221 268 310
#     4  11  22  38  57  78 105 141 177 212 254 310
#     4  12  25  40  58  84 110 134 167 212 260 312
#     4   9  19  34  55  79 104 135 179 223 258 302
#
# _framework density 19.718077000000001
#
# number of rings (size 3 to 8) (size 9 to 14) (size 15 to 20)
#    0.000    2.333    0.000    3.250    0.000    3.333 
#    0.000    5.000    0.000    0.000    0.000    0.000 
#    0.000    0.000    0.000    0.000    0.000    0.000 
#
# Total GULP energy -594788.106689 kJ/mol
# GULP energy per Si atom -12391.418889 kJ/mol
# Density = 1.967320 g / cm^3
# Si number density = 19.718077 Si / 1000 Ang^3
#
#
#
# Elastic Constant Matrix: (Units=GPa)
#
#
# Indices 1 2 3 4 5 6 
#
# 1 186.1413 9.4659 61.6387 0.0000 0.0000 0.0000
# 2 9.4659 18.5080 -1.2860 0.0000 0.0000 0.0000
# 3 61.6387 -1.2860 99.4124 0.0000 0.0000 0.0000
# 4 0.0000 0.0000 0.0000 9.8878 0.0000 0.0000
# 5 0.0000 0.0000 0.0000 0.0000 -10.0118 0.0000
# 6 0.0000 0.0000 0.0000 0.0000 0.0000 14.5817
#
#
#
# Elastic Compliance Matrix: (Units=1/GPa)
#
#
# Indices 1 2 3 4 5 6 
#
# 1 0.007031 -0.003902 -0.004410 0.000000 0.000000 0.000000
# 2 -0.003902 0.056245 0.003147 0.000000 0.000000 0.000000
# 3 -0.004410 0.003147 0.012834 0.000000 0.000000 0.000000
# 4 0.000000 0.000000 0.000000 0.101134 0.000000 0.000000
# 5 0.000000 0.000000 0.000000 0.000000 -0.099882 0.000000
# 6 0.000000 0.000000 0.000000 0.000000 0.000000 0.068579
#
#
# Mechanical properties :
#
#
# Convention : Reuss Voigt Hill
#
# Bulk Modulus (GPa) = 15.20213 49.29987 32.25100
# Shear Modulus (GPa) = 28.05858 18.50775 23.28317
#
# Velocity S-wave (km/s) = 3.77634 3.06701 3.44001
# Velocity P-wave (km/s) = 5.17115 6.13178 5.67184
#
# Compressibility (1/GPa) = 0.06578026
#
# Stress axis : x y z
#
# Youngs Moduli (GPa) = 142.22692 17.77923 77.91735
#
# Poissons Ratio (x) = 0.06938 0.34361
# Poissons Ratio (y) = 0.55503 -0.24522
# Poissons Ratio (z) = 0.62721 -0.05596
#
# Static dielectric constant tensor:
#      x y z
#    x 4.418340 0.000000 0.000000 
#    y 0.000000 1.274400 0.000000 
#    z 0.000000 0.000000 3.392990 
# 
# 
# High freq. dielectric constant tensor:
#      x y z
#    x 1.801440 0.000000 0.000000 
#    y 0.000000 1.747350 0.000000 
#    z 0.000000 0.000000 1.739580 
# 
# From -- ./inp_files/6407.got.cif
#   From: 2010.03.12/outbox.cif.g09.slc.cpg/sg59_4_cif.got.tgz:6407.got - 2010.04.16 16:29:54.
