data_PCOD8241160
_publ_section_title
;
Structure prediction by ZEFSAII (Michael W. Deem and Ramdas Pophale) SiO2 
 PCOD8241160
Probable space group: P M M N
;
_chemical_formula_sum "Si O2"
_cell_formula_units_Z 56
_cell_length_a 8.896603
_cell_length_b 14.267181
_cell_length_c 23.163115
_cell_angle_alpha 90.000000
_cell_angle_beta 90.000000
_cell_angle_gamma 90.000000
_cell_volume 2940.081338
_symmetry_space_group_name_H-M "P M M N"
_symmetry_group_IT_number 59
_space_group.IT_coordinate_system_code '2'
_symmetry_cell_setting 'orthorhombic'
loop_
_space_group_symop_operation_xyz
x,y,z
1/2-x,1/2-y,z
1/2+x,-y,-z
-x,1/2+y,-z
-x,-y,-z
1/2+x,1/2+y,-z
1/2-x,y,z
x,1/2-y,z
loop_
_atom_site_type_symbol
_atom_site_label
_atom_site_fract_x
_atom_site_fract_y
_atom_site_fract_z
Si Si1 0.425861 0.858912 0.032552
Si Si2 0.084038 0.351052 0.411051
Si Si3 0.428416 0.851787 0.355103
Si Si4 0.428649 0.461578 0.303743
Si Si5 0.571150 0.858122 0.809612
Si Si6 0.927553 0.403420 0.518018
Si Si7 0.925894 0.465840 0.084825
O O1 0.250000 0.864429 0.046472
O O2 0.481239 0.750000 0.037634
O O3 0.511124 0.928103 0.076971
O O4 0.461427 0.898263 0.969066
O O5 0.250000 0.391028 0.428101
O O6 0.101853 0.250000 0.381309
O O7 0.007649 0.417074 0.362990
O O8 0.982629 0.334717 0.467635
O O9 0.250000 0.851125 0.358815
O O10 0.489196 0.750000 0.334910
O O11 0.490255 0.872793 0.419442
O O12 0.479014 0.929114 0.307523
O O13 0.250000 0.449908 0.303186
O O14 0.493773 0.409233 0.247725
O O15 0.750000 0.863092 0.812509
O O16 0.516204 0.750000 0.810814
O O17 0.505469 0.916069 0.862235
O O18 0.750000 0.407764 0.518876
O O19 0.000000 0.500000 0.500000
O O20 0.750000 0.474023 0.096564
#
# Coordination Sequence:
#
# PCOD8241160 Si02
#       7
#     8   8   8   8   8   8   8
#     4   9  18  34  56  82 113 149 188 226 263 310
#     4  10  19  32  51  74 100 131 165 206 260 314
#     4   9  17  30  50  73  96 125 164 211 262 315
#     4   9  17  32  51  72  99 132 174 219 260 305
#     4  10  20  34  54  78 104 140 184 226 266 313
#     4  11  20  32  50  73 101 130 164 208 263 319
#     4  10  20  34  54  82 116 149 180 221 274 323
#
# _framework density 19.047091999999999
#
# number of rings (size 3 to 8) (size 9 to 14) (size 15 to 20)
#    0.000    2.286    1.429    2.143    0.000    4.286 
#    0.000    1.429    0.000    4.286    0.000    0.000 
#    0.000    0.000    0.000    0.000    0.000    0.000 
#
# Total GULP energy -693896.120941 kJ/mol
# GULP energy per Si atom -12391.002160 kJ/mol
# Density = 1.900374 g / cm^3
# Si number density = 19.047092 Si / 1000 Ang^3
#
#
#
# Elastic Constant Matrix: (Units=GPa)
#
#
# Indices 1 2 3 4 5 6 
#
# 1 34.9679 27.4917 23.0280 0.0000 0.0000 0.0000
# 2 27.4917 177.8661 67.3840 0.0000 0.0000 0.0000
# 3 23.0280 67.3840 105.2945 0.0000 0.0000 0.0000
# 4 0.0000 0.0000 0.0000 31.1531 0.0000 0.0000
# 5 0.0000 0.0000 0.0000 0.0000 23.9145 0.0000
# 6 0.0000 0.0000 0.0000 0.0000 0.0000 19.8479
#
#
#
# Elastic Compliance Matrix: (Units=1/GPa)
#
#
# Indices 1 2 3 4 5 6 
#
# 1 0.034814 -0.003295 -0.005505 0.000000 0.000000 0.000000
# 2 -0.003295 0.007733 -0.004228 0.000000 0.000000 0.000000
# 3 -0.005505 -0.004228 0.013407 0.000000 0.000000 0.000000
# 4 0.000000 0.000000 0.000000 0.032099 0.000000 0.000000
# 5 0.000000 0.000000 0.000000 0.000000 0.041816 0.000000
# 6 0.000000 0.000000 0.000000 0.000000 0.000000 0.050383
#
#
# Mechanical properties :
#
#
# Convention : Reuss Voigt Hill
#
# Bulk Modulus (GPa) = 33.44826 61.54845 47.49835
# Shear Modulus (GPa) = 23.11865 28.33142 25.72503
#
# Velocity S-wave (km/s) = 3.48769 3.86092 3.67904
# Velocity P-wave (km/s) = 5.81529 7.22908 6.56038
#
# Compressibility (1/GPa) = 0.02989693
#
# Stress axis : x y z
#
# Youngs Moduli (GPa) = 28.72427 129.30799 74.58751
#
# Poissons Ratio (x) = 0.42613 0.41059
# Poissons Ratio (y) = 0.09466 0.31538
# Poissons Ratio (z) = 0.15812 0.54676
#
# Static dielectric constant tensor:
#      x y z
#    x 3.373020 0.000000 0.000000 
#    y 0.000000 3.868550 0.000000 
#    z 0.000000 0.000000 3.256700 
# 
# 
# High freq. dielectric constant tensor:
#      x y z
#    x 1.701360 0.000000 0.000000 
#    y 0.000000 1.763620 0.000000 
#    z 0.000000 0.000000 1.724350 
# 
# From -- ./inp_files/29151.got.cif
#   From: 2010.03.12/outbox.cif.g09.slc.cpg/sg59_15_cif.got.tgz:29151.got - 2010.04.16 16:29:54.
