data_PCOD8241989
_publ_section_title
;
Structure prediction by ZEFSAII (Michael W. Deem and Ramdas Pophale) SiO2 
 PCOD8241989
Probable space group: P M M N
;
_chemical_formula_sum "Si O2"
_cell_formula_units_Z 48
_cell_length_a 30.998873
_cell_length_b 9.023413
_cell_length_c 9.008909
_cell_angle_alpha 90.000000
_cell_angle_beta 90.000000
_cell_angle_gamma 90.000000
_cell_volume 2519.932689
_symmetry_space_group_name_H-M "P M M N"
_symmetry_group_IT_number 59
_space_group.IT_coordinate_system_code '2'
_symmetry_cell_setting 'orthorhombic'
loop_
_space_group_symop_operation_xyz
x,y,z
1/2-x,1/2-y,z
1/2+x,-y,-z
-x,1/2+y,-z
-x,-y,-z
1/2+x,1/2+y,-z
1/2-x,y,z
x,1/2-y,z
loop_
_atom_site_type_symbol
_atom_site_label
_atom_site_fract_x
_atom_site_fract_y
_atom_site_fract_z
Si Si1 0.419198 0.576165 0.351246
Si Si2 0.665331 0.422087 0.832502
Si Si3 0.500746 0.923051 0.157047
Si Si4 0.250000 0.418182 0.824259
Si Si5 0.250000 0.083948 0.177211
Si Si6 0.585246 0.924971 0.337081
Si Si7 0.336226 0.574888 0.826552
O O1 0.420995 0.750000 0.392220
O O2 0.375798 0.534882 0.264219
O O3 0.459116 0.527744 0.249782
O O4 0.421816 0.476327 0.495817
O O5 0.676168 0.250000 0.825245
O O6 0.706777 0.504966 0.763976
O O7 0.655981 0.469313 0.002083
O O8 0.499861 0.750000 0.127265
O O9 0.543177 0.971887 0.245342
O O10 0.500000 0.000000 0.000000
O O11 0.250000 0.250000 0.764305
O O12 0.292111 0.503329 0.765118
O O13 0.250000 0.422366 0.000788
O O14 0.250000 0.250000 0.239127
O O15 0.593493 0.750000 0.331706
O O16 0.625453 0.010321 0.269757
O O17 0.333768 0.750000 0.803910
#
# Coordination Sequence:
#
# PCOD8241989 Si02
#       7
#     8   8   8   4   4   8   8
#     4  10  21  38  57  79 109 146 184 223 269 327
#     4   9  18  33  55  80 106 139 183 227 266 315
#     4  10  22  39  60  85 111 140 180 226 274 328
#     4   9  17  31  52  81 114 143 178 230 278 319
#     4   9  17  29  50  79 110 141 174 218 274 323
#     4  11  23  37  54  81 114 146 180 224 275 326
#     4  10  19  34  57  82 109 146 187 226 271 326
#
# _framework density 19.048128999999999
#
# number of rings (size 3 to 8) (size 9 to 14) (size 15 to 20)
#    0.000    2.167    0.000    3.000    0.000    6.667 
#    0.000    0.833    0.000    3.000    0.000    0.000 
#    0.000    0.000    0.000    0.000    0.000    0.000 
#
# Total GULP energy -595358.850638 kJ/mol
# GULP energy per Si atom -12403.309388 kJ/mol
# Density = 1.900477 g / cm^3
# Si number density = 19.048129 Si / 1000 Ang^3
#
#
#
# Elastic Constant Matrix: (Units=GPa)
#
#
# Indices 1 2 3 4 5 6 
#
# 1 182.8314 69.5671 71.0379 0.0000 0.0000 0.0000
# 2 69.5671 82.7258 50.0265 0.0000 0.0000 0.0000
# 3 71.0379 50.0265 104.7608 0.0000 0.0000 0.0000
# 4 0.0000 0.0000 0.0000 31.6477 0.0000 0.0000
# 5 0.0000 0.0000 0.0000 0.0000 -12.8863 0.0000
# 6 0.0000 0.0000 0.0000 0.0000 0.0000 18.7937
#
#
#
# Elastic Compliance Matrix: (Units=1/GPa)
#
#
# Indices 1 2 3 4 5 6 
#
# 1 0.008844 -0.005358 -0.003439 0.000000 0.000000 0.000000
# 2 -0.005358 0.020242 -0.006033 0.000000 0.000000 0.000000
# 3 -0.003439 -0.006033 0.014758 0.000000 0.000000 0.000000
# 4 0.000000 0.000000 0.000000 0.031598 0.000000 0.000000
# 5 0.000000 0.000000 0.000000 0.000000 -0.077602 0.000000
# 6 0.000000 0.000000 0.000000 0.000000 0.000000 0.053209
#
#
# Mechanical properties :
#
#
# Convention : Reuss Voigt Hill
#
# Bulk Modulus (GPa) = 70.49534 83.50900 77.00217
# Shear Modulus (GPa) = 58.52201 19.49013 39.00607
#
# Velocity S-wave (km/s) = 5.54887 3.20223 4.53013
# Velocity P-wave (km/s) = 8.83983 7.59003 8.23867
#
# Compressibility (1/GPa) = 0.01418533
#
# Stress axis : x y z
#
# Youngs Moduli (GPa) = 113.06699 49.40174 67.75876
#
# Poissons Ratio (x) = 0.26470 0.23300
# Poissons Ratio (y) = 0.60582 0.40879
# Poissons Ratio (z) = 0.38880 0.29804
#
# Static dielectric constant tensor:
#      x y z
#    x 3.786800 0.000000 0.000000 
#    y 0.000000 3.511490 0.000000 
#    z 0.000000 0.000000 3.315750 
# 
# 
# High freq. dielectric constant tensor:
#      x y z
#    x 1.761230 0.000000 0.000000 
#    y 0.000000 1.743420 0.000000 
#    z 0.000000 0.000000 1.723310 
# 
# From -- ./inp_files/13015.got.cif
#   From: 2010.03.12/outbox.cif.g09.slc.cpg/sg59_7_cif.got.tgz:13015.got - 2010.04.16 16:29:54.
