data_PCOD8241661
_publ_section_title
;
Structure prediction by ZEFSAII (Michael W. Deem and Ramdas Pophale) SiO2 
 PCOD8241661
Probable space group: P M M N
;
_chemical_formula_sum "Si O2"
_cell_formula_units_Z 64
_cell_length_a 19.552760
_cell_length_b 9.083633
_cell_length_c 19.147057
_cell_angle_alpha 90.000000
_cell_angle_beta 90.000000
_cell_angle_gamma 90.000000
_cell_volume 3400.710631
_symmetry_space_group_name_H-M "P M M N"
_symmetry_group_IT_number 59
_space_group.IT_coordinate_system_code '2'
_symmetry_cell_setting 'orthorhombic'
loop_
_space_group_symop_operation_xyz
x,y,z
1/2-x,1/2-y,z
1/2+x,-y,-z
-x,1/2+y,-z
-x,-y,-z
1/2+x,1/2+y,-z
1/2-x,y,z
x,1/2-y,z
loop_
_atom_site_type_symbol
_atom_site_label
_atom_site_fract_x
_atom_site_fract_y
_atom_site_fract_z
Si Si1 0.171578 0.418214 0.842932
Si Si2 0.570278 0.580230 0.276045
Si Si3 0.946962 0.925094 0.946862
Si Si4 0.066374 0.081145 0.570139
Si Si5 0.446210 0.422356 0.212059
Si Si6 0.591839 0.422183 0.563716
Si Si7 0.329374 0.579857 0.982530
Si Si8 0.671651 0.577273 0.686834
O O1 0.250000 0.435395 0.821911
O O2 0.154930 0.250000 0.865026
O O3 0.129016 0.470953 0.776514
O O4 0.151342 0.526897 0.905128
O O5 0.551012 0.750000 0.265829
O O6 0.599200 0.552301 0.353838
O O7 0.501370 0.491738 0.263236
O O8 0.952041 0.750000 0.954803
O O9 0.958460 0.978358 0.867207
O O10 0.870741 0.980024 0.963567
O O11 0.000000 0.000000 0.000000
O O12 0.073009 0.250000 0.546262
O O13 0.986796 0.037289 0.578849
O O14 0.107156 0.982527 0.514294
O O15 0.456760 0.250000 0.213469
O O16 0.371475 0.464274 0.243244
O O17 0.606327 0.250000 0.566027
O O18 0.641584 0.496872 0.619269
O O19 0.250000 0.554210 0.998751
O O20 0.350523 0.750000 0.989361
O O21 0.750000 0.527235 0.699296
O O22 0.667067 0.750000 0.671838
#
# Coordination Sequence:
#
# PCOD8241661 Si02
#       8
#     8   8   8   8   8   8   8   8
#     4   9  18  33  54  79 106 139 178 220 270 329
#     4  10  19  33  54  80 110 143 179 223 270 320
#     4  11  23  38  57  83 113 147 184 232 284 335
#     4   9  18  32  52  79 110 142 177 219 266 317
#     4  10  22  37  55  80 108 139 183 229 275 331
#     4  10  19  33  54  80 108 140 179 223 266 315
#     4  10  21  37  56  78 106 142 184 228 275 332
#     4  10  21  38  58  79 108 146 185 229 280 332
#
# _framework density 18.819595
#
# number of rings (size 3 to 8) (size 9 to 14) (size 15 to 20)
#    0.000    2.125    1.250    1.875    0.000    6.000 
#    0.000    1.875    0.000    2.250    0.000    0.000 
#    0.000    0.000    0.000    0.000    0.000    0.000 
#
# Total GULP energy -793589.331861 kJ/mol
# GULP energy per Si atom -12399.833310 kJ/mol
# Density = 1.877676 g / cm^3
# Si number density = 18.819595 Si / 1000 Ang^3
#
#
#
# Elastic Constant Matrix: (Units=GPa)
#
#
# Indices 1 2 3 4 5 6 
#
# 1 69.2181 35.6806 46.0121 0.0000 0.0000 0.0000
# 2 35.6806 49.6335 42.7669 0.0000 0.0000 0.0000
# 3 46.0121 42.7669 119.5191 0.0000 0.0000 0.0000
# 4 0.0000 0.0000 0.0000 29.0902 0.0000 0.0000
# 5 0.0000 0.0000 0.0000 0.0000 33.8142 0.0000
# 6 0.0000 0.0000 0.0000 0.0000 0.0000 28.3046
#
#
#
# Elastic Compliance Matrix: (Units=1/GPa)
#
#
# Indices 1 2 3 4 5 6 
#
# 1 0.024541 -0.013737 -0.004532 0.000000 0.000000 0.000000
# 2 -0.013737 0.036818 -0.007886 0.000000 0.000000 0.000000
# 3 -0.004532 -0.007886 0.012934 0.000000 0.000000 0.000000
# 4 0.000000 0.000000 0.000000 0.034376 0.000000 0.000000
# 5 0.000000 0.000000 0.000000 0.000000 0.029573 0.000000
# 6 0.000000 0.000000 0.000000 0.000000 0.000000 0.035330
#
#
# Mechanical properties :
#
#
# Convention : Reuss Voigt Hill
#
# Bulk Modulus (GPa) = 45.49155 54.14331 49.81743
# Shear Modulus (GPa) = 21.44002 25.83588 23.63795
#
# Velocity S-wave (km/s) = 3.37892 3.70918 3.54789
# Velocity P-wave (km/s) = 6.28074 6.86848 6.58118
#
# Compressibility (1/GPa) = 0.02198210
#
# Stress axis : x y z
#
# Youngs Moduli (GPa) = 40.74828 27.16084 77.31850
#
# Poissons Ratio (x) = 0.37310 0.35043
# Poissons Ratio (y) = 0.55975 0.60973
# Poissons Ratio (z) = 0.18469 0.21419
#
# Static dielectric constant tensor:
#      x y z
#    x 3.413550 0.000000 0.000000 
#    y 0.000000 3.430580 0.000000 
#    z 0.000000 0.000000 3.689050 
# 
# 
# High freq. dielectric constant tensor:
#      x y z
#    x 1.718340 0.000000 0.000000 
#    y 0.000000 1.729640 0.000000 
#    z 0.000000 0.000000 1.739020 
# 
# From -- ./inp_files/28147.got.cif
#   From: 2010.03.12/outbox.cif.g09.slc.cpg/sg59_15_cif.got.tgz:28147.got - 2010.04.16 16:29:54.
