data_PCOD8241294
_publ_section_title
;
Structure prediction by ZEFSAII (Michael W. Deem and Ramdas Pophale) SiO2 
 PCOD8241294
Probable space group: P M M N
;
_chemical_formula_sum "Si O2"
_cell_formula_units_Z 64
_cell_length_a 13.775209
_cell_length_b 12.908704
_cell_length_c 19.773486
_cell_angle_alpha 90.000000
_cell_angle_beta 90.000000
_cell_angle_gamma 90.000000
_cell_volume 3516.123169
_symmetry_space_group_name_H-M "P M M N"
_symmetry_group_IT_number 59
_space_group.IT_coordinate_system_code '2'
_symmetry_cell_setting 'orthorhombic'
loop_
_space_group_symop_operation_xyz
x,y,z
1/2-x,1/2-y,z
1/2+x,-y,-z
-x,1/2+y,-z
-x,-y,-z
1/2+x,1/2+y,-z
1/2-x,y,z
x,1/2-y,z
loop_
_atom_site_type_symbol
_atom_site_label
_atom_site_fract_x
_atom_site_fract_y
_atom_site_fract_z
Si Si1 0.361847 0.370435 0.676887
Si Si2 0.139491 0.046373 0.034580
Si Si3 0.499575 0.046634 0.780208
Si Si4 0.358692 0.550319 0.455936
Si Si5 0.499178 0.629531 0.072476
Si Si6 0.059956 0.365952 0.530010
Si Si7 0.139184 0.130535 0.182283
Si Si8 0.643987 0.136356 0.683973
O O1 0.250000 0.398165 0.664360
O O2 0.373743 0.250000 0.698781
O O3 0.401786 0.449054 0.734839
O O4 0.421692 0.393236 0.608608
O O5 0.250000 0.027162 0.014418
O O6 0.128561 0.112524 0.102533
O O7 0.091893 0.932889 0.042034
O O8 0.091763 0.113239 0.975135
O O9 0.472736 0.083906 0.854701
O O10 0.570666 0.129060 0.745708
O O11 0.556938 0.936680 0.779087
O O12 0.250000 0.590722 0.475831
O O13 0.445745 0.618446 0.488126
O O14 0.371855 0.433528 0.481568
O O15 0.370374 0.551453 0.374690
O O16 0.471390 0.750000 0.076843
O O17 0.091738 0.250000 0.514196
O O18 0.250000 0.100875 0.204700
O O19 0.117802 0.250000 0.198826
O O20 0.750000 0.125341 0.716715
O O21 0.630173 0.250000 0.649961
#
# Coordination Sequence:
#
# PCOD8241294 Si02
#       8
#     8   8   8   8   8   8   8   8
#     4  10  20  34  53  76 105 143 179 212 260 319
#     4   9  19  35  53  75 105 141 178 216 265 319
#     4  11  20  33  52  78 109 139 174 215 259 312
#     4  10  20  33  54  82 106 136 178 219 260 312
#     4  10  20  32  51  80 110 137 173 222 267 309
#     4  10  20  36  56  78 108 142 177 221 267 312
#     4   9  18  34  56  78 102 137 177 215 261 318
#     4  10  19  32  52  77 106 137 167 207 265 325
#
# _framework density 18.201865000000002
#
# number of rings (size 3 to 8) (size 9 to 14) (size 15 to 20)
#    0.000    2.125    1.250    2.625    0.000    3.500 
#    0.000    0.625    0.000    1.125    0.000    0.000 
#    0.000    0.000    0.000    0.000    0.000    0.000 
#
# Total GULP energy -793297.254813 kJ/mol
# GULP energy per Si atom -12395.269606 kJ/mol
# Density = 1.816044 g / cm^3
# Si number density = 18.201865 Si / 1000 Ang^3
#
#
#
# Elastic Constant Matrix: (Units=GPa)
#
#
# Indices 1 2 3 4 5 6 
#
# 1 114.0712 33.6353 27.6030 0.0000 0.0000 0.0000
# 2 33.6353 97.5481 35.0608 0.0000 0.0000 0.0000
# 3 27.6030 35.0608 65.3906 0.0000 0.0000 0.0000
# 4 0.0000 0.0000 0.0000 26.0830 0.0000 0.0000
# 5 0.0000 0.0000 0.0000 0.0000 28.8572 0.0000
# 6 0.0000 0.0000 0.0000 0.0000 0.0000 23.1785
#
#
#
# Elastic Compliance Matrix: (Units=1/GPa)
#
#
# Indices 1 2 3 4 5 6 
#
# 1 0.010213 -0.002443 -0.003001 0.000000 0.000000 0.000000
# 2 -0.002443 0.013283 -0.006091 0.000000 0.000000 0.000000
# 3 -0.003001 -0.006091 0.019825 0.000000 0.000000 0.000000
# 4 0.000000 0.000000 0.000000 0.038339 0.000000 0.000000
# 5 0.000000 0.000000 0.000000 0.000000 0.034653 0.000000
# 6 0.000000 0.000000 0.000000 0.000000 0.000000 0.043143
#
#
# Mechanical properties :
#
#
# Convention : Reuss Voigt Hill
#
# Bulk Modulus (GPa) = 49.37943 52.17867 50.77905
# Shear Modulus (GPa) = 26.41628 27.67115 27.04371
#
# Velocity S-wave (km/s) = 3.81372 3.90325 3.85875
# Velocity P-wave (km/s) = 6.82497 7.00305 6.91459
#
# Compressibility (1/GPa) = 0.02025135
#
# Stress axis : x y z
#
# Youngs Moduli (GPa) = 97.91432 75.28553 50.44040
#
# Poissons Ratio (x) = 0.18390 0.15139
# Poissons Ratio (y) = 0.23918 0.30722
# Poissons Ratio (z) = 0.29388 0.45854
#
# Static dielectric constant tensor:
#      x y z
#    x 3.533120 0.000000 0.000000 
#    y 0.000000 3.275210 0.000000 
#    z 0.000000 0.000000 3.252080 
# 
# 
# High freq. dielectric constant tensor:
#      x y z
#    x 1.715020 0.000000 0.000000 
#    y 0.000000 1.690060 0.000000 
#    z 0.000000 0.000000 1.692310 
# 
# From -- ./inp_files/27670.got.cif
#   From: 2010.03.12/outbox.cif.g09.slc.cpg/sg59_14_cif.got.tgz:27670.got - 2010.04.16 16:29:54.
