data_PCOD8241146
_publ_section_title
;
Structure prediction by ZEFSAII (Michael W. Deem and Ramdas Pophale) SiO2 
 PCOD8241146
Probable space group: P M M N
;
_chemical_formula_sum "Si O2"
_cell_formula_units_Z 64
_cell_length_a 8.827662
_cell_length_b 29.369709
_cell_length_c 14.950569
_cell_angle_alpha 90.000000
_cell_angle_beta 90.000000
_cell_angle_gamma 90.000000
_cell_volume 3876.172190
_symmetry_space_group_name_H-M "P M M N"
_symmetry_group_IT_number 59
_space_group.IT_coordinate_system_code '2'
_symmetry_cell_setting 'orthorhombic'
loop_
_space_group_symop_operation_xyz
x,y,z
1/2-x,1/2-y,z
1/2+x,-y,-z
-x,1/2+y,-z
-x,-y,-z
1/2+x,1/2+y,-z
1/2-x,y,z
x,1/2-y,z
loop_
_atom_site_type_symbol
_atom_site_label
_atom_site_fract_x
_atom_site_fract_y
_atom_site_fract_z
Si Si1 0.073339 0.614742 0.706035
Si Si2 0.071005 0.609136 0.034701
Si Si3 0.574503 0.464846 0.619012
Si Si4 0.570903 0.560862 0.864907
Si Si5 0.075785 0.433756 0.447649
Si Si6 0.929607 0.461223 0.819078
Si Si7 0.573063 0.800880 0.989099
Si Si8 0.423605 0.301777 0.218634
O O1 0.250000 0.605535 0.720874
O O2 0.974514 0.584085 0.772344
O O3 0.025159 0.602882 0.605102
O O4 0.035719 0.667616 0.722793
O O5 0.250000 0.608135 0.028869
O O6 0.012430 0.580502 0.120206
O O7 0.006884 0.586765 0.945735
O O8 0.016044 0.661188 0.045941
O O9 0.750000 0.451453 0.609794
O O10 0.549680 0.517770 0.598813
O O11 0.479015 0.434422 0.550185
O O12 0.509151 0.454917 0.718163
O O13 0.750000 0.564631 0.876855
O O14 0.513604 0.508616 0.862586
O O15 0.250000 0.418810 0.444890
O O16 0.750000 0.463325 0.813933
O O17 0.750000 0.807041 0.006784
O O18 0.521706 0.750000 0.018752
O O19 0.535353 0.808135 0.885192
O O20 0.250000 0.316418 0.234949
O O21 0.449574 0.250000 0.248566
#
# Coordination Sequence:
#
# PCOD8241146 Si02
#       8
#     8   8   8   8   8   8   8   8
#     4  12  22  31  48  75 102 130 165 204 243 291
#     4  11  21  32  48  74 100 128 167 207 246 289
#     4   9  17  33  51  69  95 128 164 204 245 285
#     4  11  20  34  49  65  97 140 174 200 236 286
#     4  10  19  32  51  72  96 127 162 201 245 294
#     4   9  19  34  50  68  98 136 169 203 246 291
#     4   9  18  33  51  69  93 128 165 200 245 296
#     4   9  18  33  52  71  95 129 164 199 244 298
#
# _framework density 16.511133999999998
#
# number of rings (size 3 to 8) (size 9 to 14) (size 15 to 20)
#    0.000    2.000    2.500    3.375    0.000    1.000 
#    0.000    4.375    0.000    0.000    0.000    0.875 
#    0.000    5.000    0.000    0.000    0.000    0.000 
#
# Total GULP energy -793656.369212 kJ/mol
# GULP energy per Si atom -12400.880769 kJ/mol
# Density = 1.647355 g / cm^3
# Si number density = 16.511134 Si / 1000 Ang^3
#
#
#
# Elastic Constant Matrix: (Units=GPa)
#
#
# Indices 1 2 3 4 5 6 
#
# 1 51.6162 36.8587 18.3134 0.0000 0.0000 0.0000
# 2 36.8587 111.3210 50.3841 0.0000 0.0000 0.0000
# 3 18.3134 50.3841 75.1193 0.0000 0.0000 0.0000
# 4 0.0000 0.0000 0.0000 21.1374 0.0000 0.0000
# 5 0.0000 0.0000 0.0000 0.0000 22.2067 0.0000
# 6 0.0000 0.0000 0.0000 0.0000 0.0000 25.4341
#
#
#
# Elastic Compliance Matrix: (Units=1/GPa)
#
#
# Indices 1 2 3 4 5 6 
#
# 1 0.025406 -0.008053 -0.000792 0.000000 0.000000 0.000000
# 2 -0.008053 0.015452 -0.008400 0.000000 0.000000 0.000000
# 3 -0.000792 -0.008400 0.019140 0.000000 0.000000 0.000000
# 4 0.000000 0.000000 0.000000 0.047310 0.000000 0.000000
# 5 0.000000 0.000000 0.000000 0.000000 0.045031 0.000000
# 6 0.000000 0.000000 0.000000 0.000000 0.000000 0.039317
#
#
# Mechanical properties :
#
#
# Convention : Reuss Voigt Hill
#
# Bulk Modulus (GPa) = 39.20784 49.90768 44.55776
# Shear Modulus (GPa) = 21.30848 22.58898 21.94873
#
# Velocity S-wave (km/s) = 3.59632 3.70280 3.64995
# Velocity P-wave (km/s) = 6.40645 6.96946 6.69387
#
# Compressibility (1/GPa) = 0.02550510
#
# Stress axis : x y z
#
# Youngs Moduli (GPa) = 39.36133 64.71849 52.24786
#
# Poissons Ratio (x) = 0.52120 0.04139
# Poissons Ratio (y) = 0.31699 0.43890
# Poissons Ratio (z) = 0.03118 0.54366
#
# Static dielectric constant tensor:
#      x y z
#    x 3.006580 0.000000 0.000000 
#    y 0.000000 3.176240 0.000000 
#    z 0.000000 0.000000 3.117410 
# 
# 
# High freq. dielectric constant tensor:
#      x y z
#    x 1.632070 0.000000 0.000000 
#    y 0.000000 1.625360 0.000000 
#    z 0.000000 0.000000 1.616590 
# 
# From -- ./inp_files/21916.got.cif
#   From: 2010.03.12/outbox.cif.g09.slc.cpg/sg59_11_cif.got.tgz:21916.got - 2010.04.16 16:29:54.
