data_PCOD8241158
_publ_section_title
;
Structure prediction by ZEFSAII (Michael W. Deem and Ramdas Pophale) SiO2 
 PCOD8241158
Probable space group: P M M N
;
_chemical_formula_sum "Si O2"
_cell_formula_units_Z 64
_cell_length_a 8.870873
_cell_length_b 19.099701
_cell_length_c 20.585921
_cell_angle_alpha 90.000000
_cell_angle_beta 90.000000
_cell_angle_gamma 90.000000
_cell_volume 3487.893632
_symmetry_space_group_name_H-M "P M M N"
_symmetry_group_IT_number 59
_space_group.IT_coordinate_system_code '2'
_symmetry_cell_setting 'orthorhombic'
loop_
_space_group_symop_operation_xyz
x,y,z
1/2-x,1/2-y,z
1/2+x,-y,-z
-x,1/2+y,-z
-x,-y,-z
1/2+x,1/2+y,-z
1/2-x,y,z
x,1/2-y,z
loop_
_atom_site_type_symbol
_atom_site_label
_atom_site_fract_x
_atom_site_fract_y
_atom_site_fract_z
Si Si1 0.580155 0.833269 0.004692
Si Si2 0.427200 0.926892 0.759599
Si Si3 0.428797 0.922957 0.382845
Si Si4 0.072157 0.084859 0.752790
Si Si5 0.421168 0.666882 0.134103
Si Si6 0.571732 0.330373 0.126721
Si Si7 0.571184 0.328291 0.498255
Si Si8 0.570863 0.428938 0.385241
O O1 0.750000 0.862362 0.008060
O O2 0.577907 0.750000 0.005509
O O3 0.502013 0.860322 0.938990
O O4 0.488729 0.862230 0.066601
O O5 0.250000 0.918816 0.764176
O O6 0.497249 0.875121 0.813472
O O7 0.480172 0.905388 0.687138
O O8 0.476068 0.006592 0.774114
O O9 0.250000 0.928719 0.378643
O O10 0.492700 0.895438 0.314655
O O11 0.481999 0.867234 0.436681
O O12 0.495026 0.997707 0.403509
O O13 0.250000 0.090316 0.742453
O O14 0.020114 0.138711 0.807016
O O15 0.250000 0.640305 0.140423
O O16 0.429892 0.750000 0.136198
O O17 0.750000 0.338656 0.119415
O O18 0.526286 0.250000 0.139119
O O19 0.750000 0.324590 0.495902
O O20 0.502346 0.250000 0.497141
O O21 0.512659 0.370276 0.435115
O O22 0.750000 0.440044 0.388614
#
# Coordination Sequence:
#
# PCOD8241158 Si02
#       8
#     8   8   8   8   8   8   8   8
#     4   9  17  30  48  71  99 130 164 200 240 290
#     4   8  16  30  48  72  99 126 159 202 246 288
#     4  10  19  32  51  73  99 133 170 206 248 300
#     4  10  20  35  53  73 100 132 168 208 248 294
#     4  10  20  34  53  76 100 127 162 205 251 298
#     4   9  16  28  48  72  97 126 161 201 245 292
#     4   9  18  31  49  75 103 129 162 208 256 298
#     4   9  17  32  53  73  96 130 170 208 247 297
#
# _framework density 18.349183
#
# number of rings (size 3 to 8) (size 9 to 14) (size 15 to 20)
#    0.000    2.750    0.000    2.625    0.000    3.250 
#    0.000    8.125    0.000    3.000    0.000    0.000 
#    0.000    0.000    0.000    0.000    0.000    0.000 
#
# Total GULP energy -793521.115905 kJ/mol
# GULP energy per Si atom -12398.767436 kJ/mol
# Density = 1.830742 g / cm^3
# Si number density = 18.349183 Si / 1000 Ang^3
#
#
#
# Elastic Constant Matrix: (Units=GPa)
#
#
# Indices 1 2 3 4 5 6 
#
# 1 56.8903 27.4091 39.1836 0.0000 0.0000 0.0000
# 2 27.4091 77.1761 72.5755 0.0000 0.0000 0.0000
# 3 39.1836 72.5755 155.1985 0.0000 0.0000 0.0000
# 4 0.0000 0.0000 0.0000 30.7417 0.0000 0.0000
# 5 0.0000 0.0000 0.0000 0.0000 24.5336 0.0000
# 6 0.0000 0.0000 0.0000 0.0000 0.0000 20.3751
#
#
#
# Elastic Compliance Matrix: (Units=1/GPa)
#
#
# Indices 1 2 3 4 5 6 
#
# 1 0.022179 -0.004660 -0.003420 0.000000 0.000000 0.000000
# 2 -0.004660 0.024107 -0.010097 0.000000 0.000000 0.000000
# 3 -0.003420 -0.010097 0.012028 0.000000 0.000000 0.000000
# 4 0.000000 0.000000 0.000000 0.032529 0.000000 0.000000
# 5 0.000000 0.000000 0.000000 0.000000 0.040760 0.000000
# 6 0.000000 0.000000 0.000000 0.000000 0.000000 0.049079
#
#
# Mechanical properties :
#
#
# Convention : Reuss Voigt Hill
#
# Bulk Modulus (GPa) = 45.53775 63.06681 54.30228
# Shear Modulus (GPa) = 22.28579 25.13651 23.71115
#
# Velocity S-wave (km/s) = 3.48880 3.70523 3.59864
# Velocity P-wave (km/s) = 6.41094 7.26292 6.85019
#
# Compressibility (1/GPa) = 0.02195980
#
# Stress axis : x y z
#
# Youngs Moduli (GPa) = 45.08820 41.48107 83.13663
#
# Poissons Ratio (x) = 0.19332 0.28434
# Poissons Ratio (y) = 0.21013 0.83941
# Poissons Ratio (z) = 0.15421 0.41882
#
# Static dielectric constant tensor:
#      x y z
#    x 3.222840 0.000000 0.000000 
#    y 0.000000 3.357570 0.000000 
#    z 0.000000 0.000000 3.652040 
# 
# 
# High freq. dielectric constant tensor:
#      x y z
#    x 1.692920 0.000000 0.000000 
#    y 0.000000 1.691310 0.000000 
#    z 0.000000 0.000000 1.727380 
# 
# From -- ./inp_files/29532.got.cif
#   From: 2010.03.12/outbox.cif.g09.slc.cpg/sg59_15_cif.got.tgz:29532.got - 2010.04.16 16:29:54.
