data_PCOD8241627
_publ_section_title
;
Structure prediction by ZEFSAII (Michael W. Deem and Ramdas Pophale) SiO2 
 PCOD8241627
Probable space group: P M M N
;
_chemical_formula_sum "Si O2"
_cell_formula_units_Z 64
_cell_length_a 8.926531
_cell_length_b 18.765629
_cell_length_c 20.335124
_cell_angle_alpha 90.000000
_cell_angle_beta 90.000000
_cell_angle_gamma 90.000000
_cell_volume 3406.376661
_symmetry_space_group_name_H-M "P M M N"
_symmetry_group_IT_number 59
_space_group.IT_coordinate_system_code '2'
_symmetry_cell_setting 'orthorhombic'
loop_
_space_group_symop_operation_xyz
x,y,z
1/2-x,1/2-y,z
1/2+x,-y,-z
-x,1/2+y,-z
-x,-y,-z
1/2+x,1/2+y,-z
1/2-x,y,z
x,1/2-y,z
loop_
_atom_site_type_symbol
_atom_site_label
_atom_site_fract_x
_atom_site_fract_y
_atom_site_fract_z
Si Si1 0.926802 0.422811 0.578846
Si Si2 0.426220 0.416351 0.444634
Si Si3 0.428453 0.329296 0.321662
Si Si4 0.426014 0.328886 0.077727
Si Si5 0.427297 0.924735 0.175232
Si Si6 0.074264 0.067175 0.964384
Si Si7 0.572053 0.916587 0.800192
Si Si8 0.071859 0.831306 0.297509
O O1 0.750000 0.414240 0.576172
O O2 0.974363 0.505769 0.582400
O O3 0.990474 0.378460 0.641345
O O4 0.994956 0.392018 0.511742
O O5 0.250000 0.414087 0.456637
O O6 0.482233 0.360046 0.391042
O O7 0.250000 0.329836 0.318253
O O8 0.492528 0.250000 0.313668
O O9 0.495356 0.377443 0.263401
O O10 0.250000 0.323035 0.089524
O O11 0.498358 0.250000 0.080291
O O12 0.495278 0.378456 0.135060
O O13 0.460980 0.363330 0.007565
O O14 0.250000 0.921085 0.163502
O O15 0.507658 0.912956 0.106110
O O16 0.481245 0.866135 0.228493
O O17 0.477564 0.001514 0.202632
O O18 0.250000 0.051545 0.958633
O O19 0.000000 0.000000 0.000000
O O20 0.750000 0.911600 0.800646
O O21 0.250000 0.832052 0.299805
O O22 0.011086 0.750000 0.302038
#
# Coordination Sequence:
#
# PCOD8241627 Si02
#       8
#     8   8   8   8   8   8   8   8
#     4   9  17  31  50  70  94 129 169 206 243 294
#     4   9  17  29  46  71  99 125 159 206 254 296
#     4   9  16  25  41  68  98 123 152 195 244 288
#     4   9  17  29  47  73 101 127 160 204 248 288
#     4  10  19  33  54  77  99 128 166 208 252 296
#     4  11  21  35  54  78 105 134 168 207 250 300
#     4   9  15  26  46  71  96 124 159 200 242 290
#     4   9  18  32  51  75 102 133 173 216 255 303
#
# _framework density 18.788291999999998
#
# number of rings (size 3 to 8) (size 9 to 14) (size 15 to 20)
#    0.000    2.625    1.250    1.500    0.000    5.500 
#    0.000    0.625    0.000    4.125    0.000    0.000 
#    0.000    0.000    0.000    0.000    0.000    0.000 
#
# Total GULP energy -793388.337006 kJ/mol
# GULP energy per Si atom -12396.692766 kJ/mol
# Density = 1.874553 g / cm^3
# Si number density = 18.788292 Si / 1000 Ang^3
#
#
#
# Elastic Constant Matrix: (Units=GPa)
#
#
# Indices 1 2 3 4 5 6 
#
# 1 21.1623 17.2748 25.3659 0.0000 0.0000 0.0000
# 2 17.2748 124.0520 72.4662 0.0000 0.0000 0.0000
# 3 25.3659 72.4662 166.5968 0.0000 0.0000 0.0000
# 4 0.0000 0.0000 0.0000 31.4710 0.0000 0.0000
# 5 0.0000 0.0000 0.0000 0.0000 28.2557 0.0000
# 6 0.0000 0.0000 0.0000 0.0000 0.0000 12.0056
#
#
#
# Elastic Compliance Matrix: (Units=1/GPa)
#
#
# Indices 1 2 3 4 5 6 
#
# 1 0.059245 -0.003996 -0.007282 0.000000 0.000000 0.000000
# 2 -0.003996 0.011077 -0.004210 0.000000 0.000000 0.000000
# 3 -0.007282 -0.004210 0.008942 0.000000 0.000000 0.000000
# 4 0.000000 0.000000 0.000000 0.031775 0.000000 0.000000
# 5 0.000000 0.000000 0.000000 0.000000 0.035391 0.000000
# 6 0.000000 0.000000 0.000000 0.000000 0.000000 0.083294
#
#
# Mechanical properties :
#
#
# Convention : Reuss Voigt Hill
#
# Bulk Modulus (GPa) = 20.70918 60.22498 40.46708
# Shear Modulus (GPa) = 18.06379 27.46009 22.76194
#
# Velocity S-wave (km/s) = 3.10407 3.82717 3.48443
# Velocity P-wave (km/s) = 4.88808 7.18706 6.14602
#
# Compressibility (1/GPa) = 0.04828775
#
# Stress axis : x y z
#
# Youngs Moduli (GPa) = 16.87911 90.27908 111.82592
#
# Poissons Ratio (x) = 0.36076 0.81436
# Poissons Ratio (y) = 0.06745 0.47076
# Poissons Ratio (z) = 0.12292 0.38005
#
# Static dielectric constant tensor:
#      x y z
#    x 2.909100 0.000000 0.000000 
#    y 0.000000 3.700530 0.000000 
#    z 0.000000 0.000000 3.654770 
# 
# 
# High freq. dielectric constant tensor:
#      x y z
#    x 1.668280 0.000000 0.000000 
#    y 0.000000 1.735900 0.000000 
#    z 0.000000 0.000000 1.745730 
# 
# From -- ./inp_files/29543.got.cif
#   From: 2010.03.12/outbox.cif.g09.slc.cpg/sg59_15_cif.got.tgz:29543.got - 2010.04.16 16:29:54.
