data_PCOD8241079
_publ_section_title
;
Structure prediction by ZEFSAII (Michael W. Deem and Ramdas Pophale) SiO2 
 PCOD8241079
Probable space group: P M M N
;
_chemical_formula_sum "Si O2"
_cell_formula_units_Z 64
_cell_length_a 18.887438
_cell_length_b 8.958375
_cell_length_c 19.782696
_cell_angle_alpha 90.000000
_cell_angle_beta 90.000000
_cell_angle_gamma 90.000000
_cell_volume 3347.247048
_symmetry_space_group_name_H-M "P M M N"
_symmetry_group_IT_number 59
_space_group.IT_coordinate_system_code '2'
_symmetry_cell_setting 'orthorhombic'
loop_
_space_group_symop_operation_xyz
x,y,z
1/2-x,1/2-y,z
1/2+x,-y,-z
-x,1/2+y,-z
-x,-y,-z
1/2+x,1/2+y,-z
1/2-x,y,z
x,1/2-y,z
loop_
_atom_site_type_symbol
_atom_site_label
_atom_site_fract_x
_atom_site_fract_y
_atom_site_fract_z
Si Si1 0.594075 0.416693 0.040692
Si Si2 0.582615 0.076320 0.415284
Si Si3 0.067961 0.417772 0.086384
Si Si4 0.169721 0.423518 0.467853
Si Si5 0.171579 0.418330 0.694262
Si Si6 0.935426 0.922331 0.646806
Si Si7 0.968294 0.427211 0.783673
Si Si8 0.117923 0.927161 0.813584
O O1 0.613838 0.250000 0.018104
O O2 0.512801 0.424755 0.063222
O O3 0.636618 0.464576 0.108188
O O4 0.613440 0.521349 0.977266
O O5 0.594585 0.250000 0.426071
O O6 0.499989 0.036393 0.404283
O O7 0.616316 0.995979 0.479215
O O8 0.621644 0.024781 0.347993
O O9 0.092377 0.250000 0.102706
O O10 0.080128 0.517709 0.153298
O O11 0.250000 0.489296 0.470862
O O12 0.171755 0.250000 0.485831
O O13 0.137787 0.450323 0.393226
O O14 0.250000 0.416436 0.662533
O O15 0.140852 0.250000 0.696562
O O16 0.176810 0.489860 0.769025
O O17 0.942976 0.750000 0.669581
O O18 0.932794 0.026208 0.712822
O O19 0.976693 0.250000 0.787176
O O20 0.043384 0.507263 0.788865
O O21 0.116748 0.750000 0.801922
#
# Coordination Sequence:
#
# PCOD8241079 Si02
#       8
#     8   8   8   8   8   8   8   8
#     4   8  15  26  41  64  95 131 170 212 258 310
#     4  11  22  36  57  81 107 140 177 221 266 316
#     4   9  16  26  42  66  99 135 171 212 258 309
#     4  10  22  40  60  81 108 141 176 218 267 320
#     4  11  23  36  51  74 105 142 184 227 269 321
#     4  10  21  37  56  80 109 141 178 220 268 321
#     4  11  20  30  49  75 105 139 174 216 266 315
#     4  10  19  32  49  70 100 137 177 222 270 318
#
# _framework density 19.120190999999998
#
# number of rings (size 3 to 8) (size 9 to 14) (size 15 to 20)
#    0.000    2.000    1.250    4.125    0.000    7.250 
#    0.000    0.000    0.000    0.000    0.000    0.875 
#    0.000    5.000    0.000    0.000    0.000    0.000 
#
# Total GULP energy -793367.142870 kJ/mol
# GULP energy per Si atom -12396.361607 kJ/mol
# Density = 1.907667 g / cm^3
# Si number density = 19.120191 Si / 1000 Ang^3
#
#
#
# Elastic Constant Matrix: (Units=GPa)
#
#
# Indices 1 2 3 4 5 6 
#
# 1 46.8318 17.8212 27.0069 0.0000 0.0000 0.0000
# 2 17.8212 54.0196 38.2933 0.0000 0.0000 0.0000
# 3 27.0069 38.2933 107.1082 0.0000 0.0000 0.0000
# 4 0.0000 0.0000 0.0000 38.7907 0.0000 0.0000
# 5 0.0000 0.0000 0.0000 0.0000 8.8728 0.0000
# 6 0.0000 0.0000 0.0000 0.0000 0.0000 16.5704
#
#
#
# Elastic Compliance Matrix: (Units=1/GPa)
#
#
# Indices 1 2 3 4 5 6 
#
# 1 0.026063 -0.005277 -0.004685 0.000000 0.000000 0.000000
# 2 -0.005277 0.025865 -0.007916 0.000000 0.000000 0.000000
# 3 -0.004685 -0.007916 0.013348 0.000000 0.000000 0.000000
# 4 0.000000 0.000000 0.000000 0.025779 0.000000 0.000000
# 5 0.000000 0.000000 0.000000 0.000000 0.112704 0.000000
# 6 0.000000 0.000000 0.000000 0.000000 0.000000 0.060349
#
#
# Mechanical properties :
#
#
# Convention : Reuss Voigt Hill
#
# Bulk Modulus (GPa) = 33.87741 41.57804 37.72773
# Shear Modulus (GPa) = 16.14448 21.16934 18.65691
#
# Velocity S-wave (km/s) = 2.90895 3.33103 3.12712
# Velocity P-wave (km/s) = 5.38881 6.04873 5.72828
#
# Compressibility (1/GPa) = 0.02951820
#
# Stress axis : x y z
#
# Youngs Moduli (GPa) = 38.36879 38.66301 74.91793
#
# Poissons Ratio (x) = 0.20403 0.35099
# Poissons Ratio (y) = 0.20248 0.59309
# Poissons Ratio (z) = 0.17976 0.30607
#
# Static dielectric constant tensor:
#      x y z
#    x 3.190920 0.000000 0.000000 
#    y 0.000000 3.545700 0.000000 
#    z 0.000000 0.000000 3.829110 
# 
# 
# High freq. dielectric constant tensor:
#      x y z
#    x 1.693040 0.000000 0.000000 
#    y 0.000000 1.748510 0.000000 
#    z 0.000000 0.000000 1.756570 
# 
# From -- ./inp_files/30659.got.cif
#   From: 2010.03.12/outbox.cif.g09.slc.cpg/sg59_16_cif.got.tgz:30659.got - 2010.04.16 16:29:54.
