data_PCOD8241952
_publ_section_title
;
Structure prediction by ZEFSAII (Michael W. Deem and Ramdas Pophale) SiO2 
 PCOD8241952
Probable space group: P M M N
;
_chemical_formula_sum "Si O2"
_cell_formula_units_Z 48
_cell_length_a 18.658375
_cell_length_b 9.236763
_cell_length_c 14.808945
_cell_angle_alpha 90.000000
_cell_angle_beta 90.000000
_cell_angle_gamma 90.000000
_cell_volume 2552.217828
_symmetry_space_group_name_H-M "P M M N"
_symmetry_group_IT_number 59
_space_group.IT_coordinate_system_code '2'
_symmetry_cell_setting 'orthorhombic'
loop_
_space_group_symop_operation_xyz
x,y,z
1/2-x,1/2-y,z
1/2+x,-y,-z
-x,1/2+y,-z
-x,-y,-z
1/2+x,1/2+y,-z
1/2-x,y,z
x,1/2-y,z
loop_
_atom_site_type_symbol
_atom_site_label
_atom_site_fract_x
_atom_site_fract_y
_atom_site_fract_z
Si Si1 0.331830 0.583926 0.794057
Si Si2 0.442792 0.584006 0.115814
Si Si3 0.603111 0.583286 0.050866
Si Si4 0.426173 0.917817 0.321669
Si Si5 0.413080 0.081028 0.638949
Si Si6 0.332166 0.079988 0.459165
O O1 0.250000 0.572101 0.762074
O O2 0.355913 0.750000 0.805429
O O3 0.339539 0.503465 0.889766
O O4 0.381268 0.509601 0.720332
O O5 0.420407 0.750000 0.099267
O O6 0.526752 0.563447 0.098602
O O7 0.426839 0.534046 0.217431
O O8 0.397048 0.482724 0.049585
O O9 0.626127 0.750000 0.044487
O O10 0.407460 0.750000 0.330275
O O11 0.502550 0.951182 0.367993
O O12 0.364114 0.005921 0.370717
O O13 0.398297 0.250000 0.658920
O O14 0.376141 0.028795 0.546806
O O15 0.250000 0.031875 0.471302
O O16 0.339203 0.250000 0.445668
#
# Coordination Sequence:
#
# PCOD8241952 Si02
#       6
#     8   8   8   8   8   8
#     4  11  23  36  53  82 118 152 188 233 285 339
#     4   9  18  34  55  82 112 140 180 230 277 327
#     4  10  19  34  56  81 110 146 185 225 274 334
#     4  10  20  36  59  86 113 144 187 235 281 334
#     4  10  20  38  60  83 111 146 189 235 285 339
#     4  10  22  38  56  81 114 151 189 231 281 336
#
# _framework density 18.807172000000001
#
# number of rings (size 3 to 8) (size 9 to 14) (size 15 to 20)
#    0.000    2.000    1.667    2.000    0.000    5.000 
#    0.000    0.833    0.000    1.000    0.000    0.000 
#    0.000    0.000    0.000    0.000    0.000    0.000 
#
# Total GULP energy -595407.885062 kJ/mol
# GULP energy per Si atom -12404.330939 kJ/mol
# Density = 1.876437 g / cm^3
# Si number density = 18.807172 Si / 1000 Ang^3
#
#
#
# Elastic Constant Matrix: (Units=GPa)
#
#
# Indices 1 2 3 4 5 6 
#
# 1 61.9885 33.1498 47.3333 0.0000 0.0000 0.0000
# 2 33.1498 78.5980 51.1345 0.0000 0.0000 0.0000
# 3 47.3333 51.1345 135.0109 0.0000 0.0000 0.0000
# 4 0.0000 0.0000 0.0000 38.0848 0.0000 0.0000
# 5 0.0000 0.0000 0.0000 0.0000 18.7391 0.0000
# 6 0.0000 0.0000 0.0000 0.0000 0.0000 26.8084
#
#
#
# Elastic Compliance Matrix: (Units=1/GPa)
#
#
# Indices 1 2 3 4 5 6 
#
# 1 0.024107 -0.006196 -0.006105 0.000000 0.000000 0.000000
# 2 -0.006196 0.018475 -0.004825 0.000000 0.000000 0.000000
# 3 -0.006105 -0.004825 0.011375 0.000000 0.000000 0.000000
# 4 0.000000 0.000000 0.000000 0.026257 0.000000 0.000000
# 5 0.000000 0.000000 0.000000 0.000000 0.053364 0.000000
# 6 0.000000 0.000000 0.000000 0.000000 0.000000 0.037302
#
#
# Mechanical properties :
#
#
# Convention : Reuss Voigt Hill
#
# Bulk Modulus (GPa) = 50.74836 59.87029 55.30932
# Shear Modulus (GPa) = 23.61823 26.32510 24.97167
#
# Velocity S-wave (km/s) = 3.54759 3.74537 3.64782
# Velocity P-wave (km/s) = 6.61986 7.11383 6.87129
#
# Compressibility (1/GPa) = 0.01970507
#
# Stress axis : x y z
#
# Youngs Moduli (GPa) = 41.48164 54.12628 87.91399
#
# Poissons Ratio (x) = 0.33534 0.53673
# Poissons Ratio (y) = 0.25700 0.42421
# Poissons Ratio (z) = 0.25325 0.26118
#
# Static dielectric constant tensor:
#      x y z
#    x 3.321190 0.000000 0.000000 
#    y 0.000000 3.436220 0.000000 
#    z 0.000000 0.000000 3.523120 
# 
# 
# High freq. dielectric constant tensor:
#      x y z
#    x 1.715660 0.000000 0.000000 
#    y 0.000000 1.730530 0.000000 
#    z 0.000000 0.000000 1.738380 
# 
# From -- ./inp_files/20298.got.cif
#   From: 2010.03.12/outbox.cif.g09.slc.cpg/sg59_11_cif.got.tgz:20298.got - 2010.04.16 16:29:54.
