data_PCOD8241491
_publ_section_title
;
Structure prediction by ZEFSAII (Michael W. Deem and Ramdas Pophale) SiO2 
 PCOD8241491
Probable space group: P M M N
;
_chemical_formula_sum "Si O2"
_cell_formula_units_Z 56
_cell_length_a 10.444491
_cell_length_b 13.258229
_cell_length_c 22.270644
_cell_angle_alpha 90.000000
_cell_angle_beta 90.000000
_cell_angle_gamma 90.000000
_cell_volume 3083.937527
_symmetry_space_group_name_H-M "P M M N"
_symmetry_group_IT_number 59
_space_group.IT_coordinate_system_code '2'
_symmetry_cell_setting 'orthorhombic'
loop_
_space_group_symop_operation_xyz
x,y,z
1/2-x,1/2-y,z
1/2+x,-y,-z
-x,1/2+y,-z
-x,-y,-z
1/2+x,1/2+y,-z
1/2-x,y,z
x,1/2-y,z
loop_
_atom_site_type_symbol
_atom_site_label
_atom_site_fract_x
_atom_site_fract_y
_atom_site_fract_z
Si Si1 0.601991 0.860374 0.316582
Si Si2 0.534630 0.996933 0.596831
Si Si3 0.891544 0.864987 0.705417
Si Si4 0.606273 0.864733 0.988124
Si Si5 0.395524 0.967964 0.916002
Si Si6 0.601826 0.477008 0.223340
Si Si7 0.891005 0.362171 0.496259
O O1 0.750000 0.839766 0.319611
O O2 0.532418 0.750000 0.318342
O O3 0.570403 0.931100 0.372906
O O4 0.565948 0.916989 0.254632
O O5 0.612692 0.938321 0.647807
O O6 0.476404 0.912161 0.554371
O O7 0.620049 0.071219 0.556641
O O8 0.750000 0.874926 0.735680
O O9 0.915637 0.750000 0.684636
O O10 0.004663 0.892295 0.751893
O O11 0.750000 0.886204 0.962672
O O12 0.592492 0.750000 0.008575
O O13 0.499651 0.886285 0.937482
O O14 0.580568 0.929451 0.047644
O O15 0.250000 0.927414 0.926012
O O16 0.420483 0.991748 0.846854
O O17 0.750000 0.445905 0.237425
O O18 0.750000 0.353367 0.468911
O O19 0.945084 0.250000 0.510989
#
# Coordination Sequence:
#
# PCOD8241491 Si02
#       7
#     8   8   8   8   8   8   8
#     4   9  17  30  49  72  96 124 161 204 247 290
#     4  10  19  33  50  69  96 127 160 198 243 294
#     4  10  21  36  53  73  98 130 166 204 248 295
#     4   9  18  32  51  75 102 134 170 206 246 291
#     4   9  18  33  51  73 102 133 166 205 248 293
#     4   9  19  34  52  75 101 130 165 205 248 293
#     4  10  20  32  48  71  96 124 159 199 243 291
#
# _framework density 18.158605000000001
#
# number of rings (size 3 to 8) (size 9 to 14) (size 15 to 20)
#    0.000    2.571    0.000    1.714    0.000    2.857 
#    0.000    5.714    0.000   10.714    0.000    6.000 
#    0.000    0.000    0.000    0.000    0.000    0.000 
#
# Total GULP energy -694009.427651 kJ/mol
# GULP energy per Si atom -12393.025494 kJ/mol
# Density = 1.811727 g / cm^3
# Si number density = 18.158605 Si / 1000 Ang^3
#
#
#
# Elastic Constant Matrix: (Units=GPa)
#
#
# Indices 1 2 3 4 5 6 
#
# 1 85.1222 47.2889 41.3621 0.0000 0.0000 0.0000
# 2 47.2889 123.9608 35.9665 0.0000 0.0000 0.0000
# 3 41.3621 35.9665 90.4880 0.0000 0.0000 0.0000
# 4 0.0000 0.0000 0.0000 8.6100 0.0000 0.0000
# 5 0.0000 0.0000 0.0000 0.0000 20.4320 0.0000
# 6 0.0000 0.0000 0.0000 0.0000 0.0000 24.2342
#
#
#
# Elastic Compliance Matrix: (Units=1/GPa)
#
#
# Indices 1 2 3 4 5 6 
#
# 1 0.017380 -0.004889 -0.006001 0.000000 0.000000 0.000000
# 2 -0.004889 0.010494 -0.001936 0.000000 0.000000 0.000000
# 3 -0.006001 -0.001936 0.014564 0.000000 0.000000 0.000000
# 4 0.000000 0.000000 0.000000 0.116144 0.000000 0.000000
# 5 0.000000 0.000000 0.000000 0.000000 0.048943 0.000000
# 6 0.000000 0.000000 0.000000 0.000000 0.000000 0.041264
#
#
# Mechanical properties :
#
#
# Convention : Reuss Voigt Hill
#
# Bulk Modulus (GPa) = 59.57707 60.97845 60.27776
# Shear Modulus (GPa) = 17.85480 22.31879 20.08680
#
# Velocity S-wave (km/s) = 3.13911 3.50966 3.32955
# Velocity P-wave (km/s) = 6.78375 7.07655 6.93169
#
# Compressibility (1/GPa) = 0.01678498
#
# Stress axis : x y z
#
# Youngs Moduli (GPa) = 57.53791 95.29328 68.66276
#
# Poissons Ratio (x) = 0.46588 0.41205
# Poissons Ratio (y) = 0.28130 0.13295
# Poissons Ratio (z) = 0.34529 0.18452
#
# Static dielectric constant tensor:
#      x y z
#    x 3.379610 0.000000 0.000000 
#    y 0.000000 3.523450 0.000000 
#    z 0.000000 0.000000 3.238840 
# 
# 
# High freq. dielectric constant tensor:
#      x y z
#    x 1.700050 0.000000 0.000000 
#    y 0.000000 1.710920 0.000000 
#    z 0.000000 0.000000 1.692840 
# 
# From -- ./inp_files/30093.got.cif
#   From: 2010.03.12/outbox.cif.g09.slc.cpg/sg59_16_cif.got.tgz:30093.got - 2010.04.16 16:29:54.
