data_PCOD8241620
_publ_section_title
;
Structure prediction by ZEFSAII (Michael W. Deem and Ramdas Pophale) SiO2 
 PCOD8241620
Probable space group: P M M N
;
_chemical_formula_sum "Si O2"
_cell_formula_units_Z 64
_cell_length_a 17.411912
_cell_length_b 14.506253
_cell_length_c 14.052711
_cell_angle_alpha 90.000000
_cell_angle_beta 90.000000
_cell_angle_gamma 90.000000
_cell_volume 3549.456238
_symmetry_space_group_name_H-M "P M M N"
_symmetry_group_IT_number 59
_space_group.IT_coordinate_system_code '2'
_symmetry_cell_setting 'orthorhombic'
loop_
_space_group_symop_operation_xyz
x,y,z
1/2-x,1/2-y,z
1/2+x,-y,-z
-x,1/2+y,-z
-x,-y,-z
1/2+x,1/2+y,-z
1/2-x,y,z
x,1/2-y,z
loop_
_atom_site_type_symbol
_atom_site_label
_atom_site_fract_x
_atom_site_fract_y
_atom_site_fract_z
Si Si1 0.486350 0.145933 0.747112
Si Si2 0.664081 0.989245 0.519262
Si Si3 0.425029 0.353306 0.377097
Si Si4 0.340735 0.357201 0.020198
Si Si5 0.952392 0.978272 0.091619
Si Si6 0.165256 0.352496 0.652873
Si Si7 0.952219 0.355626 0.541469
Si Si8 0.477314 0.145992 0.166720
O O1 0.512052 0.250000 0.769381
O O2 0.506301 0.083652 0.838091
O O3 0.394081 0.135106 0.738585
O O4 0.522762 0.112617 0.647439
O O5 0.750000 0.022309 0.532029
O O6 0.642483 0.927932 0.611568
O O7 0.650941 0.927500 0.426871
O O8 0.617906 0.082967 0.508211
O O9 0.391152 0.250000 0.379954
O O10 0.480362 0.371974 0.466600
O O11 0.467163 0.370558 0.278385
O O12 0.250000 0.379702 0.041420
O O13 0.348169 0.250000 0.987390
O O14 0.395602 0.373595 0.112553
O O15 0.372742 0.426101 0.936591
O O16 0.949895 0.080182 0.139541
O O17 0.000000 0.000000 0.000000
O O18 0.250000 0.361817 0.697367
O O19 0.152824 0.250000 0.607173
O O20 0.925609 0.250000 0.541753
O O21 0.503892 0.250000 0.144682
#
# Coordination Sequence:
#
# PCOD8241620 Si02
#       8
#     8   8   8   8   8   8   8   8
#     4  10  19  33  54  77 102 136 175 220 268 312
#     4  11  21  31  48  73 106 145 173 211 262 307
#     4  10  19  33  54  79 104 136 177 217 259 311
#     4   9  18  34  54  78 106 133 167 215 272 328
#     4  10  20  33  52  78 103 133 173 220 268 319
#     4   9  18  31  47  74 109 137 165 205 257 316
#     4  10  21  35  52  74 102 142 187 222 251 304
#     4   9  19  33  52  77 106 139 173 214 262 315
#
# _framework density 18.030930999999999
#
# number of rings (size 3 to 8) (size 9 to 14) (size 15 to 20)
#    0.000    2.250    1.250    1.875    1.750    2.500 
#    0.000    2.500    0.000    0.375    0.000    0.000 
#    0.000    0.000    0.000    0.000    0.000    0.000 
#
# Total GULP energy -792856.959391 kJ/mol
# GULP energy per Si atom -12388.389990 kJ/mol
# Density = 1.798989 g / cm^3
# Si number density = 18.030931 Si / 1000 Ang^3
#
#
#
# Elastic Constant Matrix: (Units=GPa)
#
#
# Indices 1 2 3 4 5 6 
#
# 1 64.5320 41.1997 13.6722 0.0000 0.0000 0.0000
# 2 41.1997 81.3869 37.4777 0.0000 0.0000 0.0000
# 3 13.6722 37.4777 83.1802 0.0000 0.0000 0.0000
# 4 0.0000 0.0000 0.0000 29.9389 0.0000 0.0000
# 5 0.0000 0.0000 0.0000 0.0000 15.6596 0.0000
# 6 0.0000 0.0000 0.0000 0.0000 0.0000 28.9660
#
#
#
# Elastic Compliance Matrix: (Units=1/GPa)
#
#
# Indices 1 2 3 4 5 6 
#
# 1 0.023122 -0.012561 0.001859 0.000000 0.000000 0.000000
# 2 -0.012561 0.022327 -0.007995 0.000000 0.000000 0.000000
# 3 0.001859 -0.007995 0.015319 0.000000 0.000000 0.000000
# 4 0.000000 0.000000 0.000000 0.033401 0.000000 0.000000
# 5 0.000000 0.000000 0.000000 0.000000 0.063858 0.000000
# 6 0.000000 0.000000 0.000000 0.000000 0.000000 0.034523
#
#
# Mechanical properties :
#
#
# Convention : Reuss Voigt Hill
#
# Bulk Modulus (GPa) = 42.78306 45.97759 44.38032
# Shear Modulus (GPa) = 21.03178 24.02954 22.53066
#
# Velocity S-wave (km/s) = 3.41901 3.65456 3.53874
# Velocity P-wave (km/s) = 6.27417 6.58501 6.43147
#
# Compressibility (1/GPa) = 0.02337374
#
# Stress axis : x y z
#
# Youngs Moduli (GPa) = 43.24971 44.78862 65.27900
#
# Poissons Ratio (x) = 0.56257 -0.12134
# Poissons Ratio (y) = 0.54324 0.52192
# Poissons Ratio (z) = -0.08040 0.35809
#
# Static dielectric constant tensor:
#      x y z
#    x 2.855770 0.000000 0.000000 
#    y 0.000000 3.887590 0.000000 
#    z 0.000000 0.000000 3.549350 
# 
# 
# High freq. dielectric constant tensor:
#      x y z
#    x 1.664770 0.000000 0.000000 
#    y 0.000000 1.707350 0.000000 
#    z 0.000000 0.000000 1.699800 
# 
# From -- ./inp_files/24007.got.cif
#   From: 2010.03.12/outbox.cif.g09.slc.cpg/sg59_13_cif.got.tgz:24007.got - 2010.04.16 16:29:54.
