data_PCOD8241358
_publ_section_title
;
Structure prediction by ZEFSAII (Michael W. Deem and Ramdas Pophale) SiO2 
 PCOD8241358
Probable space group: P M M N
;
_chemical_formula_sum "Si O2"
_cell_formula_units_Z 56
_cell_length_a 14.293691
_cell_length_b 9.191725
_cell_length_c 22.550663
_cell_angle_alpha 90.000000
_cell_angle_beta 90.000000
_cell_angle_gamma 90.000000
_cell_volume 2962.789022
_symmetry_space_group_name_H-M "P M M N"
_symmetry_group_IT_number 59
_space_group.IT_coordinate_system_code '2'
_symmetry_cell_setting 'orthorhombic'
loop_
_space_group_symop_operation_xyz
x,y,z
1/2-x,1/2-y,z
1/2+x,-y,-z
-x,1/2+y,-z
-x,-y,-z
1/2+x,1/2+y,-z
1/2-x,y,z
x,1/2-y,z
loop_
_atom_site_type_symbol
_atom_site_label
_atom_site_fract_x
_atom_site_fract_y
_atom_site_fract_z
Si Si1 0.142518 0.420168 0.898396
Si Si2 0.146701 0.922832 0.468425
Si Si3 0.147184 0.077520 0.031560
Si Si4 0.140604 0.918703 0.242979
Si Si5 0.472975 0.920469 0.359977
Si Si6 0.143491 0.579225 0.601743
Si Si7 0.029023 0.077148 0.141901
O O1 0.250000 0.453332 0.881320
O O2 0.121053 0.250000 0.891452
O O3 0.074986 0.509285 0.854196
O O4 0.121411 0.475422 0.965400
O O5 0.250000 0.983598 0.453642
O O6 0.149460 0.750000 0.465010
O O7 0.075563 0.984336 0.419430
O O8 0.118463 0.971716 0.534700
O O9 0.250000 0.016795 0.048889
O O10 0.151207 0.250000 0.031228
O O11 0.073109 0.021698 0.079691
O O12 0.250000 0.955495 0.247693
O O13 0.124448 0.750000 0.226845
O O14 0.092970 0.959148 0.305070
O O15 0.094257 0.019524 0.193854
O O16 0.490698 0.750000 0.364593
O O17 0.573678 0.997735 0.353258
O O18 0.250000 0.535747 0.617431
O O19 0.129363 0.750000 0.609166
O O20 0.022975 0.250000 0.146381
#
# Coordination Sequence:
#
# PCOD8241358 Si02
#       7
#     8   8   8   8   8   8   8
#     4   9  18  34  55  77 104 138 173 210 253 303
#     4   8  14  27  49  76 104 133 164 200 248 305
#     4   8  15  29  50  77 107 137 168 204 251 306
#     4  10  22  39  56  75 101 134 173 213 251 298
#     4  10  19  32  53  77  99 129 171 215 253 290
#     4   9  18  32  50  74 105 137 165 198 248 308
#     4  11  21  33  53  79 107 138 171 211 258 305
#
# _framework density 18.901109999999999
#
# number of rings (size 3 to 8) (size 9 to 14) (size 15 to 20)
#    0.000    2.714    0.000    3.857    0.000    3.714 
#    0.000    1.429    0.000    4.714    0.000    0.000 
#    0.000    0.000    0.000    0.000    0.000    0.000 
#
# Total GULP energy -694231.943823 kJ/mol
# GULP energy per Si atom -12396.998997 kJ/mol
# Density = 1.885809 g / cm^3
# Si number density = 18.901110 Si / 1000 Ang^3
#
#
#
# Elastic Constant Matrix: (Units=GPa)
#
#
# Indices 1 2 3 4 5 6 
#
# 1 153.5666 58.5675 67.6951 0.0000 0.0000 0.0000
# 2 58.5675 51.5893 38.8836 0.0000 0.0000 0.0000
# 3 67.6951 38.8836 67.1519 0.0000 0.0000 0.0000
# 4 0.0000 0.0000 0.0000 23.0200 0.0000 0.0000
# 5 0.0000 0.0000 0.0000 0.0000 32.9333 0.0000
# 6 0.0000 0.0000 0.0000 0.0000 0.0000 29.8153
#
#
#
# Elastic Compliance Matrix: (Units=1/GPa)
#
#
# Indices 1 2 3 4 5 6 
#
# 1 0.013808 -0.009199 -0.008593 0.000000 0.000000 0.000000
# 2 -0.009199 0.040523 -0.014191 0.000000 0.000000 0.000000
# 3 -0.008593 -0.014191 0.031772 0.000000 0.000000 0.000000
# 4 0.000000 0.000000 0.000000 0.043440 0.000000 0.000000
# 5 0.000000 0.000000 0.000000 0.000000 0.030364 0.000000
# 6 0.000000 0.000000 0.000000 0.000000 0.000000 0.033540
#
#
# Mechanical properties :
#
#
# Convention : Reuss Voigt Hill
#
# Bulk Modulus (GPa) = 45.17481 66.95558 56.06520
# Shear Modulus (GPa) = 18.88259 24.29782 21.59020
#
# Velocity S-wave (km/s) = 3.16416 3.58931 3.38342
# Velocity P-wave (km/s) = 6.10751 7.25800 6.70747
#
# Compressibility (1/GPa) = 0.02213623
#
# Stress axis : x y z
#
# Youngs Moduli (GPa) = 72.41984 24.67708 31.47456
#
# Poissons Ratio (x) = 0.22701 0.27047
# Poissons Ratio (y) = 0.66621 0.44666
# Poissons Ratio (z) = 0.62233 0.35019
#
# Static dielectric constant tensor:
#      x y z
#    x 3.623690 0.000000 0.000000 
#    y 0.000000 3.044860 0.000000 
#    z 0.000000 0.000000 3.446940 
# 
# 
# High freq. dielectric constant tensor:
#      x y z
#    x 1.749970 0.000000 0.000000 
#    y 0.000000 1.700840 0.000000 
#    z 0.000000 0.000000 1.718760 
# 
# From -- ./inp_files/30283.got.cif
#   From: 2010.03.12/outbox.cif.g09.slc.cpg/sg59_16_cif.got.tgz:30283.got - 2010.04.16 16:29:54.
