data_PCOD8241685
_publ_section_title
;
Structure prediction by ZEFSAII (Michael W. Deem and Ramdas Pophale) SiO2 
 PCOD8241685
Probable space group: P M M N
;
_chemical_formula_sum "Si O2"
_cell_formula_units_Z 48
_cell_length_a 15.722191
_cell_length_b 9.342005
_cell_length_c 16.189586
_cell_angle_alpha 90.000000
_cell_angle_beta 90.000000
_cell_angle_gamma 90.000000
_cell_volume 2377.874373
_symmetry_space_group_name_H-M "P M M N"
_symmetry_group_IT_number 59
_space_group.IT_coordinate_system_code '2'
_symmetry_cell_setting 'orthorhombic'
loop_
_space_group_symop_operation_xyz
x,y,z
1/2-x,1/2-y,z
1/2+x,-y,-z
-x,1/2+y,-z
-x,-y,-z
1/2+x,1/2+y,-z
1/2-x,y,z
x,1/2-y,z
loop_
_atom_site_type_symbol
_atom_site_label
_atom_site_fract_x
_atom_site_fract_y
_atom_site_fract_z
Si Si1 0.572462 0.909351 0.609679
Si Si2 0.884412 0.089448 0.463414
Si Si3 0.405922 0.086003 0.199206
Si Si4 0.750000 0.421020 0.876895
Si Si5 0.342972 0.091443 0.682181
Si Si6 0.092523 0.915340 0.826603
Si Si7 0.250000 0.919349 0.935980
O O1 0.611088 0.750000 0.598026
O O2 0.477781 0.911356 0.575002
O O3 0.576256 0.953051 0.705467
O O4 0.623683 0.025563 0.555879
O O5 0.847239 0.250000 0.465773
O O6 0.829789 0.987586 0.404755
O O7 0.374652 0.250000 0.190598
O O8 0.493754 0.065599 0.145888
O O9 0.334567 0.979933 0.165904
O O10 0.750000 0.250000 0.870951
O O11 0.750000 0.477396 0.971044
O O12 0.250000 0.103313 0.723346
O O13 0.382417 0.250000 0.668654
O O14 0.402650 0.002439 0.742216
O O15 0.111596 0.750000 0.805744
O O16 0.162344 0.973331 0.892322
O O17 0.250000 0.750000 0.936452
#
# Coordination Sequence:
#
# PCOD8241685 Si02
#       7
#     8   8   8   4   8   8   4
#     4   9  18  34  56  83 113 147 194 247 296 341
#     4  10  19  33  54  82 114 155 200 240 288 348
#     4  10  21  40  64  89 116 157 204 246 297 352
#     4  11  25  43  61  88 121 158 201 245 298 353
#     4  11  22  34  51  83 124 159 193 240 296 348
#     4  10  19  37  66  92 117 155 198 240 298 362
#     4   9  20  39  65  94 125 152 185 241 300 361
#
# _framework density 20.186095000000002
#
# number of rings (size 3 to 8) (size 9 to 14) (size 15 to 20)
#    0.000    2.000    2.500    1.250    0.000    3.667 
#    1.500    1.667    0.000    0.000    0.000    0.000 
#    0.000    0.000    0.000    0.000    0.000    0.000 
#
# Total GULP energy -594890.047729 kJ/mol
# GULP energy per Si atom -12393.542661 kJ/mol
# Density = 2.014015 g / cm^3
# Si number density = 20.186095 Si / 1000 Ang^3
#
#
#
# Elastic Constant Matrix: (Units=GPa)
#
#
# Indices 1 2 3 4 5 6 
#
# 1 101.6686 48.4197 48.2507 0.0000 0.0000 0.0000
# 2 48.4197 115.7932 53.8770 0.0000 0.0000 0.0000
# 3 48.2507 53.8770 115.9202 0.0000 0.0000 0.0000
# 4 0.0000 0.0000 0.0000 24.3475 0.0000 0.0000
# 5 0.0000 0.0000 0.0000 0.0000 26.5989 0.0000
# 6 0.0000 0.0000 0.0000 0.0000 0.0000 20.9172
#
#
#
# Elastic Compliance Matrix: (Units=1/GPa)
#
#
# Indices 1 2 3 4 5 6 
#
# 1 0.013488 -0.003863 -0.003819 0.000000 0.000000 0.000000
# 2 -0.003863 0.012126 -0.004028 0.000000 0.000000 0.000000
# 3 -0.003819 -0.004028 0.012088 0.000000 0.000000 0.000000
# 4 0.000000 0.000000 0.000000 0.041072 0.000000 0.000000
# 5 0.000000 0.000000 0.000000 0.000000 0.037596 0.000000
# 6 0.000000 0.000000 0.000000 0.000000 0.000000 0.047808
#
#
# Mechanical properties :
#
#
# Convention : Reuss Voigt Hill
#
# Bulk Modulus (GPa) = 70.01611 70.49741 70.25676
# Shear Modulus (GPa) = 25.99333 26.56168 26.27751
#
# Velocity S-wave (km/s) = 3.59233 3.63139 3.61191
# Velocity P-wave (km/s) = 7.20882 7.25136 7.23012
#
# Compressibility (1/GPa) = 0.01428243
#
# Stress axis : x y z
#
# Youngs Moduli (GPa) = 74.13935 82.47045 82.72633
#
# Poissons Ratio (x) = 0.31861 0.31591
# Poissons Ratio (y) = 0.28643 0.33319
# Poissons Ratio (z) = 0.28312 0.33216
#
# Static dielectric constant tensor:
#      x y z
#    x 3.604780 0.000000 0.000000 
#    y 0.000000 3.707240 0.000000 
#    z 0.000000 0.000000 3.648670 
# 
# 
# High freq. dielectric constant tensor:
#      x y z
#    x 1.782600 0.000000 0.000000 
#    y 0.000000 1.782770 0.000000 
#    z 0.000000 0.000000 1.773050 
# 
# From -- ./inp_files/27475.got.cif
#   From: 2010.03.12/outbox.cif.g09.slc.cpg/sg59_14_cif.got.tgz:27475.got - 2010.04.16 16:29:54.
