data_PCOD8241799
_publ_section_title
;
Structure prediction by ZEFSAII (Michael W. Deem and Ramdas Pophale) SiO2 
 PCOD8241799
Probable space group: P M M N
;
_chemical_formula_sum "Si O2"
_cell_formula_units_Z 48
_cell_length_a 8.579233
_cell_length_b 18.861144
_cell_length_c 14.762418
_cell_angle_alpha 90.000000
_cell_angle_beta 90.000000
_cell_angle_gamma 90.000000
_cell_volume 2388.768106
_symmetry_space_group_name_H-M "P M M N"
_symmetry_group_IT_number 59
_space_group.IT_coordinate_system_code '2'
_symmetry_cell_setting 'orthorhombic'
loop_
_space_group_symop_operation_xyz
x,y,z
1/2-x,1/2-y,z
1/2+x,-y,-z
-x,1/2+y,-z
-x,-y,-z
1/2+x,1/2+y,-z
1/2-x,y,z
x,1/2-y,z
loop_
_atom_site_type_symbol
_atom_site_label
_atom_site_fract_x
_atom_site_fract_y
_atom_site_fract_z
Si Si1 0.432177 0.831325 0.039965
Si Si2 0.430487 0.418773 0.122307
Si Si3 0.569425 0.564893 0.175396
Si Si4 0.428105 0.947914 0.366023
Si Si5 0.070834 0.829361 0.726587
Si Si6 0.572782 0.085681 0.441005
O O1 0.250000 0.835702 0.060085
O O2 0.485102 0.750000 0.024550
O O3 0.523143 0.862142 0.126505
O O4 0.469740 0.877140 0.951547
O O5 0.250000 0.412786 0.096516
O O6 0.475604 0.501174 0.127646
O O7 0.462978 0.383996 0.219660
O O8 0.750000 0.548625 0.161969
O O9 0.535442 0.573285 0.281908
O O10 0.250000 0.941111 0.333633
O O11 0.465049 0.897537 0.453264
O O12 0.457677 0.027587 0.399496
O O13 0.250000 0.839747 0.757320
O O14 0.014005 0.750000 0.746730
O O15 0.053405 0.843607 0.619023
O O16 0.750000 0.056365 0.434345
#
# Coordination Sequence:
#
# PCOD8241799 Si02
#       6
#     8   8   8   8   8   8
#     4  11  25  45  66  88 118 156 196 242 299 361
#     4  12  24  39  61  90 121 155 198 247 298 355
#     4  12  24  40  63  90 121 157 200 249 299 352
#     4  10  19  33  56  86 116 151 198 246 293 346
#     4  10  20  35  56  84 120 160 200 244 298 359
#     4   9  18  33  54  81 116 156 196 240 294 353
#
# _framework density 20.09404
#
# number of rings (size 3 to 8) (size 9 to 14) (size 15 to 20)
#    0.000    1.333    1.667    5.000    0.000    4.333 
#    0.000    0.833    0.000    3.000    0.000    0.000 
#    0.000    0.000    0.000    0.000    0.000    0.000 
#
# Total GULP energy -595285.115935 kJ/mol
# GULP energy per Si atom -12401.773249 kJ/mol
# Density = 2.004830 g / cm^3
# Si number density = 20.094040 Si / 1000 Ang^3
#
#
#
# Elastic Constant Matrix: (Units=GPa)
#
#
# Indices 1 2 3 4 5 6 
#
# 1 69.9757 20.5313 20.4843 0.0000 0.0000 0.0000
# 2 20.5313 68.2436 34.9874 0.0000 0.0000 0.0000
# 3 20.4843 34.9874 119.1455 0.0000 0.0000 0.0000
# 4 0.0000 0.0000 0.0000 21.2362 0.0000 0.0000
# 5 0.0000 0.0000 0.0000 0.0000 32.4669 0.0000
# 6 0.0000 0.0000 0.0000 0.0000 0.0000 24.0433
#
#
#
# Elastic Compliance Matrix: (Units=1/GPa)
#
#
# Indices 1 2 3 4 5 6 
#
# 1 0.015919 -0.003986 -0.001566 0.000000 0.000000 0.000000
# 2 -0.003986 0.018249 -0.004673 0.000000 0.000000 0.000000
# 3 -0.001566 -0.004673 0.010035 0.000000 0.000000 0.000000
# 4 0.000000 0.000000 0.000000 0.047089 0.000000 0.000000
# 5 0.000000 0.000000 0.000000 0.000000 0.030801 0.000000
# 6 0.000000 0.000000 0.000000 0.000000 0.000000 0.041592
#
#
# Mechanical properties :
#
#
# Convention : Reuss Voigt Hill
#
# Bulk Modulus (GPa) = 42.10473 45.48564 43.79519
# Shear Modulus (GPa) = 26.03456 27.64007 26.83732
#
# Velocity S-wave (km/s) = 3.60340 3.71285 3.65853
# Velocity P-wave (km/s) = 6.18967 6.40826 6.29991
#
# Compressibility (1/GPa) = 0.02375030
#
# Stress axis : x y z
#
# Youngs Moduli (GPa) = 62.81898 54.79858 99.65367
#
# Poissons Ratio (x) = 0.21844 0.15609
# Poissons Ratio (y) = 0.25041 0.46572
# Poissons Ratio (z) = 0.09839 0.25610
#
# Static dielectric constant tensor:
#      x y z
#    x 3.627660 0.000000 0.000000 
#    y 0.000000 3.496160 0.000000 
#    z 0.000000 0.000000 3.896020 
# 
# 
# High freq. dielectric constant tensor:
#      x y z
#    x 1.786230 0.000000 0.000000 
#    y 0.000000 1.758900 0.000000 
#    z 0.000000 0.000000 1.798700 
# 
# From -- ./inp_files/20350.got.cif
#   From: 2010.03.12/outbox.cif.g09.slc.cpg/sg59_11_cif.got.tgz:20350.got - 2010.04.16 16:29:54.
