data_PCOD8241630
_publ_section_title
;
Structure prediction by ZEFSAII (Michael W. Deem and Ramdas Pophale) SiO2 
 PCOD8241630
Probable space group: P M M N
;
_chemical_formula_sum "Si O2"
_cell_formula_units_Z 64
_cell_length_a 19.145275
_cell_length_b 9.480199
_cell_length_c 18.637662
_cell_angle_alpha 90.000000
_cell_angle_beta 90.000000
_cell_angle_gamma 90.000000
_cell_volume 3382.754606
_symmetry_space_group_name_H-M "P M M N"
_symmetry_group_IT_number 59
_space_group.IT_coordinate_system_code '2'
_symmetry_cell_setting 'orthorhombic'
loop_
_space_group_symop_operation_xyz
x,y,z
1/2-x,1/2-y,z
1/2+x,-y,-z
-x,1/2+y,-z
-x,-y,-z
1/2+x,1/2+y,-z
1/2-x,y,z
x,1/2-y,z
loop_
_atom_site_type_symbol
_atom_site_label
_atom_site_fract_x
_atom_site_fract_y
_atom_site_fract_z
Si Si1 0.559733 0.414989 0.775063
Si Si2 0.075642 0.412467 0.851506
Si Si3 0.599192 0.909970 0.496768
Si Si4 0.329951 0.903293 0.600760
Si Si5 0.570412 0.912500 0.990459
Si Si6 0.029012 0.909516 0.390061
Si Si7 0.667927 0.916883 0.858608
Si Si8 0.332037 0.410745 0.727502
O O1 0.577112 0.250000 0.785649
O O2 0.501428 0.474353 0.831906
O O3 0.528967 0.443129 0.695048
O O4 0.630902 0.502173 0.791982
O O5 0.066389 0.250000 0.832529
O O6 0.135302 0.473610 0.800097
O O7 0.104856 0.434420 0.931391
O O8 0.622844 0.750000 0.509184
O O9 0.544604 0.924037 0.431001
O O10 0.663729 0.006953 0.472192
O O11 0.576755 0.972569 0.573010
O O12 0.250000 0.878517 0.617898
O O13 0.367505 0.750000 0.594110
O O14 0.363638 0.992416 0.665205
O O15 0.549915 0.750000 0.976471
O O16 0.626620 0.963885 0.931415
O O17 0.500000 0.000000 0.000000
O O18 0.057402 0.750000 0.402224
O O19 0.750000 0.960133 0.864259
O O20 0.661496 0.750000 0.846262
O O21 0.250000 0.421025 0.735204
O O22 0.355027 0.250000 0.710398
#
# Coordination Sequence:
#
# PCOD8241630 Si02
#       8
#     8   8   8   8   8   8   8   8
#     4  10  19  34  56  79 105 140 180 218 262 317
#     4   9  17  30  52  80 107 135 171 218 261 307
#     4  10  19  33  54  78 104 135 174 217 263 315
#     4  10  20  33  49  70 101 139 174 211 258 311
#     4  10  19  34  56  79 107 140 176 219 266 316
#     4   9  19  34  53  78 108 136 167 215 268 317
#     4  10  22  38  55  79 111 143 178 225 275 318
#     4   9  17  30  49  74 104 138 176 215 259 316
#
# _framework density 18.919492999999999
#
# number of rings (size 3 to 8) (size 9 to 14) (size 15 to 20)
#    0.000    2.375    1.250    1.500    0.000    4.500 
#    0.000    5.625    0.000    0.750    0.000    1.750 
#    0.000    0.000    0.000    0.000    0.000    0.000 
#
# Total GULP energy -792851.700427 kJ/mol
# GULP energy per Si atom -12388.307819 kJ/mol
# Density = 1.887643 g / cm^3
# Si number density = 18.919493 Si / 1000 Ang^3
#
#
#
# Elastic Constant Matrix: (Units=GPa)
#
#
# Indices 1 2 3 4 5 6 
#
# 1 31.0878 22.4157 30.5063 0.0000 0.0000 0.0000
# 2 22.4157 83.3758 33.5169 0.0000 0.0000 0.0000
# 3 30.5063 33.5169 84.2904 0.0000 0.0000 0.0000
# 4 0.0000 0.0000 0.0000 25.8325 0.0000 0.0000
# 5 0.0000 0.0000 0.0000 0.0000 32.8082 0.0000
# 6 0.0000 0.0000 0.0000 0.0000 0.0000 23.7909
#
#
#
# Elastic Compliance Matrix: (Units=1/GPa)
#
#
# Indices 1 2 3 4 5 6 
#
# 1 0.053947 -0.007921 -0.016375 0.000000 0.000000 0.000000
# 2 -0.007921 0.015439 -0.003272 0.000000 0.000000 0.000000
# 3 -0.016375 -0.003272 0.019091 0.000000 0.000000 0.000000
# 4 0.000000 0.000000 0.000000 0.038711 0.000000 0.000000
# 5 0.000000 0.000000 0.000000 0.000000 0.030480 0.000000
# 6 0.000000 0.000000 0.000000 0.000000 0.000000 0.042033
#
#
# Mechanical properties :
#
#
# Convention : Reuss Voigt Hill
#
# Bulk Modulus (GPa) = 29.99321 41.29245 35.64283
# Shear Modulus (GPa) = 18.80047 23.97399 21.38723
#
# Velocity S-wave (km/s) = 3.15573 3.56358 3.36584
# Velocity P-wave (km/s) = 5.40053 6.22935 5.82969
#
# Compressibility (1/GPa) = 0.03334088
#
# Stress axis : x y z
#
# Youngs Moduli (GPa) = 18.53677 64.77133 52.38003
#
# Poissons Ratio (x) = 0.51306 0.85771
# Poissons Ratio (y) = 0.14683 0.17140
# Poissons Ratio (z) = 0.30353 0.21195
#
# Static dielectric constant tensor:
#      x y z
#    x 3.339440 0.000000 0.000000 
#    y 0.000000 3.584710 0.000000 
#    z 0.000000 0.000000 3.694200 
# 
# 
# High freq. dielectric constant tensor:
#      x y z
#    x 1.715950 0.000000 0.000000 
#    y 0.000000 1.725160 0.000000 
#    z 0.000000 0.000000 1.738220 
# 
# From -- ./inp_files/28201.got.cif
#   From: 2010.03.12/outbox.cif.g09.slc.cpg/sg59_15_cif.got.tgz:28201.got - 2010.04.16 16:29:54.
