data_PCOD8241621
_publ_section_title
;
Structure prediction by ZEFSAII (Michael W. Deem and Ramdas Pophale) SiO2 
 PCOD8241621
Probable space group: P M M N
;
_chemical_formula_sum "Si O2"
_cell_formula_units_Z 40
_cell_length_a 18.485379
_cell_length_b 12.929082
_cell_length_c 10.156813
_cell_angle_alpha 90.000000
_cell_angle_beta 90.000000
_cell_angle_gamma 90.000000
_cell_volume 2427.467956
_symmetry_space_group_name_H-M "P M M N"
_symmetry_group_IT_number 59
_space_group.IT_coordinate_system_code '2'
_symmetry_cell_setting 'orthorhombic'
loop_
_space_group_symop_operation_xyz
x,y,z
1/2-x,1/2-y,z
1/2+x,-y,-z
-x,1/2+y,-z
-x,-y,-z
1/2+x,1/2+y,-z
1/2-x,y,z
x,1/2-y,z
loop_
_atom_site_type_symbol
_atom_site_label
_atom_site_fract_x
_atom_site_fract_y
_atom_site_fract_z
Si Si1 0.831299 0.128450 0.335140
Si Si2 0.833391 0.868109 0.701787
Si Si3 0.575721 0.487963 0.842648
Si Si4 0.921733 0.480156 0.556522
Si Si5 0.562896 0.127861 0.102188
O O1 0.750000 0.081236 0.330709
O O2 0.826470 0.250000 0.346999
O O3 0.874377 0.090919 0.462582
O O4 0.873209 0.096998 0.202214
O O5 0.750000 0.884096 0.669012
O O6 0.853480 0.750000 0.727195
O O7 0.855337 0.933965 0.832470
O O8 0.880099 0.910085 0.577269
O O9 0.568869 0.427785 0.701939
O O10 0.506534 0.561098 0.862017
O O11 0.588346 0.403967 0.955841
O O12 0.000000 0.500000 0.500000
O O13 0.545293 0.250000 0.107054
#
# Coordination Sequence:
#
# PCOD8241621 Si02
#       5
#     8   8   8   8   8
#     4  10  20  34  53  76 105 138 168 207 262 317
#     4   9  18  33  53  75  99 132 172 214 261 309
#     4   9  20  32  53  77 101 136 177 214 258 301
#     4  10  19  33  54  77 103 133 174 215 256 305
#     4  10  19  35  53  74 106 139 175 213 255 312
#
# _framework density 16.478075
#
# number of rings (size 3 to 8) (size 9 to 14) (size 15 to 20)
#    1.200    1.200    2.000    1.200    0.000    2.400 
#    0.000    0.000    0.000    0.000    0.000    2.800 
#    0.000    0.000    0.000    0.000    0.000    0.000 
#
# Total GULP energy -495527.533502 kJ/mol
# GULP energy per Si atom -12388.188338 kJ/mol
# Density = 1.644057 g / cm^3
# Si number density = 16.478075 Si / 1000 Ang^3
#
#
#
# Elastic Constant Matrix: (Units=GPa)
#
#
# Indices 1 2 3 4 5 6 
#
# 1 93.2867 28.3525 43.0408 0.0000 0.0000 0.0000
# 2 28.3525 38.1591 31.4920 0.0000 0.0000 0.0000
# 3 43.0408 31.4920 137.7897 0.0000 0.0000 0.0000
# 4 0.0000 0.0000 0.0000 28.1983 0.0000 0.0000
# 5 0.0000 0.0000 0.0000 0.0000 19.6467 0.0000
# 6 0.0000 0.0000 0.0000 0.0000 0.0000 25.9454
#
#
#
# Elastic Compliance Matrix: (Units=1/GPa)
#
#
# Indices 1 2 3 4 5 6 
#
# 1 0.014541 -0.008696 -0.002555 0.000000 0.000000 0.000000
# 2 -0.008696 0.037498 -0.005854 0.000000 0.000000 0.000000
# 3 -0.002555 -0.005854 0.009393 0.000000 0.000000 0.000000
# 4 0.000000 0.000000 0.000000 0.035463 0.000000 0.000000
# 5 0.000000 0.000000 0.000000 0.000000 0.050899 0.000000
# 6 0.000000 0.000000 0.000000 0.000000 0.000000 0.038542
#
#
# Mechanical properties :
#
#
# Convention : Reuss Voigt Hill
#
# Bulk Modulus (GPa) = 36.73257 52.77845 44.75551
# Shear Modulus (GPa) = 21.77494 25.84809 23.81152
#
# Velocity S-wave (km/s) = 3.63912 3.96490 3.80550
# Velocity P-wave (km/s) = 6.32438 7.28420 6.82119
#
# Compressibility (1/GPa) = 0.02722380
#
# Stress axis : x y z
#
# Youngs Moduli (GPa) = 68.76963 26.66778 106.45775
#
# Poissons Ratio (x) = 0.23190 0.27197
# Poissons Ratio (y) = 0.59801 0.62320
# Poissons Ratio (z) = 0.17569 0.15611
#
# Static dielectric constant tensor:
#      x y z
#    x 3.261600 0.000000 0.000000 
#    y 0.000000 2.927730 0.000000 
#    z 0.000000 0.000000 3.227790 
# 
# 
# High freq. dielectric constant tensor:
#      x y z
#    x 1.646090 0.000000 0.000000 
#    y 0.000000 1.615990 0.000000 
#    z 0.000000 0.000000 1.632530 
# 
# From -- ./inp_files/16690.got.cif
#   From: 2010.03.12/outbox.cif.g09.slc.cpg/sg59_9_cif.got.tgz:16690.got - 2010.04.16 16:29:54.
