data_PCOD8241974
_publ_section_title
;
Structure prediction by ZEFSAII (Michael W. Deem and Ramdas Pophale) SiO2 
 PCOD8241974
Probable space group: P M M N
;
_chemical_formula_sum "Si O2"
_cell_formula_units_Z 32
_cell_length_a 8.100195
_cell_length_b 19.674917
_cell_length_c 11.149910
_cell_angle_alpha 90.000000
_cell_angle_beta 90.000000
_cell_angle_gamma 90.000000
_cell_volume 1776.968564
_symmetry_space_group_name_H-M "P M M N"
_symmetry_group_IT_number 59
_space_group.IT_coordinate_system_code '2'
_symmetry_cell_setting 'orthorhombic'
loop_
_space_group_symop_operation_xyz
x,y,z
1/2-x,1/2-y,z
1/2+x,-y,-z
-x,1/2+y,-z
-x,-y,-z
1/2+x,1/2+y,-z
1/2-x,y,z
x,1/2-y,z
loop_
_atom_site_type_symbol
_atom_site_label
_atom_site_fract_x
_atom_site_fract_y
_atom_site_fract_z
Si Si1 0.250000 0.672321 0.683719
Si Si2 0.934358 0.599997 0.578733
Si Si3 0.064593 0.035636 0.664890
Si Si4 0.069425 0.942005 0.085618
Si Si5 0.750000 0.170164 0.034992
O O1 0.250000 0.750000 0.651581
O O2 0.420244 0.645678 0.629103
O O3 0.250000 0.658064 0.824173
O O4 0.750000 0.630024 0.604957
O O5 0.961442 0.593663 0.435246
O O6 0.940093 0.525983 0.640540
O O7 0.250000 0.005868 0.656687
O O8 0.040171 0.068106 0.796054
O O9 0.250000 0.967172 0.126767
O O10 0.086987 0.868641 0.017718
O O11 0.000000 0.000000 0.000000
O O12 0.750000 0.250000 0.000048
#
# Coordination Sequence:
#
# PCOD8241974 Si02
#       5
#     4   8   8   8   4
#     4  11  22  39  61  81 115 157 195 238 286 352
#     4  10  21  35  58  86 116 148 187 239 297 349
#     4  10  19  34  56  86 118 142 186 243 295 342
#     4  10  20  32  57  83 112 151 195 244 285 347
#     4   9  22  39  55  81 118 157 195 242 299 358
#
# _framework density 18.008196999999999
#
# number of rings (size 3 to 8) (size 9 to 14) (size 15 to 20)
#    0.750    1.250    1.250    3.000    3.500    0.500 
#    0.000    3.750    0.000    7.500    0.000    0.000 
#    0.000    0.000    0.000    0.000    0.000    0.000 
#
# Total GULP energy -396529.168955 kJ/mol
# GULP energy per Si atom -12391.536530 kJ/mol
# Density = 1.796721 g / cm^3
# Si number density = 18.008197 Si / 1000 Ang^3
#
#
#
# Elastic Constant Matrix: (Units=GPa)
#
#
# Indices 1 2 3 4 5 6 
#
# 1 114.0407 49.4456 51.9124 0.0000 0.0000 0.0000
# 2 49.4456 100.6672 66.9400 0.0000 0.0000 0.0000
# 3 51.9124 66.9400 129.1412 0.0000 0.0000 0.0000
# 4 0.0000 0.0000 0.0000 24.4314 0.0000 0.0000
# 5 0.0000 0.0000 0.0000 0.0000 34.3233 0.0000
# 6 0.0000 0.0000 0.0000 0.0000 0.0000 21.3644
#
#
#
# Elastic Compliance Matrix: (Units=1/GPa)
#
#
# Indices 1 2 3 4 5 6 
#
# 1 0.011700 -0.003997 -0.002631 0.000000 0.000000 0.000000
# 2 -0.003997 0.016524 -0.006959 0.000000 0.000000 0.000000
# 3 -0.002631 -0.006959 0.012408 0.000000 0.000000 0.000000
# 4 0.000000 0.000000 0.000000 0.040931 0.000000 0.000000
# 5 0.000000 0.000000 0.000000 0.000000 0.029135 0.000000
# 6 0.000000 0.000000 0.000000 0.000000 0.000000 0.046807
#
#
# Mechanical properties :
#
#
# Convention : Reuss Voigt Hill
#
# Bulk Modulus (GPa) = 74.30293 75.60498 74.95396
# Shear Modulus (GPa) = 26.43217 27.72725 27.07971
#
# Velocity S-wave (km/s) = 3.83532 3.92816 3.88202
# Velocity P-wave (km/s) = 7.80789 7.91509 7.86167
#
# Compressibility (1/GPa) = 0.01345842
#
# Stress axis : x y z
#
# Youngs Moduli (GPa) = 85.47364 60.51773 80.59250
#
# Poissons Ratio (x) = 0.24188 0.21206
# Poissons Ratio (y) = 0.34163 0.56081
# Poissons Ratio (z) = 0.22490 0.42111
#
# Static dielectric constant tensor:
#      x y z
#    x 3.375500 0.000000 0.000000 
#    y 0.000000 3.035540 0.000000 
#    z 0.000000 0.000000 3.410940 
# 
# 
# High freq. dielectric constant tensor:
#      x y z
#    x 1.703880 0.000000 0.000000 
#    y 0.000000 1.660340 0.000000 
#    z 0.000000 0.000000 1.710160 
# 
# From -- ./inp_files/13767.got.cif
#   From: 2010.03.12/outbox.cif.g09.slc.cpg/sg59_7_cif.got.tgz:13767.got - 2010.04.16 16:29:54.
