data_PCOD8241476
_publ_section_title
;
Structure prediction by ZEFSAII (Michael W. Deem and Ramdas Pophale) SiO2 
 PCOD8241476
Probable space group: P M M N
;
_chemical_formula_sum "Si O2"
_cell_formula_units_Z 64
_cell_length_a 15.228556
_cell_length_b 8.608533
_cell_length_c 23.585625
_cell_angle_alpha 90.000000
_cell_angle_beta 90.000000
_cell_angle_gamma 90.000000
_cell_volume 3091.969936
_symmetry_space_group_name_H-M "P M M N"
_symmetry_group_IT_number 59
_space_group.IT_coordinate_system_code '2'
_symmetry_cell_setting 'orthorhombic'
loop_
_space_group_symop_operation_xyz
x,y,z
1/2-x,1/2-y,z
1/2+x,-y,-z
-x,1/2+y,-z
-x,-y,-z
1/2+x,1/2+y,-z
1/2-x,y,z
x,1/2-y,z
loop_
_atom_site_type_symbol
_atom_site_label
_atom_site_fract_x
_atom_site_fract_y
_atom_site_fract_z
Si Si1 0.651906 0.573990 0.173345
Si Si2 0.651577 0.072018 0.818381
Si Si3 0.004917 0.928451 0.753108
Si Si4 0.150032 0.570079 0.551899
Si Si5 0.602252 0.072623 0.062740
Si Si6 0.649443 0.931381 0.567635
Si Si7 0.008661 0.429923 0.632471
Si Si8 0.582639 0.428127 0.938465
O O1 0.750000 0.554515 0.198107
O O2 0.618463 0.750000 0.181282
O O3 0.586480 0.459427 0.205528
O O4 0.654709 0.534807 0.106528
O O5 0.750000 0.032711 0.798237
O O6 0.627153 0.250000 0.804191
O O7 0.647688 0.043991 0.886026
O O8 0.585860 0.960633 0.785226
O O9 0.006389 0.750000 0.733876
O O10 0.013590 0.037856 0.698898
O O11 0.250000 0.533202 0.570774
O O12 0.138655 0.750000 0.536409
O O13 0.123731 0.471282 0.496783
O O14 0.085285 0.526984 0.602489
O O15 0.622591 0.250000 0.078542
O O16 0.498681 0.043142 0.069025
O O17 0.632094 0.035575 0.997972
O O18 0.750000 0.981033 0.579828
O O19 0.634984 0.750000 0.577582
O O20 0.587562 0.023919 0.610424
O O21 0.025549 0.250000 0.620765
O O22 0.548169 0.250000 0.939642
#
# Coordination Sequence:
#
# PCOD8241476 Si02
#       8
#     8   8   8   8   8   8   8   8
#     4  11  24  42  63  86 116 156 199 246 303 366
#     4  10  21  39  63  88 117 157 200 243 297 361
#     4  12  26  44  64  87 117 154 202 257 306 354
#     4  10  21  39  64  95 131 167 204 248 297 352
#     4  10  19  32  56  89 120 153 192 241 297 355
#     4  10  21  39  64  95 131 167 205 251 299 349
#     4  12  25  41  64  90 122 164 206 250 301 360
#     4   9  18  33  56  85 121 157 192 237 294 359
#
# _framework density 20.698777
#
# number of rings (size 3 to 8) (size 9 to 14) (size 15 to 20)
#    0.000    1.500    1.250    4.125    0.000    4.750 
#    0.000    1.250    0.000    0.000    0.000    0.000 
#    0.000    0.000    0.000    0.000    0.000    0.000 
#
# Total GULP energy -793837.483236 kJ/mol
# GULP energy per Si atom -12403.710676 kJ/mol
# Density = 2.065167 g / cm^3
# Si number density = 20.698777 Si / 1000 Ang^3
#
#
#
# Elastic Constant Matrix: (Units=GPa)
#
#
# Indices 1 2 3 4 5 6 
#
# 1 92.3872 24.1059 30.9707 0.0000 0.0000 0.0000
# 2 24.1059 70.5617 10.9583 0.0000 0.0000 0.0000
# 3 30.9707 10.9583 85.9590 0.0000 0.0000 0.0000
# 4 0.0000 0.0000 0.0000 31.8959 0.0000 0.0000
# 5 0.0000 0.0000 0.0000 0.0000 5.5843 0.0000
# 6 0.0000 0.0000 0.0000 0.0000 0.0000 20.5592
#
#
#
# Elastic Compliance Matrix: (Units=1/GPa)
#
#
# Indices 1 2 3 4 5 6 
#
# 1 0.013271 -0.003868 -0.004288 0.000000 0.000000 0.000000
# 2 -0.003868 0.015585 -0.000593 0.000000 0.000000 0.000000
# 3 -0.004288 -0.000593 0.013254 0.000000 0.000000 0.000000
# 4 0.000000 0.000000 0.000000 0.031352 0.000000 0.000000
# 5 0.000000 0.000000 0.000000 0.000000 0.179073 0.000000
# 6 0.000000 0.000000 0.000000 0.000000 0.000000 0.048640
#
#
# Mechanical properties :
#
#
# Convention : Reuss Voigt Hill
#
# Bulk Modulus (GPa) = 40.63127 42.33087 41.48107
# Shear Modulus (GPa) = 15.29625 23.79944 19.54784
#
# Velocity S-wave (km/s) = 2.72139 3.39455 3.07644
# Velocity P-wave (km/s) = 5.43572 5.98826 5.71867
#
# Compressibility (1/GPa) = 0.02461158
#
# Stress axis : x y z
#
# Youngs Moduli (GPa) = 75.35372 64.16243 75.44795
#
# Poissons Ratio (x) = 0.24816 0.32355
# Poissons Ratio (y) = 0.29144 0.04477
# Poissons Ratio (z) = 0.32314 0.03807
#
# Static dielectric constant tensor:
#      x y z
#    x 3.651920 0.000000 0.000000 
#    y 0.000000 3.725490 0.000000 
#    z 0.000000 0.000000 3.716980 
# 
# 
# High freq. dielectric constant tensor:
#      x y z
#    x 1.807320 0.000000 0.000000 
#    y 0.000000 1.812360 0.000000 
#    z 0.000000 0.000000 1.807420 
# 
# From -- ./inp_files/32182.got.cif
#   From: 2010.03.12/outbox.cif.g09.slc.cpg/sg59_17_cif.got.tgz:32182.got - 2010.04.16 16:29:54.
