data_PCOD8241983
_publ_section_title
;
Structure prediction by ZEFSAII (Michael W. Deem and Ramdas Pophale) SiO2 
 PCOD8241983
Probable space group: P M M N
;
_chemical_formula_sum "Si O2"
_cell_formula_units_Z 48
_cell_length_a 8.974274
_cell_length_b 19.048280
_cell_length_c 14.832845
_cell_angle_alpha 90.000000
_cell_angle_beta 90.000000
_cell_angle_gamma 90.000000
_cell_volume 2535.593034
_symmetry_space_group_name_H-M "P M M N"
_symmetry_group_IT_number 59
_space_group.IT_coordinate_system_code '2'
_symmetry_cell_setting 'orthorhombic'
loop_
_space_group_symop_operation_xyz
x,y,z
1/2-x,1/2-y,z
1/2+x,-y,-z
-x,1/2+y,-z
-x,-y,-z
1/2+x,1/2+y,-z
1/2-x,y,z
x,1/2-y,z
loop_
_atom_site_type_symbol
_atom_site_label
_atom_site_fract_x
_atom_site_fract_y
_atom_site_fract_z
Si Si1 0.920275 0.328662 0.802040
Si Si2 0.578079 0.546859 0.867751
Si Si3 0.921362 0.589669 0.061318
Si Si4 0.074774 0.563356 0.683375
Si Si5 0.426024 0.921170 0.367739
Si Si6 0.925694 0.328791 0.466880
O O1 0.750000 0.341333 0.830790
O O2 0.943444 0.250000 0.765822
O O3 0.969240 0.381363 0.723646
O O4 0.025236 0.339485 0.889573
O O5 0.750000 0.541020 0.839177
O O6 0.523855 0.470289 0.896031
O O7 0.487256 0.576529 0.783456
O O8 0.554624 0.597922 0.953801
O O9 0.750000 0.572358 0.082674
O O10 0.250000 0.550821 0.688558
O O11 0.033909 0.632773 0.626579
O O12 0.003689 0.496610 0.633455
O O13 0.250000 0.932473 0.376842
O O14 0.489644 0.875120 0.450572
O O15 0.750000 0.322789 0.479498
O O16 0.995124 0.250000 0.466820
#
# Coordination Sequence:
#
# PCOD8241983 Si02
#       6
#     8   8   8   8   8   8
#     4  10  20  33  52  80 113 149 185 221 269 332
#     4  10  20  35  55  78 106 141 180 222 270 327
#     4  10  20  34  54  79 107 140 179 226 276 322
#     4  11  21  33  55  85 112 141 182 232 276 319
#     4  10  19  34  57  81 108 145 184 225 273 328
#     4   9  19  36  56  79 109 146 186 226 271 325
#
# _framework density 18.930482000000001
#
# number of rings (size 3 to 8) (size 9 to 14) (size 15 to 20)
#    0.000    2.000    1.667    2.500    0.000    4.333 
#    0.000    1.667    0.000    8.500    0.000    0.000 
#    0.000    0.000    0.000    0.000    0.000    0.000 
#
# Total GULP energy -595203.847175 kJ/mol
# GULP energy per Si atom -12400.080149 kJ/mol
# Density = 1.888739 g / cm^3
# Si number density = 18.930482 Si / 1000 Ang^3
#
#
#
# Elastic Constant Matrix: (Units=GPa)
#
#
# Indices 1 2 3 4 5 6 
#
# 1 63.0206 35.5939 47.6827 0.0000 0.0000 0.0000
# 2 35.5939 93.1659 52.6604 0.0000 0.0000 0.0000
# 3 47.6827 52.6604 131.8903 0.0000 0.0000 0.0000
# 4 0.0000 0.0000 0.0000 22.7037 0.0000 0.0000
# 5 0.0000 0.0000 0.0000 0.0000 25.5321 0.0000
# 6 0.0000 0.0000 0.0000 0.0000 0.0000 23.6795
#
#
#
# Elastic Compliance Matrix: (Units=1/GPa)
#
#
# Indices 1 2 3 4 5 6 
#
# 1 0.023819 -0.005466 -0.006429 0.000000 0.000000 0.000000
# 2 -0.005466 0.015116 -0.004059 0.000000 0.000000 0.000000
# 3 -0.006429 -0.004059 0.011527 0.000000 0.000000 0.000000
# 4 0.000000 0.000000 0.000000 0.044046 0.000000 0.000000
# 5 0.000000 0.000000 0.000000 0.000000 0.039166 0.000000
# 6 0.000000 0.000000 0.000000 0.000000 0.000000 0.042231
#
#
# Mechanical properties :
#
#
# Convention : Reuss Voigt Hill
#
# Bulk Modulus (GPa) = 53.89747 62.21677 58.05712
# Shear Modulus (GPa) = 23.36454 24.52572 23.94513
#
# Velocity S-wave (km/s) = 3.51697 3.60330 3.56040
# Velocity P-wave (km/s) = 6.71008 7.08865 6.90196
#
# Compressibility (1/GPa) = 0.01855375
#
# Stress axis : x y z
#
# Youngs Moduli (GPa) = 41.98246 66.15321 86.75190
#
# Poissons Ratio (x) = 0.36162 0.55772
# Poissons Ratio (y) = 0.22949 0.35216
# Poissons Ratio (z) = 0.26990 0.26854
#
# Static dielectric constant tensor:
#      x y z
#    x 3.312730 0.000000 0.000000 
#    y 0.000000 3.410050 0.000000 
#    z 0.000000 0.000000 3.689150 
# 
# 
# High freq. dielectric constant tensor:
#      x y z
#    x 1.721740 0.000000 0.000000 
#    y 0.000000 1.720210 0.000000 
#    z 0.000000 0.000000 1.747180 
# 
# From -- ./inp_files/20328.got.cif
#   From: 2010.03.12/outbox.cif.g09.slc.cpg/sg59_11_cif.got.tgz:20328.got - 2010.04.16 16:29:54.
