data_PCOD8241448
_publ_section_title
;
Structure prediction by ZEFSAII (Michael W. Deem and Ramdas Pophale) SiO2 
 PCOD8241448
Probable space group: P M M N
;
_chemical_formula_sum "Si O2"
_cell_formula_units_Z 64
_cell_length_a 8.850864
_cell_length_b 19.865049
_cell_length_c 19.891616
_cell_angle_alpha 90.000000
_cell_angle_beta 90.000000
_cell_angle_gamma 90.000000
_cell_volume 3497.400558
_symmetry_space_group_name_H-M "P M M N"
_symmetry_group_IT_number 59
_space_group.IT_coordinate_system_code '2'
_symmetry_cell_setting 'orthorhombic'
loop_
_space_group_symop_operation_xyz
x,y,z
1/2-x,1/2-y,z
1/2+x,-y,-z
-x,1/2+y,-z
-x,-y,-z
1/2+x,1/2+y,-z
1/2-x,y,z
x,1/2-y,z
loop_
_atom_site_type_symbol
_atom_site_label
_atom_site_fract_x
_atom_site_fract_y
_atom_site_fract_z
Si Si1 0.922567 0.420363 0.444725
Si Si2 0.575646 0.326729 0.325901
Si Si3 0.424354 0.826729 0.174099
Si Si4 0.922567 0.079637 0.944725
Si Si5 0.075375 0.554923 0.407294
Si Si6 0.424625 0.945077 0.907294
Si Si7 0.072556 0.069966 0.227496
Si Si8 0.572556 0.569966 0.272504
O O1 0.750000 0.446763 0.438334
O O2 0.947005 0.352521 0.402321
O O3 0.959854 0.405874 0.523017
O O4 0.032633 0.476708 0.414994
O O5 0.750000 0.333599 0.304213
O O6 0.520348 0.250000 0.323374
O O7 0.474947 0.369400 0.275342
O O8 0.250000 0.833599 0.195788
O O9 0.479651 0.750000 0.176626
O O10 0.447005 0.852521 0.097680
O O11 0.525054 0.869399 0.224658
O O12 0.750000 0.053237 0.938334
O O13 0.959855 0.094126 0.023016
O O14 0.032633 0.023291 0.914994
O O15 0.250000 0.559441 0.387285
O O16 0.978948 0.588706 0.348009
O O17 0.250000 0.940558 0.887285
O O18 0.521051 0.911293 0.848009
O O19 0.250000 0.060748 0.229940
O O20 0.000001 1.000000 0.249999
O O21 0.750000 0.560747 0.270059
#
# Coordination Sequence:
#
# PCOD8241448 Si02
#       8
#     8   8   8   8   8   8   8   8
#     4   9  18  33  54  81 112 145 183 227 279 337
#     4  10  21  38  59  83 113 149 188 233 286 344
#     4  10  21  38  59  83 113 149 188 233 286 344
#     4   9  18  33  54  81 112 145 183 227 279 337
#     4  10  19  32  54  84 113 144 184 231 281 330
#     4  10  19  32  54  84 113 144 184 231 281 330
#     4  12  23  36  56  83 114 150 192 238 287 336
#     4  12  23  36  56  83 114 150 192 238 287 336
#
# _framework density 18.299305
#
# number of rings (size 3 to 8) (size 9 to 14) (size 15 to 20)
#    0.000    1.750    2.500    3.000    0.000    1.500 
#    0.000    1.250    0.000    4.500    0.000    0.000 
#    0.000    0.000    0.000    0.000    0.000    0.000 
#
# Total GULP energy -793702.923881 kJ/mol
# GULP energy per Si atom -12401.608186 kJ/mol
# Density = 1.825765 g / cm^3
# Si number density = 18.299305 Si / 1000 Ang^3
#
#
#
# Elastic Constant Matrix: (Units=GPa)
#
#
# Indices 1 2 3 4 5 6 
#
# 1 111.3944 50.8174 62.4565 0.0000 0.0000 0.0000
# 2 50.8174 108.7025 66.3506 0.0000 0.0000 0.0000
# 3 62.4565 66.3506 147.9878 0.0000 0.0000 0.0000
# 4 0.0000 0.0000 0.0000 26.5602 0.0000 0.0000
# 5 0.0000 0.0000 0.0000 0.0000 31.5674 0.0000
# 6 0.0000 0.0000 0.0000 0.0000 0.0000 23.5131
#
#
#
# Elastic Compliance Matrix: (Units=1/GPa)
#
#
# Indices 1 2 3 4 5 6 
#
# 1 0.012748 -0.003684 -0.003729 0.000000 0.000000 0.000000
# 2 -0.003684 0.013730 -0.004601 0.000000 0.000000 0.000000
# 3 -0.003729 -0.004601 0.010394 0.000000 0.000000 0.000000
# 4 0.000000 0.000000 0.000000 0.037650 0.000000 0.000000
# 5 0.000000 0.000000 0.000000 0.000000 0.031678 0.000000
# 6 0.000000 0.000000 0.000000 0.000000 0.000000 0.042530
#
#
# Mechanical properties :
#
#
# Convention : Reuss Voigt Hill
#
# Bulk Modulus (GPa) = 77.85141 80.81485 79.33313
# Shear Modulus (GPa) = 28.24238 28.89216 28.56727
#
# Velocity S-wave (km/s) = 3.93282 3.97781 3.95538
# Velocity P-wave (km/s) = 7.95352 8.08430 8.01918
#
# Compressibility (1/GPa) = 0.01284498
#
# Stress axis : x y z
#
# Youngs Moduli (GPa) = 78.44265 72.83281 96.21042
#
# Poissons Ratio (x) = 0.26830 0.35873
# Poissons Ratio (y) = 0.28896 0.44268
# Poissons Ratio (z) = 0.29248 0.33512
#
# Static dielectric constant tensor:
#      x y z
#    x 3.427160 0.000000 0.000000 
#    y 0.000000 3.125140 0.000000 
#    z 0.000000 0.000000 3.775050 
# 
# 
# High freq. dielectric constant tensor:
#      x y z
#    x 1.713930 0.000000 0.000000 
#    y 0.000000 1.671080 0.000000 
#    z 0.000000 0.000000 1.728820 
# 
# From -- ./inp_files/29376.got.cif
#   From: 2010.03.12/outbox.cif.g09.slc.cpg/sg59_15_cif.got.tgz:29376.got - 2010.04.16 16:29:54.
