data_PCOD8241940
_publ_section_title
;
Structure prediction by ZEFSAII (Michael W. Deem and Ramdas Pophale) SiO2 
 PCOD8241940
Probable space group: P M M N
;
_chemical_formula_sum "Si O2"
_cell_formula_units_Z 48
_cell_length_a 8.911452
_cell_length_b 15.283753
_cell_length_c 19.177798
_cell_angle_alpha 90.000000
_cell_angle_beta 90.000000
_cell_angle_gamma 90.000000
_cell_volume 2612.024358
_symmetry_space_group_name_H-M "P M M N"
_symmetry_group_IT_number 59
_space_group.IT_coordinate_system_code '2'
_symmetry_cell_setting 'orthorhombic'
loop_
_space_group_symop_operation_xyz
x,y,z
1/2-x,1/2-y,z
1/2+x,-y,-z
-x,1/2+y,-z
-x,-y,-z
1/2+x,1/2+y,-z
1/2-x,y,z
x,1/2-y,z
loop_
_atom_site_type_symbol
_atom_site_label
_atom_site_fract_x
_atom_site_fract_y
_atom_site_fract_z
Si Si1 0.925669 0.350717 0.425042
Si Si2 0.923077 0.495164 0.656627
Si Si3 0.085018 0.750000 0.788772
Si Si4 0.076492 0.349711 0.571439
Si Si5 0.920746 0.920089 0.795490
Si Si6 0.918766 0.250000 0.045812
Si Si7 0.927694 0.572690 0.952529
O O1 0.750000 0.372057 0.420463
O O2 0.959616 0.250000 0.403961
O O3 0.017183 0.414374 0.375092
O O4 0.978864 0.369429 0.503462
O O5 0.750000 0.482805 0.634967
O O6 0.939533 0.500380 0.740904
O O7 0.019515 0.412280 0.632860
O O8 0.250000 0.750000 0.755575
O O9 0.087505 0.750000 0.871558
O O10 0.006020 0.837482 0.762313
O O11 0.250000 0.369679 0.554836
O O12 0.054564 0.250000 0.596541
O O13 0.750000 0.889758 0.802966
O O14 0.978899 0.946481 0.872465
O O15 0.750000 0.250000 0.014553
O O16 0.008737 0.165054 0.020258
O O17 0.750000 0.571592 0.961182
O O18 0.000000 0.500000 0.000000
#
# Coordination Sequence:
#
# PCOD8241940 Si02
#       7
#     8   8   4   8   8   4   8
#     4  10  21  36  54  79 110 141 175 215 261 312
#     4  11  22  35  54  78 107 141 177 216 263 315
#     4   9  17  29  49  75 105 137 170 209 256 309
#     4  10  21  38  58  77 100 135 179 224 269 313
#     4   9  20  35  51  75 108 144 177 211 261 322
#     4   9  17  31  51  79 107 137 174 211 260 315
#     4  10  19  34  56  80 109 142 181 222 265 316
#
# _framework density 18.376552
#
# number of rings (size 3 to 8) (size 9 to 14) (size 15 to 20)
#    0.000    2.167    0.000    3.000    1.167    6.000 
#    0.000    0.000    1.833    0.000    0.000    0.000 
#    0.000    0.000    0.000    0.000    0.000    0.000 
#
# Total GULP energy -595202.546385 kJ/mol
# GULP energy per Si atom -12400.053050 kJ/mol
# Density = 1.833473 g / cm^3
# Si number density = 18.376552 Si / 1000 Ang^3
#
#
#
# Elastic Constant Matrix: (Units=GPa)
#
#
# Indices 1 2 3 4 5 6 
#
# 1 82.6556 39.5937 25.8700 0.0000 0.0000 0.0000
# 2 39.5937 107.2769 49.9395 0.0000 0.0000 0.0000
# 3 25.8700 49.9395 67.3210 0.0000 0.0000 0.0000
# 4 0.0000 0.0000 0.0000 28.2386 0.0000 0.0000
# 5 0.0000 0.0000 0.0000 0.0000 24.2951 0.0000
# 6 0.0000 0.0000 0.0000 0.0000 0.0000 36.9728
#
#
#
# Elastic Compliance Matrix: (Units=1/GPa)
#
#
# Indices 1 2 3 4 5 6 
#
# 1 0.014973 -0.004350 -0.002527 0.000000 0.000000 0.000000
# 2 -0.004350 0.015502 -0.009828 0.000000 0.000000 0.000000
# 3 -0.002527 -0.009828 0.023116 0.000000 0.000000 0.000000
# 4 0.000000 0.000000 0.000000 0.035413 0.000000 0.000000
# 5 0.000000 0.000000 0.000000 0.000000 0.041161 0.000000
# 6 0.000000 0.000000 0.000000 0.000000 0.000000 0.027047
#
#
# Mechanical properties :
#
#
# Convention : Reuss Voigt Hill
#
# Bulk Modulus (GPa) = 49.55143 54.22888 51.89015
# Shear Modulus (GPa) = 25.33589 27.35801 26.34695
#
# Velocity S-wave (km/s) = 3.71712 3.86261 3.79057
# Velocity P-wave (km/s) = 6.74134 7.03327 6.88885
#
# Compressibility (1/GPa) = 0.02018105
#
# Stress axis : x y z
#
# Youngs Moduli (GPa) = 66.78702 64.50637 43.26007
#
# Poissons Ratio (x) = 0.28059 0.10932
# Poissons Ratio (y) = 0.29051 0.42517
# Poissons Ratio (z) = 0.16877 0.63399
#
# Static dielectric constant tensor:
#      x y z
#    x 3.574300 0.000000 0.000000 
#    y 0.000000 3.355460 0.000000 
#    z 0.000000 0.000000 3.270450 
# 
# 
# High freq. dielectric constant tensor:
#      x y z
#    x 1.728410 0.000000 0.000000 
#    y 0.000000 1.705520 0.000000 
#    z 0.000000 0.000000 1.694940 
# 
# From -- ./inp_files/25587.got.cif
#   From: 2010.03.12/outbox.cif.g09.slc.cpg/sg59_13_cif.got.tgz:25587.got - 2010.04.16 16:29:54.
