data_PCOD8241074
_publ_section_title
;
Structure prediction by ZEFSAII (Michael W. Deem and Ramdas Pophale) SiO2 
 PCOD8241074
Probable space group: P M M N
;
_chemical_formula_sum "Si O2"
_cell_formula_units_Z 64
_cell_length_a 10.317173
_cell_length_b 12.974275
_cell_length_c 26.745254
_cell_angle_alpha 90.000000
_cell_angle_beta 90.000000
_cell_angle_gamma 90.000000
_cell_volume 3580.061923
_symmetry_space_group_name_H-M "P M M N"
_symmetry_group_IT_number 59
_space_group.IT_coordinate_system_code '2'
_symmetry_cell_setting 'orthorhombic'
loop_
_space_group_symop_operation_xyz
x,y,z
1/2-x,1/2-y,z
1/2+x,-y,-z
-x,1/2+y,-z
-x,-y,-z
1/2+x,1/2+y,-z
1/2-x,y,z
x,1/2-y,z
loop_
_atom_site_type_symbol
_atom_site_label
_atom_site_fract_x
_atom_site_fract_y
_atom_site_fract_z
Si Si1 0.600577 0.526550 0.929037
Si Si2 0.601705 0.860260 0.639482
Si Si3 0.403300 0.492217 0.267469
Si Si4 0.395191 0.369418 0.679226
Si Si5 0.397352 0.129833 0.966048
Si Si6 0.097285 0.135095 0.172638
Si Si7 0.039110 0.019095 0.578916
Si Si8 0.610210 0.362727 0.498546
O O1 0.750000 0.487527 0.924403
O O2 0.503134 0.429875 0.932760
O O3 0.556615 0.591999 0.881216
O O4 0.583698 0.601598 0.976053
O O5 0.750000 0.835824 0.636544
O O6 0.528348 0.750000 0.631244
O O7 0.565139 0.901145 0.694153
O O8 0.575913 0.945936 0.597870
O O9 0.250000 0.524776 0.268616
O O10 0.495631 0.588275 0.282468
O O11 0.448779 0.447479 0.214075
O O12 0.250000 0.382568 0.702043
O O13 0.427930 0.250000 0.669953
O O14 0.392079 0.427436 0.625782
O O15 0.250000 0.102009 0.949181
O O16 0.424682 0.250000 0.959024
O O17 0.250000 0.145912 0.176978
O O18 0.036320 0.250000 0.180026
O O19 0.990443 0.105547 0.541016
O O20 0.128860 0.941861 0.547400
O O21 0.750000 0.355584 0.524835
O O22 0.566905 0.250000 0.478459
#
# Coordination Sequence:
#
# PCOD8241074 Si02
#       8
#     8   8   8   8   8   8   8   8
#     4   9  17  29  48  74 100 129 170 215 254 296
#     4   9  16  27  45  69  94 119 151 192 234 276
#     4   9  18  32  52  77 100 123 155 196 241 289
#     4  10  21  37  55  73  95 126 162 199 239 283
#     4   9  17  30  47  68  98 136 174 211 254 303
#     4   9  16  29  52  79 104 130 162 203 250 296
#     4  10  19  32  49  68  91 122 159 192 227 278
#     4  10  20  32  46  67  95 123 151 189 236 280
#
# _framework density 17.876785000000002
#
# number of rings (size 3 to 8) (size 9 to 14) (size 15 to 20)
#    0.000    2.625    0.000    2.250    0.000    4.000 
#    0.000    1.250    0.000   19.125    0.000    0.000 
#    0.000    0.000    0.000    0.000    0.000    0.000 
#
# Total GULP energy -792974.117102 kJ/mol
# GULP energy per Si atom -12390.220580 kJ/mol
# Density = 1.783610 g / cm^3
# Si number density = 17.876785 Si / 1000 Ang^3
#
#
#
# Elastic Constant Matrix: (Units=GPa)
#
#
# Indices 1 2 3 4 5 6 
#
# 1 64.5836 55.0042 33.5704 0.0000 0.0000 0.0000
# 2 55.0042 131.8236 41.1481 0.0000 0.0000 0.0000
# 3 33.5704 41.1481 82.6196 0.0000 0.0000 0.0000
# 4 0.0000 0.0000 0.0000 20.3839 0.0000 0.0000
# 5 0.0000 0.0000 0.0000 0.0000 17.2785 0.0000
# 6 0.0000 0.0000 0.0000 0.0000 0.0000 25.4500
#
#
#
# Elastic Compliance Matrix: (Units=1/GPa)
#
#
# Indices 1 2 3 4 5 6 
#
# 1 0.026471 -0.009103 -0.006222 0.000000 0.000000 0.000000
# 2 -0.009103 0.012113 -0.002334 0.000000 0.000000 0.000000
# 3 -0.006222 -0.002334 0.015794 0.000000 0.000000 0.000000
# 4 0.000000 0.000000 0.000000 0.049058 0.000000 0.000000
# 5 0.000000 0.000000 0.000000 0.000000 0.057875 0.000000
# 6 0.000000 0.000000 0.000000 0.000000 0.000000 0.039293
#
#
# Mechanical properties :
#
#
# Convention : Reuss Voigt Hill
#
# Bulk Modulus (GPa) = 52.46624 59.83024 56.14824
# Shear Modulus (GPa) = 20.63772 22.57610 21.60691
#
# Velocity S-wave (km/s) = 3.40139 3.55755 3.48035
# Velocity P-wave (km/s) = 6.69616 7.10040 6.90124
#
# Compressibility (1/GPa) = 0.01905988
#
# Stress axis : x y z
#
# Youngs Moduli (GPa) = 37.77760 82.55853 63.31418
#
# Poissons Ratio (x) = 0.75152 0.39395
# Poissons Ratio (y) = 0.34388 0.14777
# Poissons Ratio (z) = 0.23506 0.19268
#
# Static dielectric constant tensor:
#      x y z
#    x 3.193320 0.000000 0.000000 
#    y 0.000000 3.427720 0.000000 
#    z 0.000000 0.000000 3.257810 
# 
# 
# High freq. dielectric constant tensor:
#      x y z
#    x 1.671280 0.000000 0.000000 
#    y 0.000000 1.700080 0.000000 
#    z 0.000000 0.000000 1.679930 
# 
# From -- ./inp_files/31978.got.cif
#   From: 2010.03.12/outbox.cif.g09.slc.cpg/sg59_16_cif.got.tgz:31978.got - 2010.04.16 16:29:54.
