data_PCOD8241134
_publ_section_title
;
Structure prediction by ZEFSAII (Michael W. Deem and Ramdas Pophale) SiO2 
 PCOD8241134
Probable space group: P M M N
;
_chemical_formula_sum "Si O2"
_cell_formula_units_Z 64
_cell_length_a 9.461268
_cell_length_b 19.127807
_cell_length_c 19.944241
_cell_angle_alpha 90.000000
_cell_angle_beta 90.000000
_cell_angle_gamma 90.000000
_cell_volume 3609.375275
_symmetry_space_group_name_H-M "P M M N"
_symmetry_group_IT_number 59
_space_group.IT_coordinate_system_code '2'
_symmetry_cell_setting 'orthorhombic'
loop_
_space_group_symop_operation_xyz
x,y,z
1/2-x,1/2-y,z
1/2+x,-y,-z
-x,1/2+y,-z
-x,-y,-z
1/2+x,1/2+y,-z
1/2-x,y,z
x,1/2-y,z
loop_
_atom_site_type_symbol
_atom_site_label
_atom_site_fract_x
_atom_site_fract_y
_atom_site_fract_z
Si Si1 0.417964 0.172009 0.659654
Si Si2 0.584840 0.430771 0.260205
Si Si3 0.583825 0.330359 0.893134
Si Si4 0.905696 0.167351 0.043898
Si Si5 0.410360 0.097737 0.530733
Si Si6 0.913030 0.832738 0.832256
Si Si7 0.084191 0.415240 0.784984
Si Si8 0.909430 0.057471 0.413427
O O1 0.250000 0.165651 0.656923
O O2 0.469900 0.250000 0.675763
O O3 0.476012 0.149511 0.586687
O O4 0.475278 0.121843 0.717977
O O5 0.750000 0.411909 0.255127
O O6 0.493001 0.368802 0.229162
O O7 0.553033 0.502570 0.220849
O O8 0.536631 0.437870 0.337298
O O9 0.750000 0.338153 0.879364
O O10 0.536711 0.250000 0.879822
O O11 0.497850 0.383736 0.847670
O O12 0.546862 0.353580 0.969080
O O13 0.750000 0.135754 0.060353
O O14 0.894544 0.250000 0.047245
O O15 0.018575 0.140030 0.098051
O O16 0.250000 0.117322 0.512932
O O17 0.496876 0.105893 0.461945
O O18 0.421083 0.021619 0.562777
O O19 0.750000 0.855224 0.832466
O O20 0.930765 0.750000 0.823630
O O21 0.250000 0.400130 0.794254
O O22 0.750000 0.084963 0.418597
#
# Coordination Sequence:
#
# PCOD8241134 Si02
#       8
#     8   8   8   8   8   8   8   8
#     4   9  16  28  48  73 102 135 169 207 250 294
#     4  10  20  35  54  75 103 137 172 209 251 307
#     4   9  18  32  50  75 107 140 173 210 252 300
#     4   8  15  31  54  75  98 133 172 205 247 307
#     4   9  16  29  49  72  96 125 166 208 246 293
#     4  10  21  36  55  80 104 124 159 214 265 310
#     4  10  19  32  50  75 103 135 177 216 246 291
#     4   9  17  31  50  71  96 126 164 209 248 290
#
# _framework density 17.731601000000001
#
# number of rings (size 3 to 8) (size 9 to 14) (size 15 to 20)
#    0.000    2.750    1.250    1.500    0.000    3.000 
#    0.000    3.125    0.000    3.375    0.000    0.000 
#    0.000    0.000    0.000    0.000    0.000    0.000 
#
# Total GULP energy -793438.240221 kJ/mol
# GULP energy per Si atom -12397.472503 kJ/mol
# Density = 1.769124 g / cm^3
# Si number density = 17.731601 Si / 1000 Ang^3
#
#
#
# Elastic Constant Matrix: (Units=GPa)
#
#
# Indices 1 2 3 4 5 6 
#
# 1 74.7244 31.3987 65.2289 0.0000 0.0000 0.0000
# 2 31.3987 44.9534 33.2734 0.0000 0.0000 0.0000
# 3 65.2289 33.2734 134.2367 0.0000 0.0000 0.0000
# 4 0.0000 0.0000 0.0000 27.5857 0.0000 0.0000
# 5 0.0000 0.0000 0.0000 0.0000 32.7022 0.0000
# 6 0.0000 0.0000 0.0000 0.0000 0.0000 21.7058
#
#
#
# Elastic Compliance Matrix: (Units=1/GPa)
#
#
# Indices 1 2 3 4 5 6 
#
# 1 0.027242 -0.011303 -0.010436 0.000000 0.000000 0.000000
# 2 -0.011303 0.031934 -0.002423 0.000000 0.000000 0.000000
# 3 -0.010436 -0.002423 0.013121 0.000000 0.000000 0.000000
# 4 0.000000 0.000000 0.000000 0.036251 0.000000 0.000000
# 5 0.000000 0.000000 0.000000 0.000000 0.030579 0.000000
# 6 0.000000 0.000000 0.000000 0.000000 0.000000 0.046071
#
#
# Mechanical properties :
#
#
# Convention : Reuss Voigt Hill
#
# Bulk Modulus (GPa) = 41.71416 57.07961 49.39689
# Shear Modulus (GPa) = 20.70299 24.66631 22.68465
#
# Velocity S-wave (km/s) = 3.42069 3.73378 3.58066
# Velocity P-wave (km/s) = 6.25922 7.13085 6.70920
#
# Compressibility (1/GPa) = 0.02397268
#
# Stress axis : x y z
#
# Youngs Moduli (GPa) = 36.70858 31.31488 76.21375
#
# Poissons Ratio (x) = 0.35396 0.79533
# Poissons Ratio (y) = 0.41493 0.18466
# Poissons Ratio (z) = 0.38308 0.07587
#
# Static dielectric constant tensor:
#      x y z
#    x 3.315530 0.000000 0.000000 
#    y 0.000000 3.068660 0.000000 
#    z 0.000000 0.000000 3.472160 
# 
# 
# High freq. dielectric constant tensor:
#      x y z
#    x 1.667800 0.000000 0.000000 
#    y 0.000000 1.661480 0.000000 
#    z 0.000000 0.000000 1.696820 
# 
# From -- ./inp_files/29612.got.cif
#   From: 2010.03.12/outbox.cif.g09.slc.cpg/sg59_15_cif.got.tgz:29612.got - 2010.04.16 16:29:54.
