data_PCOD8241110
_publ_section_title
;
Structure prediction by ZEFSAII (Michael W. Deem and Ramdas Pophale) SiO2 
 PCOD8241110
Probable space group: P M M N
;
_chemical_formula_sum "Si O2"
_cell_formula_units_Z 64
_cell_length_a 30.951310
_cell_length_b 9.622698
_cell_length_c 12.008671
_cell_angle_alpha 90.000000
_cell_angle_beta 90.000000
_cell_angle_gamma 90.000000
_cell_volume 3576.603834
_symmetry_space_group_name_H-M "P M M N"
_symmetry_group_IT_number 59
_space_group.IT_coordinate_system_code '2'
_symmetry_cell_setting 'orthorhombic'
loop_
_space_group_symop_operation_xyz
x,y,z
1/2-x,1/2-y,z
1/2+x,-y,-z
-x,1/2+y,-z
-x,-y,-z
1/2+x,1/2+y,-z
1/2-x,y,z
x,1/2-y,z
loop_
_atom_site_type_symbol
_atom_site_label
_atom_site_fract_x
_atom_site_fract_y
_atom_site_fract_z
Si Si1 0.455796 0.413759 0.987878
Si Si2 0.065771 0.093804 0.741968
Si Si3 0.200470 0.089116 0.972917
Si Si4 0.611052 0.412292 0.649026
Si Si5 0.701189 0.091385 0.234901
Si Si6 0.128704 0.910247 0.597819
Si Si7 0.875178 0.587775 0.858857
Si Si8 0.515208 0.406077 0.599987
O O1 0.467183 0.250000 0.993043
O O2 0.432981 0.451299 0.870664
O O3 0.500000 0.500000 0.000000
O O4 0.420062 0.455083 0.080366
O O5 0.083947 0.250000 0.727584
O O6 0.016112 0.084856 0.705163
O O7 0.092508 0.993449 0.663490
O O8 0.250000 0.050343 0.007083
O O9 0.196868 0.250000 0.941263
O O10 0.184935 0.004722 0.865090
O O11 0.167251 0.050400 0.069833
O O12 0.617664 0.250000 0.675827
O O13 0.632522 0.454657 0.531052
O O14 0.632234 0.501901 0.746406
O O15 0.561170 0.456085 0.644187
O O16 0.750000 0.055760 0.266797
O O17 0.695511 0.250000 0.195550
O O18 0.674649 0.060087 0.346329
O O19 0.114713 0.750000 0.605254
O O20 0.876270 0.750000 0.830122
O O21 0.500000 0.500000 0.500000
O O22 0.518502 0.250000 0.552419
#
# Coordination Sequence:
#
# PCOD8241110 Si02
#       8
#     8   8   8   8   8   8   8   8
#     4  10  21  36  52  74 105 138 173 213 258 309
#     4  10  20  33  52  76 101 131 168 213 259 302
#     4   9  18  35  59  83 106 134 170 214 265 318
#     4  10  21  36  52  73 104 140 177 216 254 303
#     4   9  18  33  54  80 107 132 162 205 257 312
#     4  10  20  34  52  75 102 133 169 209 254 302
#     4  10  21  36  54  77 105 139 177 218 263 311
#     4  10  19  32  50  72 100 134 171 211 253 299
#
# _framework density 17.894071
#
# number of rings (size 3 to 8) (size 9 to 14) (size 15 to 20)
#    0.000    2.250    1.250    1.500    0.000    5.000 
#    0.000    0.625    0.000    0.750    0.000    0.000 
#    0.000    0.000    0.000    0.000    0.000    0.000 
#
# Total GULP energy -793597.774553 kJ/mol
# GULP energy per Si atom -12399.965227 kJ/mol
# Density = 1.785334 g / cm^3
# Si number density = 17.894071 Si / 1000 Ang^3
#
#
#
# Elastic Constant Matrix: (Units=GPa)
#
#
# Indices 1 2 3 4 5 6 
#
# 1 93.2822 46.8065 64.1512 0.0000 0.0000 0.0000
# 2 46.8065 63.7933 67.3614 0.0000 0.0000 0.0000
# 3 64.1512 67.3614 152.2373 0.0000 0.0000 0.0000
# 4 0.0000 0.0000 0.0000 33.9045 0.0000 0.0000
# 5 0.0000 0.0000 0.0000 0.0000 29.3489 0.0000
# 6 0.0000 0.0000 0.0000 0.0000 0.0000 24.3159
#
#
#
# Elastic Compliance Matrix: (Units=1/GPa)
#
#
# Indices 1 2 3 4 5 6 
#
# 1 0.017773 -0.009633 -0.003227 0.000000 0.000000 0.000000
# 2 -0.009633 0.034644 -0.011270 0.000000 0.000000 0.000000
# 3 -0.003227 -0.011270 0.012915 0.000000 0.000000 0.000000
# 4 0.000000 0.000000 0.000000 0.029495 0.000000 0.000000
# 5 0.000000 0.000000 0.000000 0.000000 0.034073 0.000000
# 6 0.000000 0.000000 0.000000 0.000000 0.000000 0.041125
#
#
# Mechanical properties :
#
#
# Convention : Reuss Voigt Hill
#
# Bulk Modulus (GPa) = 58.57428 73.99456 66.28442
# Shear Modulus (GPa) = 22.32397 26.24677 24.28537
#
# Velocity S-wave (km/s) = 3.53592 3.83402 3.68798
# Velocity P-wave (km/s) = 7.03386 7.81286 7.43357
#
# Compressibility (1/GPa) = 0.01707234
#
# Stress axis : x y z
#
# Youngs Moduli (GPa) = 56.26544 28.86537 77.42852
#
# Poissons Ratio (x) = 0.27806 0.24986
# Poissons Ratio (y) = 0.54200 0.87260
# Poissons Ratio (z) = 0.18157 0.32531
#
# Static dielectric constant tensor:
#      x y z
#    x 3.358650 0.000000 0.000000 
#    y 0.000000 3.314000 0.000000 
#    z 0.000000 0.000000 3.269330 
# 
# 
# High freq. dielectric constant tensor:
#      x y z
#    x 1.691170 0.000000 0.000000 
#    y 0.000000 1.690180 0.000000 
#    z 0.000000 0.000000 1.692410 
# 
# From -- ./inp_files/19284.got.cif
#   From: 2010.03.12/outbox.cif.g09.slc.cpg/sg59_10_cif.got.tgz:19284.got - 2010.04.16 16:29:54.
