data_PCOD8241726
_publ_section_title
;
Structure prediction by ZEFSAII (Michael W. Deem and Ramdas Pophale) SiO2 
 PCOD8241726
Probable space group: P M M N
;
_chemical_formula_sum "Si O2"
_cell_formula_units_Z 64
_cell_length_a 28.168507
_cell_length_b 9.250975
_cell_length_c 12.895123
_cell_angle_alpha 90.000000
_cell_angle_beta 90.000000
_cell_angle_gamma 90.000000
_cell_volume 3360.290508
_symmetry_space_group_name_H-M "P M M N"
_symmetry_group_IT_number 59
_space_group.IT_coordinate_system_code '2'
_symmetry_cell_setting 'orthorhombic'
loop_
_space_group_symop_operation_xyz
x,y,z
1/2-x,1/2-y,z
1/2+x,-y,-z
-x,1/2+y,-z
-x,-y,-z
1/2+x,1/2+y,-z
1/2-x,y,z
x,1/2-y,z
loop_
_atom_site_type_symbol
_atom_site_label
_atom_site_fract_x
_atom_site_fract_y
_atom_site_fract_z
Si Si1 0.359511 0.580215 0.855969
Si Si2 0.865362 0.080601 0.911191
Si Si3 0.352662 0.082378 0.467661
Si Si4 0.304939 0.082949 0.681618
Si Si5 0.954663 0.583099 0.460924
Si Si6 0.054596 0.084790 0.771276
Si Si7 0.971055 0.415652 0.914535
Si Si8 0.804334 0.078113 0.720617
O O1 0.361070 0.750000 0.834341
O O2 0.321496 0.508540 0.780187
O O3 0.412029 0.516121 0.840780
O O4 0.344424 0.546461 0.974756
O O5 0.868561 0.250000 0.892323
O O6 0.918677 0.016171 0.898709
O O7 0.830711 0.015817 0.823169
O O8 0.340210 0.250000 0.448036
O O9 0.332783 0.033024 0.579216
O O10 0.409325 0.055648 0.465455
O O11 0.328924 0.986233 0.380343
O O12 0.250000 0.052752 0.661965
O O13 0.315519 0.250000 0.705756
O O14 0.968707 0.750000 0.457167
O O15 0.941491 0.529433 0.346024
O O16 0.000000 0.500000 0.500000
O O17 0.072721 0.250000 0.781089
O O18 0.999998 0.071501 0.807179
O O19 0.966640 0.250000 0.951711
O O20 0.000000 0.500000 0.000000
O O21 0.750000 0.026128 0.725931
O O22 0.807640 0.250000 0.713591
#
# Coordination Sequence:
#
# PCOD8241726 Si02
#       8
#     8   8   8   8   8   8   8   8
#     4  11  21  35  58  86 117 150 187 237 286 340
#     4   9  20  37  56  82 117 154 190 232 292 343
#     4  10  21  40  62  84 114 152 189 230 286 347
#     4  10  21  39  62  84 111 147 185 232 292 351
#     4  10  22  38  57  84 117 151 187 228 281 343
#     4  10  20  36  57  79 112 155 193 228 279 346
#     4  10  19  33  55  81 109 146 188 230 272 331
#     4  10  22  40  62  85 111 149 197 246 291 340
#
# _framework density 19.045973
#
# number of rings (size 3 to 8) (size 9 to 14) (size 15 to 20)
#    0.000    2.000    2.500    0.750    1.750    3.000 
#    0.000    3.125    0.000    0.000    0.000    0.000 
#    0.000    0.000    0.000    0.000    0.000    0.000 
#
# Total GULP energy -793648.580949 kJ/mol
# GULP energy per Si atom -12400.759077 kJ/mol
# Density = 1.900262 g / cm^3
# Si number density = 19.045973 Si / 1000 Ang^3
#
#
#
# Elastic Constant Matrix: (Units=GPa)
#
#
# Indices 1 2 3 4 5 6 
#
# 1 127.9932 36.8650 62.6591 0.0000 0.0000 0.0000
# 2 36.8650 51.7799 41.6573 0.0000 0.0000 0.0000
# 3 62.6591 41.6573 118.6991 0.0000 0.0000 0.0000
# 4 0.0000 0.0000 0.0000 29.1909 0.0000 0.0000
# 5 0.0000 0.0000 0.0000 0.0000 32.9958 0.0000
# 6 0.0000 0.0000 0.0000 0.0000 0.0000 29.7933
#
#
#
# Elastic Compliance Matrix: (Units=1/GPa)
#
#
# Indices 1 2 3 4 5 6 
#
# 1 0.011241 -0.004500 -0.004355 0.000000 0.000000 0.000000
# 2 -0.004500 0.028712 -0.007701 0.000000 0.000000 0.000000
# 3 -0.004355 -0.007701 0.013426 0.000000 0.000000 0.000000
# 4 0.000000 0.000000 0.000000 0.034257 0.000000 0.000000
# 5 0.000000 0.000000 0.000000 0.000000 0.030307 0.000000
# 6 0.000000 0.000000 0.000000 0.000000 0.000000 0.033565
#
#
# Mechanical properties :
#
#
# Convention : Reuss Voigt Hill
#
# Bulk Modulus (GPa) = 49.33925 64.53723 56.93824
# Shear Modulus (GPa) = 26.12692 28.88207 27.50449
#
# Velocity S-wave (km/s) = 3.70778 3.89837 3.80427
# Velocity P-wave (km/s) = 6.65520 7.36353 7.01831
#
# Compressibility (1/GPa) = 0.02026784
#
# Stress axis : x y z
#
# Youngs Moduli (GPa) = 88.96237 34.82918 74.48192
#
# Poissons Ratio (x) = 0.15672 0.32434
# Poissons Ratio (y) = 0.40029 0.57359
# Poissons Ratio (z) = 0.38740 0.26822
#
# Static dielectric constant tensor:
#      x y z
#    x 3.750490 0.000000 0.000000 
#    y 0.000000 3.341840 0.000000 
#    z 0.000000 0.000000 3.625410 
# 
# 
# High freq. dielectric constant tensor:
#      x y z
#    x 1.750650 0.000000 0.000000 
#    y 0.000000 1.718800 0.000000 
#    z 0.000000 0.000000 1.745880 
# 
# From -- ./inp_files/19277.got.cif
#   From: 2010.03.12/outbox.cif.g09.slc.cpg/sg59_10_cif.got.tgz:19277.got - 2010.04.16 16:29:54.
