data_PCOD8241875
_publ_section_title
;
Structure prediction by ZEFSAII (Michael W. Deem and Ramdas Pophale) SiO2 
 PCOD8241875
Probable space group: P M M N
;
_chemical_formula_sum "Si O2"
_cell_formula_units_Z 64
_cell_length_a 23.516234
_cell_length_b 9.061202
_cell_length_c 14.967868
_cell_angle_alpha 90.000000
_cell_angle_beta 90.000000
_cell_angle_gamma 90.000000
_cell_volume 3189.433340
_symmetry_space_group_name_H-M "P M M N"
_symmetry_group_IT_number 59
_space_group.IT_coordinate_system_code '2'
_symmetry_cell_setting 'orthorhombic'
loop_
_space_group_symop_operation_xyz
x,y,z
1/2-x,1/2-y,z
1/2+x,-y,-z
-x,1/2+y,-z
-x,-y,-z
1/2+x,1/2+y,-z
1/2-x,y,z
x,1/2-y,z
loop_
_atom_site_type_symbol
_atom_site_label
_atom_site_fract_x
_atom_site_fract_y
_atom_site_fract_z
Si Si1 0.120938 0.425864 0.820649
Si Si2 0.022773 0.082109 0.413528
Si Si3 0.151809 0.417518 0.456673
Si Si4 0.312044 0.915216 0.296744
Si Si5 0.313791 0.425247 0.647090
Si Si6 0.394296 0.924523 0.146210
Si Si7 0.316079 0.921694 0.978010
Si Si8 0.995898 0.426488 0.213723
O O1 0.112382 0.250000 0.824473
O O2 0.147919 0.482318 0.728008
O O3 0.164576 0.476107 0.896588
O O4 0.060699 0.507153 0.830132
O O5 0.002977 0.250000 0.422986
O O6 0.089922 0.065085 0.415319
O O7 0.001504 0.019224 0.317526
O O8 0.000000 0.000000 0.500000
O O9 0.172187 0.250000 0.461592
O O10 0.193568 0.498983 0.389484
O O11 0.157175 0.485211 0.556035
O O12 0.250000 0.917559 0.250471
O O13 0.331277 0.750000 0.319417
O O14 0.357116 0.984809 0.228911
O O15 0.250000 0.489268 0.655147
O O16 0.312185 0.250000 0.649432
O O17 0.405896 0.750000 0.151791
O O18 0.453438 0.012193 0.151256
O O19 0.358090 0.963839 0.058723
O O20 0.250000 0.956310 0.001673
O O21 0.322942 0.750000 0.952654
O O22 0.995785 0.250000 0.208118
#
# Coordination Sequence:
#
# PCOD8241875 Si02
#       8
#     8   8   8   8   8   8   8   8
#     4  11  23  40  63  88 118 158 205 254 304 362
#     4  10  21  35  54  81 116 158 204 249 294 349
#     4  10  19  34  54  80 113 152 194 236 288 348
#     4  10  20  34  54  83 117 151 189 234 284 343
#     4   9  18  33  55  83 115 152 195 243 294 352
#     4  10  21  39  63  88 119 159 198 238 293 360
#     4  10  22  42  67  94 123 156 196 245 303 363
#     4  11  23  40  60  87 123 158 201 254 304 357
#
# _framework density 20.06626
#
# number of rings (size 3 to 8) (size 9 to 14) (size 15 to 20)
#    0.000    1.875    1.250    2.625    0.000    6.500 
#    0.000    1.250    0.000    5.250    0.000    0.000 
#    0.000    0.000    0.000    0.000    0.000    0.000 
#
# Total GULP energy -793494.152307 kJ/mol
# GULP energy per Si atom -12398.346130 kJ/mol
# Density = 2.002059 g / cm^3
# Si number density = 20.066260 Si / 1000 Ang^3
#
#
#
# Elastic Constant Matrix: (Units=GPa)
#
#
# Indices 1 2 3 4 5 6 
#
# 1 101.9236 36.6286 42.9832 0.0000 0.0000 0.0000
# 2 36.6286 54.6376 34.9989 0.0000 0.0000 0.0000
# 3 42.9832 34.9989 109.5182 0.0000 0.0000 0.0000
# 4 0.0000 0.0000 0.0000 31.3808 0.0000 0.0000
# 5 0.0000 0.0000 0.0000 0.0000 38.3919 0.0000
# 6 0.0000 0.0000 0.0000 0.0000 0.0000 22.9815
#
#
#
# Elastic Compliance Matrix: (Units=1/GPa)
#
#
# Indices 1 2 3 4 5 6 
#
# 1 0.013700 -0.007218 -0.003070 0.000000 0.000000 0.000000
# 2 -0.007218 0.026816 -0.005737 0.000000 0.000000 0.000000
# 3 -0.003070 -0.005737 0.012169 0.000000 0.000000 0.000000
# 4 0.000000 0.000000 0.000000 0.031867 0.000000 0.000000
# 5 0.000000 0.000000 0.000000 0.000000 0.026047 0.000000
# 6 0.000000 0.000000 0.000000 0.000000 0.000000 0.043513
#
#
# Mechanical properties :
#
#
# Convention : Reuss Voigt Hill
#
# Bulk Modulus (GPa) = 48.46024 55.03343 51.74683
# Shear Modulus (GPa) = 25.90137 28.64875 27.27506
#
# Velocity S-wave (km/s) = 3.59666 3.78260 3.69080
# Velocity P-wave (km/s) = 6.43820 6.82370 6.63375
#
# Compressibility (1/GPa) = 0.02063547
#
# Stress axis : x y z
#
# Youngs Moduli (GPa) = 72.99325 37.29143 82.17411
#
# Poissons Ratio (x) = 0.26915 0.25230
# Poissons Ratio (y) = 0.52683 0.47142
# Poissons Ratio (z) = 0.22412 0.21394
#
# Static dielectric constant tensor:
#      x y z
#    x 3.599550 0.000000 0.000000 
#    y 0.000000 3.416800 0.000000 
#    z 0.000000 0.000000 3.753430 
# 
# 
# High freq. dielectric constant tensor:
#      x y z
#    x 1.796350 0.000000 0.000000 
#    y 0.000000 1.760470 0.000000 
#    z 0.000000 0.000000 1.788220 
# 
# From -- ./inp_files/24651.got.cif
#   From: 2010.03.12/outbox.cif.g09.slc.cpg/sg59_13_cif.got.tgz:24651.got - 2010.04.16 16:29:54.
