data_PCOD8241042
_publ_section_title
;
Structure prediction by ZEFSAII (Michael W. Deem and Ramdas Pophale) SiO2 
 PCOD8241042
Probable space group: P M M N
;
_chemical_formula_sum "Si O2"
_cell_formula_units_Z 64
_cell_length_a 8.986659
_cell_length_b 19.456495
_cell_length_c 18.977880
_cell_angle_alpha 90.000000
_cell_angle_beta 90.000000
_cell_angle_gamma 90.000000
_cell_volume 3318.261175
_symmetry_space_group_name_H-M "P M M N"
_symmetry_group_IT_number 59
_space_group.IT_coordinate_system_code '2'
_symmetry_cell_setting 'orthorhombic'
loop_
_space_group_symop_operation_xyz
x,y,z
1/2-x,1/2-y,z
1/2+x,-y,-z
-x,1/2+y,-z
-x,-y,-z
1/2+x,1/2+y,-z
1/2-x,y,z
x,1/2-y,z
loop_
_atom_site_type_symbol
_atom_site_label
_atom_site_fract_x
_atom_site_fract_y
_atom_site_fract_z
Si Si1 0.074648 0.944999 0.716632
Si Si2 0.920377 0.170919 0.654789
Si Si3 0.579509 0.564545 0.085328
Si Si4 0.422351 0.170650 0.512600
Si Si5 0.924871 0.425801 0.780117
Si Si6 0.920944 0.577694 0.929122
Si Si7 0.575769 0.829016 0.799040
Si Si8 0.424354 0.551075 0.555400
O O1 0.250000 0.944311 0.728615
O O2 0.035211 0.965906 0.636163
O O3 0.010386 0.870393 0.737757
O O4 0.998626 0.000295 0.767303
O O5 0.750000 0.154205 0.634158
O O6 0.939829 0.250000 0.675207
O O7 0.975629 0.127744 0.721120
O O8 0.025643 0.149819 0.590578
O O9 0.750000 0.566939 0.108732
O O10 0.482443 0.603208 0.144953
O O11 0.530296 0.485329 0.083544
O O12 0.555907 0.602236 0.010137
O O13 0.250000 0.151905 0.505717
O O14 0.454841 0.250000 0.497022
O O15 0.516400 0.128042 0.456454
O O16 0.750000 0.435684 0.781646
O O17 0.750000 0.553143 0.918202
O O18 0.960564 0.639770 0.876331
O O19 0.750000 0.833915 0.782388
O O20 0.521559 0.750000 0.798198
O O21 0.500000 0.500000 0.500000
O O22 0.250000 0.548053 0.541809
#
# Coordination Sequence:
#
# PCOD8241042 Si02
#       8
#     8   8   8   8   8   8   8   8
#     4  11  24  39  56  82 113 145 187 234 280 334
#     4   9  19  36  57  80 108 145 186 228 279 337
#     4  10  19  31  53  82 111 143 181 227 273 324
#     4  10  21  37  58  83 110 143 185 230 277 337
#     4  11  21  34  55  82 112 147 185 229 278 333
#     4   9  18  34  54  79 109 143 184 227 274 326
#     4  10  21  38  60  84 113 151 193 236 283 336
#     4  11  24  40  59  84 114 147 185 235 290 342
#
# _framework density 19.287210000000002
#
# number of rings (size 3 to 8) (size 9 to 14) (size 15 to 20)
#    0.000    1.875    1.250    2.625    0.000    7.000 
#    0.000    3.125    0.000    0.750    0.000    0.000 
#    0.000    0.000    0.000    0.000    0.000    0.000 
#
# Total GULP energy -793687.891573 kJ/mol
# GULP energy per Si atom -12401.373306 kJ/mol
# Density = 1.924331 g / cm^3
# Si number density = 19.287210 Si / 1000 Ang^3
#
#
#
# Elastic Constant Matrix: (Units=GPa)
#
#
# Indices 1 2 3 4 5 6 
#
# 1 77.5840 28.1179 48.6319 0.0000 0.0000 0.0000
# 2 28.1179 60.1513 28.3366 0.0000 0.0000 0.0000
# 3 48.6319 28.3366 100.9096 0.0000 0.0000 0.0000
# 4 0.0000 0.0000 0.0000 34.0081 0.0000 0.0000
# 5 0.0000 0.0000 0.0000 0.0000 35.0975 0.0000
# 6 0.0000 0.0000 0.0000 0.0000 0.0000 24.1888
#
#
#
# Elastic Compliance Matrix: (Units=1/GPa)
#
#
# Indices 1 2 3 4 5 6 
#
# 1 0.019944 -0.005526 -0.008060 0.000000 0.000000 0.000000
# 2 -0.005526 0.020690 -0.003147 0.000000 0.000000 0.000000
# 3 -0.008060 -0.003147 0.014678 0.000000 0.000000 0.000000
# 4 0.000000 0.000000 0.000000 0.029405 0.000000 0.000000
# 5 0.000000 0.000000 0.000000 0.000000 0.028492 0.000000
# 6 0.000000 0.000000 0.000000 0.000000 0.000000 0.041341
#
#
# Mechanical properties :
#
#
# Convention : Reuss Voigt Hill
#
# Bulk Modulus (GPa) = 45.77367 49.86864 47.82116
# Shear Modulus (GPa) = 25.60176 27.56279 26.58227
#
# Velocity S-wave (km/s) = 3.64730 3.78441 3.71648
# Velocity P-wave (km/s) = 6.44370 6.70877 6.57757
#
# Compressibility (1/GPa) = 0.02184662
#
# Stress axis : x y z
#
# Youngs Moduli (GPa) = 50.13968 48.33163 68.12922
#
# Poissons Ratio (x) = 0.26708 0.54913
# Poissons Ratio (y) = 0.27707 0.21440
# Poissons Ratio (z) = 0.40413 0.15210
#
# Static dielectric constant tensor:
#      x y z
#    x 3.549580 0.000000 0.000000 
#    y 0.000000 3.424840 0.000000 
#    z 0.000000 0.000000 3.819310 
# 
# 
# High freq. dielectric constant tensor:
#      x y z
#    x 1.755550 0.000000 0.000000 
#    y 0.000000 1.731110 0.000000 
#    z 0.000000 0.000000 1.763140 
# 
# From -- ./inp_files/26292.got.cif
#   From: 2010.03.12/outbox.cif.g09.slc.cpg/sg59_14_cif.got.tgz:26292.got - 2010.04.16 16:29:54.
