data_PCOD8241193
_publ_section_title
;
Structure prediction by ZEFSAII (Michael W. Deem and Ramdas Pophale) SiO2 
 PCOD8241193
Probable space group: P M M N
;
_chemical_formula_sum "Si O2"
_cell_formula_units_Z 64
_cell_length_a 9.266939
_cell_length_b 28.955196
_cell_length_c 12.625615
_cell_angle_alpha 90.000000
_cell_angle_beta 90.000000
_cell_angle_gamma 90.000000
_cell_volume 3387.781213
_symmetry_space_group_name_H-M "P M M N"
_symmetry_group_IT_number 59
_space_group.IT_coordinate_system_code '2'
_symmetry_cell_setting 'orthorhombic'
loop_
_space_group_symop_operation_xyz
x,y,z
1/2-x,1/2-y,z
1/2+x,-y,-z
-x,1/2+y,-z
-x,-y,-z
1/2+x,1/2+y,-z
1/2-x,y,z
x,1/2-y,z
loop_
_atom_site_type_symbol
_atom_site_label
_atom_site_fract_x
_atom_site_fract_y
_atom_site_fract_z
Si Si1 0.422466 0.300562 0.547165
Si Si2 0.418405 0.040465 0.206166
Si Si3 0.917643 0.613842 0.968604
Si Si4 0.080191 0.803398 0.889967
Si Si5 0.081345 0.392613 0.632869
Si Si6 0.908214 0.696028 0.686413
Si Si7 0.417198 0.041604 0.447585
Si Si8 0.079137 0.051960 0.831939
O O1 0.250000 0.298874 0.544414
O O2 0.483702 0.250000 0.580220
O O3 0.478067 0.339687 0.629373
O O4 0.473614 0.315240 0.429194
O O5 0.250000 0.028336 0.198027
O O6 0.455117 0.085790 0.138180
O O7 0.467057 0.050552 0.327019
O O8 0.505179 0.997588 0.157840
O O9 0.750000 0.626915 0.974872
O O10 0.006713 0.661882 0.974121
O O11 0.963781 0.582637 0.067707
O O12 0.250000 0.810664 0.890987
O O13 0.040229 0.750000 0.916484
O O14 0.020503 0.819513 0.775663
O O15 0.250000 0.391253 0.656035
O O16 0.047806 0.413558 0.517554
O O17 0.012946 0.422263 0.728079
O O18 0.750000 0.671790 0.704081
O O19 0.882640 0.750000 0.694076
O O20 0.250000 0.028766 0.451570
O O21 0.500000 0.000000 0.500000
O O22 0.250000 0.044016 0.824403
#
# Coordination Sequence:
#
# PCOD8241193 Si02
#       8
#     8   8   8   8   8   8   8   8
#     4   8  14  25  45  74 103 134 172 208 249 304
#     4  10  21  35  54  79 106 138 176 217 262 316
#     4  10  22  37  55  79 104 136 180 219 259 311
#     4  10  21  36  53  76 106 138 172 213 263 312
#     4   9  17  29  48  73 105 138 168 211 260 306
#     4   8  14  26  47  72  98 131 167 204 248 298
#     4  10  19  32  51  75 104 136 169 209 259 314
#     4  10  20  36  55  76 104 139 175 218 268 309
#
# _framework density 18.89142
#
# number of rings (size 3 to 8) (size 9 to 14) (size 15 to 20)
#    0.000    2.625    1.250    1.500    1.750    1.750 
#    0.000    0.625    0.000    3.000    0.000    0.000 
#    0.000    0.000    0.000    0.000    0.000    0.000 
#
# Total GULP energy -793231.326422 kJ/mol
# GULP energy per Si atom -12394.239475 kJ/mol
# Density = 1.884842 g / cm^3
# Si number density = 18.891420 Si / 1000 Ang^3
#
#
#
# Elastic Constant Matrix: (Units=GPa)
#
#
# Indices 1 2 3 4 5 6 
#
# 1 43.2514 41.0930 28.3899 0.0000 0.0000 0.0000
# 2 41.0930 114.3075 40.1701 0.0000 0.0000 0.0000
# 3 28.3899 40.1701 89.2128 0.0000 0.0000 0.0000
# 4 0.0000 0.0000 0.0000 27.3441 0.0000 0.0000
# 5 0.0000 0.0000 0.0000 0.0000 16.2374 0.0000
# 6 0.0000 0.0000 0.0000 0.0000 0.0000 26.3252
#
#
#
# Elastic Compliance Matrix: (Units=1/GPa)
#
#
# Indices 1 2 3 4 5 6 
#
# 1 0.038628 -0.011365 -0.007175 0.000000 0.000000 0.000000
# 2 -0.011365 0.013737 -0.002569 0.000000 0.000000 0.000000
# 3 -0.007175 -0.002569 0.014649 0.000000 0.000000 0.000000
# 4 0.000000 0.000000 0.000000 0.036571 0.000000 0.000000
# 5 0.000000 0.000000 0.000000 0.000000 0.061586 0.000000
# 6 0.000000 0.000000 0.000000 0.000000 0.000000 0.037986
#
#
# Mechanical properties :
#
#
# Convention : Reuss Voigt Hill
#
# Bulk Modulus (GPa) = 40.32856 51.78641 46.05748
# Shear Modulus (GPa) = 19.71288 23.12257 21.41772
#
# Velocity S-wave (km/s) = 3.23380 3.50233 3.37074
# Velocity P-wave (km/s) = 5.94451 6.62021 6.29144
#
# Compressibility (1/GPa) = 0.02479633
#
# Stress axis : x y z
#
# Youngs Moduli (GPa) = 25.88764 72.79753 68.26394
#
# Poissons Ratio (x) = 0.82736 0.48980
# Poissons Ratio (y) = 0.29422 0.17534
# Poissons Ratio (z) = 0.18575 0.18698
#
# Static dielectric constant tensor:
#      x y z
#    x 3.166500 0.000000 0.000000 
#    y 0.000000 3.467470 0.000000 
#    z 0.000000 0.000000 3.606190 
# 
# 
# High freq. dielectric constant tensor:
#      x y z
#    x 1.692930 0.000000 0.000000 
#    y 0.000000 1.741880 0.000000 
#    z 0.000000 0.000000 1.727110 
# 
# From -- ./inp_files/14983.got.cif
#   From: 2010.03.12/outbox.cif.g09.slc.cpg/sg59_8_cif.got.tgz:14983.got - 2010.04.16 16:29:54.
