data_PCOD8241323
_publ_section_title
;
Structure prediction by ZEFSAII (Michael W. Deem and Ramdas Pophale) SiO2 
 PCOD8241323
Probable space group: P M M N
;
_chemical_formula_sum "Si O2"
_cell_formula_units_Z 32
_cell_length_a 20.894828
_cell_length_b 8.881939
_cell_length_c 9.370471
_cell_angle_alpha 90.000000
_cell_angle_beta 90.000000
_cell_angle_gamma 90.000000
_cell_volume 1739.033738
_symmetry_space_group_name_H-M "P M M N"
_symmetry_group_IT_number 59
_space_group.IT_coordinate_system_code '2'
_symmetry_cell_setting 'orthorhombic'
loop_
_space_group_symop_operation_xyz
x,y,z
1/2-x,1/2-y,z
1/2+x,-y,-z
-x,1/2+y,-z
-x,-y,-z
1/2+x,1/2+y,-z
1/2-x,y,z
x,1/2-y,z
loop_
_atom_site_type_symbol
_atom_site_label
_atom_site_fract_x
_atom_site_fract_y
_atom_site_fract_z
Si Si1 0.250000 0.082873 0.170025
Si Si2 0.750000 0.585654 0.168439
Si Si3 0.886838 0.930835 0.147942
Si Si4 0.998878 0.073778 0.652905
Si Si5 0.879143 0.427252 0.844544
O O1 0.250000 0.250000 0.239383
O O2 0.186807 0.993255 0.218827
O O3 0.250000 0.098042 0.001386
O O4 0.750000 0.750000 0.240060
O O5 0.682268 0.506984 0.209327
O O6 0.884685 0.750000 0.132197
O O7 0.941631 0.987757 0.254146
O O8 0.900467 0.999194 0.993205
O O9 0.006288 0.250000 0.632944
O O10 0.933247 0.031263 0.730459
O O11 0.000000 0.000000 0.500000
O O12 0.871737 0.250000 0.867615
#
# Coordination Sequence:
#
# PCOD8241323 Si02
#       5
#     4   4   8   8   8
#     4   9  17  31  52  77 102 132 166 206 256 311
#     4   7  12  25  48  73  96 120 156 204 246 287
#     4   9  17  32  53  77 102 133 171 210 253 306
#     4  10  22  36  50  71 104 142 178 214 254 299
#     4  10  19  32  52  79 105 132 168 214 260 302
#
# _framework density 18.401024
#
# number of rings (size 3 to 8) (size 9 to 14) (size 15 to 20)
#    0.000    2.750    0.000    3.375    0.000    3.000 
#    0.000    1.250    0.000    1.500    0.000    0.000 
#    0.000    0.000    0.000    0.000    0.000    0.000 
#
# Total GULP energy -396574.193241 kJ/mol
# GULP energy per Si atom -12392.943539 kJ/mol
# Density = 1.835914 g / cm^3
# Si number density = 18.401024 Si / 1000 Ang^3
#
#
#
# Elastic Constant Matrix: (Units=GPa)
#
#
# Indices 1 2 3 4 5 6 
#
# 1 189.6687 56.2481 80.6751 0.0000 0.0000 0.0000
# 2 56.2481 56.1461 40.5988 0.0000 0.0000 0.0000
# 3 80.6751 40.5988 102.9885 0.0000 0.0000 0.0000
# 4 0.0000 0.0000 0.0000 27.5965 0.0000 0.0000
# 5 0.0000 0.0000 0.0000 0.0000 4.8573 0.0000
# 6 0.0000 0.0000 0.0000 0.0000 0.0000 24.2022
#
#
#
# Elastic Compliance Matrix: (Units=1/GPa)
#
#
# Indices 1 2 3 4 5 6 
#
# 1 0.008962 -0.005457 -0.004869 0.000000 0.000000 0.000000
# 2 -0.005457 0.028235 -0.006855 0.000000 0.000000 0.000000
# 3 -0.004869 -0.006855 0.016226 0.000000 0.000000 0.000000
# 4 0.000000 0.000000 0.000000 0.036236 0.000000 0.000000
# 5 0.000000 0.000000 0.000000 0.000000 0.205875 0.000000
# 6 0.000000 0.000000 0.000000 0.000000 0.000000 0.041319
#
#
# Mechanical properties :
#
#
# Convention : Reuss Voigt Hill
#
# Bulk Modulus (GPa) = 52.46645 78.20526 65.33586
# Shear Modulus (GPa) = 13.24261 22.74997 17.99629
#
# Velocity S-wave (km/s) = 2.68557 3.51998 3.13070
# Velocity P-wave (km/s) = 6.17989 7.68851 6.97511
#
# Compressibility (1/GPa) = 0.01905980
#
# Stress axis : x y z
#
# Youngs Moduli (GPa) = 111.58587 35.41678 61.62894
#
# Poissons Ratio (x) = 0.19329 0.30005
# Poissons Ratio (y) = 0.60898 0.42249
# Poissons Ratio (z) = 0.54328 0.24280
#
# Static dielectric constant tensor:
#      x y z
#    x 2.918740 0.000000 0.000000 
#    y 0.000000 3.282920 0.000000 
#    z 0.000000 0.000000 3.429650 
# 
# 
# High freq. dielectric constant tensor:
#      x y z
#    x 1.742890 0.000000 0.000000 
#    y 0.000000 1.699300 0.000000 
#    z 0.000000 0.000000 1.674450 
# 
# From -- ./inp_files/10910.got.cif
#   From: 2010.03.12/outbox.cif.g09.slc.cpg/sg59_6_cif.got.tgz:10910.got - 2010.04.16 16:29:54.
