data_PCOD8241503
_publ_section_title
;
Structure prediction by ZEFSAII (Michael W. Deem and Ramdas Pophale) SiO2 
 PCOD8241503
Probable space group: P M M N
;
_chemical_formula_sum "Si O2"
_cell_formula_units_Z 56
_cell_length_a 10.148047
_cell_length_b 18.549720
_cell_length_c 16.658374
_cell_angle_alpha 90.000000
_cell_angle_beta 90.000000
_cell_angle_gamma 90.000000
_cell_volume 3135.829467
_symmetry_space_group_name_H-M "P M M N"
_symmetry_group_IT_number 59
_space_group.IT_coordinate_system_code '2'
_symmetry_cell_setting 'orthorhombic'
loop_
_space_group_symop_operation_xyz
x,y,z
1/2-x,1/2-y,z
1/2+x,-y,-z
-x,1/2+y,-z
-x,-y,-z
1/2+x,1/2+y,-z
1/2-x,y,z
x,1/2-y,z
loop_
_atom_site_type_symbol
_atom_site_label
_atom_site_fract_x
_atom_site_fract_y
_atom_site_fract_z
Si Si1 0.902787 0.522294 0.069965
Si Si2 0.098535 0.538068 0.762611
Si Si3 0.604829 0.169622 0.721506
Si Si4 0.507287 0.450036 0.618779
Si Si5 0.095863 0.666929 0.655659
Si Si6 0.395680 0.408252 0.455639
Si Si7 0.898100 0.830331 0.142985
O O1 0.750000 0.499930 0.052643
O O2 0.962315 0.485512 0.151589
O O3 0.912445 0.609392 0.074546
O O4 0.000000 0.500000 0.000000
O O5 0.250000 0.541216 0.781765
O O6 0.051120 0.617151 0.731336
O O7 0.075416 0.478945 0.694117
O O8 0.750000 0.164161 0.760895
O O9 0.578437 0.250000 0.688496
O O10 0.598920 0.115512 0.646835
O O11 0.497314 0.148687 0.786902
O O12 0.411072 0.418915 0.550744
O O13 0.598531 0.513440 0.585199
O O14 0.250000 0.653004 0.634365
O O15 0.070817 0.750000 0.678498
O O16 0.007978 0.645142 0.578701
O O17 0.250000 0.375887 0.439091
O O18 0.750000 0.833172 0.178797
O O19 0.928570 0.750000 0.108196
#
# Coordination Sequence:
#
# PCOD8241503 Si02
#       7
#     8   8   8   8   8   8   8
#     4  10  20  35  55  82 111 139 175 220 266 316
#     4   9  17  33  56  77 100 135 180 220 258 313
#     4  10  20  32  49  75 104 133 168 212 259 309
#     4  10  19  33  51  73 105 140 178 215 265 319
#     4   9  19  36  56  76 103 141 180 221 272 324
#     4  10  21  33  51  77 104 138 181 228 269 309
#     4   9  18  34  55  77 105 140 172 205 253 313
#
# _framework density 17.858114
#
# number of rings (size 3 to 8) (size 9 to 14) (size 15 to 20)
#    0.000    2.429    1.429    0.857    0.000    6.000 
#    0.000    2.857    0.000    0.857    0.000    0.000 
#    0.000    0.000    0.000    0.000    0.000    0.000 
#
# Total GULP energy -693979.543157 kJ/mol
# GULP energy per Si atom -12392.491842 kJ/mol
# Density = 1.781747 g / cm^3
# Si number density = 17.858114 Si / 1000 Ang^3
#
#
#
# Elastic Constant Matrix: (Units=GPa)
#
#
# Indices 1 2 3 4 5 6 
#
# 1 85.3068 44.5133 43.9432 0.0000 0.0000 0.0000
# 2 44.5133 116.5311 55.2571 0.0000 0.0000 0.0000
# 3 43.9432 55.2571 116.4531 0.0000 0.0000 0.0000
# 4 0.0000 0.0000 0.0000 19.8564 0.0000 0.0000
# 5 0.0000 0.0000 0.0000 0.0000 20.1136 0.0000
# 6 0.0000 0.0000 0.0000 0.0000 0.0000 17.4624
#
#
#
# Elastic Compliance Matrix: (Units=1/GPa)
#
#
# Indices 1 2 3 4 5 6 
#
# 1 0.015994 -0.004190 -0.004047 0.000000 0.000000 0.000000
# 2 -0.004190 0.012171 -0.004194 0.000000 0.000000 0.000000
# 3 -0.004047 -0.004194 0.012104 0.000000 0.000000 0.000000
# 4 0.000000 0.000000 0.000000 0.050362 0.000000 0.000000
# 5 0.000000 0.000000 0.000000 0.000000 0.049718 0.000000
# 6 0.000000 0.000000 0.000000 0.000000 0.000000 0.057266
#
#
# Mechanical properties :
#
#
# Convention : Reuss Voigt Hill
#
# Bulk Modulus (GPa) = 64.90773 67.30203 66.10488
# Shear Modulus (GPa) = 21.96732 23.12497 22.54615
#
# Velocity S-wave (km/s) = 3.51109 3.60241 3.55704
# Velocity P-wave (km/s) = 7.27064 7.42106 7.34623
#
# Compressibility (1/GPa) = 0.01540648
#
# Stress axis : x y z
#
# Youngs Moduli (GPa) = 62.52531 82.16461 82.61647
#
# Poissons Ratio (x) = 0.34430 0.33433
# Poissons Ratio (y) = 0.26201 0.34647
# Poissons Ratio (z) = 0.25302 0.34458
#
# Static dielectric constant tensor:
#      x y z
#    x 3.243790 0.000000 0.000000 
#    y 0.000000 3.579050 0.000000 
#    z 0.000000 0.000000 3.145510 
# 
# 
# High freq. dielectric constant tensor:
#      x y z
#    x 1.686440 0.000000 0.000000 
#    y 0.000000 1.699360 0.000000 
#    z 0.000000 0.000000 1.662290 
# 
# From -- ./inp_files/26108.got.cif
#   From: 2010.03.12/outbox.cif.g09.slc.cpg/sg59_14_cif.got.tgz:26108.got - 2010.04.16 16:29:54.
