data_PCOD8241000
_publ_section_title
;
Structure prediction by ZEFSAII (Michael W. Deem and Ramdas Pophale) SiO2 
 PCOD8241000
Probable space group: P M M N
;
_chemical_formula_sum "Si O2"
_cell_formula_units_Z 48
_cell_length_a 19.710422
_cell_length_b 12.738192
_cell_length_c 8.194126
_cell_angle_alpha 90.000000
_cell_angle_beta 90.000000
_cell_angle_gamma 90.000000
_cell_volume 2057.341331
_symmetry_space_group_name_H-M "P M M N"
_symmetry_group_IT_number 59
_space_group.IT_coordinate_system_code '2'
_symmetry_cell_setting 'orthorhombic'
loop_
_space_group_symop_operation_xyz
x,y,z
1/2-x,1/2-y,z
1/2+x,-y,-z
-x,1/2+y,-z
-x,-y,-z
1/2+x,1/2+y,-z
1/2-x,y,z
x,1/2-y,z
loop_
_atom_site_type_symbol
_atom_site_label
_atom_site_fract_x
_atom_site_fract_y
_atom_site_fract_z
Si Si1 0.823912 0.867509 0.636605
Si Si2 0.825788 0.438024 0.429182
Si Si3 0.175255 0.870970 0.924739
Si Si4 0.963072 0.129610 0.562098
Si Si5 0.535302 0.627618 0.759002
Si Si6 0.462172 0.625943 0.078795
O O1 0.750000 0.883068 0.722420
O O2 0.831976 0.750000 0.567978
O O3 0.883659 0.890133 0.766511
O O4 0.830823 0.940487 0.479147
O O5 0.750000 0.392510 0.467540
O O6 0.840123 0.437226 0.237124
O O7 0.882509 0.373003 0.526534
O O8 0.250000 0.897417 0.997660
O O9 0.171196 0.750000 0.870468
O O10 0.117866 0.897391 0.056085
O O11 0.985208 0.250000 0.579303
O O12 0.978631 0.075497 0.741468
O O13 0.006054 0.077700 0.412214
O O14 0.514035 0.750000 0.757682
O O15 0.505405 0.576606 0.926382
O O16 0.476293 0.750000 0.084457
#
# Coordination Sequence:
#
# PCOD8241000 Si02
#       6
#     8   8   8   8   8   8
#     4   9  19  36  58  78  96 131 181 227 273 316
#     4  10  19  31  51  78 106 140 180 217 257 306
#     4   9  16  28  47  72 107 146 175 202 245 303
#     4  10  19  31  51  82 115 143 171 204 251 316
#     4   9  17  33  55  76 104 139 173 216 264 308
#     4   9  17  30  49  76 110 145 175 202 244 307
#
# _framework density 23.331081000000001
#
# number of rings (size 3 to 8) (size 9 to 14) (size 15 to 20)
#    0.000    2.667    1.667    0.500    0.000    2.333 
#    0.000    2.500    0.000    1.000    0.000    7.000 
#    0.000    0.000    0.000    0.000    0.000    0.000 
#
# Total GULP energy -594982.218945 kJ/mol
# GULP energy per Si atom -12395.462895 kJ/mol
# Density = 2.327798 g / cm^3
# Si number density = 23.331081 Si / 1000 Ang^3
#
#
#
# Elastic Constant Matrix: (Units=GPa)
#
#
# Indices 1 2 3 4 5 6 
#
# 1 157.0642 25.7707 90.3021 0.0000 0.0000 0.0000
# 2 25.7707 36.5992 48.5929 0.0000 0.0000 0.0000
# 3 90.3021 48.5929 187.0282 0.0000 0.0000 0.0000
# 4 0.0000 0.0000 0.0000 38.7098 0.0000 0.0000
# 5 0.0000 0.0000 0.0000 0.0000 16.9171 0.0000
# 6 0.0000 0.0000 0.0000 0.0000 0.0000 11.2545
#
#
#
# Elastic Compliance Matrix: (Units=1/GPa)
#
#
# Indices 1 2 3 4 5 6 
#
# 1 0.008831 -0.000850 -0.004043 0.000000 0.000000 0.000000
# 2 -0.000850 0.041794 -0.010448 0.000000 0.000000 0.000000
# 3 -0.004043 -0.010448 0.010013 0.000000 0.000000 0.000000
# 4 0.000000 0.000000 0.000000 0.025833 0.000000 0.000000
# 5 0.000000 0.000000 0.000000 0.000000 0.059112 0.000000
# 6 0.000000 0.000000 0.000000 0.000000 0.000000 0.088853
#
#
# Mechanical properties :
#
#
# Convention : Reuss Voigt Hill
#
# Bulk Modulus (GPa) = 33.38312 78.89148 56.13730
# Shear Modulus (GPa) = 18.17497 27.77801 22.97649
#
# Velocity S-wave (km/s) = 2.79409 3.45425 3.14156
# Velocity P-wave (km/s) = 4.97481 7.05666 6.10513
#
# Compressibility (1/GPa) = 0.02995526
#
# Stress axis : x y z
#
# Youngs Moduli (GPa) = 113.24164 23.92702 99.86718
#
# Poissons Ratio (x) = 0.02035 0.40374
# Poissons Ratio (y) = 0.09630 1.04342
# Poissons Ratio (z) = 0.45780 0.24999
#
# Static dielectric constant tensor:
#      x y z
#    x 4.444720 0.000000 0.000000 
#    y 0.000000 4.174960 0.000000 
#    z 0.000000 0.000000 4.204210 
# 
# 
# High freq. dielectric constant tensor:
#      x y z
#    x 1.927350 0.000000 0.000000 
#    y 0.000000 1.938660 0.000000 
#    z 0.000000 0.000000 1.906650 
# 
# From -- ./inp_files/11290.got.cif
#   From: 2010.03.12/outbox.cif.g09.slc.cpg/sg59_6_cif.got.tgz:11290.got - 2010.04.16 16:29:54.
