data_PCOD8241387
_publ_section_title
;
Structure prediction by ZEFSAII (Michael W. Deem and Ramdas Pophale) SiO2 
 PCOD8241387
Probable space group: P M M N
;
_chemical_formula_sum "Si O2"
_cell_formula_units_Z 32
_cell_length_a 17.493192
_cell_length_b 9.370823
_cell_length_c 11.227396
_cell_angle_alpha 90.000000
_cell_angle_beta 90.000000
_cell_angle_gamma 90.000000
_cell_volume 1840.457692
_symmetry_space_group_name_H-M "P M M N"
_symmetry_group_IT_number 59
_space_group.IT_coordinate_system_code '2'
_symmetry_cell_setting 'orthorhombic'
loop_
_space_group_symop_operation_xyz
x,y,z
1/2-x,1/2-y,z
1/2+x,-y,-z
-x,1/2+y,-z
-x,-y,-z
1/2+x,1/2+y,-z
1/2-x,y,z
x,1/2-y,z
loop_
_atom_site_type_symbol
_atom_site_label
_atom_site_fract_x
_atom_site_fract_y
_atom_site_fract_z
Si Si1 0.551271 0.083750 0.836281
Si Si2 0.250000 0.090598 0.542268
Si Si3 0.334492 0.089796 0.314244
Si Si4 0.250000 0.581804 0.779145
Si Si5 0.593699 0.416207 0.103460
O O1 0.537530 0.250000 0.814707
O O2 0.606851 0.026160 0.734148
O O3 0.470267 0.004981 0.826469
O O4 0.590237 0.052029 0.963125
O O5 0.250000 0.250000 0.596931
O O6 0.325118 0.070383 0.457758
O O7 0.250000 0.976991 0.646248
O O8 0.250000 0.068106 0.255471
O O9 0.364062 0.250000 0.285289
O O10 0.250000 0.750000 0.768419
O O11 0.175604 0.529365 0.850675
O O12 0.580081 0.250000 0.130336
#
# Coordination Sequence:
#
# PCOD8241387 Si02
#       5
#     8   4   8   4   8
#     4  10  19  32  53  80 105 131 169 211 249 297
#     4   8  18  35  52  74 102 133 169 214 253 296
#     4   8  17  33  53  74 101 134 164 205 259 299
#     4  10  20  35  54  74  98 137 173 204 253 302
#     4   9  20  35  51  73 108 139 163 204 257 306
#
# _framework density 17.386979
#
# number of rings (size 3 to 8) (size 9 to 14) (size 15 to 20)
#    0.750    2.250    0.000    0.750    1.750    3.500 
#    0.000    1.250    0.000    0.000    0.000    0.000 
#    0.000    0.000    0.000    0.000    0.000    0.000 
#
# Total GULP energy -396634.387431 kJ/mol
# GULP energy per Si atom -12394.824607 kJ/mol
# Density = 1.734741 g / cm^3
# Si number density = 17.386979 Si / 1000 Ang^3
#
#
#
# Elastic Constant Matrix: (Units=GPa)
#
#
# Indices 1 2 3 4 5 6 
#
# 1 129.3132 56.4159 54.4929 0.0000 0.0000 0.0000
# 2 56.4159 62.1801 32.2744 0.0000 0.0000 0.0000
# 3 54.4929 32.2744 63.1902 0.0000 0.0000 0.0000
# 4 0.0000 0.0000 0.0000 29.7937 0.0000 0.0000
# 5 0.0000 0.0000 0.0000 0.0000 9.1851 0.0000
# 6 0.0000 0.0000 0.0000 0.0000 0.0000 22.9141
#
#
#
# Elastic Compliance Matrix: (Units=1/GPa)
#
#
# Indices 1 2 3 4 5 6 
#
# 1 0.015518 -0.009707 -0.008424 0.000000 0.000000 0.000000
# 2 -0.009707 0.027956 -0.005908 0.000000 0.000000 0.000000
# 3 -0.008424 -0.005908 0.026107 0.000000 0.000000 0.000000
# 4 0.000000 0.000000 0.000000 0.033564 0.000000 0.000000
# 5 0.000000 0.000000 0.000000 0.000000 0.108872 0.000000
# 6 0.000000 0.000000 0.000000 0.000000 0.000000 0.043641
#
#
# Mechanical properties :
#
#
# Convention : Reuss Voigt Hill
#
# Bulk Modulus (GPa) = 46.50404 60.11666 53.31035
# Shear Modulus (GPa) = 16.08214 19.81192 17.94703
#
# Velocity S-wave (km/s) = 3.04460 3.37926 3.21629
# Velocity P-wave (km/s) = 6.25812 7.06234 6.67236
#
# Compressibility (1/GPa) = 0.02150351
#
# Stress axis : x y z
#
# Youngs Moduli (GPa) = 64.44095 35.77101 38.30325
#
# Poissons Ratio (x) = 0.34722 0.32268
# Poissons Ratio (y) = 0.62552 0.22628
# Poissons Ratio (z) = 0.54288 0.21132
#
# Static dielectric constant tensor:
#      x y z
#    x 3.227610 0.000000 0.000000 
#    y 0.000000 3.135080 0.000000 
#    z 0.000000 0.000000 2.972020 
# 
# 
# High freq. dielectric constant tensor:
#      x y z
#    x 1.664760 0.000000 0.000000 
#    y 0.000000 1.673730 0.000000 
#    z 0.000000 0.000000 1.652590 
# 
# From -- ./inp_files/17415.got.cif
#   From: 2010.03.12/outbox.cif.g09.slc.cpg/sg59_9_cif.got.tgz:17415.got - 2010.04.16 16:29:54.
