data_PCOD8241962
_publ_section_title
;
Structure prediction by ZEFSAII (Michael W. Deem and Ramdas Pophale) SiO2 
 PCOD8241962
Probable space group: P M M N
;
_chemical_formula_sum "Si O2"
_cell_formula_units_Z 48
_cell_length_a 8.711023
_cell_length_b 15.401942
_cell_length_c 19.345169
_cell_angle_alpha 90.000000
_cell_angle_beta 90.000000
_cell_angle_gamma 90.000000
_cell_volume 2595.476925
_symmetry_space_group_name_H-M "P M M N"
_symmetry_group_IT_number 59
_space_group.IT_coordinate_system_code '2'
_symmetry_cell_setting 'orthorhombic'
loop_
_space_group_symop_operation_xyz
x,y,z
1/2-x,1/2-y,z
1/2+x,-y,-z
-x,1/2+y,-z
-x,-y,-z
1/2+x,1/2+y,-z
1/2-x,y,z
x,1/2-y,z
loop_
_atom_site_type_symbol
_atom_site_label
_atom_site_fract_x
_atom_site_fract_y
_atom_site_fract_z
Si Si1 0.927068 0.750000 0.795546
Si Si2 0.071519 0.849596 0.423139
Si Si3 0.430725 0.936761 0.944622
Si Si4 0.073374 0.750000 0.941869
Si Si5 0.069922 0.501896 0.660762
Si Si6 0.068980 0.438604 0.207655
Si Si7 0.428627 0.151246 0.429536
O O1 0.750000 0.750000 0.810562
O O2 0.970149 0.841900 0.760152
O O3 0.000426 0.750000 0.868655
O O4 0.250000 0.872174 0.414479
O O5 0.036476 0.750000 0.402802
O O6 0.025465 0.867306 0.501889
O O7 0.972536 0.910670 0.373774
O O8 0.250000 0.951997 0.936496
O O9 0.470486 0.841249 0.977838
O O10 0.507668 0.950739 0.869976
O O11 0.500000 0.000000 0.000000
O O12 0.250000 0.750000 0.925978
O O13 0.250000 0.517898 0.654641
O O14 0.017593 0.495575 0.740943
O O15 0.980405 0.582355 0.627075
O O16 0.250000 0.457727 0.207823
O O17 0.250000 0.137334 0.446399
O O18 0.457368 0.250000 0.402604
#
# Coordination Sequence:
#
# PCOD8241962 Si02
#       7
#     4   8   8   4   8   8   8
#     4   8  16  30  50  74 104 138 171 210 261 318
#     4  10  21  39  61  81 104 140 187 234 279 328
#     4  10  19  34  56  82 111 145 181 223 270 323
#     4   8  16  30  50  76 106 138 173 208 255 314
#     4  12  24  36  54  81 114 148 183 226 276 331
#     4  10  20  35  54  80 111 145 183 224 272 328
#     4  10  21  37  57  82 113 147 184 227 274 325
#
# _framework density 18.49371
#
# number of rings (size 3 to 8) (size 9 to 14) (size 15 to 20)
#    0.000    2.000    0.000    4.000    1.167    3.333 
#    0.000    0.000    1.833    0.000    0.000    0.000 
#    0.000    0.000    0.000    0.000    0.000    0.000 
#
# Total GULP energy -594796.061593 kJ/mol
# GULP energy per Si atom -12391.584617 kJ/mol
# Density = 1.845162 g / cm^3
# Si number density = 18.493710 Si / 1000 Ang^3
#
#
#
# Elastic Constant Matrix: (Units=GPa)
#
#
# Indices 1 2 3 4 5 6 
#
# 1 63.8589 37.7283 26.6895 0.0000 0.0000 0.0000
# 2 37.7283 105.8189 55.3557 0.0000 0.0000 0.0000
# 3 26.6895 55.3557 82.2965 0.0000 0.0000 0.0000
# 4 0.0000 0.0000 0.0000 25.9950 0.0000 0.0000
# 5 0.0000 0.0000 0.0000 0.0000 34.1395 0.0000
# 6 0.0000 0.0000 0.0000 0.0000 0.0000 27.3024
#
#
#
# Elastic Compliance Matrix: (Units=1/GPa)
#
#
# Indices 1 2 3 4 5 6 
#
# 1 0.020202 -0.005825 -0.002633 0.000000 0.000000 0.000000
# 2 -0.005825 0.016260 -0.009048 0.000000 0.000000 0.000000
# 3 -0.002633 -0.009048 0.019091 0.000000 0.000000 0.000000
# 4 0.000000 0.000000 0.000000 0.038469 0.000000 0.000000
# 5 0.000000 0.000000 0.000000 0.000000 0.029292 0.000000
# 6 0.000000 0.000000 0.000000 0.000000 0.000000 0.036627
#
#
# Mechanical properties :
#
#
# Convention : Reuss Voigt Hill
#
# Bulk Modulus (GPa) = 48.68551 54.61348 51.64949
# Shear Modulus (GPa) = 24.77698 26.30075 25.53887
#
# Velocity S-wave (km/s) = 3.66423 3.77523 3.72014
# Velocity P-wave (km/s) = 6.65468 6.97123 6.81479
#
# Compressibility (1/GPa) = 0.02053999
#
# Stress axis : x y z
#
# Youngs Moduli (GPa) = 49.50099 61.50012 52.37984
#
# Poissons Ratio (x) = 0.35824 0.13794
# Poissons Ratio (y) = 0.28834 0.47394
# Poissons Ratio (z) = 0.13036 0.55646
#
# Static dielectric constant tensor:
#      x y z
#    x 3.504970 0.000000 0.000000 
#    y 0.000000 3.776480 0.000000 
#    z 0.000000 0.000000 3.285100 
# 
# 
# High freq. dielectric constant tensor:
#      x y z
#    x 1.732840 0.000000 0.000000 
#    y 0.000000 1.721280 0.000000 
#    z 0.000000 0.000000 1.696460 
# 
# From -- ./inp_files/25515.got.cif
#   From: 2010.03.12/outbox.cif.g09.slc.cpg/sg59_13_cif.got.tgz:25515.got - 2010.04.16 16:29:54.
