data_PCOD8241488
_publ_section_title
;
Structure prediction by ZEFSAII (Michael W. Deem and Ramdas Pophale) SiO2 
 PCOD8241488
Probable space group: P M M N
;
_chemical_formula_sum "Si O2"
_cell_formula_units_Z 56
_cell_length_a 13.234263
_cell_length_b 10.476854
_cell_length_c 22.217324
_cell_angle_alpha 90.000000
_cell_angle_beta 90.000000
_cell_angle_gamma 90.000000
_cell_volume 3080.508428
_symmetry_space_group_name_H-M "P M M N"
_symmetry_group_IT_number 59
_space_group.IT_coordinate_system_code '2'
_symmetry_cell_setting 'orthorhombic'
loop_
_space_group_symop_operation_xyz
x,y,z
1/2-x,1/2-y,z
1/2+x,-y,-z
-x,1/2+y,-z
-x,-y,-z
1/2+x,1/2+y,-z
1/2-x,y,z
x,1/2-y,z
loop_
_atom_site_type_symbol
_atom_site_label
_atom_site_fract_x
_atom_site_fract_y
_atom_site_fract_z
Si Si1 0.028822 0.102568 0.722489
Si Si2 0.364661 0.890567 0.795657
Si Si3 0.984125 0.394854 0.585320
Si Si4 0.499713 0.965905 0.902330
Si Si5 0.862324 0.891111 0.004909
Si Si6 0.633288 0.606420 0.522291
Si Si7 0.360722 0.602444 0.187158
O O1 0.059098 0.250000 0.737598
O O2 0.025006 0.079842 0.651709
O O3 0.919632 0.068884 0.751107
O O4 0.110502 0.004569 0.749428
O O5 0.250000 0.912737 0.817960
O O6 0.374623 0.750000 0.764711
O O7 0.439982 0.885752 0.852491
O O8 0.940382 0.250000 0.579688
O O9 0.898766 0.499860 0.570909
O O10 0.077348 0.416181 0.540663
O O11 0.415576 0.027163 0.944351
O O12 0.571356 0.068451 0.870175
O O13 0.573727 0.881834 0.943297
O O14 0.750000 0.947278 0.992069
O O15 0.853009 0.750000 0.031349
O O16 0.750000 0.587980 0.508134
O O17 0.610835 0.750000 0.547051
O O18 0.250000 0.533343 0.187504
O O19 0.340302 0.750000 0.182877
#
# Coordination Sequence:
#
# PCOD8241488 Si02
#       7
#     8   8   8   8   8   8   8
#     4   9  19  34  53  77 102 131 168 209 251 294
#     4  10  21  36  53  74 101 133 167 204 248 298
#     4   9  18  33  52  75 103 134 171 213 255 301
#     4  10  19  33  50  68  95 129 162 198 248 304
#     4  10  20  32  48  71  95 121 159 207 252 295
#     4   9  18  32  50  73 103 138 172 209 255 304
#     4   9  17  30  48  70  96 126 162 204 248 295
#
# _framework density 18.178818
#
# number of rings (size 3 to 8) (size 9 to 14) (size 15 to 20)
#    0.000    2.571    0.000    1.714    0.000    2.857 
#    0.000    2.857    0.000   10.714    0.000    0.000 
#    0.000    0.000    0.000    0.000    0.000    0.000 
#
# Total GULP energy -694031.119021 kJ/mol
# GULP energy per Si atom -12393.412840 kJ/mol
# Density = 1.813744 g / cm^3
# Si number density = 18.178818 Si / 1000 Ang^3
#
#
#
# Elastic Constant Matrix: (Units=GPa)
#
#
# Indices 1 2 3 4 5 6 
#
# 1 121.4311 51.9027 33.1575 0.0000 0.0000 0.0000
# 2 51.9027 92.7259 45.5421 0.0000 0.0000 0.0000
# 3 33.1575 45.5421 86.7005 0.0000 0.0000 0.0000
# 4 0.0000 0.0000 0.0000 18.8701 0.0000 0.0000
# 5 0.0000 0.0000 0.0000 0.0000 10.6297 0.0000
# 6 0.0000 0.0000 0.0000 0.0000 0.0000 26.8110
#
#
#
# Elastic Compliance Matrix: (Units=1/GPa)
#
#
# Indices 1 2 3 4 5 6 
#
# 1 0.010933 -0.005480 -0.001303 0.000000 0.000000 0.000000
# 2 -0.005480 0.017281 -0.006982 0.000000 0.000000 0.000000
# 3 -0.001303 -0.006982 0.015699 0.000000 0.000000 0.000000
# 4 0.000000 0.000000 0.000000 0.052994 0.000000 0.000000
# 5 0.000000 0.000000 0.000000 0.000000 0.094076 0.000000
# 6 0.000000 0.000000 0.000000 0.000000 0.000000 0.037298
#
#
# Mechanical properties :
#
#
# Convention : Reuss Voigt Hill
#
# Bulk Modulus (GPa) = 61.03158 62.45136 61.74147
# Shear Modulus (GPa) = 19.13722 22.61250 20.87486
#
# Velocity S-wave (km/s) = 3.24809 3.53071 3.39234
# Velocity P-wave (km/s) = 6.90743 7.14491 7.02717
#
# Compressibility (1/GPa) = 0.01638496
#
# Stress axis : x y z
#
# Youngs Moduli (GPa) = 91.46545 57.86781 63.69658
#
# Poissons Ratio (x) = 0.31711 0.08298
# Poissons Ratio (y) = 0.50122 0.44470
# Poissons Ratio (z) = 0.11916 0.40401
#
# Static dielectric constant tensor:
#      x y z
#    x 3.512310 0.000000 0.000000 
#    y 0.000000 3.388890 0.000000 
#    z 0.000000 0.000000 3.240550 
# 
# 
# High freq. dielectric constant tensor:
#      x y z
#    x 1.710810 0.000000 0.000000 
#    y 0.000000 1.701760 0.000000 
#    z 0.000000 0.000000 1.693580 
# 
# From -- ./inp_files/30057.got.cif
#   From: 2010.03.12/outbox.cif.g09.slc.cpg/sg59_16_cif.got.tgz:30057.got - 2010.04.16 16:29:54.
