data_PCOD8241293
_publ_section_title
;
Structure prediction by ZEFSAII (Michael W. Deem and Ramdas Pophale) SiO2 
 PCOD8241293
Probable space group: P M M N
;
_chemical_formula_sum "Si O2"
_cell_formula_units_Z 64
_cell_length_a 18.606087
_cell_length_b 9.276432
_cell_length_c 20.092232
_cell_angle_alpha 90.000000
_cell_angle_beta 90.000000
_cell_angle_gamma 90.000000
_cell_volume 3467.881085
_symmetry_space_group_name_H-M "P M M N"
_symmetry_group_IT_number 59
_space_group.IT_coordinate_system_code '2'
_symmetry_cell_setting 'orthorhombic'
loop_
_space_group_symop_operation_xyz
x,y,z
1/2-x,1/2-y,z
1/2+x,-y,-z
-x,1/2+y,-z
-x,-y,-z
1/2+x,1/2+y,-z
1/2-x,y,z
x,1/2-y,z
loop_
_atom_site_type_symbol
_atom_site_label
_atom_site_fract_x
_atom_site_fract_y
_atom_site_fract_z
Si Si1 0.670586 0.919500 0.919578
Si Si2 0.934059 0.919855 0.184325
Si Si3 0.434206 0.081920 0.967223
Si Si4 0.922479 0.918426 0.797727
Si Si5 0.833272 0.587001 0.667512
Si Si6 0.423513 0.081269 0.575111
Si Si7 0.912262 0.081840 0.558073
Si Si8 0.669244 0.920766 0.299720
O O1 0.750000 0.989940 0.915626
O O2 0.677318 0.750000 0.907966
O O3 0.618767 0.982059 0.862259
O O4 0.637684 0.954997 0.991761
O O5 0.946890 0.750000 0.190219
O O6 0.919649 0.967793 0.108351
O O7 0.866770 0.968489 0.229901
O O8 0.003885 0.997644 0.212604
O O9 0.452895 0.250000 0.970888
O O10 0.500000 0.000000 0.000000
O O11 0.939521 0.750000 0.806399
O O12 0.873791 0.952067 0.734764
O O13 0.750000 0.568166 0.683079
O O14 0.851351 0.750000 0.644546
O O15 0.855459 0.476576 0.610641
O O16 0.410140 0.250000 0.562936
O O17 0.507857 0.048278 0.585440
O O18 0.379417 0.023276 0.638876
O O19 0.395508 0.995999 0.511249
O O20 0.899875 0.250000 0.547284
O O21 0.750000 0.986011 0.303754
O O22 0.673269 0.750000 0.303384
#
# Coordination Sequence:
#
# PCOD8241293 Si02
#       8
#     8   8   8   8   8   8   8   8
#     4   9  17  30  50  76 103 133 173 217 257 299
#     4  10  20  33  53  80 107 135 170 217 264 309
#     4  10  19  32  52  77 105 137 172 213 259 309
#     4  10  19  33  54  76 101 137 176 214 256 309
#     4  10  21  35  51  74 104 137 174 215 259 311
#     4   9  18  34  55  77 103 138 177 217 258 309
#     4  10  20  34  54  79 107 137 172 217 265 314
#     4   9  18  33  53  77 105 137 175 218 264 311
#
# _framework density 18.455072999999999
#
# number of rings (size 3 to 8) (size 9 to 14) (size 15 to 20)
#    0.000    2.375    1.250    1.500    0.000    4.750 
#    0.000    4.375    0.000    3.375    0.000    1.750 
#    0.000    0.000    0.000    0.000    0.000    0.000 
#
# Total GULP energy -793647.050685 kJ/mol
# GULP energy per Si atom -12400.735167 kJ/mol
# Density = 1.841307 g / cm^3
# Si number density = 18.455073 Si / 1000 Ang^3
#
#
#
# Elastic Constant Matrix: (Units=GPa)
#
#
# Indices 1 2 3 4 5 6 
#
# 1 106.8578 22.4687 62.8570 0.0000 0.0000 0.0000
# 2 22.4687 33.4331 35.8498 0.0000 0.0000 0.0000
# 3 62.8570 35.8498 146.7868 0.0000 0.0000 0.0000
# 4 0.0000 0.0000 0.0000 16.2126 0.0000 0.0000
# 5 0.0000 0.0000 0.0000 0.0000 28.1791 0.0000
# 6 0.0000 0.0000 0.0000 0.0000 0.0000 23.0345
#
#
#
# Elastic Compliance Matrix: (Units=1/GPa)
#
#
# Indices 1 2 3 4 5 6 
#
# 1 0.012839 -0.003703 -0.004594 0.000000 0.000000 0.000000
# 2 -0.003703 0.041591 -0.008572 0.000000 0.000000 0.000000
# 3 -0.004594 -0.008572 0.010873 0.000000 0.000000 0.000000
# 4 0.000000 0.000000 0.000000 0.061681 0.000000 0.000000
# 5 0.000000 0.000000 0.000000 0.000000 0.035487 0.000000
# 6 0.000000 0.000000 0.000000 0.000000 0.000000 0.043413
#
#
# Mechanical properties :
#
#
# Convention : Reuss Voigt Hill
#
# Bulk Modulus (GPa) = 31.67973 58.82541 45.25257
# Shear Modulus (GPa) = 19.98859 24.54537 22.26698
#
# Velocity S-wave (km/s) = 3.29461 3.65088 3.47731
# Velocity P-wave (km/s) = 5.62812 7.05096 6.37933
#
# Compressibility (1/GPa) = 0.03156592
#
# Stress axis : x y z
#
# Youngs Moduli (GPa) = 77.88857 24.04382 91.96924
#
# Poissons Ratio (x) = 0.08903 0.42246
# Poissons Ratio (y) = 0.28841 0.78837
# Poissons Ratio (z) = 0.35778 0.20611
#
# Static dielectric constant tensor:
#      x y z
#    x 3.552590 0.000000 0.000000 
#    y 0.000000 3.124370 0.000000 
#    z 0.000000 0.000000 3.601180 
# 
# 
# High freq. dielectric constant tensor:
#      x y z
#    x 1.717390 0.000000 0.000000 
#    y 0.000000 1.682450 0.000000 
#    z 0.000000 0.000000 1.729680 
# 
# From -- ./inp_files/30764.got.cif
#   From: 2010.03.12/outbox.cif.g09.slc.cpg/sg59_16_cif.got.tgz:30764.got - 2010.04.16 16:29:54.
