data_PCOD8241425
_publ_section_title
;
Structure prediction by ZEFSAII (Michael W. Deem and Ramdas Pophale) SiO2 
 PCOD8241425
Probable space group: P M M N
;
_chemical_formula_sum "Si O2"
_cell_formula_units_Z 64
_cell_length_a 9.230979
_cell_length_b 15.655861
_cell_length_c 23.627249
_cell_angle_alpha 90.000000
_cell_angle_beta 90.000000
_cell_angle_gamma 90.000000
_cell_volume 3414.584605
_symmetry_space_group_name_H-M "P M M N"
_symmetry_group_IT_number 59
_space_group.IT_coordinate_system_code '2'
_symmetry_cell_setting 'orthorhombic'
loop_
_space_group_symop_operation_xyz
x,y,z
1/2-x,1/2-y,z
1/2+x,-y,-z
-x,1/2+y,-z
-x,-y,-z
1/2+x,1/2+y,-z
1/2-x,y,z
x,1/2-y,z
loop_
_atom_site_type_symbol
_atom_site_label
_atom_site_fract_x
_atom_site_fract_y
_atom_site_fract_z
Si Si1 0.583026 0.340851 0.075702
Si Si2 0.583428 0.595420 0.557632
Si Si3 0.919450 0.847191 0.680544
Si Si4 0.079625 0.499117 0.738358
Si Si5 0.082574 0.895833 0.447372
Si Si6 0.916465 0.844742 0.340295
Si Si7 0.921067 0.988505 0.132305
Si Si8 0.583025 0.071903 0.965725
O O1 0.750000 0.339269 0.093236
O O2 0.510528 0.250000 0.093543
O O3 0.515441 0.420082 0.110363
O O4 0.569566 0.346669 0.007122
O O5 0.750000 0.615239 0.543371
O O6 0.533714 0.640860 0.615299
O O7 0.487131 0.632462 0.506861
O O8 0.555819 0.495130 0.564841
O O9 0.750000 0.867005 0.686883
O O10 0.956257 0.750000 0.698917
O O11 0.004245 0.913147 0.719982
O O12 0.250000 0.513495 0.732016
O O13 0.025190 0.417703 0.702187
O O14 0.037061 0.477477 0.802565
O O15 0.250000 0.871421 0.449367
O O16 0.008114 0.843691 0.397474
O O17 0.750000 0.863981 0.355624
O O18 0.932099 0.750000 0.312589
O O19 0.750000 0.979490 0.121735
O O20 0.003363 0.915816 0.095107
O O21 0.750000 0.046789 0.955520
O O22 0.500000 0.000000 0.000000
#
# Coordination Sequence:
#
# PCOD8241425 Si02
#       8
#     8   8   8   8   8   8   8   8
#     4   8  14  26  46  72 101 131 163 200 243 294
#     4   9  18  33  52  77 109 141 170 206 262 328
#     4  10  21  37  56  78 107 143 178 213 262 324
#     4  10  21  37  56  77 104 139 183 231 269 312
#     4  10  19  32  54  81 106 133 171 220 270 323
#     4  10  21  37  56  76 101 138 181 225 279 334
#     4   9  18  32  51  74 100 134 173 211 256 306
#     4   9  16  28  48  72  98 130 165 202 243 292
#
# _framework density 18.743130000000001
#
# number of rings (size 3 to 8) (size 9 to 14) (size 15 to 20)
#    0.000    2.625    1.250    1.500    0.000    3.000 
#    0.000    3.125    0.000   10.125    0.000    0.000 
#    0.000    0.000    0.000    0.000    0.000    0.000 
#
# Total GULP energy -793233.748880 kJ/mol
# GULP energy per Si atom -12394.277326 kJ/mol
# Density = 1.870047 g / cm^3
# Si number density = 18.743130 Si / 1000 Ang^3
#
#
#
# Elastic Constant Matrix: (Units=GPa)
#
#
# Indices 1 2 3 4 5 6 
#
# 1 59.3847 19.1674 39.5779 0.0000 0.0000 0.0000
# 2 19.1674 59.1559 22.7201 0.0000 0.0000 0.0000
# 3 39.5779 22.7201 105.3567 0.0000 0.0000 0.0000
# 4 0.0000 0.0000 0.0000 13.3989 0.0000 0.0000
# 5 0.0000 0.0000 0.0000 0.0000 29.8726 0.0000
# 6 0.0000 0.0000 0.0000 0.0000 0.0000 20.3099
#
#
#
# Elastic Compliance Matrix: (Units=1/GPa)
#
#
# Indices 1 2 3 4 5 6 
#
# 1 0.023566 -0.004618 -0.007857 0.000000 0.000000 0.000000
# 2 -0.004618 0.019336 -0.002435 0.000000 0.000000 0.000000
# 3 -0.007857 -0.002435 0.012968 0.000000 0.000000 0.000000
# 4 0.000000 0.000000 0.000000 0.074633 0.000000 0.000000
# 5 0.000000 0.000000 0.000000 0.000000 0.033475 0.000000
# 6 0.000000 0.000000 0.000000 0.000000 0.000000 0.049237
#
#
# Mechanical properties :
#
#
# Convention : Reuss Voigt Hill
#
# Bulk Modulus (GPa) = 38.38717 42.98090 40.68404
# Shear Modulus (GPa) = 19.86337 22.21175 21.03756
#
# Velocity S-wave (km/s) = 3.25894 3.44621 3.35388
# Velocity P-wave (km/s) = 5.88949 6.23028 6.06228
#
# Compressibility (1/GPa) = 0.02605037
#
# Stress axis : x y z
#
# Youngs Moduli (GPa) = 42.43337 51.71689 77.11185
#
# Poissons Ratio (x) = 0.23884 0.60586
# Poissons Ratio (y) = 0.19597 0.18776
# Poissons Ratio (z) = 0.33340 0.12593
#
# Static dielectric constant tensor:
#      x y z
#    x 3.357040 0.000000 0.000000 
#    y 0.000000 3.503470 0.000000 
#    z 0.000000 0.000000 3.604780 
# 
# 
# High freq. dielectric constant tensor:
#      x y z
#    x 1.711740 0.000000 0.000000 
#    y 0.000000 1.717060 0.000000 
#    z 0.000000 0.000000 1.723830 
# 
# From -- ./inp_files/31418.got.cif
#   From: 2010.03.12/outbox.cif.g09.slc.cpg/sg59_16_cif.got.tgz:31418.got - 2010.04.16 16:29:54.
