data_PCOD8241880
_publ_section_title
;
Structure prediction by ZEFSAII (Michael W. Deem and Ramdas Pophale) SiO2 
 PCOD8241880
Probable space group: P M M N
;
_chemical_formula_sum "Si O2"
_cell_formula_units_Z 64
_cell_length_a 9.323013
_cell_length_b 15.004056
_cell_length_c 23.944473
_cell_angle_alpha 90.000000
_cell_angle_beta 90.000000
_cell_angle_gamma 90.000000
_cell_volume 3349.424936
_symmetry_space_group_name_H-M "P M M N"
_symmetry_group_IT_number 59
_space_group.IT_coordinate_system_code '2'
_symmetry_cell_setting 'orthorhombic'
loop_
_space_group_symop_operation_xyz
x,y,z
1/2-x,1/2-y,z
1/2+x,-y,-z
-x,1/2+y,-z
-x,-y,-z
1/2+x,1/2+y,-z
1/2-x,y,z
x,1/2-y,z
loop_
_atom_site_type_symbol
_atom_site_label
_atom_site_fract_x
_atom_site_fract_y
_atom_site_fract_z
Si Si1 0.083502 0.850065 0.223250
Si Si2 0.418778 0.145536 0.490524
Si Si3 0.410999 0.113221 0.115698
Si Si4 0.582179 0.994894 0.292902
Si Si5 0.584341 0.004534 0.422106
Si Si6 0.912520 0.090896 0.893163
Si Si7 0.092458 0.851170 0.992202
Si Si8 0.914466 0.848766 0.762063
O O1 0.250000 0.881139 0.224119
O O2 0.066613 0.750000 0.245778
O O3 0.024255 0.853697 0.159145
O O4 0.990936 0.912052 0.262824
O O5 0.250000 0.144497 0.478699
O O6 0.470126 0.250000 0.495967
O O7 0.495940 0.092741 0.440103
O O8 0.457713 0.087216 0.545650
O O9 0.250000 0.143400 0.101555
O O10 0.505043 0.142712 0.064162
O O11 0.463788 0.157406 0.173207
O O12 0.423500 0.009357 0.126783
O O13 0.750000 0.994087 0.279226
O O14 0.550618 0.984616 0.358096
O O15 0.517453 0.087885 0.272631
O O16 0.750000 0.027748 0.432575
O O17 0.750000 0.122681 0.903846
O O18 0.988087 0.103072 0.954080
O O19 0.250000 0.894071 0.981321
O O20 0.108366 0.750000 0.009959
O O21 0.750000 0.883539 0.759016
O O22 0.927758 0.750000 0.736047
#
# Coordination Sequence:
#
# PCOD8241880 Si02
#       8
#     8   8   8   8   8   8   8   8
#     4  10  20  37  61  83 107 145 191 235 279 332
#     4   9  18  35  60  87 114 148 189 229 269 316
#     4  10  19  34  55  75  99 134 176 224 278 334
#     4  11  23  38  57  83 118 154 188 230 279 331
#     4   9  20  37  56  82 117 155 187 223 274 326
#     4   9  17  33  55  76 100 134 176 221 274 336
#     4  10  20  32  48  74 104 132 168 217 274 338
#     4  10  21  38  59  80 106 145 192 238 283 334
#
# _framework density 19.107755999999998
#
# number of rings (size 3 to 8) (size 9 to 14) (size 15 to 20)
#    0.000    2.250    1.250    1.500    0.000    5.500 
#    0.000    4.375    0.000    1.500    0.000    0.000 
#    0.000    0.000    0.000    0.000    0.000    0.000 
#
# Total GULP energy -793233.400750 kJ/mol
# GULP energy per Si atom -12394.271887 kJ/mol
# Density = 1.906427 g / cm^3
# Si number density = 19.107756 Si / 1000 Ang^3
#
#
#
# Elastic Constant Matrix: (Units=GPa)
#
#
# Indices 1 2 3 4 5 6 
#
# 1 65.3679 37.5024 47.1125 0.0000 0.0000 0.0000
# 2 37.5024 113.8960 36.6786 0.0000 0.0000 0.0000
# 3 47.1125 36.6786 99.1945 0.0000 0.0000 0.0000
# 4 0.0000 0.0000 0.0000 71.8385 0.0000 0.0000
# 5 0.0000 0.0000 0.0000 0.0000 29.1501 0.0000
# 6 0.0000 0.0000 0.0000 0.0000 0.0000 -211.1306
#
#
#
# Elastic Compliance Matrix: (Units=1/GPa)
#
#
# Indices 1 2 3 4 5 6 
#
# 1 0.025659 -0.005136 -0.010288 0.000000 0.000000 0.000000
# 2 -0.005136 0.010995 -0.001626 0.000000 0.000000 0.000000
# 3 -0.010288 -0.001626 0.015569 0.000000 0.000000 0.000000
# 4 0.000000 0.000000 0.000000 0.013920 0.000000 0.000000
# 5 0.000000 0.000000 0.000000 0.000000 0.034305 0.000000
# 6 0.000000 0.000000 0.000000 0.000000 0.000000 -0.004736
#
#
# Mechanical properties :
#
#
# Convention : Reuss Voigt Hill
#
# Bulk Modulus (GPa) = 55.17839 57.89393 56.53616
# Shear Modulus (GPa) = 36.80466 -11.55075 12.62696
#
# Velocity S-wave (km/s) = 4.39357 -2.46134 2.57345
# Velocity P-wave (km/s) = 7.39446 4.72090 6.20342
#
# Compressibility (1/GPa) = 0.01812304
#
# Stress axis : x y z
#
# Youngs Moduli (GPa) = 38.97229 90.95309 64.23113
#
# Poissons Ratio (x) = 0.46711 0.66080
# Poissons Ratio (y) = 0.20015 0.10445
# Poissons Ratio (z) = 0.40094 0.14791
#
# Static dielectric constant tensor:
#      x y z
#    x 3.345640 0.000000 0.000000 
#    y 0.000000 3.719290 0.000000 
#    z 0.000000 0.000000 3.504760 
# 
# 
# High freq. dielectric constant tensor:
#      x y z
#    x 1.716840 0.000000 0.000000 
#    y 0.000000 1.753880 0.000000 
#    z 0.000000 0.000000 1.745480 
# 
# From -- ./inp_files/31458.got.cif
#   From: 2010.03.12/outbox.cif.g09.slc.cpg/sg59_16_cif.got.tgz:31458.got - 2010.04.16 16:29:54.
