data_PCOD8241070
_publ_section_title
;
Structure prediction by ZEFSAII (Michael W. Deem and Ramdas Pophale) SiO2 
 PCOD8241070
Probable space group: P M M N
;
_chemical_formula_sum "Si O2"
_cell_formula_units_Z 64
_cell_length_a 28.465827
_cell_length_b 9.400986
_cell_length_c 12.604510
_cell_angle_alpha 90.000000
_cell_angle_beta 90.000000
_cell_angle_gamma 90.000000
_cell_volume 3373.053105
_symmetry_space_group_name_H-M "P M M N"
_symmetry_group_IT_number 59
_space_group.IT_coordinate_system_code '2'
_symmetry_cell_setting 'orthorhombic'
loop_
_space_group_symop_operation_xyz
x,y,z
1/2-x,1/2-y,z
1/2+x,-y,-z
-x,1/2+y,-z
-x,-y,-z
1/2+x,1/2+y,-z
1/2-x,y,z
x,1/2-y,z
loop_
_atom_site_type_symbol
_atom_site_label
_atom_site_fract_x
_atom_site_fract_y
_atom_site_fract_z
Si Si1 0.435754 0.409012 0.003372
Si Si2 0.446695 0.085543 0.242429
Si Si3 0.801961 0.090617 0.869156
Si Si4 0.328463 0.089898 0.938009
Si Si5 0.196826 0.581222 0.522817
Si Si6 0.135321 0.918190 0.326489
Si Si7 0.547486 0.413109 0.192152
Si Si8 0.649931 0.417882 0.258989
O O1 0.457101 0.250000 0.000074
O O2 0.382394 0.409073 0.967737
O O3 0.463203 0.505969 0.918569
O O4 0.438470 0.469747 0.122293
O O5 0.431763 0.250000 0.253342
O O6 0.502227 0.063862 0.268588
O O7 0.415616 0.993593 0.324106
O O8 0.750000 0.092817 0.818050
O O9 0.816298 0.250000 0.906205
O O10 0.837623 0.036057 0.779966
O O11 0.800263 0.986177 0.968657
O O12 0.309120 0.250000 0.922847
O O13 0.320767 0.001017 0.830406
O O14 0.250000 0.519195 0.518109
O O15 0.199275 0.750000 0.517740
O O16 0.165743 0.523664 0.425100
O O17 0.170743 0.530796 0.629357
O O18 0.127738 0.750000 0.335010
O O19 0.552400 0.250000 0.158689
O O20 0.594647 0.461738 0.253469
O O21 0.656898 0.250000 0.241861
#
# Coordination Sequence:
#
# PCOD8241070 Si02
#       8
#     8   8   8   8   8   8   8   8
#     4   9  17  29  46  69 101 139 174 209 249 300
#     4  10  19  32  48  71 106 143 174 208 259 313
#     4  10  20  33  50  73 101 131 166 211 262 315
#     4  10  19  32  50  75 107 138 167 205 257 316
#     4   9  18  35  59  81 100 129 173 224 271 310
#     4  10  20  34  54  78 101 130 174 222 261 307
#     4   9  18  30  48  74 104 139 178 215 252 303
#     4   9  18  34  55  78 105 137 176 219 262 308
#
# _framework density 18.973908000000002
#
# number of rings (size 3 to 8) (size 9 to 14) (size 15 to 20)
#    0.000    2.500    1.250    1.125    0.000    3.750 
#    0.000    2.500    0.000    1.875    0.000    0.000 
#    0.000    0.000    0.000    0.000    0.000    0.000 
#
# Total GULP energy -793450.756977 kJ/mol
# GULP energy per Si atom -12397.668078 kJ/mol
# Density = 1.893072 g / cm^3
# Si number density = 18.973908 Si / 1000 Ang^3
#
#
#
# Elastic Constant Matrix: (Units=GPa)
#
#
# Indices 1 2 3 4 5 6 
#
# 1 75.7747 23.9740 48.8633 0.0000 0.0000 0.0000
# 2 23.9740 52.6915 36.7585 0.0000 0.0000 0.0000
# 3 48.8633 36.7585 109.5182 0.0000 0.0000 0.0000
# 4 0.0000 0.0000 0.0000 16.7952 0.0000 0.0000
# 5 0.0000 0.0000 0.0000 0.0000 27.9808 0.0000
# 6 0.0000 0.0000 0.0000 0.0000 0.0000 23.1153
#
#
#
# Elastic Compliance Matrix: (Units=1/GPa)
#
#
# Indices 1 2 3 4 5 6 
#
# 1 0.019029 -0.003571 -0.007291 0.000000 0.000000 0.000000
# 2 -0.003571 0.025451 -0.006949 0.000000 0.000000 0.000000
# 3 -0.007291 -0.006949 0.014716 0.000000 0.000000 0.000000
# 4 0.000000 0.000000 0.000000 0.059541 0.000000 0.000000
# 5 0.000000 0.000000 0.000000 0.000000 0.035739 0.000000
# 6 0.000000 0.000000 0.000000 0.000000 0.000000 0.043261
#
#
# Mechanical properties :
#
#
# Convention : Reuss Voigt Hill
#
# Bulk Modulus (GPa) = 42.42144 50.79734 46.60939
# Shear Modulus (GPa) = 20.72816 22.13751 21.43284
#
# Velocity S-wave (km/s) = 3.30882 3.41946 3.36459
# Velocity P-wave (km/s) = 6.08309 6.51311 6.30177
#
# Compressibility (1/GPa) = 0.02357299
#
# Stress axis : x y z
#
# Youngs Moduli (GPa) = 52.55214 39.29125 67.95157
#
# Poissons Ratio (x) = 0.14032 0.49546
# Poissons Ratio (y) = 0.18768 0.47219
# Poissons Ratio (z) = 0.38317 0.27303
#
# Static dielectric constant tensor:
#      x y z
#    x 3.588400 0.000000 0.000000 
#    y 0.000000 3.387350 0.000000 
#    z 0.000000 0.000000 3.334800 
# 
# 
# High freq. dielectric constant tensor:
#      x y z
#    x 1.747740 0.000000 0.000000 
#    y 0.000000 1.715140 0.000000 
#    z 0.000000 0.000000 1.714250 
# 
# From -- ./inp_files/19269.got.cif
#   From: 2010.03.12/outbox.cif.g09.slc.cpg/sg59_10_cif.got.tgz:19269.got - 2010.04.16 16:29:54.
