data_PCOD8241966
_publ_section_title
;
Structure prediction by ZEFSAII (Michael W. Deem and Ramdas Pophale) SiO2 
 PCOD8241966
Probable space group: P M M N
;
_chemical_formula_sum "Si O2"
_cell_formula_units_Z 64
_cell_length_a 17.848284
_cell_length_b 8.677878
_cell_length_c 21.617259
_cell_angle_alpha 90.000000
_cell_angle_beta 90.000000
_cell_angle_gamma 90.000000
_cell_volume 3348.194155
_symmetry_space_group_name_H-M "P M M N"
_symmetry_group_IT_number 59
_space_group.IT_coordinate_system_code '2'
_symmetry_cell_setting 'orthorhombic'
loop_
_space_group_symop_operation_xyz
x,y,z
1/2-x,1/2-y,z
1/2+x,-y,-z
-x,1/2+y,-z
-x,-y,-z
1/2+x,1/2+y,-z
1/2-x,y,z
x,1/2-y,z
loop_
_atom_site_type_symbol
_atom_site_label
_atom_site_fract_x
_atom_site_fract_y
_atom_site_fract_z
Si Si1 0.580299 0.431903 0.102347
Si Si2 0.166701 0.571229 0.365505
Si Si3 0.664032 0.570784 0.987584
Si Si4 0.450593 0.927280 0.678773
Si Si5 0.920116 0.070501 0.877774
Si Si6 0.166150 0.566650 0.776382
Si Si7 0.102329 0.426649 0.249285
Si Si8 0.521863 0.070197 0.564752
O O1 0.591099 0.250000 0.092709
O O2 0.493131 0.468074 0.109574
O O3 0.624385 0.493739 0.162508
O O4 0.611825 0.522054 0.043995
O O5 0.250000 0.544579 0.393145
O O6 0.151618 0.750000 0.350970
O O7 0.160785 0.478835 0.301537
O O8 0.104657 0.510935 0.414494
O O9 0.750000 0.535327 0.004688
O O10 0.651170 0.750000 0.973110
O O11 0.642705 0.471521 0.927752
O O12 0.442881 0.750000 0.658837
O O13 0.376949 0.988367 0.714502
O O14 0.518534 0.950448 0.726065
O O15 0.461082 0.024954 0.616563
O O16 0.940476 0.250000 0.881749
O O17 0.886046 0.031203 0.810845
O O18 0.250000 0.498655 0.774600
O O19 0.166506 0.750000 0.777912
O O20 0.117838 0.250000 0.231735
O O21 0.521771 0.250000 0.555854
O O22 0.500000 0.000000 0.500000
#
# Coordination Sequence:
#
# PCOD8241966 Si02
#       8
#     8   8   8   8   8   8   8   8
#     4  11  21  38  61  85 113 146 189 236 284 341
#     4   9  19  36  57  83 114 147 187 233 279 331
#     4  11  25  43  59  79 110 146 187 238 293 345
#     4   9  17  33  55  80 111 144 180 223 267 325
#     4  12  24  38  59  84 111 148 192 235 283 340
#     4   9  17  31  55  85 113 144 182 225 275 331
#     4  10  19  34  56  83 112 144 181 225 281 335
#     4  10  20  35  57  83 110 148 190 230 274 324
#
# _framework density 19.114782000000002
#
# number of rings (size 3 to 8) (size 9 to 14) (size 15 to 20)
#    0.000    1.875    1.250    3.375    0.000    3.250 
#    0.000    0.625    0.000    5.625    0.000    0.000 
#    0.000    0.000    0.000    0.000    0.000    0.000 
#
# Total GULP energy -793781.867812 kJ/mol
# GULP energy per Si atom -12402.841685 kJ/mol
# Density = 1.907128 g / cm^3
# Si number density = 19.114782 Si / 1000 Ang^3
#
#
#
# Elastic Constant Matrix: (Units=GPa)
#
#
# Indices 1 2 3 4 5 6 
#
# 1 85.0236 21.8269 41.7015 0.0000 0.0000 0.0000
# 2 21.8269 52.9648 33.8281 0.0000 0.0000 0.0000
# 3 41.7015 33.8281 136.0453 0.0000 0.0000 0.0000
# 4 0.0000 0.0000 0.0000 34.3169 0.0000 0.0000
# 5 0.0000 0.0000 0.0000 0.0000 22.2096 0.0000
# 6 0.0000 0.0000 0.0000 0.0000 0.0000 22.4339
#
#
#
# Elastic Compliance Matrix: (Units=1/GPa)
#
#
# Indices 1 2 3 4 5 6 
#
# 1 0.014431 -0.003711 -0.003501 0.000000 0.000000 0.000000
# 2 -0.003711 0.023399 -0.004681 0.000000 0.000000 0.000000
# 3 -0.003501 -0.004681 0.009587 0.000000 0.000000 0.000000
# 4 0.000000 0.000000 0.000000 0.029140 0.000000 0.000000
# 5 0.000000 0.000000 0.000000 0.000000 0.045026 0.000000
# 6 0.000000 0.000000 0.000000 0.000000 0.000000 0.044575
#
#
# Mechanical properties :
#
#
# Convention : Reuss Voigt Hill
#
# Bulk Modulus (GPa) = 42.31443 52.08298 47.19871
# Shear Modulus (GPa) = 25.27522 27.57055 26.42289
#
# Velocity S-wave (km/s) = 3.64027 3.80197 3.72200
# Velocity P-wave (km/s) = 6.31299 6.82495 6.57396
#
# Compressibility (1/GPa) = 0.02363260
#
# Stress axis : x y z
#
# Youngs Moduli (GPa) = 69.29446 42.73613 104.30309
#
# Poissons Ratio (x) = 0.15860 0.36514
# Poissons Ratio (y) = 0.25717 0.48822
# Poissons Ratio (z) = 0.24258 0.20004
#
# Static dielectric constant tensor:
#      x y z
#    x 3.721380 0.000000 0.000000 
#    y 0.000000 3.408000 0.000000 
#    z 0.000000 0.000000 3.527900 
# 
# 
# High freq. dielectric constant tensor:
#      x y z
#    x 1.741220 0.000000 0.000000 
#    y 0.000000 1.736190 0.000000 
#    z 0.000000 0.000000 1.741500 
# 
# From -- ./inp_files/30751.got.cif
#   From: 2010.03.12/outbox.cif.g09.slc.cpg/sg59_16_cif.got.tgz:30751.got - 2010.04.16 16:29:54.
