data_PCOD8241445
_publ_section_title
;
Structure prediction by ZEFSAII (Michael W. Deem and Ramdas Pophale) SiO2 
 PCOD8241445
Probable space group: P M M N
;
_chemical_formula_sum "Si O2"
_cell_formula_units_Z 64
_cell_length_a 9.001245
_cell_length_b 15.161654
_cell_length_c 23.961691
_cell_angle_alpha 90.000000
_cell_angle_beta 90.000000
_cell_angle_gamma 90.000000
_cell_volume 3270.142121
_symmetry_space_group_name_H-M "P M M N"
_symmetry_group_IT_number 59
_space_group.IT_coordinate_system_code '2'
_symmetry_cell_setting 'orthorhombic'
loop_
_space_group_symop_operation_xyz
x,y,z
1/2-x,1/2-y,z
1/2+x,-y,-z
-x,1/2+y,-z
-x,-y,-z
1/2+x,1/2+y,-z
1/2-x,y,z
x,1/2-y,z
loop_
_atom_site_type_symbol
_atom_site_label
_atom_site_fract_x
_atom_site_fract_y
_atom_site_fract_z
Si Si1 0.079761 0.899930 0.442776
Si Si2 0.075723 0.648324 0.063963
Si Si3 0.080040 0.847328 0.662509
Si Si4 0.424427 0.500333 0.742424
Si Si5 0.923745 0.851917 0.946717
Si Si6 0.573849 0.004644 0.129328
Si Si7 0.078813 0.850030 0.322165
Si Si8 0.580350 0.892520 0.552543
O O1 0.250000 0.872362 0.450845
O O2 0.015434 0.861050 0.384971
O O3 0.991020 0.859018 0.494699
O O4 0.057362 0.003987 0.440218
O O5 0.250000 0.626788 0.059628
O O6 0.048630 0.750000 0.081021
O O7 0.998921 0.587011 0.109851
O O8 0.999930 0.626266 0.005311
O O9 0.250000 0.871485 0.649439
O O10 0.066462 0.750000 0.689741
O O11 0.012170 0.918154 0.705831
O O12 0.994360 0.845048 0.604443
O O13 0.250000 0.492645 0.735281
O O14 0.467634 0.516715 0.806181
O O15 0.493256 0.409137 0.722014
O O16 0.750000 0.875385 0.950927
O O17 0.948288 0.750000 0.930189
O O18 0.002421 0.911571 0.900803
O O19 0.750000 0.002118 0.118723
O O20 0.250000 0.879557 0.322334
O O21 0.058360 0.750000 0.302224
O O22 0.750000 0.864035 0.551297
#
# Coordination Sequence:
#
# PCOD8241445 Si02
#       8
#     8   8   8   8   8   8   8   8
#     4   9  18  33  53  80 113 146 178 219 276 340
#     4  10  21  38  61  89 121 157 195 236 283 337
#     4  10  21  38  59  80 106 144 187 231 282 339
#     4  10  23  41  59  81 111 148 192 238 282 329
#     4  10  21  38  61  90 123 156 191 235 285 337
#     4  11  23  38  59  86 117 156 196 239 287 338
#     4  10  21  38  60  83 109 145 187 231 283 340
#     4  10  19  32  54  83 112 142 178 225 279 335
#
# _framework density 19.571014999999999
#
# number of rings (size 3 to 8) (size 9 to 14) (size 15 to 20)
#    0.000    2.000    1.250    1.875    0.000    5.500 
#    0.000    5.000    0.000    0.000    0.000    0.000 
#    0.000    0.000    0.000    0.000    0.000    0.000 
#
# Total GULP energy -793765.776371 kJ/mol
# GULP energy per Si atom -12402.590256 kJ/mol
# Density = 1.952647 g / cm^3
# Si number density = 19.571015 Si / 1000 Ang^3
#
#
#
# Elastic Constant Matrix: (Units=GPa)
#
#
# Indices 1 2 3 4 5 6 
#
# 1 84.7704 44.8229 62.2792 0.0000 0.0000 0.0000
# 2 44.8229 91.5597 55.1967 0.0000 0.0000 0.0000
# 3 62.2792 55.1967 115.7783 0.0000 0.0000 0.0000
# 4 0.0000 0.0000 0.0000 9.6040 0.0000 0.0000
# 5 0.0000 0.0000 0.0000 0.0000 29.6031 0.0000
# 6 0.0000 0.0000 0.0000 0.0000 0.0000 29.8380
#
#
#
# Elastic Compliance Matrix: (Units=1/GPa)
#
#
# Indices 1 2 3 4 5 6 
#
# 1 0.020938 -0.004856 -0.008948 0.000000 0.000000 0.000000
# 2 -0.004856 0.016453 -0.005232 0.000000 0.000000 0.000000
# 3 -0.008948 -0.005232 0.015945 0.000000 0.000000 0.000000
# 4 0.000000 0.000000 0.000000 0.104123 0.000000 0.000000
# 5 0.000000 0.000000 0.000000 0.000000 0.033780 0.000000
# 6 0.000000 0.000000 0.000000 0.000000 0.000000 0.033514
#
#
# Mechanical properties :
#
#
# Convention : Reuss Voigt Hill
#
# Bulk Modulus (GPa) = 65.51168 68.52288 67.01728
# Shear Modulus (GPa) = 18.66276 22.46298 20.56287
#
# Velocity S-wave (km/s) = 3.09138 3.39155 3.24494
# Velocity P-wave (km/s) = 6.80358 7.10107 6.95392
#
# Compressibility (1/GPa) = 0.01526445
#
# Stress axis : x y z
#
# Youngs Moduli (GPa) = 47.75995 60.77900 62.71691
#
# Poissons Ratio (x) = 0.29514 0.56118
# Poissons Ratio (y) = 0.23192 0.32812
# Poissons Ratio (z) = 0.42735 0.31798
#
# Static dielectric constant tensor:
#      x y z
#    x 3.593030 0.000000 0.000000 
#    y 0.000000 3.613360 0.000000 
#    z 0.000000 0.000000 3.565750 
# 
# 
# High freq. dielectric constant tensor:
#      x y z
#    x 1.762200 0.000000 0.000000 
#    y 0.000000 1.770520 0.000000 
#    z 0.000000 0.000000 1.759140 
# 
# From -- ./inp_files/31611.got.cif
#   From: 2010.03.12/outbox.cif.g09.slc.cpg/sg59_16_cif.got.tgz:31611.got - 2010.04.16 16:29:54.
