data_PCOD8241739
_publ_section_title
;
Structure prediction by ZEFSAII (Michael W. Deem and Ramdas Pophale) SiO2 
 PCOD8241739
Probable space group: P M M N
;
_chemical_formula_sum "Si O2"
_cell_formula_units_Z 40
_cell_length_a 8.550692
_cell_length_b 20.585376
_cell_length_c 11.658958
_cell_angle_alpha 90.000000
_cell_angle_beta 90.000000
_cell_angle_gamma 90.000000
_cell_volume 2052.200575
_symmetry_space_group_name_H-M "P M M N"
_symmetry_group_IT_number 59
_space_group.IT_coordinate_system_code '2'
_symmetry_cell_setting 'orthorhombic'
loop_
_space_group_symop_operation_xyz
x,y,z
1/2-x,1/2-y,z
1/2+x,-y,-z
-x,1/2+y,-z
-x,-y,-z
1/2+x,1/2+y,-z
1/2-x,y,z
x,1/2-y,z
loop_
_atom_site_type_symbol
_atom_site_label
_atom_site_fract_x
_atom_site_fract_y
_atom_site_fract_z
Si Si1 0.435721 0.250000 0.372098
Si Si2 0.064406 0.175978 0.001882
Si Si3 0.436588 0.250000 0.626435
Si Si4 0.564878 0.877123 0.756709
Si Si5 0.434186 0.499704 0.628461
Si Si6 0.436165 0.125960 0.761064
O O1 0.250000 0.250000 0.372380
O O2 0.505550 0.250000 0.499117
O O3 0.496434 0.313719 0.308735
O O4 0.250000 0.182335 0.998909
O O5 0.996469 0.250000 0.005512
O O6 0.013261 0.133215 0.111419
O O7 0.002540 0.136147 0.891183
O O8 0.250000 0.250000 0.626085
O O9 0.501182 0.186437 0.688975
O O10 0.750000 0.887185 0.743930
O O11 0.477947 0.937285 0.700546
O O12 0.500000 0.500000 0.500000
O O13 0.250000 0.493671 0.616942
O O14 0.502653 0.439094 0.701705
O O15 0.250000 0.124486 0.760460
#
# Coordination Sequence:
#
# PCOD8241739 Si02
#       6
#     4   8   4   8   8   8
#     4   9  16  27  48  78 105 135 182 227 262 308
#     4   9  15  28  52  82 110 135 174 228 273 315
#     4   9  14  23  43  70  99 131 172 223 264 300
#     4  10  19  33  55  82 110 141 178 223 271 322
#     4  11  23  38  54  77 111 148 183 226 277 332
#     4   9  17  29  49  77 107 138 176 223 274 318
#
# _framework density 19.491273
#
# number of rings (size 3 to 8) (size 9 to 14) (size 15 to 20)
#    0.000    2.400    2.000    1.800    0.000    4.000 
#    0.000    0.500    0.000    1.200    0.000    2.100 
#    0.000    0.000    0.000    0.000    0.000    0.000 
#
# Total GULP energy -495834.517318 kJ/mol
# GULP energy per Si atom -12395.862933 kJ/mol
# Density = 1.944691 g / cm^3
# Si number density = 19.491273 Si / 1000 Ang^3
#
#
#
# Elastic Constant Matrix: (Units=GPa)
#
#
# Indices 1 2 3 4 5 6 
#
# 1 21.4565 17.6427 18.6014 0.0000 0.0000 0.0000
# 2 17.6427 178.8690 101.8829 0.0000 0.0000 0.0000
# 3 18.6014 101.8829 215.1257 0.0000 0.0000 0.0000
# 4 0.0000 0.0000 0.0000 42.2610 0.0000 0.0000
# 5 0.0000 0.0000 0.0000 0.0000 16.3923 0.0000
# 6 0.0000 0.0000 0.0000 0.0000 0.0000 21.4991
#
#
#
# Elastic Compliance Matrix: (Units=1/GPa)
#
#
# Indices 1 2 3 4 5 6 
#
# 1 0.051946 -0.003513 -0.002828 0.000000 0.000000 0.000000
# 2 -0.003513 0.007894 -0.003435 0.000000 0.000000 0.000000
# 3 -0.002828 -0.003435 0.006520 0.000000 0.000000 0.000000
# 4 0.000000 0.000000 0.000000 0.023662 0.000000 0.000000
# 5 0.000000 0.000000 0.000000 0.000000 0.061004 0.000000
# 6 0.000000 0.000000 0.000000 0.000000 0.000000 0.046514
#
#
# Mechanical properties :
#
#
# Convention : Reuss Voigt Hill
#
# Bulk Modulus (GPa) = 21.36374 76.85614 49.10994
# Shear Modulus (GPa) = 21.48751 34.51876 28.00314
#
# Velocity S-wave (km/s) = 3.32387 4.21287 3.79450
# Velocity P-wave (km/s) = 5.07102 7.94865 6.66695
#
# Compressibility (1/GPa) = 0.04680829
#
# Stress axis : x y z
#
# Youngs Moduli (GPa) = 19.25072 126.68651 153.38414
#
# Poissons Ratio (x) = 0.44504 0.43376
# Poissons Ratio (y) = 0.06763 0.52681
# Poissons Ratio (z) = 0.05444 0.43512
#
# Static dielectric constant tensor:
#      x y z
#    x 2.895840 0.000000 0.000000 
#    y 0.000000 3.745730 0.000000 
#    z 0.000000 0.000000 3.984710 
# 
# 
# High freq. dielectric constant tensor:
#      x y z
#    x 1.692550 0.000000 0.000000 
#    y 0.000000 1.768130 0.000000 
#    z 0.000000 0.000000 1.782480 
# 
# From -- ./inp_files/14128.got.cif
#   From: 2010.03.12/outbox.cif.g09.slc.cpg/sg59_8_cif.got.tgz:14128.got - 2010.04.16 16:29:54.
