data_PCOD8241149
_publ_section_title
;
Structure prediction by ZEFSAII (Michael W. Deem and Ramdas Pophale) SiO2 
 PCOD8241149
Probable space group: P M M N
;
_chemical_formula_sum "Si O2"
_cell_formula_units_Z 48
_cell_length_a 16.471044
_cell_length_b 8.930090
_cell_length_c 18.368425
_cell_angle_alpha 90.000000
_cell_angle_beta 90.000000
_cell_angle_gamma 90.000000
_cell_volume 2701.773157
_symmetry_space_group_name_H-M "P M M N"
_symmetry_group_IT_number 59
_space_group.IT_coordinate_system_code '2'
_symmetry_cell_setting 'orthorhombic'
loop_
_space_group_symop_operation_xyz
x,y,z
1/2-x,1/2-y,z
1/2+x,-y,-z
-x,1/2+y,-z
-x,-y,-z
1/2+x,1/2+y,-z
1/2-x,y,z
x,1/2-y,z
loop_
_atom_site_type_symbol
_atom_site_label
_atom_site_fract_x
_atom_site_fract_y
_atom_site_fract_z
Si Si1 0.479951 0.928296 0.923438
Si Si2 0.339201 0.925926 0.332117
Si Si3 0.343084 0.422482 0.831391
Si Si4 0.006247 0.928383 0.421562
Si Si5 0.916474 0.417695 0.298732
Si Si6 0.080904 0.414491 0.209137
O O1 0.470409 0.750000 0.929127
O O2 0.555962 0.971801 0.871120
O O3 0.396238 0.994299 0.892292
O O4 0.500000 0.000000 0.000000
O O5 0.250000 0.983743 0.356925
O O6 0.341413 0.750000 0.330122
O O7 0.407607 0.983991 0.387950
O O8 0.355599 0.978155 0.249225
O O9 0.250000 0.436087 0.856152
O O10 0.371038 0.250000 0.826299
O O11 0.351584 0.496293 0.751400
O O12 0.000473 0.750000 0.426022
O O13 0.931789 0.990253 0.373069
O O14 0.000000 0.000000 0.500000
O O15 0.884832 0.250000 0.317339
O O16 0.998978 0.407569 0.254714
O O17 0.120572 0.250000 0.204597
#
# Coordination Sequence:
#
# PCOD8241149 Si02
#       6
#     8   8   8   8   8   8
#     4  10  20  34  53  76 103 135 171 209 251 303
#     4   9  18  32  50  72  96 124 161 204 248 293
#     4  10  20  34  53  77 104 133 168 212 258 303
#     4  10  19  32  51  73 100 133 168 208 252 303
#     4   9  17  31  51  73  97 127 165 204 244 297
#     4   8  16  30  48  71  95 122 158 197 238 287
#
# _framework density 17.766110000000001
#
# number of rings (size 3 to 8) (size 9 to 14) (size 15 to 20)
#    0.000    2.667    0.000    3.000    0.000    7.000 
#    0.000    1.667    0.000    4.000    0.000    0.000 
#    0.000    0.000    0.000    0.000    0.000    0.000 
#
# Total GULP energy -594980.368949 kJ/mol
# GULP energy per Si atom -12395.424353 kJ/mol
# Density = 1.772567 g / cm^3
# Si number density = 17.766110 Si / 1000 Ang^3
#
#
#
# Elastic Constant Matrix: (Units=GPa)
#
#
# Indices 1 2 3 4 5 6 
#
# 1 77.3008 38.3846 45.4441 0.0000 0.0000 0.0000
# 2 38.3846 91.5081 53.0598 0.0000 0.0000 0.0000
# 3 45.4441 53.0598 144.0202 0.0000 0.0000 0.0000
# 4 0.0000 0.0000 0.0000 35.9474 0.0000 0.0000
# 5 0.0000 0.0000 0.0000 0.0000 18.6790 0.0000
# 6 0.0000 0.0000 0.0000 0.0000 0.0000 22.6098
#
#
#
# Elastic Compliance Matrix: (Units=1/GPa)
#
#
# Indices 1 2 3 4 5 6 
#
# 1 0.017714 -0.005328 -0.003627 0.000000 0.000000 0.000000
# 2 -0.005328 0.015499 -0.004029 0.000000 0.000000 0.000000
# 3 -0.003627 -0.004029 0.009572 0.000000 0.000000 0.000000
# 4 0.000000 0.000000 0.000000 0.027818 0.000000 0.000000
# 5 0.000000 0.000000 0.000000 0.000000 0.053536 0.000000
# 6 0.000000 0.000000 0.000000 0.000000 0.000000 0.044229
#
#
# Mechanical properties :
#
#
# Convention : Reuss Voigt Hill
#
# Bulk Modulus (GPa) = 59.45810 65.17844 62.31827
# Shear Modulus (GPa) = 25.00738 27.17662 26.09200
#
# Velocity S-wave (km/s) = 3.75586 3.91537 3.83644
# Velocity P-wave (km/s) = 7.23522 7.56351 7.40119
#
# Compressibility (1/GPa) = 0.01681857
#
# Stress axis : x y z
#
# Youngs Moduli (GPa) = 56.45243 64.52063 104.46896
#
# Poissons Ratio (x) = 0.34374 0.37888
# Poissons Ratio (y) = 0.30075 0.42091
# Poissons Ratio (z) = 0.20474 0.25996
#
# Static dielectric constant tensor:
#      x y z
#    x 3.364310 0.000000 0.000000 
#    y 0.000000 3.526830 0.000000 
#    z 0.000000 0.000000 3.418930 
# 
# 
# High freq. dielectric constant tensor:
#      x y z
#    x 1.664620 0.000000 0.000000 
#    y 0.000000 1.698510 0.000000 
#    z 0.000000 0.000000 1.679940 
# 
# From -- ./inp_files/25717.got.cif
#   From: 2010.03.12/outbox.cif.g09.slc.cpg/sg59_13_cif.got.tgz:25717.got - 2010.04.16 16:29:54.
