data_PCOD8241216
_publ_section_title
;
Structure prediction by ZEFSAII (Michael W. Deem and Ramdas Pophale) SiO2 
 PCOD8241216
Probable space group: P M M N
;
_chemical_formula_sum "Si O2"
_cell_formula_units_Z 64
_cell_length_a 8.689278
_cell_length_b 18.896384
_cell_length_c 19.926154
_cell_angle_alpha 90.000000
_cell_angle_beta 90.000000
_cell_angle_gamma 90.000000
_cell_volume 3271.793462
_symmetry_space_group_name_H-M "P M M N"
_symmetry_group_IT_number 59
_space_group.IT_coordinate_system_code '2'
_symmetry_cell_setting 'orthorhombic'
loop_
_space_group_symop_operation_xyz
x,y,z
1/2-x,1/2-y,z
1/2+x,-y,-z
-x,1/2+y,-z
-x,-y,-z
1/2+x,1/2+y,-z
1/2-x,y,z
x,1/2-y,z
loop_
_atom_site_type_symbol
_atom_site_label
_atom_site_fract_x
_atom_site_fract_y
_atom_site_fract_z
Si Si1 0.567589 0.826940 0.275368
Si Si2 0.568022 0.598872 0.786180
Si Si3 0.923096 0.668009 0.426525
Si Si4 0.432070 0.067366 0.965953
Si Si5 0.571733 0.072765 0.471162
Si Si6 0.067809 0.332004 0.353937
Si Si7 0.933142 0.828268 0.921602
Si Si8 0.066829 0.450211 0.815932
O O1 0.750000 0.824029 0.268743
O O2 0.499792 0.750000 0.255251
O O3 0.522796 0.845726 0.351047
O O4 0.497501 0.886478 0.227852
O O5 0.750000 0.591470 0.789069
O O6 0.518486 0.645002 0.721436
O O7 0.503336 0.634763 0.854166
O O8 0.496336 0.521305 0.783072
O O9 0.750000 0.637914 0.439063
O O10 0.923343 0.750000 0.444979
O O11 0.049654 0.630169 0.471148
O O12 0.250000 0.063498 0.966363
O O13 0.495116 0.067595 0.890252
O O14 0.489704 0.133812 0.010088
O O15 0.500000 0.000000 0.000000
O O16 0.750000 0.059030 0.456436
O O17 0.498855 0.108237 0.404269
O O18 0.500000 0.000000 0.500000
O O19 0.250000 0.333936 0.362398
O O20 0.010763 0.250000 0.366612
O O21 0.750000 0.826835 0.918354
O O22 0.002722 0.750000 0.924136
O O23 0.250000 0.453393 0.814117
#
# Coordination Sequence:
#
# PCOD8241216 Si02
#       8
#     8   8   8   8   8   8   8   8
#     4   8  16  32  54  80 110 143 179 220 270 325
#     4  10  20  35  57  83 112 149 188 229 278 334
#     4   9  18  36  61  84 110 147 185 223 273 333
#     4  10  19  32  51  76 107 143 182 229 277 326
#     4  12  26  41  59  85 117 150 188 234 282 335
#     4  10  22  41  63  87 117 152 191 236 287 342
#     4   9  17  31  53  80 107 141 188 234 274 323
#     4  10  20  32  52  82 113 145 184 232 282 330
#
# _framework density 19.561138
#
# number of rings (size 3 to 8) (size 9 to 14) (size 15 to 20)
#    0.000    2.250    1.250    2.625    1.750    4.500 
#    0.000    2.500    0.000    3.375    0.000    1.750 
#    0.000    0.000    0.000    0.000    0.000    0.000 
#
# Total GULP energy -793183.767081 kJ/mol
# GULP energy per Si atom -12393.496361 kJ/mol
# Density = 1.951662 g / cm^3
# Si number density = 19.561138 Si / 1000 Ang^3
#
#
#
# Elastic Constant Matrix: (Units=GPa)
#
#
# Indices 1 2 3 4 5 6 
#
# 1 29.2026 26.6036 25.8231 0.0000 0.0000 0.0000
# 2 26.6036 115.9993 82.4452 0.0000 0.0000 0.0000
# 3 25.8231 82.4452 120.1894 0.0000 0.0000 0.0000
# 4 0.0000 0.0000 0.0000 40.5590 0.0000 0.0000
# 5 0.0000 0.0000 0.0000 0.0000 18.8101 0.0000
# 6 0.0000 0.0000 0.0000 0.0000 0.0000 27.2202
#
#
#
# Elastic Compliance Matrix: (Units=1/GPa)
#
#
# Indices 1 2 3 4 5 6 
#
# 1 0.044793 -0.006699 -0.005029 0.000000 0.000000 0.000000
# 2 -0.006699 0.017824 -0.010787 0.000000 0.000000 0.000000
# 3 -0.005029 -0.010787 0.016800 0.000000 0.000000 0.000000
# 4 0.000000 0.000000 0.000000 0.024655 0.000000 0.000000
# 5 0.000000 0.000000 0.000000 0.000000 0.053163 0.000000
# 6 0.000000 0.000000 0.000000 0.000000 0.000000 0.036737
#
#
# Mechanical properties :
#
#
# Convention : Reuss Voigt Hill
#
# Bulk Modulus (GPa) = 29.08033 59.45946 44.26989
# Shear Modulus (GPa) = 19.96284 26.01917 22.99100
#
# Velocity S-wave (km/s) = 3.19805 3.65107 3.43204
# Velocity P-wave (km/s) = 5.34185 6.94525 6.19564
#
# Compressibility (1/GPa) = 0.03438751
#
# Stress axis : x y z
#
# Youngs Moduli (GPa) = 22.32494 56.10411 59.52255
#
# Poissons Ratio (x) = 0.37582 0.29933
# Poissons Ratio (y) = 0.14955 0.64209
# Poissons Ratio (z) = 0.11227 0.60521
#
# Static dielectric constant tensor:
#      x y z
#    x 3.124530 0.000000 0.000000 
#    y 0.000000 3.969770 0.000000 
#    z 0.000000 0.000000 3.751570 
# 
# 
# High freq. dielectric constant tensor:
#      x y z
#    x 1.720260 0.000000 0.000000 
#    y 0.000000 1.774380 0.000000 
#    z 0.000000 0.000000 1.776950 
# 
# From -- ./inp_files/29358.got.cif
#   From: 2010.03.12/outbox.cif.g09.slc.cpg/sg59_15_cif.got.tgz:29358.got - 2010.04.16 16:29:54.
