data_PCOD8241363
_publ_section_title
;
Structure prediction by ZEFSAII (Michael W. Deem and Ramdas Pophale) SiO2 
 PCOD8241363
Probable space group: P M M N
;
_chemical_formula_sum "Si O2"
_cell_formula_units_Z 64
_cell_length_a 18.899124
_cell_length_b 8.996150
_cell_length_c 19.972812
_cell_angle_alpha 90.000000
_cell_angle_beta 90.000000
_cell_angle_gamma 90.000000
_cell_volume 3395.764601
_symmetry_space_group_name_H-M "P M M N"
_symmetry_group_IT_number 59
_space_group.IT_coordinate_system_code '2'
_symmetry_cell_setting 'orthorhombic'
loop_
_space_group_symop_operation_xyz
x,y,z
1/2-x,1/2-y,z
1/2+x,-y,-z
-x,1/2+y,-z
-x,-y,-z
1/2+x,1/2+y,-z
1/2-x,y,z
x,1/2-y,z
loop_
_atom_site_type_symbol
_atom_site_label
_atom_site_fract_x
_atom_site_fract_y
_atom_site_fract_z
Si Si1 0.671038 0.425522 0.969127
Si Si2 0.331201 0.074392 0.526548
Si Si3 0.446239 0.926882 0.287027
Si Si4 0.830499 0.074884 0.609471
Si Si5 0.668306 0.921058 0.208860
Si Si6 0.556711 0.074505 0.864552
Si Si7 0.406706 0.424326 0.657466
Si Si8 0.583203 0.074185 0.095711
O O1 0.750000 0.495824 0.967008
O O2 0.677179 0.250000 0.976407
O O3 0.630219 0.467726 0.900856
O O4 0.628095 0.488013 0.032912
O O5 0.250000 0.029789 0.540238
O O6 0.339358 0.250000 0.519794
O O7 0.378444 0.008836 0.587416
O O8 0.358576 0.000443 0.458295
O O9 0.449445 0.750000 0.284665
O O10 0.378552 0.981822 0.329109
O O11 0.439987 0.987544 0.211272
O O12 0.517201 0.992076 0.321642
O O13 0.750000 0.026928 0.625251
O O14 0.837280 0.250000 0.599865
O O15 0.750000 0.952257 0.195318
O O16 0.647899 0.750000 0.193330
O O17 0.650953 0.959641 0.285599
O O18 0.622733 0.029060 0.163278
O O19 0.543200 0.250000 0.865793
O O20 0.493974 0.998471 0.906033
O O21 0.415226 0.250000 0.647730
O O22 0.574567 0.250000 0.092632
#
# Coordination Sequence:
#
# PCOD8241363 Si02
#       8
#     8   8   8   8   8   8   8   8
#     4   9  19  34  53  79 107 135 171 216 263 307
#     4   9  17  30  49  71  95 128 166 202 246 300
#     4   9  17  30  51  75  98 126 163 211 256 291
#     4   9  18  32  49  71  99 129 162 204 255 305
#     4  10  19  32  53  78 102 134 177 217 250 294
#     4  10  19  35  58  78 100 135 179 220 253 300
#     4   9  16  29  49  73 100 127 164 211 252 292
#     4  11  21  34  52  76 110 144 168 204 261 317
#
# _framework density 18.847007999999999
#
# number of rings (size 3 to 8) (size 9 to 14) (size 15 to 20)
#    0.000    2.500    1.250    1.500    0.000    3.250 
#    0.000    4.375    0.000    3.375    0.000    0.000 
#    0.000    0.000    0.000    0.000    0.000    0.000 
#
# Total GULP energy -793550.497469 kJ/mol
# GULP energy per Si atom -12399.226523 kJ/mol
# Density = 1.880411 g / cm^3
# Si number density = 18.847008 Si / 1000 Ang^3
#
#
#
# Elastic Constant Matrix: (Units=GPa)
#
#
# Indices 1 2 3 4 5 6 
#
# 1 131.0357 23.4074 80.9520 0.0000 0.0000 0.0000
# 2 23.4074 23.2643 21.6422 0.0000 0.0000 0.0000
# 3 80.9520 21.6422 139.1928 0.0000 0.0000 0.0000
# 4 0.0000 0.0000 0.0000 19.2914 0.0000 0.0000
# 5 0.0000 0.0000 0.0000 0.0000 39.7666 0.0000
# 6 0.0000 0.0000 0.0000 0.0000 0.0000 19.0010
#
#
#
# Elastic Compliance Matrix: (Units=1/GPa)
#
#
# Indices 1 2 3 4 5 6 
#
# 1 0.012809 -0.006965 -0.006366 0.000000 0.000000 0.000000
# 2 -0.006965 0.054041 -0.004352 0.000000 0.000000 0.000000
# 3 -0.006366 -0.004352 0.011563 0.000000 0.000000 0.000000
# 4 0.000000 0.000000 0.000000 0.051837 0.000000 0.000000
# 5 0.000000 0.000000 0.000000 0.000000 0.025147 0.000000
# 6 0.000000 0.000000 0.000000 0.000000 0.000000 0.052629
#
#
# Mechanical properties :
#
#
# Convention : Reuss Voigt Hill
#
# Bulk Modulus (GPa) = 23.23068 60.61066 41.92067
# Shear Modulus (GPa) = 19.39939 26.77787 23.08863
#
# Velocity S-wave (km/s) = 3.21176 3.77344 3.50388
# Velocity P-wave (km/s) = 5.10946 7.15641 6.21775
#
# Compressibility (1/GPa) = 0.04304652
#
# Stress axis : x y z
#
# Youngs Moduli (GPa) = 78.07151 18.50463 86.47928
#
# Poissons Ratio (x) = 0.12889 0.55056
# Poissons Ratio (y) = 0.54378 0.37633
# Poissons Ratio (z) = 0.49703 0.08053
#
# Static dielectric constant tensor:
#      x y z
#    x 3.701200 0.000000 0.000000 
#    y 0.000000 3.012600 0.000000 
#    z 0.000000 0.000000 3.646240 
# 
# 
# High freq. dielectric constant tensor:
#      x y z
#    x 1.740300 0.000000 0.000000 
#    y 0.000000 1.682110 0.000000 
#    z 0.000000 0.000000 1.742330 
# 
# From -- ./inp_files/26175.got.cif
#   From: 2010.03.12/outbox.cif.g09.slc.cpg/sg59_14_cif.got.tgz:26175.got - 2010.04.16 16:29:54.
