data_PCOD8241645
_publ_section_title
;
Structure prediction by ZEFSAII (Michael W. Deem and Ramdas Pophale) SiO2 
 PCOD8241645
Probable space group: P M M N
;
_chemical_formula_sum "Si O2"
_cell_formula_units_Z 48
_cell_length_a 13.539921
_cell_length_b 9.511170
_cell_length_c 20.202639
_cell_angle_alpha 90.000000
_cell_angle_beta 90.000000
_cell_angle_gamma 90.000000
_cell_volume 2601.705758
_symmetry_space_group_name_H-M "P M M N"
_symmetry_group_IT_number 59
_space_group.IT_coordinate_system_code '2'
_symmetry_cell_setting 'orthorhombic'
loop_
_space_group_symop_operation_xyz
x,y,z
1/2-x,1/2-y,z
1/2+x,-y,-z
-x,1/2+y,-z
-x,-y,-z
1/2+x,1/2+y,-z
1/2-x,y,z
x,1/2-y,z
loop_
_atom_site_type_symbol
_atom_site_label
_atom_site_fract_x
_atom_site_fract_y
_atom_site_fract_z
Si Si1 0.009783 0.413401 0.603569
Si Si2 0.546421 0.083068 0.266092
Si Si3 0.750000 0.899794 0.070109
Si Si4 0.250000 0.585658 0.805214
Si Si5 0.139756 0.416704 0.177146
Si Si6 0.135857 0.409682 0.474989
Si Si7 0.920459 0.593246 0.966267
O O1 0.991400 0.250000 0.620594
O O2 0.908417 0.482973 0.578352
O O3 0.048284 0.497329 0.666443
O O4 0.092053 0.433396 0.547568
O O5 0.543269 0.250000 0.279669
O O6 0.648888 0.038623 0.230852
O O7 0.449060 0.033082 0.225225
O O8 0.750000 0.750000 0.108863
O O9 0.660278 0.906764 0.021501
O O10 0.750000 0.024739 0.121649
O O11 0.250000 0.750000 0.814362
O O12 0.250000 0.471988 0.199102
O O13 0.143118 0.250000 0.176281
O O14 0.117224 0.472549 0.103120
O O15 0.250000 0.444253 0.480000
O O16 0.115841 0.250000 0.450877
O O17 0.961488 0.750000 0.952171
O O18 0.000000 0.500000 0.000000
#
# Coordination Sequence:
#
# PCOD8241645 Si02
#       7
#     8   8   4   4   8   8   8
#     4  10  21  36  56  85 116 146 184 232 283 329
#     4  10  21  36  55  79 110 149 191 232 277 335
#     4  10  20  34  54  80 108 137 180 233 286 337
#     4  10  22  38  54  80 114 149 192 237 282 335
#     4   9  17  33  55  76 101 140 187 226 266 329
#     4   9  19  37  60  83 111 148 190 228 270 334
#     4  10  19  33  54  79 105 136 177 226 279 333
#
# _framework density 18.449432999999999
#
# number of rings (size 3 to 8) (size 9 to 14) (size 15 to 20)
#    0.000    2.333    0.833    1.500    1.167    4.333 
#    0.000    2.500    0.000    1.000    0.000    0.000 
#    0.000    0.000    0.000    0.000    0.000    0.000 
#
# Total GULP energy -594914.114413 kJ/mol
# GULP energy per Si atom -12394.044050 kJ/mol
# Density = 1.840744 g / cm^3
# Si number density = 18.449433 Si / 1000 Ang^3
#
#
#
# Elastic Constant Matrix: (Units=GPa)
#
#
# Indices 1 2 3 4 5 6 
#
# 1 132.5060 36.7841 31.2746 0.0000 0.0000 0.0000
# 2 36.7841 55.2368 36.6519 0.0000 0.0000 0.0000
# 3 31.2746 36.6519 85.3535 0.0000 0.0000 0.0000
# 4 0.0000 0.0000 0.0000 33.2487 0.0000 0.0000
# 5 0.0000 0.0000 0.0000 0.0000********** 0.0000
# 6 0.0000 0.0000 0.0000 0.0000 0.0000 31.5321
#
#
#
# Elastic Compliance Matrix: (Units=1/GPa)
#
#
# Indices 1 2 3 4 5 6 
#
# 1 0.009325 -0.005514 -0.001049 0.000000 0.000000 0.000000
# 2 -0.005514 0.028578 -0.010251 0.000000 0.000000 0.000000
# 3 -0.001049 -0.010251 0.016502 0.000000 0.000000 0.000000
# 4 0.000000 0.000000 0.000000 0.030076 0.000000 0.000000
# 5 0.000000 0.000000 0.000000 0.000000 -0.000019 0.000000
# 6 0.000000 0.000000 0.000000 0.000000 0.000000 0.031714
#
#
# Mechanical properties :
#
#
# Convention : Reuss Voigt Hill
#
# Bulk Modulus (GPa) = 48.13046 53.61305 50.87175
# Shear Modulus (GPa) = 31.90187 -10400.91224 -5184.50519
#
# Velocity S-wave (km/s) = 4.16282 -75.16490 -53.06804
# Velocity P-wave (km/s) = 7.01782 86.62502 61.05180
#
# Compressibility (1/GPa) = 0.02077686
#
# Stress axis : x y z
#
# Youngs Moduli (GPa) = 107.23763 34.99203 60.59691
#
# Poissons Ratio (x) = 0.19294 0.06358
# Poissons Ratio (y) = 0.59128 0.62120
# Poissons Ratio (z) = 0.11251 0.35872
#
# Static dielectric constant tensor:
#      x y z
#    x 3.653730 0.000000 0.000000 
#    y 0.000000 3.560820 0.000000 
#    z 0.000000 0.000000 3.277930 
# 
# 
# High freq. dielectric constant tensor:
#      x y z
#    x 1.729950 0.000000 0.000000 
#    y 0.000000 1.695710 0.000000 
#    z 0.000000 0.000000 1.717470 
# 
# From -- ./inp_files/27409.got.cif
#   From: 2010.03.12/outbox.cif.g09.slc.cpg/sg59_14_cif.got.tgz:27409.got - 2010.04.16 16:29:54.
