data_PCOD8241393
_publ_section_title
;
Structure prediction by ZEFSAII (Michael W. Deem and Ramdas Pophale) SiO2 
 PCOD8241393
Probable space group: P M M N
;
_chemical_formula_sum "Si O2"
_cell_formula_units_Z 48
_cell_length_a 19.098986
_cell_length_b 8.872656
_cell_length_c 14.884916
_cell_angle_alpha 90.000000
_cell_angle_beta 90.000000
_cell_angle_gamma 90.000000
_cell_volume 2522.379002
_symmetry_space_group_name_H-M "P M M N"
_symmetry_group_IT_number 59
_space_group.IT_coordinate_system_code '2'
_symmetry_cell_setting 'orthorhombic'
loop_
_space_group_symop_operation_xyz
x,y,z
1/2-x,1/2-y,z
1/2+x,-y,-z
-x,1/2+y,-z
-x,-y,-z
1/2+x,1/2+y,-z
1/2-x,y,z
x,1/2-y,z
loop_
_atom_site_type_symbol
_atom_site_label
_atom_site_fract_x
_atom_site_fract_y
_atom_site_fract_z
Si Si1 0.080005 0.072128 0.632413
Si Si2 0.671525 0.077293 0.222895
Si Si3 0.450563 0.923543 0.132335
Si Si4 0.415847 0.920584 0.940358
Si Si5 0.063189 0.072983 0.318551
Si Si6 0.171330 0.428047 0.466411
O O1 0.071247 0.250000 0.626462
O O2 0.125703 0.007807 0.549442
O O3 0.118677 0.028733 0.723981
O O4 0.003048 0.001321 0.632279
O O5 0.750000 0.020260 0.239746
O O6 0.662028 0.250000 0.254622
O O7 0.655397 0.063164 0.116456
O O8 0.449423 0.750000 0.162009
O O9 0.528661 0.965729 0.102583
O O10 0.424821 0.019886 0.216743
O O11 0.400818 0.956062 0.045626
O O12 0.445972 0.750000 0.932665
O O13 0.049982 0.250000 0.318988
O O14 0.132760 0.028134 0.373827
O O15 0.250000 0.497918 0.467173
O O16 0.176797 0.250000 0.476670
#
# Coordination Sequence:
#
# PCOD8241393 Si02
#       6
#     8   8   8   8   8   8
#     4  11  21  35  57  83 109 140 181 230 277 325
#     4  10  20  34  53  79 112 147 181 220 273 335
#     4  10  19  32  53  80 107 139 180 224 266 313
#     4   9  18  33  52  75 107 144 178 217 268 323
#     4  11  21  35  57  82 109 143 182 227 274 325
#     4   9  20  38  57  78 107 144 183 224 275 329
#
# _framework density 19.029654000000001
#
# number of rings (size 3 to 8) (size 9 to 14) (size 15 to 20)
#    0.000    2.000    1.667    2.500    0.000    1.667 
#    0.000    3.333    0.000    7.000    0.000    0.000 
#    0.000    0.000    0.000    0.000    0.000    0.000 
#
# Total GULP energy -595109.979301 kJ/mol
# GULP energy per Si atom -12398.124569 kJ/mol
# Density = 1.898634 g / cm^3
# Si number density = 19.029654 Si / 1000 Ang^3
#
#
#
# Elastic Constant Matrix: (Units=GPa)
#
#
# Indices 1 2 3 4 5 6 
#
# 1 94.2451 32.1649 54.4828 0.0000 0.0000 0.0000
# 2 32.1649 65.0053 33.9808 0.0000 0.0000 0.0000
# 3 54.4828 33.9808 138.0564 0.0000 0.0000 0.0000
# 4 0.0000 0.0000 0.0000 22.6679 0.0000 0.0000
# 5 0.0000 0.0000 0.0000 0.0000 23.1889 0.0000
# 6 0.0000 0.0000 0.0000 0.0000 0.0000 15.4439
#
#
#
# Elastic Compliance Matrix: (Units=1/GPa)
#
#
# Indices 1 2 3 4 5 6 
#
# 1 0.015030 -0.004977 -0.004706 0.000000 0.000000 0.000000
# 2 -0.004977 0.019303 -0.002787 0.000000 0.000000 0.000000
# 3 -0.004706 -0.002787 0.009787 0.000000 0.000000 0.000000
# 4 0.000000 0.000000 0.000000 0.044115 0.000000 0.000000
# 5 0.000000 0.000000 0.000000 0.000000 0.043124 0.000000
# 6 0.000000 0.000000 0.000000 0.000000 0.000000 0.064750
#
#
# Mechanical properties :
#
#
# Convention : Reuss Voigt Hill
#
# Bulk Modulus (GPa) = 52.14042 59.84043 55.99042
# Shear Modulus (GPa) = 21.98356 24.03870 23.01113
#
# Velocity S-wave (km/s) = 3.40255 3.55804 3.48116
# Velocity P-wave (km/s) = 6.54947 6.95656 6.75608
#
# Compressibility (1/GPa) = 0.01917898
#
# Stress axis : x y z
#
# Youngs Moduli (GPa) = 66.53404 51.80608 102.17824
#
# Poissons Ratio (x) = 0.25782 0.48090
# Poissons Ratio (y) = 0.33111 0.28479
# Poissons Ratio (z) = 0.31314 0.14439
#
# Static dielectric constant tensor:
#      x y z
#    x 3.434260 0.000000 0.000000 
#    y 0.000000 3.391570 0.000000 
#    z 0.000000 0.000000 3.745460 
# 
# 
# High freq. dielectric constant tensor:
#      x y z
#    x 1.718730 0.000000 0.000000 
#    y 0.000000 1.728900 0.000000 
#    z 0.000000 0.000000 1.753490 
# 
# From -- ./inp_files/20773.got.cif
#   From: 2010.03.12/outbox.cif.g09.slc.cpg/sg59_11_cif.got.tgz:20773.got - 2010.04.16 16:29:54.
