data_PCOD8241632
_publ_section_title
;
Structure prediction by ZEFSAII (Michael W. Deem and Ramdas Pophale) SiO2 
 PCOD8241632
Probable space group: P M M N
;
_chemical_formula_sum "Si O2"
_cell_formula_units_Z 64
_cell_length_a 8.747309
_cell_length_b 27.887894
_cell_length_c 14.047062
_cell_angle_alpha 90.000000
_cell_angle_beta 90.000000
_cell_angle_gamma 90.000000
_cell_volume 3426.696860
_symmetry_space_group_name_H-M "P M M N"
_symmetry_group_IT_number 59
_space_group.IT_coordinate_system_code '2'
_symmetry_cell_setting 'orthorhombic'
loop_
_space_group_symop_operation_xyz
x,y,z
1/2-x,1/2-y,z
1/2+x,-y,-z
-x,1/2+y,-z
-x,-y,-z
1/2+x,1/2+y,-z
1/2-x,y,z
x,1/2-y,z
loop_
_atom_site_type_symbol
_atom_site_label
_atom_site_fract_x
_atom_site_fract_y
_atom_site_fract_z
Si Si1 0.068613 0.609378 0.188477
Si Si2 0.072300 0.305355 0.333278
Si Si3 0.931590 0.303021 0.935446
Si Si4 0.081324 0.806656 0.857520
Si Si5 0.930254 0.474710 0.293842
Si Si6 0.430546 0.608101 0.570969
Si Si7 0.068790 0.074866 0.625471
Si Si8 0.568659 0.516359 0.099101
O O1 0.250000 0.602861 0.185894
O O2 0.015103 0.660300 0.145435
O O3 0.007962 0.609173 0.296056
O O4 0.992175 0.568743 0.124120
O O5 0.250000 0.313387 0.351230
O O6 0.025122 0.250000 0.349603
O O7 0.032273 0.322565 0.226316
O O8 0.977795 0.337317 0.407644
O O9 0.750000 0.299664 0.940189
O O10 0.999619 0.250000 0.912944
O O11 0.985914 0.322488 0.039653
O O12 0.250000 0.829431 0.838088
O O13 0.098173 0.750000 0.860163
O O14 0.750000 0.474590 0.296735
O O15 0.990564 0.425973 0.342674
O O16 0.987903 0.520571 0.354472
O O17 0.983855 0.479700 0.183659
O O18 0.250000 0.604630 0.556141
O O19 0.513695 0.590748 0.476928
O O20 0.250000 0.079686 0.633618
O O21 0.750000 0.518200 0.091095
O O22 0.500000 0.500000 0.000000
#
# Coordination Sequence:
#
# PCOD8241632 Si02
#       8
#     8   8   8   8   8   8   8   8
#     4  10  19  33  54  78 104 138 178 218 261 309
#     4  10  21  36  51  72 106 141 169 204 255 310
#     4   8  15  29  51  78 105 135 175 219 256 295
#     4   8  14  28  50  72  95 128 168 207 248 293
#     4   8  18  35  55  78 104 134 169 213 258 303
#     4  11  21  35  57  81 100 127 174 221 260 306
#     4  10  20  37  56  76 106 138 168 210 267 319
#     4  10  20  36  54  76 109 144 175 209 256 313
#
# _framework density 18.676877999999999
#
# number of rings (size 3 to 8) (size 9 to 14) (size 15 to 20)
#    0.000    2.625    0.000    3.750    0.000    1.750 
#    0.000   13.750    0.000    5.250    0.000    0.000 
#    0.000    0.000    0.000    0.000    0.000    0.000 
#
# Total GULP energy -793338.755997 kJ/mol
# GULP energy per Si atom -12395.918062 kJ/mol
# Density = 1.863437 g / cm^3
# Si number density = 18.676878 Si / 1000 Ang^3
#
#
#
# Elastic Constant Matrix: (Units=GPa)
#
#
# Indices 1 2 3 4 5 6 
#
# 1 53.8082 25.3744 29.4907 0.0000 0.0000 0.0000
# 2 25.3744 88.1406 61.9665 0.0000 0.0000 0.0000
# 3 29.4907 61.9665 131.5299 0.0000 0.0000 0.0000
# 4 0.0000 0.0000 0.0000 28.3047 0.0000 0.0000
# 5 0.0000 0.0000 0.0000 0.0000 30.9764 0.0000
# 6 0.0000 0.0000 0.0000 0.0000 0.0000 22.8074
#
#
#
# Elastic Compliance Matrix: (Units=1/GPa)
#
#
# Indices 1 2 3 4 5 6 
#
# 1 0.022242 -0.004332 -0.002946 0.000000 0.000000 0.000000
# 2 -0.004332 0.017808 -0.007419 0.000000 0.000000 0.000000
# 3 -0.002946 -0.007419 0.011758 0.000000 0.000000 0.000000
# 4 0.000000 0.000000 0.000000 0.035330 0.000000 0.000000
# 5 0.000000 0.000000 0.000000 0.000000 0.032283 0.000000
# 6 0.000000 0.000000 0.000000 0.000000 0.000000 0.043845
#
#
# Mechanical properties :
#
#
# Convention : Reuss Voigt Hill
#
# Bulk Modulus (GPa) = 44.61204 56.34911 50.48057
# Shear Modulus (GPa) = 24.98358 26.86082 25.92220
#
# Velocity S-wave (km/s) = 3.66139 3.79646 3.72954
# Velocity P-wave (km/s) = 6.46626 7.03232 6.75522
#
# Compressibility (1/GPa) = 0.02241547
#
# Stress axis : x y z
#
# Youngs Moduli (GPa) = 44.96001 56.15408 85.04556
#
# Poissons Ratio (x) = 0.24326 0.25055
# Poissons Ratio (y) = 0.19476 0.63091
# Poissons Ratio (z) = 0.13245 0.41658
#
# Static dielectric constant tensor:
#      x y z
#    x 3.280140 0.000000 0.000000 
#    y 0.000000 3.527560 0.000000 
#    z 0.000000 0.000000 3.645600 
# 
# 
# High freq. dielectric constant tensor:
#      x y z
#    x 1.709880 0.000000 0.000000 
#    y 0.000000 1.714830 0.000000 
#    z 0.000000 0.000000 1.729400 
# 
# From -- ./inp_files/15018.got.cif
#   From: 2010.03.12/outbox.cif.g09.slc.cpg/sg59_8_cif.got.tgz:15018.got - 2010.04.16 16:29:54.
