data_PCOD8241716
_publ_section_title
;
Structure prediction by ZEFSAII (Michael W. Deem and Ramdas Pophale) SiO2 
 PCOD8241716
Probable space group: P M M N
;
_chemical_formula_sum "Si O2"
_cell_formula_units_Z 56
_cell_length_a 15.655297
_cell_length_b 9.208696
_cell_length_c 19.689105
_cell_angle_alpha 90.000000
_cell_angle_beta 90.000000
_cell_angle_gamma 90.000000
_cell_volume 2838.477280
_symmetry_space_group_name_H-M "P M M N"
_symmetry_group_IT_number 59
_space_group.IT_coordinate_system_code '2'
_symmetry_cell_setting 'orthorhombic'
loop_
_space_group_symop_operation_xyz
x,y,z
1/2-x,1/2-y,z
1/2+x,-y,-z
-x,1/2+y,-z
-x,-y,-z
1/2+x,1/2+y,-z
1/2-x,y,z
x,1/2-y,z
loop_
_atom_site_type_symbol
_atom_site_label
_atom_site_fract_x
_atom_site_fract_y
_atom_site_fract_z
Si Si1 0.655063 0.083242 0.337105
Si Si2 0.995602 0.576607 0.571830
Si Si3 0.850972 0.588174 0.063076
Si Si4 0.600437 0.580984 0.209263
Si Si5 0.346574 0.580013 0.349389
Si Si6 0.851074 0.412754 0.936004
Si Si7 0.404992 0.581929 0.206545
O O1 0.750000 0.062412 0.369834
O O2 0.637521 0.250000 0.319522
O O3 0.581434 0.028041 0.388128
O O4 0.655238 0.997425 0.266506
O O5 0.990509 0.750000 0.563626
O O6 0.910561 0.519239 0.608163
O O7 0.000000 0.500000 0.500000
O O8 0.750000 0.591718 0.057839
O O9 0.889635 0.750000 0.058865
O O10 0.877942 0.516616 0.134833
O O11 0.889977 0.498718 0.000137
O O12 0.624724 0.750000 0.211088
O O13 0.502234 0.550997 0.225728
O O14 0.250000 0.556727 0.376195
O O15 0.373301 0.750000 0.355575
O O16 0.349906 0.527466 0.270713
O O17 0.750000 0.411474 0.939422
O O18 0.888354 0.250000 0.940496
O O19 0.879395 0.491656 0.865345
O O20 0.385112 0.750000 0.195477
#
# Coordination Sequence:
#
# PCOD8241716 Si02
#       7
#     8   8   8   8   8   8   8
#     4  10  22  40  61  86 117 152 190 235 287 339
#     4  11  24  42  64  91 124 156 191 236 287 344
#     4   9  18  31  45  67 102 141 182 233 291 342
#     4  10  19  33  55  80 108 144 189 238 287 342
#     4  10  20  37  63  91 120 157 197 239 291 347
#     4   9  17  30  48  70  99 140 189 236 281 335
#     4   9  17  31  53  80 109 142 188 240 285 335
#
# _framework density 19.728888000000001
#
# number of rings (size 3 to 8) (size 9 to 14) (size 15 to 20)
#    0.000    2.286    1.429    1.286    0.000    5.143 
#    0.000    4.286    0.000    1.714    0.000    0.000 
#    0.000    0.000    0.000    0.000    0.000    0.000 
#
# Total GULP energy -694211.755960 kJ/mol
# GULP energy per Si atom -12396.638499 kJ/mol
# Density = 1.968398 g / cm^3
# Si number density = 19.728888 Si / 1000 Ang^3
#
#
#
# Elastic Constant Matrix: (Units=GPa)
#
#
# Indices 1 2 3 4 5 6 
#
# 1 86.0879 33.5105 56.5897 0.0000 0.0000 0.0000
# 2 33.5105 61.1102 54.6638 0.0000 0.0000 0.0000
# 3 56.5897 54.6638 154.7187 0.0000 0.0000 0.0000
# 4 0.0000 0.0000 0.0000 33.1858 0.0000 0.0000
# 5 0.0000 0.0000 0.0000 0.0000 24.2080 0.0000
# 6 0.0000 0.0000 0.0000 0.0000 0.0000 23.9753
#
#
#
# Elastic Compliance Matrix: (Units=1/GPa)
#
#
# Indices 1 2 3 4 5 6 
#
# 1 0.016388 -0.005300 -0.004122 0.000000 0.000000 0.000000
# 2 -0.005300 0.025639 -0.007120 0.000000 0.000000 0.000000
# 3 -0.004122 -0.007120 0.010487 0.000000 0.000000 0.000000
# 4 0.000000 0.000000 0.000000 0.030133 0.000000 0.000000
# 5 0.000000 0.000000 0.000000 0.000000 0.041309 0.000000
# 6 0.000000 0.000000 0.000000 0.000000 0.000000 0.041710
#
#
# Mechanical properties :
#
#
# Convention : Reuss Voigt Hill
#
# Bulk Modulus (GPa) = 51.46493 65.71609 58.59051
# Shear Modulus (GPa) = 24.36335 26.75065 25.55700
#
# Velocity S-wave (km/s) = 3.51794 3.68627 3.60309
# Velocity P-wave (km/s) = 6.53023 7.17635 6.86090
#
# Compressibility (1/GPa) = 0.01943071
#
# Stress axis : x y z
#
# Youngs Moduli (GPa) = 61.01860 39.00281 95.36055
#
# Poissons Ratio (x) = 0.20671 0.39305
# Poissons Ratio (y) = 0.32339 0.67898
# Poissons Ratio (z) = 0.25150 0.27771
#
# Static dielectric constant tensor:
#      x y z
#    x 3.601490 0.000000 0.000000 
#    y 0.000000 3.496900 0.000000 
#    z 0.000000 0.000000 3.792090 
# 
# 
# High freq. dielectric constant tensor:
#      x y z
#    x 1.773000 0.000000 0.000000 
#    y 0.000000 1.736960 0.000000 
#    z 0.000000 0.000000 1.777230 
# 
# From -- ./inp_files/30416.got.cif
#   From: 2010.03.12/outbox.cif.g09.slc.cpg/sg59_16_cif.got.tgz:30416.got - 2010.04.16 16:29:54.
