data_PCOD8241220
_publ_section_title
;
Structure prediction by ZEFSAII (Michael W. Deem and Ramdas Pophale) SiO2 
 PCOD8241220
Probable space group: P M M N
;
_chemical_formula_sum "Si O2"
_cell_formula_units_Z 48
_cell_length_a 9.646552
_cell_length_b 7.839709
_cell_length_c 34.071345
_cell_angle_alpha 90.000000
_cell_angle_beta 90.000000
_cell_angle_gamma 90.000000
_cell_volume 2576.685007
_symmetry_space_group_name_H-M "P M M N"
_symmetry_group_IT_number 59
_space_group.IT_coordinate_system_code '2'
_symmetry_cell_setting 'orthorhombic'
loop_
_space_group_symop_operation_xyz
x,y,z
1/2-x,1/2-y,z
1/2+x,-y,-z
-x,1/2+y,-z
-x,-y,-z
1/2+x,1/2+y,-z
1/2-x,y,z
x,1/2-y,z
loop_
_atom_site_type_symbol
_atom_site_label
_atom_site_fract_x
_atom_site_fract_y
_atom_site_fract_z
Si Si1 0.406223 0.949806 0.963793
Si Si2 0.596695 0.050935 0.464570
Si Si3 0.090044 0.250000 0.250444
Si Si4 0.403988 0.051028 0.619523
Si Si5 0.590142 0.446949 0.690655
Si Si6 0.584235 0.250000 0.172455
Si Si7 0.414000 0.438855 0.880243
O O1 0.250000 0.015818 0.971899
O O2 0.406227 0.750000 0.956766
O O3 0.470079 0.034163 0.924467
O O4 0.500000 0.000000 0.000000
O O5 0.750000 0.968079 0.470150
O O6 0.611183 0.250000 0.463461
O O7 0.500000 0.000000 0.500000
O O8 0.531622 0.989372 0.423248
O O9 0.250000 0.250000 0.236710
O O10 0.057438 0.424044 0.274001
O O11 0.986768 0.250000 0.214315
O O12 0.250000 0.967638 0.623115
O O13 0.392119 0.250000 0.625212
O O14 0.503530 0.981792 0.653625
O O15 0.750000 0.458392 0.678344
O O16 0.552141 0.250000 0.702287
O O17 0.750000 0.250000 0.177727
O O18 0.529645 0.417757 0.149426
O O19 0.250000 0.458284 0.882206
O O20 0.458869 0.250000 0.865480
#
# Coordination Sequence:
#
# PCOD8241220 Si02
#       7
#     8   8   4   8   8   4   8
#     4  10  19  32  51  77 109 143 182 227 272 321
#     4  10  21  35  51  74 104 139 178 218 261 311
#     4  10  22  38  56  80 110 140 172 216 272 322
#     4   9  18  33  53  77 105 134 167 214 266 307
#     4   9  19  36  56  78 106 139 174 210 256 321
#     4  10  20  36  56  80 104 136 182 222 260 320
#     4   9  17  32  54  77 105 140 177 221 270 315
#
# _framework density 18.628585999999999
#
# number of rings (size 3 to 8) (size 9 to 14) (size 15 to 20)
#    0.000    2.500    0.833    1.000    1.167    4.000 
#    0.000    2.500    0.000    1.000    0.000    0.000 
#    0.000    0.000    0.000    0.000    0.000    0.000 
#
# Total GULP energy -595010.565413 kJ/mol
# GULP energy per Si atom -12396.053446 kJ/mol
# Density = 1.858619 g / cm^3
# Si number density = 18.628586 Si / 1000 Ang^3
#
#
#
# Elastic Constant Matrix: (Units=GPa)
#
#
# Indices 1 2 3 4 5 6 
#
# 1 62.8666 32.1012 67.1530 0.0000 0.0000 0.0000
# 2 32.1012 98.8157 60.0822 0.0000 0.0000 0.0000
# 3 67.1530 60.0822 157.6676 0.0000 0.0000 0.0000
# 4 0.0000 0.0000 0.0000 31.6491 0.0000 0.0000
# 5 0.0000 0.0000 0.0000 0.0000 33.1311 0.0000
# 6 0.0000 0.0000 0.0000 0.0000 0.0000 17.4598
#
#
#
# Elastic Compliance Matrix: (Units=1/GPa)
#
#
# Indices 1 2 3 4 5 6 
#
# 1 0.029668 -0.002544 -0.011666 0.000000 0.000000 0.000000
# 2 -0.002544 0.013390 -0.004019 0.000000 0.000000 0.000000
# 3 -0.011666 -0.004019 0.012843 0.000000 0.000000 0.000000
# 4 0.000000 0.000000 0.000000 0.031596 0.000000 0.000000
# 5 0.000000 0.000000 0.000000 0.000000 0.030183 0.000000
# 6 0.000000 0.000000 0.000000 0.000000 0.000000 0.057274
#
#
# Mechanical properties :
#
#
# Convention : Reuss Voigt Hill
#
# Bulk Modulus (GPa) = 51.43679 70.89141 61.16410
# Shear Modulus (GPa) = 22.94697 27.11558 25.03127
#
# Velocity S-wave (km/s) = 3.51353 3.81936 3.66963
# Velocity P-wave (km/s) = 6.64316 7.58866 7.13160
#
# Compressibility (1/GPa) = 0.01944134
#
# Stress axis : x y z
#
# Youngs Moduli (GPa) = 33.70670 74.68292 77.86494
#
# Poissons Ratio (x) = 0.19003 0.90840
# Poissons Ratio (y) = 0.08576 0.31292
# Poissons Ratio (z) = 0.39323 0.30013
#
# Static dielectric constant tensor:
#      x y z
#    x 3.438790 0.000000 0.000000 
#    y 0.000000 3.633820 0.000000 
#    z 0.000000 0.000000 3.465880 
# 
# 
# High freq. dielectric constant tensor:
#      x y z
#    x 1.696480 0.000000 0.000000 
#    y 0.000000 1.735980 0.000000 
#    z 0.000000 0.000000 1.720310 
# 
# From -- ./inp_files/32939.got.cif
#   From: 2010.03.12/outbox.cif.g09.slc.cpg/sg59_17_cif.got.tgz:32939.got - 2010.04.16 16:29:54.
