data_PCOD8241865
_publ_section_title
;
Structure prediction by ZEFSAII (Michael W. Deem and Ramdas Pophale) SiO2 
 PCOD8241865
Probable space group: P M M N
;
_chemical_formula_sum "Si O2"
_cell_formula_units_Z 56
_cell_length_a 20.111114
_cell_length_b 9.245502
_cell_length_c 15.372838
_cell_angle_alpha 90.000000
_cell_angle_beta 90.000000
_cell_angle_gamma 90.000000
_cell_volume 2858.384678
_symmetry_space_group_name_H-M "P M M N"
_symmetry_group_IT_number 59
_space_group.IT_coordinate_system_code '2'
_symmetry_cell_setting 'orthorhombic'
loop_
_space_group_symop_operation_xyz
x,y,z
1/2-x,1/2-y,z
1/2+x,-y,-z
-x,1/2+y,-z
-x,-y,-z
1/2+x,1/2+y,-z
1/2-x,y,z
x,1/2-y,z
loop_
_atom_site_type_symbol
_atom_site_label
_atom_site_fract_x
_atom_site_fract_y
_atom_site_fract_z
Si Si1 0.175183 0.584212 0.993065
Si Si2 0.002715 0.088207 0.246159
Si Si3 0.148457 0.590335 0.797664
Si Si4 0.324430 0.095036 0.638435
Si Si5 0.174955 0.583390 0.478838
Si Si6 0.534390 0.420337 0.581775
Si Si7 0.053257 0.078525 0.062164
O O1 0.250000 0.562485 0.028601
O O2 0.151448 0.750000 0.007178
O O3 0.127378 0.473809 0.041896
O O4 0.173825 0.544920 0.891738
O O5 0.022548 0.250000 0.277760
O O6 0.930254 0.087802 0.205156
O O7 0.046624 0.037512 0.164186
O O8 0.005580 0.979837 0.327557
O O9 0.175383 0.750000 0.773515
O O10 0.177827 0.474615 0.732441
O O11 0.250000 0.122626 0.607553
O O12 0.362544 0.250000 0.640761
O O13 0.355118 0.991739 0.565378
O O14 0.250000 0.531370 0.448399
O O15 0.179921 0.750000 0.502965
O O16 0.115077 0.554076 0.410894
O O17 0.500000 0.500000 0.500000
O O18 0.518889 0.250000 0.573637
O O19 0.045618 0.250000 0.047701
O O20 0.000000 0.000000 0.000000
#
# Coordination Sequence:
#
# PCOD8241865 Si02
#       7
#     8   8   8   8   8   8   8
#     4  10  21  38  60  87 120 157 199 248 302 358
#     4  10  22  39  59  84 114 152 196 242 293 355
#     4  10  19  34  54  77 109 150 192 231 284 353
#     4  10  20  31  46  75 111 143 182 233 288 346
#     4   9  19  37  57  75 102 147 196 237 285 345
#     4  11  23  38  59  88 120 153 193 247 300 352
#     4  11  22  40  64  88 119 157 201 249 299 358
#
# _framework density 19.591486
#
# number of rings (size 3 to 8) (size 9 to 14) (size 15 to 20)
#    0.000    1.857    1.429    2.571    0.000    8.571 
#    0.000    0.714    0.000    2.571    0.000    0.000 
#    0.000    0.000    0.000    0.000    0.000    0.000 
#
# Total GULP energy -693969.939902 kJ/mol
# GULP energy per Si atom -12392.320355 kJ/mol
# Density = 1.954689 g / cm^3
# Si number density = 19.591486 Si / 1000 Ang^3
#
#
#
# Elastic Constant Matrix: (Units=GPa)
#
#
# Indices 1 2 3 4 5 6 
#
# 1 92.0231 31.4481 28.2242 0.0000 0.0000 0.0000
# 2 31.4481 88.8153 45.4561 0.0000 0.0000 0.0000
# 3 28.2242 45.4561 78.6622 0.0000 0.0000 0.0000
# 4 0.0000 0.0000 0.0000 29.2107 0.0000 0.0000
# 5 0.0000 0.0000 0.0000 0.0000 31.6049 0.0000
# 6 0.0000 0.0000 0.0000 0.0000 0.0000 24.2591
#
#
#
# Elastic Compliance Matrix: (Units=1/GPa)
#
#
# Indices 1 2 3 4 5 6 
#
# 1 0.012782 -0.003094 -0.002799 0.000000 0.000000 0.000000
# 2 -0.003094 0.016737 -0.008561 0.000000 0.000000 0.000000
# 3 -0.002799 -0.008561 0.018664 0.000000 0.000000 0.000000
# 4 0.000000 0.000000 0.000000 0.034234 0.000000 0.000000
# 5 0.000000 0.000000 0.000000 0.000000 0.031641 0.000000
# 6 0.000000 0.000000 0.000000 0.000000 0.000000 0.041222
#
#
# Mechanical properties :
#
#
# Convention : Reuss Voigt Hill
#
# Bulk Modulus (GPa) = 51.87923 52.19528 52.03725
# Shear Modulus (GPa) = 26.23130 27.30643 26.76887
#
# Velocity S-wave (km/s) = 3.66309 3.73740 3.70043
# Velocity P-wave (km/s) = 6.66550 6.73230 6.69898
#
# Compressibility (1/GPa) = 0.01927554
#
# Stress axis : x y z
#
# Youngs Moduli (GPa) = 78.23224 59.74959 53.57892
#
# Poissons Ratio (x) = 0.18485 0.14995
# Poissons Ratio (y) = 0.24203 0.45871
# Poissons Ratio (z) = 0.21894 0.51154
#
# Static dielectric constant tensor:
#      x y z
#    x 3.793390 0.000000 0.000000 
#    y 0.000000 3.818750 0.000000 
#    z 0.000000 0.000000 3.379700 
# 
# 
# High freq. dielectric constant tensor:
#      x y z
#    x 1.771790 0.000000 0.000000 
#    y 0.000000 1.766410 0.000000 
#    z 0.000000 0.000000 1.741750 
# 
# From -- ./inp_files/20970.got.cif
#   From: 2010.03.12/outbox.cif.g09.slc.cpg/sg59_11_cif.got.tgz:20970.got - 2010.04.16 16:29:54.
