data_PCOD8241428
_publ_section_title
;
Structure prediction by ZEFSAII (Michael W. Deem and Ramdas Pophale) SiO2 
 PCOD8241428
Probable space group: P M M N
;
_chemical_formula_sum "Si O2"
_cell_formula_units_Z 48
_cell_length_a 8.918763
_cell_length_b 18.056685
_cell_length_c 16.315884
_cell_angle_alpha 90.000000
_cell_angle_beta 90.000000
_cell_angle_gamma 90.000000
_cell_volume 2627.563705
_symmetry_space_group_name_H-M "P M M N"
_symmetry_group_IT_number 59
_space_group.IT_coordinate_system_code '2'
_symmetry_cell_setting 'orthorhombic'
loop_
_space_group_symop_operation_xyz
x,y,z
1/2-x,1/2-y,z
1/2+x,-y,-z
-x,1/2+y,-z
-x,-y,-z
1/2+x,1/2+y,-z
1/2-x,y,z
x,1/2-y,z
loop_
_atom_site_type_symbol
_atom_site_label
_atom_site_fract_x
_atom_site_fract_y
_atom_site_fract_z
Si Si1 0.078046 0.665893 0.637689
Si Si2 0.926873 0.919523 0.493530
Si Si3 0.075331 0.665908 0.161056
Si Si4 0.421126 0.535853 0.750132
Si Si5 0.424410 0.469040 0.919662
Si Si6 0.575343 0.403904 0.669638
O O1 0.250000 0.660581 0.607582
O O2 0.030261 0.750000 0.655756
O O3 0.057139 0.620946 0.722915
O O4 0.972280 0.632597 0.568317
O O5 0.750000 0.929337 0.491640
O O6 0.982976 0.879467 0.410411
O O7 0.000000 0.000000 0.500000
O O8 0.250000 0.650022 0.146854
O O9 0.032403 0.750000 0.139574
O O10 0.033811 0.650988 0.255962
O O11 0.983866 0.612818 0.100907
O O12 0.250000 0.509193 0.734973
O O13 0.462216 0.525801 0.845631
O O14 0.530575 0.487295 0.694011
O O15 0.250000 0.462842 0.936661
O O16 0.500000 0.500000 0.000000
O O17 0.750000 0.401780 0.648106
#
# Coordination Sequence:
#
# PCOD8241428 Si02
#       6
#     8   8   8   8   8   8
#     4  10  21  37  56  78 106 141 182 230 281 327
#     4  12  23  35  53  78 109 147 190 232 275 323
#     4   9  19  36  57  82 113 146 181 225 279 333
#     4   9  18  34  55  77 104 140 181 222 267 326
#     4  10  20  35  57  85 113 145 185 225 271 330
#     4  10  19  32  54  81 106 141 183 224 272 327
#
# _framework density 18.267872000000001
#
# number of rings (size 3 to 8) (size 9 to 14) (size 15 to 20)
#    0.000    2.000    1.667    2.500    0.000    2.667 
#    0.000    2.500    0.000    3.000    0.000    0.000 
#    0.000    0.000    0.000    0.000    0.000    0.000 
#
# Total GULP energy -595267.121296 kJ/mol
# GULP energy per Si atom -12401.398360 kJ/mol
# Density = 1.822629 g / cm^3
# Si number density = 18.267872 Si / 1000 Ang^3
#
#
#
# Elastic Constant Matrix: (Units=GPa)
#
#
# Indices 1 2 3 4 5 6 
#
# 1 97.7244 51.8946 57.3174 0.0000 0.0000 0.0000
# 2 51.8946 125.9403 65.9623 0.0000 0.0000 0.0000
# 3 57.3174 65.9623 128.4829 0.0000 0.0000 0.0000
# 4 0.0000 0.0000 0.0000 23.3255 0.0000 0.0000
# 5 0.0000 0.0000 0.0000 0.0000 31.8099 0.0000
# 6 0.0000 0.0000 0.0000 0.0000 0.0000 26.3135
#
#
#
# Elastic Compliance Matrix: (Units=1/GPa)
#
#
# Indices 1 2 3 4 5 6 
#
# 1 0.014999 -0.003660 -0.004812 0.000000 0.000000 0.000000
# 2 -0.003660 0.011754 -0.004402 0.000000 0.000000 0.000000
# 3 -0.004812 -0.004402 0.012190 0.000000 0.000000 0.000000
# 4 0.000000 0.000000 0.000000 0.042871 0.000000 0.000000
# 5 0.000000 0.000000 0.000000 0.000000 0.031437 0.000000
# 6 0.000000 0.000000 0.000000 0.000000 0.000000 0.038003
#
#
# Mechanical properties :
#
#
# Convention : Reuss Voigt Hill
#
# Bulk Modulus (GPa) = 75.78694 78.05514 76.92104
# Shear Modulus (GPa) = 27.56352 28.08801 27.82576
#
# Velocity S-wave (km/s) = 3.88861 3.92543 3.90706
# Velocity P-wave (km/s) = 7.85737 7.96029 7.90900
#
# Compressibility (1/GPa) = 0.01319489
#
# Stress axis : x y z
#
# Youngs Moduli (GPa) = 66.67188 85.07928 82.03733
#
# Poissons Ratio (x) = 0.31139 0.39477
# Poissons Ratio (y) = 0.24402 0.36109
# Poissons Ratio (z) = 0.32083 0.37448
#
# Static dielectric constant tensor:
#      x y z
#    x 3.427070 0.000000 0.000000 
#    y 0.000000 3.459510 0.000000 
#    z 0.000000 0.000000 3.435480 
# 
# 
# High freq. dielectric constant tensor:
#      x y z
#    x 1.712990 0.000000 0.000000 
#    y 0.000000 1.695170 0.000000 
#    z 0.000000 0.000000 1.703810 
# 
# From -- ./inp_files/20308.got.cif
#   From: 2010.03.12/outbox.cif.g09.slc.cpg/sg59_11_cif.got.tgz:20308.got - 2010.04.16 16:29:54.
