data_PCOD8241116
_publ_section_title
;
Structure prediction by ZEFSAII (Michael W. Deem and Ramdas Pophale) SiO2 
 PCOD8241116
Probable space group: P M M N
;
_chemical_formula_sum "Si O2"
_cell_formula_units_Z 64
_cell_length_a 22.653518
_cell_length_b 8.771868
_cell_length_c 17.830336
_cell_angle_alpha 90.000000
_cell_angle_beta 90.000000
_cell_angle_gamma 90.000000
_cell_volume 3543.131497
_symmetry_space_group_name_H-M "P M M N"
_symmetry_group_IT_number 59
_space_group.IT_coordinate_system_code '2'
_symmetry_cell_setting 'orthorhombic'
loop_
_space_group_symop_operation_xyz
x,y,z
1/2-x,1/2-y,z
1/2+x,-y,-z
-x,1/2+y,-z
-x,-y,-z
1/2+x,1/2+y,-z
1/2-x,y,z
x,1/2-y,z
loop_
_atom_site_type_symbol
_atom_site_label
_atom_site_fract_x
_atom_site_fract_y
_atom_site_fract_z
Si Si1 0.816344 0.930903 0.069566
Si Si2 0.083014 0.428547 0.354639
Si Si3 0.915641 0.930473 0.182131
Si Si4 0.490679 0.075778 0.079506
Si Si5 0.449342 0.569406 0.666124
Si Si6 0.937649 0.928395 0.482778
Si Si7 0.184574 0.068172 0.247776
Si Si8 0.853640 0.923185 0.910101
O O1 0.750000 0.980126 0.090556
O O2 0.823668 0.750000 0.065480
O O3 0.860187 0.993006 0.133674
O O4 0.833823 0.002792 0.988269
O O5 0.080197 0.250000 0.339375
O O6 0.100841 0.459879 0.441940
O O7 0.134438 0.502081 0.302915
O O8 0.017420 0.492629 0.334460
O O9 0.914124 0.750000 0.190359
O O10 0.913298 0.005349 0.263633
O O11 0.975472 0.980543 0.141953
O O12 0.513118 0.250000 0.077549
O O13 0.423052 0.067616 0.102060
O O14 0.500000 0.000000 0.000000
O O15 0.447895 0.750000 0.667226
O O16 0.413769 0.510040 0.592387
O O17 0.943688 0.750000 0.467091
O O18 0.000000 0.000000 0.500000
O O19 0.250000 0.020805 0.276124
O O20 0.177964 0.250000 0.246030
O O21 0.175853 0.001236 0.163497
O O22 0.831514 0.750000 0.915058
#
# Coordination Sequence:
#
# PCOD8241116 Si02
#       8
#     8   8   8   8   8   8   8   8
#     4   9  17  30  47  67  93 126 166 210 249 289
#     4   8  15  27  43  67  99 129 157 191 239 290
#     4  11  21  33  49  74 102 129 164 206 254 304
#     4  11  20  32  49  71 100 131 164 204 252 302
#     4  10  19  32  50  73 100 129 162 205 255 304
#     4   9  16  28  47  71 101 132 160 195 240 297
#     4   9  15  23  39  65  96 128 161 197 238 284
#     4   9  16  27  44  68  96 127 163 203 244 288
#
# _framework density 18.063116999999998
#
# number of rings (size 3 to 8) (size 9 to 14) (size 15 to 20)
#    0.000    2.500    1.250    3.375    0.000    3.500 
#    0.000    0.000    0.000    2.250    0.000    3.500 
#    0.000   41.500    0.000    0.000    0.000    0.000 
#
# Total GULP energy -793140.676662 kJ/mol
# GULP energy per Si atom -12392.823073 kJ/mol
# Density = 1.802200 g / cm^3
# Si number density = 18.063117 Si / 1000 Ang^3
#
#
#
# Elastic Constant Matrix: (Units=GPa)
#
#
# Indices 1 2 3 4 5 6 
#
# 1 85.0316 16.3916 58.6421 0.0000 0.0000 0.0000
# 2 16.3916 45.5024 31.9386 0.0000 0.0000 0.0000
# 3 58.6421 31.9386 166.6513 0.0000 0.0000 0.0000
# 4 0.0000 0.0000 0.0000 25.8651 0.0000 0.0000
# 5 0.0000 0.0000 0.0000 0.0000 19.6339 0.0000
# 6 0.0000 0.0000 0.0000 0.0000 0.0000 13.9168
#
#
#
# Elastic Compliance Matrix: (Units=1/GPa)
#
#
# Indices 1 2 3 4 5 6 
#
# 1 0.015693 -0.002053 -0.005129 0.000000 0.000000 0.000000
# 2 -0.002053 0.025661 -0.004195 0.000000 0.000000 0.000000
# 3 -0.005129 -0.004195 0.008609 0.000000 0.000000 0.000000
# 4 0.000000 0.000000 0.000000 0.038662 0.000000 0.000000
# 5 0.000000 0.000000 0.000000 0.000000 0.050932 0.000000
# 6 0.000000 0.000000 0.000000 0.000000 0.000000 0.071856
#
#
# Mechanical properties :
#
#
# Convention : Reuss Voigt Hill
#
# Bulk Modulus (GPa) = 36.75268 56.79221 46.77245
# Shear Modulus (GPa) = 20.55596 24.56403 22.55999
#
# Velocity S-wave (km/s) = 3.37710 3.69168 3.53789
# Velocity P-wave (km/s) = 5.96635 7.04845 6.52985
#
# Compressibility (1/GPa) = 0.02720890
#
# Stress axis : x y z
#
# Youngs Moduli (GPa) = 63.72212 38.96902 116.15349
#
# Poissons Ratio (x) = 0.08002 0.59571
# Poissons Ratio (y) = 0.13085 0.48731
# Poissons Ratio (z) = 0.32681 0.16349
#
# Static dielectric constant tensor:
#      x y z
#    x 3.163870 0.000000 0.000000 
#    y 0.000000 3.009980 0.000000 
#    z 0.000000 0.000000 3.836720 
# 
# 
# High freq. dielectric constant tensor:
#      x y z
#    x 1.674530 0.000000 0.000000 
#    y 0.000000 1.657550 0.000000 
#    z 0.000000 0.000000 1.715560 
# 
# From -- ./inp_files/28435.got.cif
#   From: 2010.03.12/outbox.cif.g09.slc.cpg/sg59_15_cif.got.tgz:28435.got - 2010.04.16 16:29:54.
