data_PCOD8241642
_publ_section_title
;
Structure prediction by ZEFSAII (Michael W. Deem and Ramdas Pophale) SiO2 
 PCOD8241642
Probable space group: P M M N
;
_chemical_formula_sum "Si O2"
_cell_formula_units_Z 48
_cell_length_a 16.802442
_cell_length_b 8.500297
_cell_length_c 16.608956
_cell_angle_alpha 90.000000
_cell_angle_beta 90.000000
_cell_angle_gamma 90.000000
_cell_volume 2372.186553
_symmetry_space_group_name_H-M "P M M N"
_symmetry_group_IT_number 59
_space_group.IT_coordinate_system_code '2'
_symmetry_cell_setting 'orthorhombic'
loop_
_space_group_symop_operation_xyz
x,y,z
1/2-x,1/2-y,z
1/2+x,-y,-z
-x,1/2+y,-z
-x,-y,-z
1/2+x,1/2+y,-z
1/2-x,y,z
x,1/2-y,z
loop_
_atom_site_type_symbol
_atom_site_label
_atom_site_fract_x
_atom_site_fract_y
_atom_site_fract_z
Si Si1 0.553675 0.932816 0.224908
Si Si2 0.250000 0.937382 0.019635
Si Si3 0.158056 0.574935 0.645245
Si Si4 0.250000 0.937091 0.202362
Si Si5 0.414098 0.564026 0.482438
Si Si6 0.604675 0.061880 0.695292
Si Si7 0.920509 0.937843 0.045442
O O1 0.539771 0.750000 0.213639
O O2 0.475652 0.008193 0.265884
O O3 0.571009 0.002498 0.136698
O O4 0.625858 0.962558 0.285348
O O5 0.250000 0.750000 0.011598
O O6 0.333684 0.000276 0.983343
O O7 0.250000 0.997014 0.111372
O O8 0.250000 0.583149 0.660126
O O9 0.120389 0.750000 0.653204
O O10 0.141894 0.506606 0.555641
O O11 0.250000 0.750000 0.204353
O O12 0.174255 0.005532 0.249091
O O13 0.500000 0.500000 0.500000
O O14 0.416279 0.750000 0.477383
O O15 0.384047 0.498562 0.396148
O O16 0.603700 0.250000 0.695211
O O17 0.919649 0.750000 0.039217
O O18 0.000000 0.000000 0.000000
#
# Coordination Sequence:
#
# PCOD8241642 Si02
#       7
#     8   4   8   4   8   8   8
#     4  10  21  38  59  83 112 150 197 240 286 350
#     4  11  23  41  65  92 125 162 202 253 309 367
#     4  10  22  36  52  81 116 148 188 237 286 338
#     4   9  18  33  57  86 113 144 190 239 283 341
#     4  10  19  33  54  78 109 146 186 231 283 338
#     4   9  17  31  54  82 110 145 188 234 281 336
#     4  11  24  42  65  93 124 159 204 255 310 372
#
# _framework density 20.234496
#
# number of rings (size 3 to 8) (size 9 to 14) (size 15 to 20)
#    0.000    2.000    1.667    1.750    2.333    4.333 
#    0.000    0.000    0.000    1.000    0.000    0.000 
#    0.000    0.000    0.000    0.000    0.000    0.000 
#
# Total GULP energy -594840.251147 kJ/mol
# GULP energy per Si atom -12392.505232 kJ/mol
# Density = 2.018844 g / cm^3
# Si number density = 20.234496 Si / 1000 Ang^3
#
#
#
# Elastic Constant Matrix: (Units=GPa)
#
#
# Indices 1 2 3 4 5 6 
#
# 1 140.9588 23.0244 82.6147 0.0000 0.0000 0.0000
# 2 23.0244 29.4228 26.4092 0.0000 0.0000 0.0000
# 3 82.6147 26.4092 214.1058 0.0000 0.0000 0.0000
# 4 0.0000 0.0000 0.0000 22.6985 0.0000 0.0000
# 5 0.0000 0.0000 0.0000 0.0000 37.2006 0.0000
# 6 0.0000 0.0000 0.0000 0.0000 0.0000 29.3391
#
#
#
# Elastic Compliance Matrix: (Units=1/GPa)
#
#
# Indices 1 2 3 4 5 6 
#
# 1 0.009729 -0.004772 -0.003165 0.000000 0.000000 0.000000
# 2 -0.004772 0.040559 -0.003161 0.000000 0.000000 0.000000
# 3 -0.003165 -0.003161 0.006282 0.000000 0.000000 0.000000
# 4 0.000000 0.000000 0.000000 0.044056 0.000000 0.000000
# 5 0.000000 0.000000 0.000000 0.000000 0.026881 0.000000
# 6 0.000000 0.000000 0.000000 0.000000 0.000000 0.034084
#
#
# Mechanical properties :
#
#
# Convention : Reuss Voigt Hill
#
# Bulk Modulus (GPa) = 29.09329 72.06490 50.57910
# Shear Modulus (GPa) = 25.60865 34.67693 30.14279
#
# Velocity S-wave (km/s) = 3.56138 4.14424 3.86382
# Velocity P-wave (km/s) = 5.59647 7.65453 6.70494
#
# Compressibility (1/GPa) = 0.03437218
#
# Stress axis : x y z
#
# Youngs Moduli (GPa) = 102.78595 24.65534 159.18647
#
# Poissons Ratio (x) = 0.11766 0.50389
# Poissons Ratio (y) = 0.49050 0.50326
# Poissons Ratio (z) = 0.32536 0.07795
#
# Static dielectric constant tensor:
#      x y z
#    x 3.759880 0.000000 0.000000 
#    y 0.000000 3.389130 0.000000 
#    z 0.000000 0.000000 3.812190 
# 
# 
# High freq. dielectric constant tensor:
#      x y z
#    x 1.799220 0.000000 0.000000 
#    y 0.000000 1.753740 0.000000 
#    z 0.000000 0.000000 1.813450 
# 
# From -- ./inp_files/23727.got.cif
#   From: 2010.03.12/outbox.cif.g09.slc.cpg/sg59_12_cif.got.tgz:23727.got - 2010.04.16 16:29:54.
