data_PCOD8241700
_publ_section_title
;
Structure prediction by ZEFSAII (Michael W. Deem and Ramdas Pophale) SiO2 
 PCOD8241700
Probable space group: P M M N
;
_chemical_formula_sum "Si O2"
_cell_formula_units_Z 64
_cell_length_a 18.643990
_cell_length_b 9.505609
_cell_length_c 19.865842
_cell_angle_alpha 90.000000
_cell_angle_beta 90.000000
_cell_angle_gamma 90.000000
_cell_volume 3520.673769
_symmetry_space_group_name_H-M "P M M N"
_symmetry_group_IT_number 59
_space_group.IT_coordinate_system_code '2'
_symmetry_cell_setting 'orthorhombic'
loop_
_space_group_symop_operation_xyz
x,y,z
1/2-x,1/2-y,z
1/2+x,-y,-z
-x,1/2+y,-z
-x,-y,-z
1/2+x,1/2+y,-z
1/2-x,y,z
x,1/2-y,z
loop_
_atom_site_type_symbol
_atom_site_label
_atom_site_fract_x
_atom_site_fract_y
_atom_site_fract_z
Si Si1 0.670445 0.415238 0.975507
Si Si2 0.429121 0.088450 0.509125
Si Si3 0.430987 0.914666 0.289212
Si Si4 0.832800 0.914335 0.615265
Si Si5 0.667576 0.087786 0.233485
Si Si6 0.557490 0.086188 0.866130
Si Si7 0.413396 0.411948 0.661175
Si Si8 0.580273 0.083458 0.101988
O O1 0.750000 0.483781 0.973285
O O2 0.678257 0.250000 0.985412
O O3 0.630287 0.450420 0.905888
O O4 0.626015 0.474072 0.038971
O O5 0.451474 0.250000 0.499880
O O6 0.369668 0.042517 0.455101
O O7 0.396369 0.062865 0.582916
O O8 0.500000 0.000000 0.500000
O O9 0.417127 0.750000 0.300553
O O10 0.430771 0.955753 0.211045
O O11 0.506099 0.962901 0.321906
O O12 0.367172 0.999697 0.323741
O O13 0.750000 0.956370 0.609620
O O14 0.842877 0.750000 0.630404
O O15 0.750000 0.057780 0.216547
O O16 0.654063 0.250000 0.250477
O O17 0.621896 0.039948 0.169387
O O18 0.644757 0.999859 0.298245
O O19 0.536921 0.250000 0.873262
O O20 0.495185 0.994882 0.899401
O O21 0.404960 0.250000 0.682248
O O22 0.566952 0.250000 0.097561
#
# Coordination Sequence:
#
# PCOD8241700 Si02
#       8
#     8   8   8   8   8   8   8   8
#     4   9  18  33  53  77 105 140 181 221 264 314
#     4  10  20  35  57  80 105 139 179 220 263 317
#     4  10  20  35  55  81 110 141 180 222 266 319
#     4  10  22  38  56  81 110 141 180 225 272 321
#     4  10  21  35  52  78 109 140 176 217 263 317
#     4  10  20  34  55  81 108 137 177 225 265 316
#     4  10  20  35  55  80 108 140 177 218 266 321
#     4  10  19  33  55  79 105 140 178 220 265 315
#
# _framework density 18.178339999999999
#
# number of rings (size 3 to 8) (size 9 to 14) (size 15 to 20)
#    0.000    2.125    2.500    0.750    0.000    4.500 
#    0.000    2.500    0.000    2.250    0.000    0.000 
#    0.000    0.000    0.000    0.000    0.000    0.000 
#
# Total GULP energy -793809.840362 kJ/mol
# GULP energy per Si atom -12403.278756 kJ/mol
# Density = 1.813697 g / cm^3
# Si number density = 18.178340 Si / 1000 Ang^3
#
#
#
# Elastic Constant Matrix: (Units=GPa)
#
#
# Indices 1 2 3 4 5 6 
#
# 1 125.4065 40.9591 63.1692 0.0000 0.0000 0.0000
# 2 40.9591 38.0447 33.7860 0.0000 0.0000 0.0000
# 3 63.1692 33.7860 120.0918 0.0000 0.0000 0.0000
# 4 0.0000 0.0000 0.0000 17.4695 0.0000 0.0000
# 5 0.0000 0.0000 0.0000 0.0000 31.2674 0.0000
# 6 0.0000 0.0000 0.0000 0.0000 0.0000 29.4265
#
#
#
# Elastic Compliance Matrix: (Units=1/GPa)
#
#
# Indices 1 2 3 4 5 6 
#
# 1 0.013635 -0.011078 -0.004056 0.000000 0.000000 0.000000
# 2 -0.011078 0.044040 -0.006563 0.000000 0.000000 0.000000
# 3 -0.004056 -0.006563 0.012307 0.000000 0.000000 0.000000
# 4 0.000000 0.000000 0.000000 0.057242 0.000000 0.000000
# 5 0.000000 0.000000 0.000000 0.000000 0.031982 0.000000
# 6 0.000000 0.000000 0.000000 0.000000 0.000000 0.033983
#
#
# Mechanical properties :
#
#
# Convention : Reuss Voigt Hill
#
# Bulk Modulus (GPa) = 37.61000 62.15242 49.88121
# Shear Modulus (GPa) = 20.37117 25.34126 22.85622
#
# Velocity S-wave (km/s) = 3.35121 3.73773 3.54974
# Velocity P-wave (km/s) = 5.97566 7.27270 6.65585
#
# Compressibility (1/GPa) = 0.02658867
#
# Stress axis : x y z
#
# Youngs Moduli (GPa) = 73.33990 22.70672 81.25765
#
# Poissons Ratio (x) = 0.25155 0.32954
# Poissons Ratio (y) = 0.81247 0.53327
# Poissons Ratio (z) = 0.29743 0.14902
#
# Static dielectric constant tensor:
#      x y z
#    x 3.381130 0.000000 0.000000 
#    y 0.000000 3.173570 0.000000 
#    z 0.000000 0.000000 3.552930 
# 
# 
# High freq. dielectric constant tensor:
#      x y z
#    x 1.705190 0.000000 0.000000 
#    y 0.000000 1.684220 0.000000 
#    z 0.000000 0.000000 1.718530 
# 
# From -- ./inp_files/29471.got.cif
#   From: 2010.03.12/outbox.cif.g09.slc.cpg/sg59_15_cif.got.tgz:29471.got - 2010.04.16 16:29:54.
