data_PCOD8241240
_publ_section_title
;
Structure prediction by ZEFSAII (Michael W. Deem and Ramdas Pophale) SiO2 
 PCOD8241240
Probable space group: P M M N
;
_chemical_formula_sum "Si O2"
_cell_formula_units_Z 56
_cell_length_a 18.274052
_cell_length_b 9.086526
_cell_length_c 18.779526
_cell_angle_alpha 90.000000
_cell_angle_beta 90.000000
_cell_angle_gamma 90.000000
_cell_volume 3118.296135
_symmetry_space_group_name_H-M "P M M N"
_symmetry_group_IT_number 59
_space_group.IT_coordinate_system_code '2'
_symmetry_cell_setting 'orthorhombic'
loop_
_space_group_symop_operation_xyz
x,y,z
1/2-x,1/2-y,z
1/2+x,-y,-z
-x,1/2+y,-z
-x,-y,-z
1/2+x,1/2+y,-z
1/2-x,y,z
x,1/2-y,z
loop_
_atom_site_type_symbol
_atom_site_label
_atom_site_fract_x
_atom_site_fract_y
_atom_site_fract_z
Si Si1 0.980610 0.424798 0.073382
Si Si2 0.165187 0.920999 0.458854
Si Si3 0.073558 0.076401 0.345347
Si Si4 0.413349 0.921494 0.602491
Si Si5 0.468871 0.916491 0.209192
Si Si6 0.671276 0.416600 0.134929
Si Si7 0.132039 0.413220 0.733683
O O1 0.993106 0.250000 0.069754
O O2 0.895499 0.469126 0.085643
O O3 0.031791 0.492555 0.135326
O O4 0.000000 0.500000 0.000000
O O5 0.250000 0.952980 0.476129
O O6 0.152518 0.750000 0.440919
O O7 0.114491 0.970091 0.524977
O O8 0.141082 0.017272 0.391466
O O9 0.080361 0.250000 0.334325
O O10 0.998217 0.034487 0.386283
O O11 0.080064 0.000255 0.267836
O O12 0.401495 0.750000 0.614841
O O13 0.361833 0.002755 0.659162
O O14 0.439486 0.750000 0.196332
O O15 0.549593 0.912117 0.239589
O O16 0.750000 0.430148 0.094358
O O17 0.654917 0.250000 0.158348
O O18 0.680304 0.508550 0.206875
O O19 0.162684 0.250000 0.722195
#
# Coordination Sequence:
#
# PCOD8241240 Si02
#       7
#     8   8   8   8   8   8   8
#     4  10  19  32  52  78 106 133 164 203 246 291
#     4  10  21  35  49  67  94 129 168 210 257 306
#     4  10  19  32  52  74  96 125 164 210 253 295
#     4   9  18  32  49  70  97 130 167 204 246 299
#     4   9  17  31  51  74  99 126 158 196 239 290
#     4   9  18  32  49  69  97 135 171 198 232 287
#     4   9  17  28  45  71  99 125 156 197 242 287
#
# _framework density 17.958524000000001
#
# number of rings (size 3 to 8) (size 9 to 14) (size 15 to 20)
#    0.000    2.571    0.000    2.143    0.000    6.286 
#    0.000    1.429    0.000    0.857    0.000    2.000 
#    0.000    0.000    0.000    0.000    0.000    0.000 
#
# Total GULP energy -694248.582037 kJ/mol
# GULP energy per Si atom -12397.296108 kJ/mol
# Density = 1.791765 g / cm^3
# Si number density = 17.958524 Si / 1000 Ang^3
#
#
#
# Elastic Constant Matrix: (Units=GPa)
#
#
# Indices 1 2 3 4 5 6 
#
# 1 51.5172 28.5202 35.3384 0.0000 0.0000 0.0000
# 2 28.5202 92.4082 61.4608 0.0000 0.0000 0.0000
# 3 35.3384 61.4608 132.2555 0.0000 0.0000 0.0000
# 4 0.0000 0.0000 0.0000 35.9993 0.0000 0.0000
# 5 0.0000 0.0000 0.0000 0.0000 15.8628 0.0000
# 6 0.0000 0.0000 0.0000 0.0000 0.0000 18.7464
#
#
#
# Elastic Compliance Matrix: (Units=1/GPa)
#
#
# Indices 1 2 3 4 5 6 
#
# 1 0.025137 -0.004763 -0.004503 0.000000 0.000000 0.000000
# 2 -0.004763 0.016565 -0.006425 0.000000 0.000000 0.000000
# 3 -0.004503 -0.006425 0.011750 0.000000 0.000000 0.000000
# 4 0.000000 0.000000 0.000000 0.027778 0.000000 0.000000
# 5 0.000000 0.000000 0.000000 0.000000 0.063041 0.000000
# 6 0.000000 0.000000 0.000000 0.000000 0.000000 0.053344
#
#
# Mechanical properties :
#
#
# Convention : Reuss Voigt Hill
#
# Bulk Modulus (GPa) = 45.31194 58.53551 51.92372
# Shear Modulus (GPa) = 21.15471 24.17912 22.66692
#
# Velocity S-wave (km/s) = 3.43589 3.67330 3.55657
# Velocity P-wave (km/s) = 6.40521 7.11733 6.77064
#
# Compressibility (1/GPa) = 0.02206924
#
# Stress axis : x y z
#
# Youngs Moduli (GPa) = 39.78247 60.36803 85.10463
#
# Poissons Ratio (x) = 0.28754 0.38323
# Poissons Ratio (y) = 0.18949 0.54682
# Poissons Ratio (z) = 0.17914 0.38788
#
# Static dielectric constant tensor:
#      x y z
#    x 3.143680 0.000000 0.000000 
#    y 0.000000 3.469660 0.000000 
#    z 0.000000 0.000000 3.258580 
# 
# 
# High freq. dielectric constant tensor:
#      x y z
#    x 1.668270 0.000000 0.000000 
#    y 0.000000 1.704520 0.000000 
#    z 0.000000 0.000000 1.683970 
# 
# From -- ./inp_files/26142.got.cif
#   From: 2010.03.12/outbox.cif.g09.slc.cpg/sg59_14_cif.got.tgz:26142.got - 2010.04.16 16:29:54.
