data_PCOD8241738
_publ_section_title
;
Structure prediction by ZEFSAII (Michael W. Deem and Ramdas Pophale) SiO2 
 PCOD8241738
Probable space group: P M M N
;
_chemical_formula_sum "Si O2"
_cell_formula_units_Z 64
_cell_length_a 16.179094
_cell_length_b 13.312322
_cell_length_c 16.244629
_cell_angle_alpha 90.000000
_cell_angle_beta 90.000000
_cell_angle_gamma 90.000000
_cell_volume 3498.789458
_symmetry_space_group_name_H-M "P M M N"
_symmetry_group_IT_number 59
_space_group.IT_coordinate_system_code '2'
_symmetry_cell_setting 'orthorhombic'
loop_
_space_group_symop_operation_xyz
x,y,z
1/2-x,1/2-y,z
1/2+x,-y,-z
-x,1/2+y,-z
-x,-y,-z
1/2+x,1/2+y,-z
1/2-x,y,z
x,1/2-y,z
loop_
_atom_site_type_symbol
_atom_site_label
_atom_site_fract_x
_atom_site_fract_y
_atom_site_fract_z
Si Si1 0.924728 0.002931 0.685568
Si Si2 0.915902 0.494609 0.950955
Si Si3 0.653460 0.634044 0.820039
Si Si4 0.001511 0.866937 0.174889
Si Si5 0.547149 0.366080 0.400769
Si Si6 0.656697 0.133133 0.554579
Si Si7 0.344606 0.638520 0.757534
Si Si8 0.843790 0.972203 0.115105
O O1 0.862466 0.076885 0.639399
O O2 0.987728 0.068688 0.741435
O O3 0.871239 0.925664 0.738642
O O4 0.970336 0.939156 0.614553
O O5 0.898886 0.594453 0.897675
O O6 0.925102 0.399694 0.888897
O O7 0.844956 0.488360 0.020451
O O8 0.000000 0.500000 0.000000
O O9 0.750000 0.618377 0.838230
O O10 0.630676 0.750000 0.806626
O O11 0.011409 0.750000 0.194955
O O12 0.910224 0.884720 0.134992
O O13 0.518508 0.250000 0.407020
O O14 0.594331 0.400639 0.482804
O O15 0.607040 0.384007 0.324698
O O16 0.750000 0.108049 0.526499
O O17 0.646330 0.250000 0.572981
O O18 0.250000 0.623178 0.734119
O O19 0.362882 0.750000 0.790647
O O20 0.372726 0.565320 0.829685
O O21 0.750000 0.935872 0.134850
#
# Coordination Sequence:
#
# PCOD8241738 Si02
#       8
#     8   8   8   8   8   8   8   8
#     4  11  20  36  55  82 109 143 177 224 268 319
#     4   9  20  35  51  76 104 136 176 222 267 310
#     4  10  21  37  58  82 109 142 180 223 271 324
#     4  10  21  36  52  74 106 145 182 218 262 316
#     4  10  19  33  55  82 110 139 176 222 271 320
#     4  10  21  36  56  81 108 142 182 222 265 317
#     4   9  17  30  50  77 108 140 174 216 265 317
#     4  10  19  34  54  78 106 138 177 221 269 321
#
# _framework density 18.292041999999999
#
# number of rings (size 3 to 8) (size 9 to 14) (size 15 to 20)
#    0.000    2.125    1.250    2.250    0.000    4.250 
#    0.000    0.000    0.000    7.125    0.000    0.000 
#    0.000    0.000    0.000    0.000    0.000    0.000 
#
# Total GULP energy -793354.899882 kJ/mol
# GULP energy per Si atom -12396.170311 kJ/mol
# Density = 1.825041 g / cm^3
# Si number density = 18.292042 Si / 1000 Ang^3
#
#
#
# Elastic Constant Matrix: (Units=GPa)
#
#
# Indices 1 2 3 4 5 6 
#
# 1 70.6205 41.9816 32.9489 0.0000 0.0000 0.0000
# 2 41.9816 95.4822 45.2393 0.0000 0.0000 0.0000
# 3 32.9489 45.2393 88.1498 0.0000 0.0000 0.0000
# 4 0.0000 0.0000 0.0000 27.6414 0.0000 0.0000
# 5 0.0000 0.0000 0.0000 0.0000 -348.1197 0.0000
# 6 0.0000 0.0000 0.0000 0.0000 0.0000 7.1732
#
#
#
# Elastic Compliance Matrix: (Units=1/GPa)
#
#
# Indices 1 2 3 4 5 6 
#
# 1 0.020159 -0.006994 -0.003946 0.000000 0.000000 0.000000
# 2 -0.006994 0.016264 -0.005733 0.000000 0.000000 0.000000
# 3 -0.003946 -0.005733 0.015761 0.000000 0.000000 0.000000
# 4 0.000000 0.000000 0.000000 0.036178 0.000000 0.000000
# 5 0.000000 0.000000 0.000000 0.000000 -0.002873 0.000000
# 6 0.000000 0.000000 0.000000 0.000000 0.000000 0.139409
#
#
# Mechanical properties :
#
#
# Convention : Reuss Voigt Hill
#
# Bulk Modulus (GPa) = 53.07963 54.95467 54.01715
# Shear Modulus (GPa) = 18.90195 -53.72219 -17.41012
#
# Velocity S-wave (km/s) = 3.21805 -5.42521 -3.08845
# Velocity P-wave (km/s) = 6.54895 3.02254 4.10810
#
# Compressibility (1/GPa) = 0.01883962
#
# Stress axis : x y z
#
# Youngs Moduli (GPa) = 49.60614 61.48367 63.44663
#
# Poissons Ratio (x) = 0.43002 0.25034
# Poissons Ratio (y) = 0.34694 0.36373
# Poissons Ratio (z) = 0.19573 0.35248
#
# Static dielectric constant tensor:
#      x y z
#    x 3.489270 0.000000 0.000000 
#    y 0.000000 3.286390 0.000000 
#    z 0.000000 0.000000 3.594700 
# 
# 
# High freq. dielectric constant tensor:
#      x y z
#    x 1.707260 0.000000 0.000000 
#    y 0.000000 1.698700 0.000000 
#    z 0.000000 0.000000 1.716190 
# 
# From -- ./inp_files/23964.got.cif
#   From: 2010.03.12/outbox.cif.g09.slc.cpg/sg59_12_cif.got.tgz:23964.got - 2010.04.16 16:29:54.
