data_PCOD8241449
_publ_section_title
;
Structure prediction by ZEFSAII (Michael W. Deem and Ramdas Pophale) SiO2 
 PCOD8241449
Probable space group: P M M N
;
_chemical_formula_sum "Si O2"
_cell_formula_units_Z 56
_cell_length_a 8.948749
_cell_length_b 22.095588
_cell_length_c 14.267835
_cell_angle_alpha 90.000000
_cell_angle_beta 90.000000
_cell_angle_gamma 90.000000
_cell_volume 2821.148639
_symmetry_space_group_name_H-M "P M M N"
_symmetry_group_IT_number 59
_space_group.IT_coordinate_system_code '2'
_symmetry_cell_setting 'orthorhombic'
loop_
_space_group_symop_operation_xyz
x,y,z
1/2-x,1/2-y,z
1/2+x,-y,-z
-x,1/2+y,-z
-x,-y,-z
1/2+x,1/2+y,-z
1/2-x,y,z
x,1/2-y,z
loop_
_atom_site_type_symbol
_atom_site_label
_atom_site_fract_x
_atom_site_fract_y
_atom_site_fract_z
Si Si1 0.923757 0.037278 0.849222
Si Si2 0.073053 0.750000 0.357208
Si Si3 0.422859 0.143403 0.530722
Si Si4 0.921022 0.898360 0.837525
Si Si5 0.426349 0.750000 0.141606
Si Si6 0.424037 0.895457 0.649823
Si Si7 0.076584 0.361452 0.959336
Si Si8 0.578921 0.534024 0.338112
O O1 0.750000 0.052158 0.861899
O O2 0.017624 0.073736 0.925646
O O3 0.973540 0.057631 0.745285
O O4 0.962245 0.967097 0.864372
O O5 0.250000 0.750000 0.367130
O O6 0.021412 0.750000 0.249222
O O7 0.009059 0.809497 0.405162
O O8 0.250000 0.161848 0.526898
O O9 0.488600 0.144404 0.426199
O O10 0.446984 0.076485 0.572593
O O11 0.750000 0.895274 0.803393
O O12 0.024490 0.874580 0.753287
O O13 0.947948 0.856883 0.928633
O O14 0.250000 0.750000 0.133584
O O15 0.486891 0.690987 0.090898
O O16 0.250000 0.882272 0.638492
O O17 0.464490 0.965823 0.633543
O O18 0.250000 0.355293 0.933801
O O19 0.750000 0.536628 0.302960
#
# Coordination Sequence:
#
# PCOD8241449 Si02
#       8
#     8   4   8   8   4   8   8   8
#     4  10  19  32  54  84 117 150 185 230 280 330
#     4  11  25  43  60  81 110 143 183 230 276 325
#     4  11  22  37  58  82 111 148 187 228 276 332
#     4   9  20  37  56  82 115 150 188 230 278 331
#     4  11  25  43  62  85 112 143 183 232 280 327
#     4  10  20  35  57  85 116 148 184 230 279 329
#     4  11  22  37  58  82 112 150 189 230 277 332
#     4   9  19  34  54  83 116 150 187 227 277 335
#
# _framework density 19.850071
#
# number of rings (size 3 to 8) (size 9 to 14) (size 15 to 20)
#    0.000    1.857    0.000    3.857    0.000    6.857 
#    0.000    0.714    0.000    2.571    0.000    0.000 
#    0.000    0.000    0.000    0.000    0.000    0.000 
#
# Total GULP energy -694659.312653 kJ/mol
# GULP energy per Si atom -12404.630583 kJ/mol
# Density = 1.980489 g / cm^3
# Si number density = 19.850071 Si / 1000 Ang^3
#
#
#
# Elastic Constant Matrix: (Units=GPa)
#
#
# Indices 1 2 3 4 5 6 
#
# 1 81.9724 36.6389 59.7012 0.0000 0.0000 0.0000
# 2 36.6389 63.5833 50.9665 0.0000 0.0000 0.0000
# 3 59.7012 50.9665 133.1023 0.0000 0.0000 0.0000
# 4 0.0000 0.0000 0.0000 30.4166 0.0000 0.0000
# 5 0.0000 0.0000 0.0000 0.0000 38.1783 0.0000
# 6 0.0000 0.0000 0.0000 0.0000 0.0000 29.7280
#
#
#
# Elastic Compliance Matrix: (Units=1/GPa)
#
#
# Indices 1 2 3 4 5 6 
#
# 1 0.019652 -0.006144 -0.006462 0.000000 0.000000 0.000000
# 2 -0.006144 0.024614 -0.006669 0.000000 0.000000 0.000000
# 3 -0.006462 -0.006669 0.012965 0.000000 0.000000 0.000000
# 4 0.000000 0.000000 0.000000 0.032877 0.000000 0.000000
# 5 0.000000 0.000000 0.000000 0.000000 0.026193 0.000000
# 6 0.000000 0.000000 0.000000 0.000000 0.000000 0.033638
#
#
# Mechanical properties :
#
#
# Convention : Reuss Voigt Hill
#
# Bulk Modulus (GPa) = 53.53266 63.69681 58.61473
# Shear Modulus (GPa) = 25.67856 28.42133 27.04994
#
# Velocity S-wave (km/s) = 3.60060 3.78802 3.69550
# Velocity P-wave (km/s) = 6.65679 7.16175 6.91388
#
# Compressibility (1/GPa) = 0.01868019
#
# Stress axis : x y z
#
# Youngs Moduli (GPa) = 50.88618 40.62798 77.13122
#
# Poissons Ratio (x) = 0.24964 0.49840
# Poissons Ratio (y) = 0.31267 0.51438
# Poissons Ratio (z) = 0.32881 0.27094
#
# Static dielectric constant tensor:
#      x y z
#    x 3.662820 0.000000 0.000000 
#    y 0.000000 3.446510 0.000000 
#    z 0.000000 0.000000 3.635850 
# 
# 
# High freq. dielectric constant tensor:
#      x y z
#    x 1.783550 0.000000 0.000000 
#    y 0.000000 1.754850 0.000000 
#    z 0.000000 0.000000 1.782040 
# 
# From -- ./inp_files/21194.got.cif
#   From: 2010.03.12/outbox.cif.g09.slc.cpg/sg59_11_cif.got.tgz:21194.got - 2010.04.16 16:29:54.
