data_PCOD8241022
_publ_section_title
;
Structure prediction by ZEFSAII (Michael W. Deem and Ramdas Pophale) SiO2 
 PCOD8241022
Probable space group: P M M N
;
_chemical_formula_sum "Si O2"
_cell_formula_units_Z 56
_cell_length_a 19.395422
_cell_length_b 9.301129
_cell_length_c 17.517798
_cell_angle_alpha 90.000000
_cell_angle_beta 90.000000
_cell_angle_gamma 90.000000
_cell_volume 3160.198883
_symmetry_space_group_name_H-M "P M M N"
_symmetry_group_IT_number 59
_space_group.IT_coordinate_system_code '2'
_symmetry_cell_setting 'orthorhombic'
loop_
_space_group_symop_operation_xyz
x,y,z
1/2-x,1/2-y,z
1/2+x,-y,-z
-x,1/2+y,-z
-x,-y,-z
1/2+x,1/2+y,-z
1/2-x,y,z
x,1/2-y,z
loop_
_atom_site_type_symbol
_atom_site_label
_atom_site_fract_x
_atom_site_fract_y
_atom_site_fract_z
Si Si1 0.948464 0.413853 0.700509
Si Si2 0.827696 0.918685 0.977593
Si Si3 0.064252 0.080217 0.148751
Si Si4 0.107114 0.411318 0.720338
Si Si5 0.565548 0.419286 0.531298
Si Si6 0.172189 0.585406 0.592013
Si Si7 0.426778 0.420330 0.888555
O O1 0.929295 0.250000 0.723224
O O2 0.921772 0.519332 0.766598
O O3 0.916101 0.459358 0.619114
O O4 0.030026 0.429189 0.689447
O O5 0.750000 0.986368 0.977623
O O6 0.820725 0.750000 0.989571
O O7 0.875150 0.978849 0.046437
O O8 0.866376 0.954050 0.898553
O O9 0.049355 0.250000 0.152727
O O10 0.999540 0.003784 0.107401
O O11 0.133653 0.250000 0.710125
O O12 0.157663 0.508945 0.671814
O O13 0.110475 0.456242 0.808847
O O14 0.500000 0.500000 0.500000
O O15 0.551413 0.250000 0.525524
O O16 0.628564 0.472792 0.479306
O O17 0.250000 0.559146 0.567579
O O18 0.154592 0.750000 0.607135
O O19 0.442733 0.250000 0.895925
#
# Coordination Sequence:
#
# PCOD8241022 Si02
#       7
#     8   8   8   8   8   8   8
#     4   9  18  33  52  75 101 128 165 211 253 297
#     4   9  18  33  52  74 101 136 175 211 252 302
#     4  10  19  31  52  79 103 130 168 214 258 299
#     4   9  17  30  49  74  99 126 164 205 244 292
#     4  10  19  33  54  75  98 130 170 211 248 295
#     4  10  21  34  48  71 104 137 164 198 252 307
#     4   9  18  33  54  76 101 132 168 209 253 304
#
# _framework density 17.720403999999998
#
# number of rings (size 3 to 8) (size 9 to 14) (size 15 to 20)
#    0.000    2.571    1.429    1.714    0.000    3.714 
#    0.000    2.857    0.000    4.714    0.000    0.000 
#    0.000    0.000    0.000    0.000    0.000    0.000 
#
# Total GULP energy -694255.240099 kJ/mol
# GULP energy per Si atom -12397.415002 kJ/mol
# Density = 1.768007 g / cm^3
# Si number density = 17.720404 Si / 1000 Ang^3
#
#
#
# Elastic Constant Matrix: (Units=GPa)
#
#
# Indices 1 2 3 4 5 6 
#
# 1 88.5191 41.2062 60.0370 0.0000 0.0000 0.0000
# 2 41.2062 51.9297 44.9800 0.0000 0.0000 0.0000
# 3 60.0370 44.9800 123.8798 0.0000 0.0000 0.0000
# 4 0.0000 0.0000 0.0000 25.8226 0.0000 0.0000
# 5 0.0000 0.0000 0.0000 0.0000 23.9316 0.0000
# 6 0.0000 0.0000 0.0000 0.0000 0.0000 19.5074
#
#
#
# Elastic Compliance Matrix: (Units=1/GPa)
#
#
# Indices 1 2 3 4 5 6 
#
# 1 0.020474 -0.011162 -0.005870 0.000000 0.000000 0.000000
# 2 -0.011162 0.034177 -0.007000 0.000000 0.000000 0.000000
# 3 -0.005870 -0.007000 0.013459 0.000000 0.000000 0.000000
# 4 0.000000 0.000000 0.000000 0.038726 0.000000 0.000000
# 5 0.000000 0.000000 0.000000 0.000000 0.041786 0.000000
# 6 0.000000 0.000000 0.000000 0.000000 0.000000 0.051263
#
#
# Mechanical properties :
#
#
# Convention : Reuss Voigt Hill
#
# Bulk Modulus (GPa) = 49.88407 61.86389 55.87398
# Shear Modulus (GPa) = 19.63642 21.72601 20.68122
#
# Velocity S-wave (km/s) = 3.33246 3.50529 3.41997
# Velocity P-wave (km/s) = 6.55887 7.16726 6.86981
#
# Compressibility (1/GPa) = 0.02004648
#
# Stress axis : x y z
#
# Youngs Moduli (GPa) = 48.84242 29.25949 74.30174
#
# Poissons Ratio (x) = 0.32659 0.43613
# Poissons Ratio (y) = 0.54518 0.52011
# Poissons Ratio (z) = 0.28669 0.20481
#
# Static dielectric constant tensor:
#      x y z
#    x 3.271280 0.000000 0.000000 
#    y 0.000000 3.157900 0.000000 
#    z 0.000000 0.000000 3.551460 
# 
# 
# High freq. dielectric constant tensor:
#      x y z
#    x 1.666690 0.000000 0.000000 
#    y 0.000000 1.667810 0.000000 
#    z 0.000000 0.000000 1.699130 
# 
# From -- ./inp_files/28097.got.cif
#   From: 2010.03.12/outbox.cif.g09.slc.cpg/sg59_15_cif.got.tgz:28097.got - 2010.04.16 16:29:54.
