data_PCOD8241639
_publ_section_title
;
Structure prediction by ZEFSAII (Michael W. Deem and Ramdas Pophale) SiO2 
 PCOD8241639
Probable space group: P M M N
;
_chemical_formula_sum "Si O2"
_cell_formula_units_Z 64
_cell_length_a 8.971941
_cell_length_b 18.055931
_cell_length_c 21.394688
_cell_angle_alpha 90.000000
_cell_angle_beta 90.000000
_cell_angle_gamma 90.000000
_cell_volume 3465.869873
_symmetry_space_group_name_H-M "P M M N"
_symmetry_group_IT_number 59
_space_group.IT_coordinate_system_code '2'
_symmetry_cell_setting 'orthorhombic'
loop_
_space_group_symop_operation_xyz
x,y,z
1/2-x,1/2-y,z
1/2+x,-y,-z
-x,1/2+y,-z
-x,-y,-z
1/2+x,1/2+y,-z
1/2-x,y,z
x,1/2-y,z
loop_
_atom_site_type_symbol
_atom_site_label
_atom_site_fract_x
_atom_site_fract_y
_atom_site_fract_z
Si Si1 0.423184 0.542480 0.189257
Si Si2 0.575392 0.407509 0.250367
Si Si3 0.572996 0.833074 0.504673
Si Si4 0.426719 0.078854 0.374320
Si Si5 0.077117 0.164943 0.743035
Si Si6 0.424387 0.420658 0.616745
Si Si7 0.076301 0.665737 0.877571
Si Si8 0.577243 0.532509 0.939703
O O1 0.250000 0.532778 0.205768
O O2 0.518998 0.489433 0.233750
O O3 0.479083 0.625327 0.203251
O O4 0.454086 0.523769 0.117039
O O5 0.750000 0.411788 0.263513
O O6 0.492839 0.380513 0.312959
O O7 0.535269 0.351322 0.194465
O O8 0.750000 0.829261 0.504152
O O9 0.506427 0.750000 0.504151
O O10 0.515175 0.875537 0.566036
O O11 0.516804 0.876985 0.443925
O O12 0.250000 0.078883 0.370002
O O13 0.483754 0.995516 0.378275
O O14 0.250000 0.155898 0.760234
O O15 0.028353 0.250000 0.741915
O O16 0.041038 0.131036 0.675629
O O17 0.250000 0.440019 0.611813
O O18 0.250000 0.650835 0.888974
O O19 0.032002 0.750000 0.892187
O O20 0.985739 0.613739 0.924386
O O21 0.750000 0.541466 0.953883
O O22 0.500000 0.500000 0.000000
#
# Coordination Sequence:
#
# PCOD8241639 Si02
#       8
#     8   8   8   8   8   8   8   8
#     4  10  20  35  55  80 110 140 175 219 266 315
#     4  10  19  33  54  78 106 142 180 218 266 324
#     4   9  19  35  52  72 101 138 179 223 272 325
#     4  11  21  32  51  78 106 137 176 224 273 324
#     4  10  20  33  53  81 108 138 178 222 270 324
#     4  10  19  34  56  76  99 137 181 222 268 326
#     4   9  19  36  58  84 114 147 184 229 278 324
#     4  10  21  37  59  86 114 150 190 225 266 318
#
# _framework density 18.465782000000001
#
# number of rings (size 3 to 8) (size 9 to 14) (size 15 to 20)
#    0.000    2.125    1.250    2.250    0.000    4.500 
#    0.000    1.250    0.000    4.500    0.000    0.000 
#    0.000    0.000    0.000    0.000    0.000    0.000 
#
# Total GULP energy -793779.676311 kJ/mol
# GULP energy per Si atom -12402.807442 kJ/mol
# Density = 1.842375 g / cm^3
# Si number density = 18.465782 Si / 1000 Ang^3
#
#
#
# Elastic Constant Matrix: (Units=GPa)
#
#
# Indices 1 2 3 4 5 6 
#
# 1 70.5921 48.4796 54.6799 0.0000 0.0000 0.0000
# 2 48.4796 111.3883 64.1559 0.0000 0.0000 0.0000
# 3 54.6799 64.1559 128.7002 0.0000 0.0000 0.0000
# 4 0.0000 0.0000 0.0000 25.5846 0.0000 0.0000
# 5 0.0000 0.0000 0.0000 0.0000 29.8096 0.0000
# 6 0.0000 0.0000 0.0000 0.0000 0.0000 24.3273
#
#
#
# Elastic Compliance Matrix: (Units=1/GPa)
#
#
# Indices 1 2 3 4 5 6 
#
# 1 0.023987 -0.006411 -0.006996 0.000000 0.000000 0.000000
# 2 -0.006411 0.014307 -0.004408 0.000000 0.000000 0.000000
# 3 -0.006996 -0.004408 0.012940 0.000000 0.000000 0.000000
# 4 0.000000 0.000000 0.000000 0.039086 0.000000 0.000000
# 5 0.000000 0.000000 0.000000 0.000000 0.033546 0.000000
# 6 0.000000 0.000000 0.000000 0.000000 0.000000 0.041106
#
#
# Mechanical properties :
#
#
# Convention : Reuss Voigt Hill
#
# Bulk Modulus (GPa) = 64.08346 71.70126 67.89236
# Shear Modulus (GPa) = 24.29520 25.50198 24.89859
#
# Velocity S-wave (km/s) = 3.63118 3.72027 3.67599
# Velocity P-wave (km/s) = 7.23601 7.57413 7.40700
#
# Compressibility (1/GPa) = 0.01560465
#
# Stress axis : x y z
#
# Youngs Moduli (GPa) = 41.68886 69.89756 77.28270
#
# Poissons Ratio (x) = 0.44810 0.54063
# Poissons Ratio (y) = 0.26726 0.34067
# Poissons Ratio (z) = 0.29164 0.30811
#
# Static dielectric constant tensor:
#      x y z
#    x 3.299690 0.000000 0.000000 
#    y 0.000000 3.490460 0.000000 
#    z 0.000000 0.000000 3.522260 
# 
# 
# High freq. dielectric constant tensor:
#      x y z
#    x 1.707700 0.000000 0.000000 
#    y 0.000000 1.713910 0.000000 
#    z 0.000000 0.000000 1.719150 
# 
# From -- ./inp_files/29601.got.cif
#   From: 2010.03.12/outbox.cif.g09.slc.cpg/sg59_15_cif.got.tgz:29601.got - 2010.04.16 16:29:54.
