data_PCOD8241900
_publ_section_title
;
Structure prediction by ZEFSAII (Michael W. Deem and Ramdas Pophale) SiO2 
 PCOD8241900
Probable space group: P M M N
;
_chemical_formula_sum "Si O2"
_cell_formula_units_Z 56
_cell_length_a 19.396156
_cell_length_b 9.163873
_cell_length_c 17.460714
_cell_angle_alpha 90.000000
_cell_angle_beta 90.000000
_cell_angle_gamma 90.000000
_cell_volume 3103.535583
_symmetry_space_group_name_H-M "P M M N"
_symmetry_group_IT_number 59
_space_group.IT_coordinate_system_code '2'
_symmetry_cell_setting 'orthorhombic'
loop_
_space_group_symop_operation_xyz
x,y,z
1/2-x,1/2-y,z
1/2+x,-y,-z
-x,1/2+y,-z
-x,-y,-z
1/2+x,1/2+y,-z
1/2-x,y,z
x,1/2-y,z
loop_
_atom_site_type_symbol
_atom_site_label
_atom_site_fract_x
_atom_site_fract_y
_atom_site_fract_z
Si Si1 0.829876 0.918208 0.325472
Si Si2 0.330354 0.581755 0.120104
Si Si3 0.173608 0.923260 0.949996
Si Si4 0.554274 0.582095 0.598043
Si Si5 0.065959 0.421285 0.228130
Si Si6 0.099893 0.918521 0.545018
Si Si7 0.587259 0.076969 0.193326
O O1 0.750000 0.933782 0.304807
O O2 0.852802 0.750000 0.329576
O O3 0.843347 0.992978 0.407373
O O4 0.873070 0.999597 0.261285
O O5 0.250000 0.558221 0.137265
O O6 0.350943 0.750000 0.127328
O O7 0.372885 0.493817 0.182001
O O8 0.348243 0.522360 0.034674
O O9 0.250000 0.983517 0.929117
O O10 0.176880 0.750000 0.951772
O O11 0.118841 0.977863 0.887301
O O12 0.574247 0.750000 0.583277
O O13 0.572372 0.531121 0.683538
O O14 0.473051 0.559119 0.586584
O O15 0.597878 0.481656 0.540805
O O16 0.074069 0.250000 0.220195
O O17 0.992331 0.470863 0.194152
O O18 0.121387 0.750000 0.541022
O O19 0.595689 0.250000 0.205250
#
# Coordination Sequence:
#
# PCOD8241900 Si02
#       7
#     8   8   8   8   8   8   8
#     4  11  23  36  51  77 114 149 179 219 271 319
#     4   9  19  36  55  76 103 138 182 225 267 320
#     4   8  15  30  53  77 103 140 182 222 264 311
#     4   9  18  34  53  77 108 136 168 216 267 314
#     4  10  20  34  53  81 112 138 172 220 272 322
#     4  10  19  34  56  79 101 136 182 218 255 312
#     4  10  19  34  55  80 107 140 183 223 263 321
#
# _framework density 18.043937
#
# number of rings (size 3 to 8) (size 9 to 14) (size 15 to 20)
#    0.000    2.429    1.429    2.143    0.000    4.286 
#    0.000    1.429    0.000    1.714    0.000    0.000 
#    0.000    0.000    0.000    0.000    0.000    0.000 
#
# Total GULP energy -694427.054846 kJ/mol
# GULP energy per Si atom -12400.483122 kJ/mol
# Density = 1.800287 g / cm^3
# Si number density = 18.043937 Si / 1000 Ang^3
#
#
#
# Elastic Constant Matrix: (Units=GPa)
#
#
# Indices 1 2 3 4 5 6 
#
# 1 66.3614 30.1211 61.7080 0.0000 0.0000 0.0000
# 2 30.1211 51.6787 45.1457 0.0000 0.0000 0.0000
# 3 61.7080 45.1457 145.7151 0.0000 0.0000 0.0000
# 4 0.0000 0.0000 0.0000 26.8529 0.0000 0.0000
# 5 0.0000 0.0000 0.0000 0.0000 21.5913 0.0000
# 6 0.0000 0.0000 0.0000 0.0000 0.0000 25.0251
#
#
#
# Elastic Compliance Matrix: (Units=1/GPa)
#
#
# Indices 1 2 3 4 5 6 
#
# 1 0.027014 -0.007886 -0.008997 0.000000 0.000000 0.000000
# 2 -0.007886 0.028833 -0.005594 0.000000 0.000000 0.000000
# 3 -0.008997 -0.005594 0.012406 0.000000 0.000000 0.000000
# 4 0.000000 0.000000 0.000000 0.037240 0.000000 0.000000
# 5 0.000000 0.000000 0.000000 0.000000 0.046315 0.000000
# 6 0.000000 0.000000 0.000000 0.000000 0.000000 0.039960
#
#
# Mechanical properties :
#
#
# Convention : Reuss Voigt Hill
#
# Bulk Modulus (GPa) = 42.91749 59.74496 51.33123
# Shear Modulus (GPa) = 20.45093 23.14589 21.79841
#
# Velocity S-wave (km/s) = 3.37025 3.58544 3.47951
# Velocity P-wave (km/s) = 6.24351 7.09388 6.68224
#
# Compressibility (1/GPa) = 0.02330052
#
# Stress axis : x y z
#
# Youngs Moduli (GPa) = 37.01727 34.68238 80.60745
#
# Poissons Ratio (x) = 0.27350 0.72522
# Poissons Ratio (y) = 0.29191 0.45088
# Poissons Ratio (z) = 0.33304 0.19400
#
# Static dielectric constant tensor:
#      x y z
#    x 3.309450 0.000000 0.000000 
#    y 0.000000 3.191150 0.000000 
#    z 0.000000 0.000000 3.544030 
# 
# 
# High freq. dielectric constant tensor:
#      x y z
#    x 1.686250 0.000000 0.000000 
#    y 0.000000 1.683930 0.000000 
#    z 0.000000 0.000000 1.709560 
# 
# From -- ./inp_files/28045.got.cif
#   From: 2010.03.12/outbox.cif.g09.slc.cpg/sg59_15_cif.got.tgz:28045.got - 2010.04.16 16:29:54.
