data_PCOD8241466
_publ_section_title
;
Structure prediction by ZEFSAII (Michael W. Deem and Ramdas Pophale) SiO2 
 PCOD8241466
Probable space group: P M M N
;
_chemical_formula_sum "Si O2"
_cell_formula_units_Z 48
_cell_length_a 17.246058
_cell_length_b 13.511436
_cell_length_c 10.311841
_cell_angle_alpha 90.000000
_cell_angle_beta 90.000000
_cell_angle_gamma 90.000000
_cell_volume 2402.854970
_symmetry_space_group_name_H-M "P M M N"
_symmetry_group_IT_number 59
_space_group.IT_coordinate_system_code '2'
_symmetry_cell_setting 'orthorhombic'
loop_
_space_group_symop_operation_xyz
x,y,z
1/2-x,1/2-y,z
1/2+x,-y,-z
-x,1/2+y,-z
-x,-y,-z
1/2+x,1/2+y,-z
1/2-x,y,z
x,1/2-y,z
loop_
_atom_site_type_symbol
_atom_site_label
_atom_site_fract_x
_atom_site_fract_y
_atom_site_fract_z
Si Si1 0.076167 0.863364 0.180522
Si Si2 0.088372 0.448264 0.833725
Si Si3 0.159850 0.638169 0.913729
Si Si4 0.658899 0.858744 0.913996
Si Si5 0.658389 0.514965 0.671701
Si Si6 0.339781 0.135766 0.578934
O O1 0.053373 0.750000 0.209606
O O2 0.001233 0.926602 0.138248
O O3 0.115447 0.909267 0.310473
O O4 0.137911 0.872179 0.064658
O O5 0.107282 0.565696 0.824451
O O6 0.110037 0.392162 0.702677
O O7 0.140193 0.410034 0.951247
O O8 0.250000 0.609918 0.899202
O O9 0.144172 0.750000 0.865365
O O10 0.750000 0.848740 0.900352
O O11 0.620134 0.750000 0.911039
O O12 0.627349 0.920037 0.792197
O O13 0.750000 0.499099 0.673089
O O14 0.631799 0.567985 0.540018
O O15 0.250000 0.116265 0.610509
O O16 0.353704 0.250000 0.541536
#
# Coordination Sequence:
#
# PCOD8241466 Si02
#       6
#     8   8   8   8   8   8
#     4  11  23  38  59  87 121 157 197 245 299 352
#     4  12  22  37  58  89 120 153 191 241 299 357
#     4  10  21  38  60  86 117 155 198 244 295 349
#     4  10  19  32  55  85 114 147 193 245 289 341
#     4  10  21  38  58  82 113 156 206 247 288 344
#     4  10  21  38  60  86 119 157 193 239 300 356
#
# _framework density 19.976237000000001
#
# number of rings (size 3 to 8) (size 9 to 14) (size 15 to 20)
#    0.000    1.500    1.667    4.500    0.000    5.000 
#    0.000    1.667    0.000    1.000    0.000    0.000 
#    0.000    0.000    0.000    0.000    0.000    0.000 
#
# Total GULP energy -595297.220051 kJ/mol
# GULP energy per Si atom -12402.025418 kJ/mol
# Density = 1.993077 g / cm^3
# Si number density = 19.976237 Si / 1000 Ang^3
#
#
#
# Elastic Constant Matrix: (Units=GPa)
#
#
# Indices 1 2 3 4 5 6 
#
# 1 55.6744 49.6578 15.8270 0.0000 0.0000 0.0000
# 2 49.6578 116.1160 24.4878 0.0000 0.0000 0.0000
# 3 15.8270 24.4878 88.7633 0.0000 0.0000 0.0000
# 4 0.0000 0.0000 0.0000 30.8103 0.0000 0.0000
# 5 0.0000 0.0000 0.0000 0.0000 14.5075 0.0000
# 6 0.0000 0.0000 0.0000 0.0000 0.0000 32.7593
#
#
#
# Elastic Compliance Matrix: (Units=1/GPa)
#
#
# Indices 1 2 3 4 5 6 
#
# 1 0.029330 -0.012147 -0.001879 0.000000 0.000000 0.000000
# 2 -0.012147 0.014175 -0.001745 0.000000 0.000000 0.000000
# 3 -0.001879 -0.001745 0.012082 0.000000 0.000000 0.000000
# 4 0.000000 0.000000 0.000000 0.032457 0.000000 0.000000
# 5 0.000000 0.000000 0.000000 0.000000 0.068930 0.000000
# 6 0.000000 0.000000 0.000000 0.000000 0.000000 0.030526
#
#
# Mechanical properties :
#
#
# Convention : Reuss Voigt Hill
#
# Bulk Modulus (GPa) = 41.58622 48.94433 45.26527
# Shear Modulus (GPa) = 22.02111 26.98748 24.50430
#
# Velocity S-wave (km/s) = 3.32379 3.67955 3.50619
# Velocity P-wave (km/s) = 5.96600 6.52738 6.25299
#
# Compressibility (1/GPa) = 0.02404643
#
# Stress axis : x y z
#
# Youngs Moduli (GPa) = 34.09494 70.54816 82.76643
#
# Poissons Ratio (x) = 0.85694 0.15549
# Poissons Ratio (y) = 0.41415 0.14440
# Poissons Ratio (z) = 0.06405 0.12308
#
# Static dielectric constant tensor:
#      x y z
#    x 3.515700 0.000000 0.000000 
#    y 0.000000 4.109980 0.000000 
#    z 0.000000 0.000000 3.467850 
# 
# 
# High freq. dielectric constant tensor:
#      x y z
#    x 1.771160 0.000000 0.000000 
#    y 0.000000 1.796210 0.000000 
#    z 0.000000 0.000000 1.756960 
# 
# From -- ./inp_files/10241.got.cif
#   From: 2010.03.12/outbox.cif.g09.slc.cpg/sg59_6_cif.got.tgz:10241.got - 2010.04.16 16:29:54.
