data_PCOD8241281
_publ_section_title
;
Structure prediction by ZEFSAII (Michael W. Deem and Ramdas Pophale) SiO2 
 PCOD8241281
Probable space group: P M M N
;
_chemical_formula_sum "Si O2"
_cell_formula_units_Z 40
_cell_length_a 25.182542
_cell_length_b 9.062400
_cell_length_c 9.784609
_cell_angle_alpha 90.000000
_cell_angle_beta 90.000000
_cell_angle_gamma 90.000000
_cell_volume 2232.987387
_symmetry_space_group_name_H-M "P M M N"
_symmetry_group_IT_number 59
_space_group.IT_coordinate_system_code '2'
_symmetry_cell_setting 'orthorhombic'
loop_
_space_group_symop_operation_xyz
x,y,z
1/2-x,1/2-y,z
1/2+x,-y,-z
-x,1/2+y,-z
-x,-y,-z
1/2+x,1/2+y,-z
1/2-x,y,z
x,1/2-y,z
loop_
_atom_site_type_symbol
_atom_site_label
_atom_site_fract_x
_atom_site_fract_y
_atom_site_fract_z
Si Si1 0.562753 0.921351 0.143367
Si Si2 0.750000 0.917629 0.332084
Si Si3 0.353534 0.578919 0.350328
Si Si4 0.750000 0.915583 0.657116
Si Si5 0.059661 0.579941 0.132565
Si Si6 0.855849 0.075919 0.335662
O O1 0.577809 0.750000 0.154375
O O2 0.500955 0.950498 0.173587
O O3 0.594082 0.013387 0.255631
O O4 0.577759 0.978260 0.992843
O O5 0.750000 0.750000 0.277250
O O6 0.750000 0.923058 0.494523
O O7 0.802202 0.001343 0.277405
O O8 0.339617 0.750000 0.340708
O O9 0.302878 0.494525 0.287724
O O10 0.405151 0.536560 0.263048
O O11 0.364888 0.533198 0.506264
O O12 0.750000 0.750000 0.713130
O O13 0.067777 0.750000 0.089582
O O14 0.851330 0.250000 0.313797
#
# Coordination Sequence:
#
# PCOD8241281 Si02
#       6
#     8   4   8   4   8   8
#     4  10  20  34  52  74 101 133 168 208 253 298
#     4   9  17  31  50  73 102 133 164 202 248 293
#     4   9  18  33  53  75 100 132 168 204 244 295
#     4   9  17  29  48  75 104 131 160 200 250 297
#     4   9  19  36  54  72  98 133 171 209 251 299
#     4  10  19  32  52  77 103 132 166 203 246 298
#
# _framework density 17.913224
#
# number of rings (size 3 to 8) (size 9 to 14) (size 15 to 20)
#    0.000    2.600    0.000    1.800    0.000    5.600 
#    0.000    1.000    0.000    3.600    0.000    0.000 
#    0.000    0.000    0.000    0.000    0.000    0.000 
#
# Total GULP energy -496084.418315 kJ/mol
# GULP energy per Si atom -12402.110458 kJ/mol
# Density = 1.787245 g / cm^3
# Si number density = 17.913224 Si / 1000 Ang^3
#
#
#
# Elastic Constant Matrix: (Units=GPa)
#
#
# Indices 1 2 3 4 5 6 
#
# 1 120.7802 62.7296 64.7888 0.0000 0.0000 0.0000
# 2 62.7296 99.3227 48.1038 0.0000 0.0000 0.0000
# 3 64.7888 48.1038 74.4246 0.0000 0.0000 0.0000
# 4 0.0000 0.0000 0.0000 26.1262 0.0000 0.0000
# 5 0.0000 0.0000 0.0000 0.0000 8.4493 0.0000
# 6 0.0000 0.0000 0.0000 0.0000 0.0000 35.4026
#
#
#
# Elastic Compliance Matrix: (Units=1/GPa)
#
#
# Indices 1 2 3 4 5 6 
#
# 1 0.017240 -0.005269 -0.011602 0.000000 0.000000 0.000000
# 2 -0.005269 0.016266 -0.005927 0.000000 0.000000 0.000000
# 3 -0.011602 -0.005927 0.027367 0.000000 0.000000 0.000000
# 4 0.000000 0.000000 0.000000 0.038276 0.000000 0.000000
# 5 0.000000 0.000000 0.000000 0.000000 0.118353 0.000000
# 6 0.000000 0.000000 0.000000 0.000000 0.000000 0.028247
#
#
# Mechanical properties :
#
#
# Convention : Reuss Voigt Hill
#
# Bulk Modulus (GPa) = 65.45624 71.75243 68.60434
# Shear Modulus (GPa) = 16.86701 21.92263 19.39482
#
# Velocity S-wave (km/s) = 3.07187 3.50211 3.29403
# Velocity P-wave (km/s) = 7.01441 7.51636 7.26972
#
# Compressibility (1/GPa) = 0.01527738
#
# Stress axis : x y z
#
# Youngs Moduli (GPa) = 58.00590 61.47624 36.54027
#
# Poissons Ratio (x) = 0.32392 0.42394
# Poissons Ratio (y) = 0.30564 0.21657
# Poissons Ratio (z) = 0.67298 0.36436
#
# Static dielectric constant tensor:
#      x y z
#    x 3.408260 0.000000 0.000000 
#    y 0.000000 3.419750 0.000000 
#    z 0.000000 0.000000 3.096520 
# 
# 
# High freq. dielectric constant tensor:
#      x y z
#    x 1.701010 0.000000 0.000000 
#    y 0.000000 1.703310 0.000000 
#    z 0.000000 0.000000 1.666590 
# 
# From -- ./inp_files/5901.got.cif
#   From: 2010.03.12/outbox.cif.g09.slc.cpg/sg59_3_cif.got.tgz:5901.got - 2010.04.16 16:29:54.
