data_PCOD8241201
_publ_section_title
;
Structure prediction by ZEFSAII (Michael W. Deem and Ramdas Pophale) SiO2 
 PCOD8241201
Probable space group: P M M N
;
_chemical_formula_sum "Si O2"
_cell_formula_units_Z 64
_cell_length_a 9.299932
_cell_length_b 22.986705
_cell_length_c 15.639007
_cell_angle_alpha 90.000000
_cell_angle_beta 90.000000
_cell_angle_gamma 90.000000
_cell_volume 3343.225490
_symmetry_space_group_name_H-M "P M M N"
_symmetry_group_IT_number 59
_space_group.IT_coordinate_system_code '2'
_symmetry_cell_setting 'orthorhombic'
loop_
_space_group_symop_operation_xyz
x,y,z
1/2-x,1/2-y,z
1/2+x,-y,-z
-x,1/2+y,-z
-x,-y,-z
1/2+x,1/2+y,-z
1/2-x,y,z
x,1/2-y,z
loop_
_atom_site_type_symbol
_atom_site_label
_atom_site_fract_x
_atom_site_fract_y
_atom_site_fract_z
Si Si1 0.084616 0.035377 0.884907
Si Si2 0.920421 0.686922 0.511911
Si Si3 0.913387 0.501517 0.587809
Si Si4 0.919372 0.617402 0.673354
Si Si5 0.418977 0.681882 0.826458
Si Si6 0.585776 0.088951 0.032816
Si Si7 0.584760 0.817113 0.321766
Si Si8 0.914459 0.081935 0.734953
O O1 0.250000 0.052527 0.872805
O O2 0.999542 0.038967 0.796791
O O3 0.065957 0.968472 0.910393
O O4 0.018070 0.081855 0.951719
O O5 0.750000 0.689953 0.509448
O O6 0.983619 0.750000 0.535784
O O7 0.975380 0.643507 0.583715
O O8 0.971999 0.669301 0.417449
O O9 0.750000 0.514697 0.560453
O O10 0.960050 0.549923 0.658780
O O11 0.929588 0.440874 0.637578
O O12 0.000000 0.500000 0.500000
O O13 0.750000 0.627162 0.689437
O O14 0.001337 0.648826 0.749947
O O15 0.250000 0.677769 0.808201
O O16 0.466989 0.750000 0.834130
O O17 0.457315 0.646768 0.913500
O O18 0.750000 0.094023 0.000678
O O19 0.750000 0.836199 0.310581
O O20 0.564995 0.750000 0.297946
O O21 0.485384 0.854347 0.258551
O O22 0.750000 0.085139 0.764603
#
# Coordination Sequence:
#
# PCOD8241201 Si02
#       8
#     8   8   8   8   8   8   8   8
#     4  10  20  35  59  85 105 134 177 221 266 319
#     4   8  14  26  46  70  94 126 171 218 258 295
#     4  10  22  36  52  78 111 148 187 229 275 321
#     4  10  19  32  51  75 105 142 184 225 265 313
#     4  10  21  36  54  79 112 147 180 217 270 335
#     4   9  19  37  58  80 107 137 171 217 272 325
#     4   9  18  34  55  75  97 131 176 221 261 306
#     4  11  22  35  52  78 111 141 172 213 265 321
#
# _framework density 19.143189
#
# number of rings (size 3 to 8) (size 9 to 14) (size 15 to 20)
#    0.000    2.375    0.000    3.375    0.000    4.500 
#    0.000    1.250    0.000    3.000    0.000    0.000 
#    0.000    0.000    0.000    0.000    0.000    0.000 
#
# Total GULP energy -793268.618778 kJ/mol
# GULP energy per Si atom -12394.822168 kJ/mol
# Density = 1.909962 g / cm^3
# Si number density = 19.143189 Si / 1000 Ang^3
#
#
#
# Elastic Constant Matrix: (Units=GPa)
#
#
# Indices 1 2 3 4 5 6 
#
# 1 88.6679 43.9989 46.1604 0.0000 0.0000 0.0000
# 2 43.9989 101.2299 33.7612 0.0000 0.0000 0.0000
# 3 46.1604 33.7612 71.8639 0.0000 0.0000 0.0000
# 4 0.0000 0.0000 0.0000 31.2553 0.0000 0.0000
# 5 0.0000 0.0000 0.0000 0.0000 36.0924 0.0000
# 6 0.0000 0.0000 0.0000 0.0000 0.0000 26.1718
#
#
#
# Elastic Compliance Matrix: (Units=1/GPa)
#
#
# Indices 1 2 3 4 5 6 
#
# 1 0.018802 -0.004914 -0.009768 0.000000 0.000000 0.000000
# 2 -0.004914 0.012998 -0.002950 0.000000 0.000000 0.000000
# 3 -0.009768 -0.002950 0.021576 0.000000 0.000000 0.000000
# 4 0.000000 0.000000 0.000000 0.031995 0.000000 0.000000
# 5 0.000000 0.000000 0.000000 0.000000 0.027707 0.000000
# 6 0.000000 0.000000 0.000000 0.000000 0.000000 0.038209
#
#
# Mechanical properties :
#
#
# Convention : Reuss Voigt Hill
#
# Bulk Modulus (GPa) = 55.21606 56.62251 55.91929
# Shear Modulus (GPa) = 25.96210 27.89331 26.92771
#
# Velocity S-wave (km/s) = 3.68666 3.82132 3.75460
# Velocity P-wave (km/s) = 6.85772 7.00804 6.93329
#
# Compressibility (1/GPa) = 0.01811067
#
# Stress axis : x y z
#
# Youngs Moduli (GPa) = 53.18562 76.93311 46.34867
#
# Poissons Ratio (x) = 0.37808 0.45275
# Poissons Ratio (y) = 0.26137 0.13672
# Poissons Ratio (z) = 0.51954 0.22694
#
# Static dielectric constant tensor:
#      x y z
#    x 3.358090 0.000000 0.000000 
#    y 0.000000 3.670010 0.000000 
#    z 0.000000 0.000000 3.418800 
# 
# 
# High freq. dielectric constant tensor:
#      x y z
#    x 1.728840 0.000000 0.000000 
#    y 0.000000 1.750200 0.000000 
#    z 0.000000 0.000000 1.736180 
# 
# From -- ./inp_files/21432.got.cif
#   From: 2010.03.12/outbox.cif.g09.slc.cpg/sg59_11_cif.got.tgz:21432.got - 2010.04.16 16:29:54.
