data_PCOD8241933
_publ_section_title
;
Structure prediction by ZEFSAII (Michael W. Deem and Ramdas Pophale) SiO2 
 PCOD8241933
Probable space group: P M M N
;
_chemical_formula_sum "Si O2"
_cell_formula_units_Z 64
_cell_length_a 9.199172
_cell_length_b 18.953698
_cell_length_c 19.960245
_cell_angle_alpha 90.000000
_cell_angle_beta 90.000000
_cell_angle_gamma 90.000000
_cell_volume 3480.234943
_symmetry_space_group_name_H-M "P M M N"
_symmetry_group_IT_number 59
_space_group.IT_coordinate_system_code '2'
_symmetry_cell_setting 'orthorhombic'
loop_
_space_group_symop_operation_xyz
x,y,z
1/2-x,1/2-y,z
1/2+x,-y,-z
-x,1/2+y,-z
-x,-y,-z
1/2+x,1/2+y,-z
1/2-x,y,z
x,1/2-y,z
loop_
_atom_site_type_symbol
_atom_site_label
_atom_site_fract_x
_atom_site_fract_y
_atom_site_fract_z
Si Si1 0.418960 0.667406 0.160819
Si Si2 0.083432 0.055239 0.585583
Si Si3 0.081157 0.831404 0.899949
Si Si4 0.418077 0.588163 0.766300
Si Si5 0.917083 0.669386 0.652012
Si Si6 0.417912 0.601899 0.537834
Si Si7 0.082551 0.428380 0.739248
Si Si8 0.586024 0.833874 0.030158
O O1 0.250000 0.650665 0.152170
O O2 0.447888 0.750000 0.170998
O O3 0.480191 0.628215 0.225593
O O4 0.500513 0.637998 0.094994
O O5 0.250000 0.074735 0.570456
O O6 0.040033 0.072434 0.661327
O O7 0.982378 0.101395 0.537052
O O8 0.056820 0.972681 0.573923
O O9 0.250000 0.840140 0.917364
O O10 0.043006 0.750000 0.884606
O O11 0.035041 0.877451 0.836317
O O12 0.991341 0.861377 0.962889
O O13 0.250000 0.604531 0.749194
O O14 0.514716 0.620185 0.708158
O O15 0.446070 0.504978 0.771043
O O16 0.750000 0.647682 0.642397
O O17 0.933351 0.750000 0.675110
O O18 0.998638 0.659988 0.581416
O O19 0.250000 0.622708 0.533408
O O20 0.250000 0.406434 0.749225
O O21 0.750000 0.863272 0.032489
O O22 0.582956 0.750000 0.030053
#
# Coordination Sequence:
#
# PCOD8241933 Si02
#       8
#     8   8   8   8   8   8   8   8
#     4  10  21  37  57  81 107 135 174 223 273 328
#     4   9  18  34  55  80 108 137 173 219 268 318
#     4   9  17  30  51  78 108 143 180 220 265 312
#     4  10  20  36  55  79 110 146 186 224 267 323
#     4  11  23  36  52  78 113 150 187 229 274 318
#     4  10  19  34  56  80 104 137 182 224 265 317
#     4  10  20  36  57  82 111 141 177 220 269 326
#     4   9  17  31  53  78 104 137 178 222 268 320
#
# _framework density 18.389562000000002
#
# number of rings (size 3 to 8) (size 9 to 14) (size 15 to 20)
#    0.000    2.250    1.250    1.875    0.000    5.750 
#    0.000    2.500    0.000    0.750    0.000    0.000 
#    0.000    0.000    0.000    0.000    0.000    0.000 
#
# Total GULP energy -793823.884301 kJ/mol
# GULP energy per Si atom -12403.498192 kJ/mol
# Density = 1.834771 g / cm^3
# Si number density = 18.389562 Si / 1000 Ang^3
#
#
#
# Elastic Constant Matrix: (Units=GPa)
#
#
# Indices 1 2 3 4 5 6 
#
# 1 113.2264 40.7587 74.5312 0.0000 0.0000 0.0000
# 2 40.7587 46.8763 44.7811 0.0000 0.0000 0.0000
# 3 74.5312 44.7811 143.2721 0.0000 0.0000 0.0000
# 4 0.0000 0.0000 0.0000 28.9062 0.0000 0.0000
# 5 0.0000 0.0000 0.0000 0.0000 40.0656 0.0000
# 6 0.0000 0.0000 0.0000 0.0000 0.0000 22.9342
#
#
#
# Elastic Compliance Matrix: (Units=1/GPa)
#
#
# Indices 1 2 3 4 5 6 
#
# 1 0.015342 -0.008149 -0.005434 0.000000 0.000000 0.000000
# 2 -0.008149 0.034742 -0.006620 0.000000 0.000000 0.000000
# 3 -0.005434 -0.006620 0.011876 0.000000 0.000000 0.000000
# 4 0.000000 0.000000 0.000000 0.034595 0.000000 0.000000
# 5 0.000000 0.000000 0.000000 0.000000 0.024959 0.000000
# 6 0.000000 0.000000 0.000000 0.000000 0.000000 0.043603
#
#
# Mechanical properties :
#
#
# Convention : Reuss Voigt Hill
#
# Bulk Modulus (GPa) = 46.39431 69.27966 57.83699
# Shear Modulus (GPa) = 23.50647 27.93478 25.72063
#
# Velocity S-wave (km/s) = 3.57914 3.90174 3.74391
# Velocity P-wave (km/s) = 6.50874 7.61927 7.08579
#
# Compressibility (1/GPa) = 0.02155437
#
# Stress axis : x y z
#
# Youngs Moduli (GPa) = 65.17947 28.78354 84.20509
#
# Poissons Ratio (x) = 0.23455 0.45759
# Poissons Ratio (y) = 0.53113 0.55743
# Poissons Ratio (z) = 0.35420 0.19055
#
# Static dielectric constant tensor:
#      x y z
#    x 3.456040 0.000000 0.000000 
#    y 0.000000 3.119320 0.000000 
#    z 0.000000 0.000000 3.486030 
# 
# 
# High freq. dielectric constant tensor:
#      x y z
#    x 1.718910 0.000000 0.000000 
#    y 0.000000 1.683890 0.000000 
#    z 0.000000 0.000000 1.722750 
# 
# From -- ./inp_files/29620.got.cif
#   From: 2010.03.12/outbox.cif.g09.slc.cpg/sg59_15_cif.got.tgz:29620.got - 2010.04.16 16:29:54.
