data_PCOD8241570
_publ_section_title
;
Structure prediction by ZEFSAII (Michael W. Deem and Ramdas Pophale) SiO2 
 PCOD8241570
Probable space group: P M M N
;
_chemical_formula_sum "Si O2"
_cell_formula_units_Z 64
_cell_length_a 19.167428
_cell_length_b 9.394242
_cell_length_c 18.820247
_cell_angle_alpha 90.000000
_cell_angle_beta 90.000000
_cell_angle_gamma 90.000000
_cell_volume 3388.838739
_symmetry_space_group_name_H-M "P M M N"
_symmetry_group_IT_number 59
_space_group.IT_coordinate_system_code '2'
_symmetry_cell_setting 'orthorhombic'
loop_
_space_group_symop_operation_xyz
x,y,z
1/2-x,1/2-y,z
1/2+x,-y,-z
-x,1/2+y,-z
-x,-y,-z
1/2+x,1/2+y,-z
1/2-x,y,z
x,1/2-y,z
loop_
_atom_site_type_symbol
_atom_site_label
_atom_site_fract_x
_atom_site_fract_y
_atom_site_fract_z
Si Si1 0.826544 0.909327 0.680855
Si Si2 0.326943 0.586079 0.046173
Si Si3 0.051111 0.915510 0.947802
Si Si4 0.374730 0.093397 0.173319
Si Si5 0.970711 0.412034 0.211056
Si Si6 0.915984 0.082902 0.582895
Si Si7 0.440326 0.086440 0.651400
Si Si8 0.830861 0.915076 0.464346
O O1 0.750000 0.924832 0.645872
O O2 0.856252 0.750000 0.663957
O O3 0.817002 0.928203 0.765843
O O4 0.875350 0.034732 0.653192
O O5 0.250000 0.517913 0.036873
O O6 0.320501 0.750000 0.065510
O O7 0.368641 0.518126 0.110890
O O8 0.369672 0.563119 0.973939
O O9 0.027933 0.750000 0.949460
O O10 0.050156 0.972880 0.866974
O O11 0.000000 0.000000 0.000000
O O12 0.369839 0.250000 0.138289
O O13 0.446417 0.075665 0.216562
O O14 0.944499 0.250000 0.219030
O O15 0.937027 0.499822 0.275302
O O16 0.907174 0.250000 0.569336
O O17 0.997136 0.040851 0.596872
O O18 0.879992 0.000254 0.518305
O O19 0.452468 0.250000 0.672354
O O20 0.365852 0.063301 0.612962
O O21 0.750000 0.968750 0.462732
O O22 0.833245 0.750000 0.486852
#
# Coordination Sequence:
#
# PCOD8241570 Si02
#       8
#     8   8   8   8   8   8   8   8
#     4  10  20  33  49  72 107 150 185 215 261 321
#     4  10  21  35  52  77 110 146 181 223 278 334
#     4  10  20  35  55  79 108 142 183 226 271 322
#     4  10  19  33  53  77 108 144 184 226 267 321
#     4  10  20  35  57  84 110 141 184 230 274 322
#     4  11  22  35  55  84 114 141 175 222 272 322
#     4  10  22  39  59  84 112 144 182 226 275 324
#     4  10  22  41  62  82 108 145 186 226 272 326
#
# _framework density 18.885525000000001
#
# number of rings (size 3 to 8) (size 9 to 14) (size 15 to 20)
#    0.000    1.875    2.500    1.500    0.000    5.250 
#    0.000    0.625    0.000    0.750    0.000    0.000 
#    0.000    0.000    0.000    0.000    0.000    0.000 
#
# Total GULP energy -793278.028012 kJ/mol
# GULP energy per Si atom -12394.969188 kJ/mol
# Density = 1.884254 g / cm^3
# Si number density = 18.885525 Si / 1000 Ang^3
#
#
#
# Elastic Constant Matrix: (Units=GPa)
#
#
# Indices 1 2 3 4 5 6 
#
# 1 78.2742 32.8346 48.4376 0.0000 0.0000 0.0000
# 2 32.8346 59.5312 50.5632 0.0000 0.0000 0.0000
# 3 48.4376 50.5632 125.4838 0.0000 0.0000 0.0000
# 4 0.0000 0.0000 0.0000 33.9498 0.0000 0.0000
# 5 0.0000 0.0000 0.0000 0.0000 22.7050 0.0000
# 6 0.0000 0.0000 0.0000 0.0000 0.0000 20.8118
#
#
#
# Elastic Compliance Matrix: (Units=1/GPa)
#
#
# Indices 1 2 3 4 5 6 
#
# 1 0.018166 -0.006178 -0.004523 0.000000 0.000000 0.000000
# 2 -0.006178 0.027639 -0.008752 0.000000 0.000000 0.000000
# 3 -0.004523 -0.008752 0.013242 0.000000 0.000000 0.000000
# 4 0.000000 0.000000 0.000000 0.029455 0.000000 0.000000
# 5 0.000000 0.000000 0.000000 0.000000 0.044043 0.000000
# 6 0.000000 0.000000 0.000000 0.000000 0.000000 0.048050
#
#
# Mechanical properties :
#
#
# Convention : Reuss Voigt Hill
#
# Bulk Modulus (GPa) = 49.65094 58.55112 54.10103
# Shear Modulus (GPa) = 22.10288 24.25692 23.17990
#
# Velocity S-wave (km/s) = 3.42477 3.58777 3.50721
# Velocity P-wave (km/s) = 6.47968 6.94502 6.71638
#
# Compressibility (1/GPa) = 0.02014060
#
# Stress axis : x y z
#
# Youngs Moduli (GPa) = 55.04804 36.18032 75.51890
#
# Poissons Ratio (x) = 0.22352 0.34155
# Poissons Ratio (y) = 0.34009 0.66097
# Poissons Ratio (z) = 0.24897 0.31666
#
# Static dielectric constant tensor:
#      x y z
#    x 3.654080 0.000000 0.000000 
#    y 0.000000 3.419890 0.000000 
#    z 0.000000 0.000000 3.396640 
# 
# 
# High freq. dielectric constant tensor:
#      x y z
#    x 1.730990 0.000000 0.000000 
#    y 0.000000 1.723430 0.000000 
#    z 0.000000 0.000000 1.732270 
# 
# From -- ./inp_files/28169.got.cif
#   From: 2010.03.12/outbox.cif.g09.slc.cpg/sg59_15_cif.got.tgz:28169.got - 2010.04.16 16:29:54.
