data_PCOD8241064
_publ_section_title
;
Structure prediction by ZEFSAII (Michael W. Deem and Ramdas Pophale) SiO2 
 PCOD8241064
Probable space group: P M M N
;
_chemical_formula_sum "Si O2"
_cell_formula_units_Z 64
_cell_length_a 29.958938
_cell_length_b 8.919089
_cell_length_c 14.013619
_cell_angle_alpha 90.000000
_cell_angle_beta 90.000000
_cell_angle_gamma 90.000000
_cell_volume 3744.529166
_symmetry_space_group_name_H-M "P M M N"
_symmetry_group_IT_number 59
_space_group.IT_coordinate_system_code '2'
_symmetry_cell_setting 'orthorhombic'
loop_
_space_group_symop_operation_xyz
x,y,z
1/2-x,1/2-y,z
1/2+x,-y,-z
-x,1/2+y,-z
-x,-y,-z
1/2+x,1/2+y,-z
1/2-x,y,z
x,1/2-y,z
loop_
_atom_site_type_symbol
_atom_site_label
_atom_site_fract_x
_atom_site_fract_y
_atom_site_fract_z
Si Si1 0.485407 0.574969 0.302979
Si Si2 0.119659 0.578456 0.604953
Si Si3 0.933160 0.420228 0.221950
Si Si4 0.852547 0.583736 0.669885
Si Si5 0.413924 0.072700 0.168632
Si Si6 0.938983 0.581692 0.538256
Si Si7 0.548599 0.074928 0.008083
Si Si8 0.799340 0.073214 0.516776
O O1 0.474476 0.750000 0.299128
O O2 0.535393 0.542422 0.270789
O O3 0.455470 0.487080 0.227933
O O4 0.478297 0.514582 0.411328
O O5 0.116969 0.750000 0.570627
O O6 0.114191 0.564617 0.720251
O O7 0.077452 0.493368 0.559206
O O8 0.167096 0.512988 0.566485
O O9 0.951635 0.250000 0.235501
O O10 0.928303 0.455361 0.110330
O O11 0.831519 0.750000 0.671718
O O12 0.867061 0.533290 0.777316
O O13 0.898027 0.584329 0.611022
O O14 0.816691 0.473904 0.621883
O O15 0.419321 0.250000 0.157156
O O16 0.415861 0.995238 0.065442
O O17 0.956047 0.750000 0.516075
O O18 0.542337 0.250000 0.987104
O O19 0.500000 0.000000 0.000000
O O20 0.750000 0.004665 0.498635
O O21 0.796283 0.250000 0.515177
#
# Coordination Sequence:
#
# PCOD8241064 Si02
#       8
#     8   8   8   8   8   8   8   8
#     4  11  20  29  45  66  88 122 164 200 240 285
#     4   9  18  33  49  66  92 125 158 191 232 284
#     4  10  21  34  46  62  90 125 163 205 240 274
#     4   8  16  29  46  69  95 124 153 186 230 281
#     4  10  19  32  48  67  95 125 160 205 246 284
#     4   9  17  30  46  64  91 123 157 197 235 274
#     4  11  21  32  48  68  91 125 169 213 252 284
#     4   9  17  30  51  78 102 121 146 185 232 285
#
# _framework density 17.091602000000002
#
# number of rings (size 3 to 8) (size 9 to 14) (size 15 to 20)
#    0.000    2.375    1.250    3.000    0.000    5.250 
#    0.000    0.000    0.000    0.000    0.000    0.875 
#    0.000    3.000    0.000    0.000    0.000    0.000 
#
# Total GULP energy -793166.258291 kJ/mol
# GULP energy per Si atom -12393.222786 kJ/mol
# Density = 1.705270 g / cm^3
# Si number density = 17.091602 Si / 1000 Ang^3
#
#
#
# Elastic Constant Matrix: (Units=GPa)
#
#
# Indices 1 2 3 4 5 6 
#
# 1 63.1250 22.5840 48.1344 0.0000 0.0000 0.0000
# 2 22.5840 67.7890 37.5934 0.0000 0.0000 0.0000
# 3 48.1344 37.5934 129.2263 0.0000 0.0000 0.0000
# 4 0.0000 0.0000 0.0000 21.1626 0.0000 0.0000
# 5 0.0000 0.0000 0.0000 0.0000 15.7323 0.0000
# 6 0.0000 0.0000 0.0000 0.0000 0.0000 15.8857
#
#
#
# Elastic Compliance Matrix: (Units=1/GPa)
#
#
# Indices 1 2 3 4 5 6 
#
# 1 0.022779 -0.003438 -0.007484 0.000000 0.000000 0.000000
# 2 -0.003438 0.018108 -0.003987 0.000000 0.000000 0.000000
# 3 -0.007484 -0.003987 0.011686 0.000000 0.000000 0.000000
# 4 0.000000 0.000000 0.000000 0.047253 0.000000 0.000000
# 5 0.000000 0.000000 0.000000 0.000000 0.063563 0.000000
# 6 0.000000 0.000000 0.000000 0.000000 0.000000 0.062950
#
#
# Mechanical properties :
#
#
# Convention : Reuss Voigt Hill
#
# Bulk Modulus (GPa) = 43.94945 52.97375 48.46160
# Shear Modulus (GPa) = 18.95781 20.67803 19.81792
#
# Velocity S-wave (km/s) = 3.33406 3.48204 3.40886
# Velocity P-wave (km/s) = 6.37112 6.87222 6.62641
#
# Compressibility (1/GPa) = 0.02275341
#
# Stress axis : x y z
#
# Youngs Moduli (GPa) = 43.90060 55.22341 85.57159
#
# Poissons Ratio (x) = 0.18987 0.64046
# Poissons Ratio (y) = 0.15094 0.34120
# Poissons Ratio (z) = 0.32857 0.22019
#
# Static dielectric constant tensor:
#      x y z
#    x 3.076030 0.000000 0.000000 
#    y 0.000000 3.252720 0.000000 
#    z 0.000000 0.000000 3.450980 
# 
# 
# High freq. dielectric constant tensor:
#      x y z
#    x 1.614060 0.000000 0.000000 
#    y 0.000000 1.664850 0.000000 
#    z 0.000000 0.000000 1.658130 
# 
# From -- ./inp_files/25066.got.cif
#   From: 2010.03.12/outbox.cif.g09.slc.cpg/sg59_13_cif.got.tgz:25066.got - 2010.04.16 16:29:54.
