data_PCOD8241671
_publ_section_title
;
Structure prediction by ZEFSAII (Michael W. Deem and Ramdas Pophale) SiO2 
 PCOD8241671
Probable space group: P M M N
;
_chemical_formula_sum "Si O2"
_cell_formula_units_Z 56
_cell_length_a 8.840986
_cell_length_b 14.759638
_cell_length_c 21.473848
_cell_angle_alpha 90.000000
_cell_angle_beta 90.000000
_cell_angle_gamma 90.000000
_cell_volume 2802.117120
_symmetry_space_group_name_H-M "P M M N"
_symmetry_group_IT_number 59
_space_group.IT_coordinate_system_code '2'
_symmetry_cell_setting 'orthorhombic'
loop_
_space_group_symop_operation_xyz
x,y,z
1/2-x,1/2-y,z
1/2+x,-y,-z
-x,1/2+y,-z
-x,-y,-z
1/2+x,1/2+y,-z
1/2-x,y,z
x,1/2-y,z
loop_
_atom_site_type_symbol
_atom_site_label
_atom_site_fract_x
_atom_site_fract_y
_atom_site_fract_z
Si Si1 0.928031 0.985454 0.723335
Si Si2 0.927870 0.150167 0.803028
Si Si3 0.928585 0.145411 0.513767
Si Si4 0.919654 0.609922 0.939426
Si Si5 0.572034 0.494437 0.407955
Si Si6 0.920035 0.351979 0.185430
Si Si7 0.579436 0.395220 0.937390
O O1 0.750000 0.988484 0.709907
O O2 0.963626 0.906481 0.771895
O O3 0.991379 0.078791 0.753214
O O4 0.015891 0.967326 0.659933
O O5 0.750000 0.133096 0.809381
O O6 0.967389 0.250000 0.777782
O O7 0.995858 0.137262 0.872338
O O8 0.750000 0.145997 0.522880
O O9 0.988294 0.250000 0.510873
O O10 0.999315 0.090417 0.571643
O O11 0.976242 0.090084 0.451816
O O12 0.750000 0.647270 0.930535
O O13 0.921924 0.502610 0.937219
O O14 0.025833 0.648408 0.885684
O O15 0.981835 0.644582 0.005843
O O16 0.750000 0.507644 0.408453
O O17 0.750000 0.392780 0.189197
O O18 0.919398 0.250000 0.210694
O O19 0.750000 0.357975 0.944428
#
# Coordination Sequence:
#
# PCOD8241671 Si02
#       7
#     8   8   8   8   8   8   8
#     4  11  22  39  60  85 117 154 195 236 283 339
#     4   9  18  34  56  80 107 143 188 234 280 337
#     4   9  19  38  63  89 119 156 197 238 279 331
#     4  10  19  33  54  81 109 140 182 235 293 352
#     4  10  21  37  59  90 123 157 193 235 287 338
#     4  11  24  40  58  80 108 148 195 242 296 352
#     4   9  17  32  53  79 108 142 183 229 286 349
#
# _framework density 19.984888999999999
#
# number of rings (size 3 to 8) (size 9 to 14) (size 15 to 20)
#    0.000    2.143    1.429    1.714    0.000    4.286 
#    0.000    4.286    0.000    3.000    0.000    0.000 
#    0.000    0.000    0.000    0.000    0.000    0.000 
#
# Total GULP energy -694373.319364 kJ/mol
# GULP energy per Si atom -12399.523560 kJ/mol
# Density = 1.993940 g / cm^3
# Si number density = 19.984889 Si / 1000 Ang^3
#
#
#
# Elastic Constant Matrix: (Units=GPa)
#
#
# Indices 1 2 3 4 5 6 
#
# 1 42.7374 20.8604 13.0668 0.0000 0.0000 0.0000
# 2 20.8604 99.9491 25.1663 0.0000 0.0000 0.0000
# 3 13.0668 25.1663 89.1186 0.0000 0.0000 0.0000
# 4 0.0000 0.0000 0.0000 -2.0908 0.0000 0.0000
# 5 0.0000 0.0000 0.0000 0.0000 34.6220 0.0000
# 6 0.0000 0.0000 0.0000 0.0000 0.0000 22.5056
#
#
#
# Elastic Compliance Matrix: (Units=1/GPa)
#
#
# Indices 1 2 3 4 5 6 
#
# 1 0.026563 -0.004913 -0.002507 0.000000 0.000000 0.000000
# 2 -0.004913 0.011680 -0.002578 0.000000 0.000000 0.000000
# 3 -0.002507 -0.002578 0.012317 0.000000 0.000000 0.000000
# 4 0.000000 0.000000 0.000000 -0.478287 0.000000 0.000000
# 5 0.000000 0.000000 0.000000 0.000000 0.028883 0.000000
# 6 0.000000 0.000000 0.000000 0.000000 0.000000 0.044433
#
#
# Mechanical properties :
#
#
# Convention : Reuss Voigt Hill
#
# Bulk Modulus (GPa) = 32.71890 38.88800 35.80345
# Shear Modulus (GPa) = -15.42131 22.52148 3.55008
#
# Velocity S-wave (km/s) = -2.78087 3.36061 1.33426
# Velocity P-wave (km/s) = 2.46909 5.87871 4.50864
#
# Compressibility (1/GPa) = 0.03056337
#
# Stress axis : x y z
#
# Youngs Moduli (GPa) = 37.64594 85.62008 81.19110
#
# Poissons Ratio (x) = 0.42062 0.20358
# Poissons Ratio (y) = 0.18494 0.20930
# Poissons Ratio (z) = 0.09440 0.22072
#
# Static dielectric constant tensor:
#      x y z
#    x 3.547430 0.000000 0.000000 
#    y 0.000000 3.680200 0.000000 
#    z 0.000000 0.000000 3.638780 
# 
# 
# High freq. dielectric constant tensor:
#      x y z
#    x 1.765020 0.000000 0.000000 
#    y 0.000000 1.782590 0.000000 
#    z 0.000000 0.000000 1.778100 
# 
# From -- ./inp_files/29146.got.cif
#   From: 2010.03.12/outbox.cif.g09.slc.cpg/sg59_15_cif.got.tgz:29146.got - 2010.04.16 16:29:54.
