data_PCOD8241641
_publ_section_title
;
Structure prediction by ZEFSAII (Michael W. Deem and Ramdas Pophale) SiO2 
 PCOD8241641
Probable space group: P M M N
;
_chemical_formula_sum "Si O2"
_cell_formula_units_Z 64
_cell_length_a 23.238886
_cell_length_b 8.827488
_cell_length_c 15.723599
_cell_angle_alpha 90.000000
_cell_angle_beta 90.000000
_cell_angle_gamma 90.000000
_cell_volume 3225.554623
_symmetry_space_group_name_H-M "P M M N"
_symmetry_group_IT_number 59
_space_group.IT_coordinate_system_code '2'
_symmetry_cell_setting 'orthorhombic'
loop_
_space_group_symop_operation_xyz
x,y,z
1/2-x,1/2-y,z
1/2+x,-y,-z
-x,1/2+y,-z
-x,-y,-z
1/2+x,1/2+y,-z
1/2-x,y,z
x,1/2-y,z
loop_
_atom_site_type_symbol
_atom_site_label
_atom_site_fract_x
_atom_site_fract_y
_atom_site_fract_z
Si Si1 0.316387 0.423909 0.166569
Si Si2 0.417946 0.921421 0.234320
Si Si3 0.003120 0.421750 0.908801
Si Si4 0.687628 0.570389 0.022063
Si Si5 0.615957 0.570702 0.180178
Si Si6 0.022262 0.425981 0.384177
Si Si7 0.411127 0.427882 0.551426
Si Si8 0.182684 0.570275 0.660744
O O1 0.250000 0.442758 0.189592
O O2 0.335809 0.250000 0.177206
O O3 0.351510 0.529189 0.231338
O O4 0.330223 0.484286 0.071689
O O5 0.423859 0.750000 0.268653
O O6 0.442459 0.937939 0.138651
O O7 0.450331 0.038101 0.294352
O O8 0.019930 0.250000 0.930062
O O9 0.050238 0.480102 0.838863
O O10 0.000000 0.500000 0.000000
O O11 0.750000 0.503495 0.045400
O O12 0.690735 0.750000 0.019915
O O13 0.644943 0.512151 0.093446
O O14 0.622443 0.750000 0.196606
O O15 0.646461 0.487856 0.258423
O O16 0.006641 0.250000 0.392819
O O17 0.069012 0.473218 0.456196
O O18 0.963210 0.520450 0.387707
O O19 0.401570 0.250000 0.562325
O O20 0.350840 0.508530 0.576942
O O21 0.250000 0.514899 0.661998
O O22 0.181006 0.750000 0.659534
#
# Coordination Sequence:
#
# PCOD8241641 Si02
#       8
#     8   8   8   8   8   8   8   8
#     4   9  18  34  55  76 100 135 181 229 274 322
#     4  11  22  35  53  81 115 146 181 223 270 328
#     4  10  22  36  52  79 113 150 190 233 281 333
#     4   8  14  26  47  73  97 129 179 232 275 317
#     4  10  19  33  54  78 107 146 192 236 280 334
#     4  10  21  38  63  91 115 143 180 225 278 334
#     4  10  21  39  63  89 114 142 181 227 278 337
#     4  11  24  39  56  83 119 157 196 237 285 343
#
# _framework density 19.841546999999998
#
# number of rings (size 3 to 8) (size 9 to 14) (size 15 to 20)
#    0.000    2.125    0.000    4.125    0.000    6.750 
#    0.000    1.250    0.000    1.500    0.000    0.000 
#    0.000    0.000    0.000    0.000    0.000    0.000 
#
# Total GULP energy -793245.387239 kJ/mol
# GULP energy per Si atom -12394.459176 kJ/mol
# Density = 1.979639 g / cm^3
# Si number density = 19.841547 Si / 1000 Ang^3
#
#
#
# Elastic Constant Matrix: (Units=GPa)
#
#
# Indices 1 2 3 4 5 6 
#
# 1 116.7046 41.0921 36.5982 0.0000 0.0000 0.0000
# 2 41.0921 60.4300 26.7451 0.0000 0.0000 0.0000
# 3 36.5982 26.7451 63.8491 0.0000 0.0000 0.0000
# 4 0.0000 0.0000 0.0000 29.3853 0.0000 0.0000
# 5 0.0000 0.0000 0.0000 0.0000 32.4411 0.0000
# 6 0.0000 0.0000 0.0000 0.0000 0.0000 31.6466
#
#
#
# Elastic Compliance Matrix: (Units=1/GPa)
#
#
# Indices 1 2 3 4 5 6 
#
# 1 0.012159 -0.006363 -0.004304 0.000000 0.000000 0.000000
# 2 -0.006363 0.023644 -0.006257 0.000000 0.000000 0.000000
# 3 -0.004304 -0.006257 0.020750 0.000000 0.000000 0.000000
# 4 0.000000 0.000000 0.000000 0.034031 0.000000 0.000000
# 5 0.000000 0.000000 0.000000 0.000000 0.030825 0.000000
# 6 0.000000 0.000000 0.000000 0.000000 0.000000 0.031599
#
#
# Mechanical properties :
#
#
# Convention : Reuss Voigt Hill
#
# Bulk Modulus (GPa) = 44.04313 49.98381 47.01347
# Shear Modulus (GPa) = 25.71709 27.79784 26.75746
#
# Velocity S-wave (km/s) = 3.60408 3.74704 3.67625
# Velocity P-wave (km/s) = 6.29005 6.63073 6.46264
#
# Compressibility (1/GPa) = 0.02270502
#
# Stress axis : x y z
#
# Youngs Moduli (GPa) = 82.24476 42.29403 48.19316
#
# Poissons Ratio (x) = 0.26912 0.20743
# Poissons Ratio (y) = 0.52333 0.30153
# Poissons Ratio (z) = 0.35399 0.26462
#
# Static dielectric constant tensor:
#      x y z
#    x 3.930740 0.000000 0.000000 
#    y 0.000000 3.400430 0.000000 
#    z 0.000000 0.000000 3.578320 
# 
# 
# High freq. dielectric constant tensor:
#      x y z
#    x 1.781920 0.000000 0.000000 
#    y 0.000000 1.757030 0.000000 
#    z 0.000000 0.000000 1.766600 
# 
# From -- ./inp_files/24778.got.cif
#   From: 2010.03.12/outbox.cif.g09.slc.cpg/sg59_13_cif.got.tgz:24778.got - 2010.04.16 16:29:54.
