data_PCOD8241099
_publ_section_title
;
Structure prediction by ZEFSAII (Michael W. Deem and Ramdas Pophale) SiO2 
 PCOD8241099
Probable space group: P M M N
;
_chemical_formula_sum "Si O2"
_cell_formula_units_Z 56
_cell_length_a 18.857986
_cell_length_b 9.089268
_cell_length_c 18.303294
_cell_angle_alpha 90.000000
_cell_angle_beta 90.000000
_cell_angle_gamma 90.000000
_cell_volume 3137.281392
_symmetry_space_group_name_H-M "P M M N"
_symmetry_group_IT_number 59
_space_group.IT_coordinate_system_code '2'
_symmetry_cell_setting 'orthorhombic'
loop_
_space_group_symop_operation_xyz
x,y,z
1/2-x,1/2-y,z
1/2+x,-y,-z
-x,1/2+y,-z
-x,-y,-z
1/2+x,1/2+y,-z
1/2-x,y,z
x,1/2-y,z
loop_
_atom_site_type_symbol
_atom_site_label
_atom_site_fract_x
_atom_site_fract_y
_atom_site_fract_z
Si Si1 0.165673 0.415554 0.585775
Si Si2 0.587657 0.924847 0.145741
Si Si3 0.925030 0.422516 0.004964
Si Si4 0.073314 0.921122 0.155101
Si Si5 0.165745 0.916766 0.726234
Si Si6 0.834138 0.584363 0.574532
Si Si7 0.330667 0.924324 0.283904
O O1 0.250000 0.415768 0.586216
O O2 0.138306 0.250000 0.601713
O O3 0.136810 0.524933 0.648130
O O4 0.138301 0.468367 0.505562
O O5 0.592263 0.750000 0.137781
O O6 0.507127 0.982598 0.158465
O O7 0.636054 0.977794 0.211544
O O8 0.617898 0.999061 0.070731
O O9 0.933463 0.250000 0.021833
O O10 0.890159 0.447285 0.924631
O O11 0.000000 0.500000 0.000000
O O12 0.067805 0.750000 0.171633
O O13 0.122634 0.992508 0.217733
O O14 0.250000 0.925545 0.729462
O O15 0.139009 0.750000 0.736989
O O16 0.750000 0.576779 0.573998
O O17 0.860210 0.750000 0.589304
O O18 0.863373 0.481583 0.639453
O O19 0.250000 0.979698 0.272849
O O20 0.333532 0.750000 0.285205
#
# Coordination Sequence:
#
# PCOD8241099 Si02
#       7
#     8   8   8   8   8   8   8
#     4   8  14  26  44  64  88 120 153 182 218 268
#     4  10  19  32  50  68  90 122 157 192 230 276
#     4   9  16  29  48  68  91 119 156 198 233 270
#     4   8  16  30  47  68  92 120 154 189 226 268
#     4  10  20  32  47  70  97 119 145 188 236 278
#     4   8  14  25  41  63  91 120 150 184 221 262
#     4   9  16  27  45  68  93 120 150 184 223 267
#
# _framework density 17.849848000000001
#
# number of rings (size 3 to 8) (size 9 to 14) (size 15 to 20)
#    0.000    3.143    0.000    3.000    0.000    1.429 
#    0.000    7.857    0.000    3.429    0.000    0.000 
#    0.000    0.000    0.000    0.000    0.000    0.000 
#
# Total GULP energy -693848.018774 kJ/mol
# GULP energy per Si atom -12390.143192 kJ/mol
# Density = 1.780922 g / cm^3
# Si number density = 17.849848 Si / 1000 Ang^3
#
#
#
# Elastic Constant Matrix: (Units=GPa)
#
#
# Indices 1 2 3 4 5 6 
#
# 1 22.5035 17.6606 30.7434 0.0000 0.0000 0.0000
# 2 17.6606 77.1906 57.5885 0.0000 0.0000 0.0000
# 3 30.7434 57.5885 164.4038 0.0000 0.0000 0.0000
# 4 0.0000 0.0000 0.0000 35.4370 0.0000 0.0000
# 5 0.0000 0.0000 0.0000 0.0000 10.0068 0.0000
# 6 0.0000 0.0000 0.0000 0.0000 0.0000 14.8170
#
#
#
# Elastic Compliance Matrix: (Units=1/GPa)
#
#
# Indices 1 2 3 4 5 6 
#
# 1 0.062808 -0.007591 -0.009086 0.000000 0.000000 0.000000
# 2 -0.007591 0.018456 -0.005045 0.000000 0.000000 0.000000
# 3 -0.009086 -0.005045 0.009549 0.000000 0.000000 0.000000
# 4 0.000000 0.000000 0.000000 0.028219 0.000000 0.000000
# 5 0.000000 0.000000 0.000000 0.000000 0.099932 0.000000
# 6 0.000000 0.000000 0.000000 0.000000 0.000000 0.067490
#
#
# Mechanical properties :
#
#
# Convention : Reuss Voigt Hill
#
# Bulk Modulus (GPa) = 21.11140 52.89806 37.00473
# Shear Modulus (GPa) = 14.46391 22.59254 18.52822
#
# Velocity S-wave (km/s) = 2.84968 3.56153 3.22530
# Velocity P-wave (km/s) = 4.76240 6.82730 5.88610
#
# Compressibility (1/GPa) = 0.04736777
#
# Stress axis : x y z
#
# Youngs Moduli (GPa) = 15.92153 54.18341 104.72381
#
# Poissons Ratio (x) = 0.41133 0.95151
# Poissons Ratio (y) = 0.12087 0.52836
# Poissons Ratio (z) = 0.14466 0.27337
#
# Static dielectric constant tensor:
#      x y z
#    x 2.818190 0.000000 0.000000 
#    y 0.000000 3.325960 0.000000 
#    z 0.000000 0.000000 3.601750 
# 
# 
# High freq. dielectric constant tensor:
#      x y z
#    x 1.629430 0.000000 0.000000 
#    y 0.000000 1.681360 0.000000 
#    z 0.000000 0.000000 1.715260 
# 
# From -- ./inp_files/28077.got.cif
#   From: 2010.03.12/outbox.cif.g09.slc.cpg/sg59_15_cif.got.tgz:28077.got - 2010.04.16 16:29:54.
