data_PCOD8241280
_publ_section_title
;
Structure prediction by ZEFSAII (Michael W. Deem and Ramdas Pophale) SiO2 
 PCOD8241280
Probable space group: P M M N
;
_chemical_formula_sum "Si O2"
_cell_formula_units_Z 56
_cell_length_a 10.335535
_cell_length_b 13.657589
_cell_length_c 21.332376
_cell_angle_alpha 90.000000
_cell_angle_beta 90.000000
_cell_angle_gamma 90.000000
_cell_volume 3011.245966
_symmetry_space_group_name_H-M "P M M N"
_symmetry_group_IT_number 59
_space_group.IT_coordinate_system_code '2'
_symmetry_cell_setting 'orthorhombic'
loop_
_space_group_symop_operation_xyz
x,y,z
1/2-x,1/2-y,z
1/2+x,-y,-z
-x,1/2+y,-z
-x,-y,-z
1/2+x,1/2+y,-z
1/2-x,y,z
x,1/2-y,z
loop_
_atom_site_type_symbol
_atom_site_label
_atom_site_fract_x
_atom_site_fract_y
_atom_site_fract_z
Si Si1 0.599072 0.643896 0.324384
Si Si2 0.397193 0.364401 0.296220
Si Si3 0.468704 0.639440 0.452439
Si Si4 0.102613 0.363228 0.018299
Si Si5 0.399755 0.520296 0.769277
Si Si6 0.103963 0.516706 0.912850
Si Si7 0.609498 0.933195 0.571447
O O1 0.750000 0.646780 0.314101
O O2 0.537887 0.750000 0.307512
O O3 0.573430 0.621490 0.397531
O O4 0.543800 0.565253 0.275490
O O5 0.250000 0.398160 0.278564
O O6 0.400119 0.250000 0.307516
O O7 0.501520 0.389760 0.242109
O O8 0.449279 0.417392 0.359453
O O9 0.407835 0.750000 0.448187
O O10 0.370472 0.549189 0.443685
O O11 0.528589 0.626736 0.520872
O O12 0.250000 0.380140 0.042436
O O13 0.075909 0.250000 0.004980
O O14 0.000886 0.400324 0.070183
O O15 0.078112 0.419488 0.953226
O O16 0.250000 0.548843 0.753694
O O17 0.412431 0.486092 0.840807
O O18 0.250000 0.557003 0.924975
O O19 0.750000 0.884001 0.571231
#
# Coordination Sequence:
#
# PCOD8241280 Si02
#       7
#     8   8   8   8   8   8   8
#     4   9  17  30  50  75 102 132 167 210 260 313
#     4  10  21  37  54  73 102 142 183 220 263 315
#     4  10  19  32  52  76  99 126 168 219 269 315
#     4   9  18  34  56  81 107 137 174 213 254 304
#     4  10  20  35  54  78 108 139 175 216 259 308
#     4   9  19  34  53  79 110 141 171 212 261 306
#     4  10  20  34  52  73 100 134 172 217 268 321
#
# _framework density 18.596952000000002
#
# number of rings (size 3 to 8) (size 9 to 14) (size 15 to 20)
#    0.000    2.429    1.429    0.857    0.000    4.000 
#    0.000    5.714    0.000    2.143    0.000    2.000 
#    0.000    0.000    0.000    0.000    0.000    0.000 
#
# Total GULP energy -693914.421128 kJ/mol
# GULP energy per Si atom -12391.328949 kJ/mol
# Density = 1.855462 g / cm^3
# Si number density = 18.596952 Si / 1000 Ang^3
#
#
#
# Elastic Constant Matrix: (Units=GPa)
#
#
# Indices 1 2 3 4 5 6 
#
# 1 79.0855 36.7504 42.6031 0.0000 0.0000 0.0000
# 2 36.7504 88.7326 29.5759 0.0000 0.0000 0.0000
# 3 42.6031 29.5759 95.3497 0.0000 0.0000 0.0000
# 4 0.0000 0.0000 0.0000 18.8250 0.0000 0.0000
# 5 0.0000 0.0000 0.0000 0.0000 22.2105 0.0000
# 6 0.0000 0.0000 0.0000 0.0000 0.0000 21.1313
#
#
#
# Elastic Compliance Matrix: (Units=1/GPa)
#
#
# Indices 1 2 3 4 5 6 
#
# 1 0.018837 -0.005572 -0.006688 0.000000 0.000000 0.000000
# 2 -0.005572 0.014218 -0.001920 0.000000 0.000000 0.000000
# 3 -0.006688 -0.001920 0.014072 0.000000 0.000000 0.000000
# 4 0.000000 0.000000 0.000000 0.053121 0.000000 0.000000
# 5 0.000000 0.000000 0.000000 0.000000 0.045024 0.000000
# 6 0.000000 0.000000 0.000000 0.000000 0.000000 0.047323
#
#
# Mechanical properties :
#
#
# Convention : Reuss Voigt Hill
#
# Bulk Modulus (GPa) = 53.29133 53.44737 53.36935
# Shear Modulus (GPa) = 22.00603 22.71592 22.36098
#
# Velocity S-wave (km/s) = 3.44367 3.49877 3.47133
# Velocity P-wave (km/s) = 6.67307 6.71745 6.69530
#
# Compressibility (1/GPa) = 0.01876478
#
# Stress axis : x y z
#
# Youngs Moduli (GPa) = 53.08758 70.33429 71.06510
#
# Poissons Ratio (x) = 0.39193 0.47528
# Poissons Ratio (y) = 0.29583 0.13647
# Poissons Ratio (z) = 0.35505 0.13506
#
# Static dielectric constant tensor:
#      x y z
#    x 3.344690 0.000000 0.000000 
#    y 0.000000 3.555340 0.000000 
#    z 0.000000 0.000000 3.348580 
# 
# 
# High freq. dielectric constant tensor:
#      x y z
#    x 1.707970 0.000000 0.000000 
#    y 0.000000 1.722000 0.000000 
#    z 0.000000 0.000000 1.717350 
# 
# From -- ./inp_files/30062.got.cif
#   From: 2010.03.12/outbox.cif.g09.slc.cpg/sg59_16_cif.got.tgz:30062.got - 2010.04.16 16:29:54.
