data_PCOD8241046
_publ_section_title
;
Structure prediction by ZEFSAII (Michael W. Deem and Ramdas Pophale) SiO2 
 PCOD8241046
Probable space group: P M M N
;
_chemical_formula_sum "Si O2"
_cell_formula_units_Z 64
_cell_length_a 18.937916
_cell_length_b 15.242441
_cell_length_c 11.249557
_cell_angle_alpha 90.000000
_cell_angle_beta 90.000000
_cell_angle_gamma 90.000000
_cell_volume 3247.297881
_symmetry_space_group_name_H-M "P M M N"
_symmetry_group_IT_number 59
_space_group.IT_coordinate_system_code '2'
_symmetry_cell_setting 'orthorhombic'
loop_
_space_group_symop_operation_xyz
x,y,z
1/2-x,1/2-y,z
1/2+x,-y,-z
-x,1/2+y,-z
-x,-y,-z
1/2+x,1/2+y,-z
1/2-x,y,z
x,1/2-y,z
loop_
_atom_site_type_symbol
_atom_site_label
_atom_site_fract_x
_atom_site_fract_y
_atom_site_fract_z
Si Si1 0.670299 0.983126 0.924141
Si Si2 0.670164 0.890879 0.587760
Si Si3 0.922861 0.846381 0.801585
Si Si4 0.395735 0.147490 0.660922
Si Si5 0.569955 0.145785 0.304067
Si Si6 0.457721 0.849185 0.434242
Si Si7 0.671593 0.080499 0.688796
Si Si8 0.831809 0.494105 0.194797
O O1 0.750000 0.944804 0.912252
O O2 0.614155 0.907465 0.897877
O O3 0.660380 0.060639 0.828337
O O4 0.656347 0.019915 0.054576
O O5 0.750000 0.862050 0.616560
O O6 0.618272 0.840834 0.676614
O O7 0.653127 0.864670 0.453893
O O8 0.661147 0.994415 0.608428
O O9 0.924400 0.750000 0.858241
O O10 0.002557 0.877968 0.776894
O O11 0.394860 0.250000 0.701349
O O12 0.474346 0.110107 0.632119
O O13 0.366685 0.086291 0.766340
O O14 0.587239 0.250000 0.302597
O O15 0.555606 0.108672 0.436769
O O16 0.636482 0.091678 0.256983
O O17 0.479230 0.750000 0.459115
O O18 0.388212 0.852101 0.351949
O O19 0.750000 0.120349 0.668072
O O20 0.750000 0.497609 0.229213
#
# Coordination Sequence:
#
# PCOD8241046 Si02
#       8
#     8   8   8   8   8   8   8   8
#     4   9  21  40  58  81 114 151 195 242 285 338
#     4  10  19  31  54  85 114 148 189 236 291 347
#     4  10  19  34  57  86 116 149 192 240 290 343
#     4  11  23  37  55  86 123 156 192 235 287 355
#     4  10  22  40  62  89 119 151 193 243 293 352
#     4  10  21  37  57  85 121 154 185 233 298 354
#     4   9  19  36  58  84 111 145 195 242 286 346
#     4  11  25  42  61  84 115 161 203 238 293 348
#
# _framework density 19.708694000000001
#
# number of rings (size 3 to 8) (size 9 to 14) (size 15 to 20)
#    0.000    2.000    1.250    2.625    3.500    6.500 
#    0.000    3.125    0.000    2.250    0.000    0.000 
#    0.000    0.000    0.000    0.000    0.000    0.000 
#
# Total GULP energy -793555.680200 kJ/mol
# GULP energy per Si atom -12399.307503 kJ/mol
# Density = 1.966384 g / cm^3
# Si number density = 19.708694 Si / 1000 Ang^3
#
#
#
# Elastic Constant Matrix: (Units=GPa)
#
#
# Indices 1 2 3 4 5 6 
#
# 1 125.2282 39.5730 48.1201 0.0000 0.0000 0.0000
# 2 39.5730 58.8559 29.2116 0.0000 0.0000 0.0000
# 3 48.1201 29.2116 80.0807 0.0000 0.0000 0.0000
# 4 0.0000 0.0000 0.0000 17.9869 0.0000 0.0000
# 5 0.0000 0.0000 0.0000 0.0000 31.2257 0.0000
# 6 0.0000 0.0000 0.0000 0.0000 0.0000 25.1453
#
#
#
# Elastic Compliance Matrix: (Units=1/GPa)
#
#
# Indices 1 2 3 4 5 6 
#
# 1 0.011594 -0.005297 -0.005035 0.000000 0.000000 0.000000
# 2 -0.005297 0.023167 -0.005268 0.000000 0.000000 0.000000
# 3 -0.005035 -0.005268 0.017434 0.000000 0.000000 0.000000
# 4 0.000000 0.000000 0.000000 0.055596 0.000000 0.000000
# 5 0.000000 0.000000 0.000000 0.000000 0.032025 0.000000
# 6 0.000000 0.000000 0.000000 0.000000 0.000000 0.039769
#
#
# Mechanical properties :
#
#
# Convention : Reuss Voigt Hill
#
# Bulk Modulus (GPa) = 47.62716 55.33048 51.47882
# Shear Modulus (GPa) = 22.95884 24.68893 23.82388
#
# Velocity S-wave (km/s) = 3.41678 3.54318 3.48055
# Velocity P-wave (km/s) = 6.30744 6.69880 6.50607
#
# Compressibility (1/GPa) = 0.02099642
#
# Stress axis : x y z
#
# Youngs Moduli (GPa) = 86.25336 43.16577 57.35823
#
# Poissons Ratio (x) = 0.22863 0.28877
# Poissons Ratio (y) = 0.45684 0.30216
# Poissons Ratio (z) = 0.43425 0.22740
#
# Static dielectric constant tensor:
#      x y z
#    x 3.703840 0.000000 0.000000 
#    y 0.000000 3.359530 0.000000 
#    z 0.000000 0.000000 3.466570 
# 
# 
# High freq. dielectric constant tensor:
#      x y z
#    x 1.782080 0.000000 0.000000 
#    y 0.000000 1.751680 0.000000 
#    z 0.000000 0.000000 1.755330 
# 
# From -- ./inp_files/17218.got.cif
#   From: 2010.03.12/outbox.cif.g09.slc.cpg/sg59_9_cif.got.tgz:17218.got - 2010.04.16 16:29:54.
