data_PCOD8241124
_publ_section_title
;
Structure prediction by ZEFSAII (Michael W. Deem and Ramdas Pophale) SiO2 
 PCOD8241124
Probable space group: P M M N
;
_chemical_formula_sum "Si O2"
_cell_formula_units_Z 48
_cell_length_a 30.771595
_cell_length_b 9.361759
_cell_length_c 9.480805
_cell_angle_alpha 90.000000
_cell_angle_beta 90.000000
_cell_angle_gamma 90.000000
_cell_volume 2731.194812
_symmetry_space_group_name_H-M "P M M N"
_symmetry_group_IT_number 59
_space_group.IT_coordinate_system_code '2'
_symmetry_cell_setting 'orthorhombic'
loop_
_space_group_symop_operation_xyz
x,y,z
1/2-x,1/2-y,z
1/2+x,-y,-z
-x,1/2+y,-z
-x,-y,-z
1/2+x,1/2+y,-z
1/2-x,y,z
x,1/2-y,z
loop_
_atom_site_type_symbol
_atom_site_label
_atom_site_fract_x
_atom_site_fract_y
_atom_site_fract_z
Si Si1 0.429315 0.413773 0.208998
Si Si2 0.868587 0.418181 0.984030
Si Si3 0.014128 0.916262 0.637065
Si Si4 0.889185 0.416190 0.301372
Si Si5 0.360359 0.087347 0.442993
Si Si6 0.700003 0.916641 0.808575
O O1 0.421040 0.250000 0.162510
O O2 0.480021 0.445440 0.236164
O O3 0.403833 0.445144 0.354285
O O4 0.411892 0.517255 0.087103
O O5 0.867582 0.250000 0.953467
O O6 0.870018 0.452942 0.149085
O O7 0.825197 0.490767 0.924352
O O8 0.014345 0.750000 0.597395
O O9 0.060973 0.969741 0.690249
O O10 0.000000 0.000000 0.500000
O O11 0.886900 0.250000 0.333630
O O12 0.859286 0.492166 0.417361
O O13 0.359054 0.250000 0.493601
O O14 0.318576 0.050170 0.346997
O O15 0.750000 0.962087 0.812154
O O16 0.693183 0.750000 0.844564
#
# Coordination Sequence:
#
# PCOD8241124 Si02
#       6
#     8   8   8   8   8   8
#     4   9  18  33  51  73 101 137 181 222 254 294
#     4  10  21  35  51  76 109 141 172 209 258 312
#     4  10  19  32  50  73 103 139 181 223 259 298
#     4  10  21  34  49  74 109 142 171 211 261 305
#     4   9  17  31  53  78 101 128 167 211 255 303
#     4   9  19  38  61  81 101 128 166 212 259 311
#
# _framework density 17.574725000000001
#
# number of rings (size 3 to 8) (size 9 to 14) (size 15 to 20)
#    0.000    2.500    1.667    1.500    0.000    5.667 
#    0.000    0.833    0.000    3.000    0.000    0.000 
#    0.000    0.000    0.000    0.000    0.000    0.000 
#
# Total GULP energy -595242.545763 kJ/mol
# GULP energy per Si atom -12400.886370 kJ/mol
# Density = 1.753472 g / cm^3
# Si number density = 17.574725 Si / 1000 Ang^3
#
#
#
# Elastic Constant Matrix: (Units=GPa)
#
#
# Indices 1 2 3 4 5 6 
#
# 1 107.7289 45.9149 57.2625 0.0000 0.0000 0.0000
# 2 45.9149 74.8925 71.3514 0.0000 0.0000 0.0000
# 3 57.2625 71.3514 124.7529 0.0000 0.0000 0.0000
# 4 0.0000 0.0000 0.0000 33.6394 0.0000 0.0000
# 5 0.0000 0.0000 0.0000 0.0000 17.6478 0.0000
# 6 0.0000 0.0000 0.0000 0.0000 0.0000 23.2109
#
#
#
# Elastic Compliance Matrix: (Units=1/GPa)
#
#
# Indices 1 2 3 4 5 6 
#
# 1 0.013096 -0.005058 -0.003118 0.000000 0.000000 0.000000
# 2 -0.005058 0.031293 -0.015576 0.000000 0.000000 0.000000
# 3 -0.003118 -0.015576 0.018356 0.000000 0.000000 0.000000
# 4 0.000000 0.000000 0.000000 0.029727 0.000000 0.000000
# 5 0.000000 0.000000 0.000000 0.000000 0.056664 0.000000
# 6 0.000000 0.000000 0.000000 0.000000 0.000000 0.043083
#
#
# Mechanical properties :
#
#
# Convention : Reuss Voigt Hill
#
# Bulk Modulus (GPa) = 65.61691 72.93687 69.27689
# Shear Modulus (GPa) = 20.42452 23.75599 22.09026
#
# Velocity S-wave (km/s) = 3.41273 3.68055 3.54917
# Velocity P-wave (km/s) = 7.27640 7.72354 7.50330
#
# Compressibility (1/GPa) = 0.01523997
#
# Stress axis : x y z
#
# Youngs Moduli (GPa) = 76.36072 31.95594 54.47875
#
# Poissons Ratio (x) = 0.16163 0.16988
# Poissons Ratio (y) = 0.38623 0.84857
# Poissons Ratio (z) = 0.23811 0.49775
#
# Static dielectric constant tensor:
#      x y z
#    x 3.360520 0.000000 0.000000 
#    y 0.000000 3.343770 0.000000 
#    z 0.000000 0.000000 3.099640 
# 
# 
# High freq. dielectric constant tensor:
#      x y z
#    x 1.673430 0.000000 0.000000 
#    y 0.000000 1.678820 0.000000 
#    z 0.000000 0.000000 1.669130 
# 
# From -- ./inp_files/6272.got.cif
#   From: 2010.03.12/outbox.cif.g09.slc.cpg/sg59_4_cif.got.tgz:6272.got - 2010.04.16 16:29:54.
