data_PCOD8241524
_publ_section_title
;
Structure prediction by ZEFSAII (Michael W. Deem and Ramdas Pophale) SiO2 
 PCOD8241524
Probable space group: P M M N
;
_chemical_formula_sum "Si O2"
_cell_formula_units_Z 48
_cell_length_a 31.289843
_cell_length_b 8.614193
_cell_length_c 9.041548
_cell_angle_alpha 90.000000
_cell_angle_beta 90.000000
_cell_angle_gamma 90.000000
_cell_volume 2437.029432
_symmetry_space_group_name_H-M "P M M N"
_symmetry_group_IT_number 59
_space_group.IT_coordinate_system_code '2'
_symmetry_cell_setting 'orthorhombic'
loop_
_space_group_symop_operation_xyz
x,y,z
1/2-x,1/2-y,z
1/2+x,-y,-z
-x,1/2+y,-z
-x,-y,-z
1/2+x,1/2+y,-z
1/2-x,y,z
x,1/2-y,z
loop_
_atom_site_type_symbol
_atom_site_label
_atom_site_fract_x
_atom_site_fract_y
_atom_site_fract_z
Si Si1 0.750000 0.935049 0.666903
Si Si2 0.081235 0.065666 0.670663
Si Si3 0.750000 0.564665 0.332621
Si Si4 0.666001 0.935280 0.832300
Si Si5 0.833503 0.934558 0.166167
Si Si6 0.917503 0.565499 0.665861
Si Si7 0.999496 0.433438 0.162917
O O1 0.750000 0.750000 0.667068
O O2 0.750000 0.998872 0.499831
O O3 0.708144 0.998722 0.750405
O O4 0.076009 0.250000 0.681543
O O5 0.124645 0.008002 0.747682
O O6 0.081952 0.006136 0.502334
O O7 0.042411 0.985709 0.752671
O O8 0.750000 0.750000 0.332605
O O9 0.708217 0.499754 0.249239
O O10 0.665768 0.750000 0.832231
O O11 0.624467 0.000607 0.747542
O O12 0.665540 0.999687 0.999408
O O13 0.831878 0.750000 0.164313
O O14 0.916417 0.750000 0.668345
O O15 0.959324 0.501732 0.749279
O O16 0.001252 0.250000 0.153418
O O17 0.000000 0.500000 0.000000
#
# Coordination Sequence:
#
# PCOD8241524 Si02
#       7
#     4   8   4   8   8   8   8
#     4   9  15  21  33  53  85 125 162 197 238 287
#     4  10  19  33  52  74  99 130 164 204 251 298
#     4   9  15  23  35  59  92 127 164 201 240 287
#     4   9  15  24  37  58  88 124 160 196 239 290
#     4   9  16  25  41  64  94 128 163 201 245 293
#     4   9  18  31  48  69  96 128 164 202 246 296
#     4  11  22  36  53  74  99 130 166 206 248 298
#
# _framework density 19.696110999999998
#
# number of rings (size 3 to 8) (size 9 to 14) (size 15 to 20)
#    0.000    2.500    0.000    3.500    0.000    8.667 
#    0.000    0.833    0.000    0.000    0.000    0.583 
#    0.000    0.000    0.000    8.417    0.000    6.333 
#
# Total GULP energy -595227.855972 kJ/mol
# GULP energy per Si atom -12400.580333 kJ/mol
# Density = 1.965128 g / cm^3
# Si number density = 19.696111 Si / 1000 Ang^3
#
#
#
# Elastic Constant Matrix: (Units=GPa)
#
#
# Indices 1 2 3 4 5 6 
#
# 1 221.9074 18.2158 124.9678 0.0000 0.0000 0.0000
# 2 18.2158 15.9480 17.0330 0.0000 0.0000 0.0000
# 3 124.9678 17.0330 229.2320 0.0000 0.0000 0.0000
# 4 0.0000 0.0000 0.0000 14.4537 0.0000 0.0000
# 5 0.0000 0.0000 0.0000 0.0000 50.2989 0.0000
# 6 0.0000 0.0000 0.0000 0.0000 0.0000 18.4094
#
#
#
# Elastic Compliance Matrix: (Units=1/GPa)
#
#
# Indices 1 2 3 4 5 6 
#
# 1 0.006741 -0.004100 -0.003370 0.000000 0.000000 0.000000
# 2 -0.004100 0.070602 -0.003011 0.000000 0.000000 0.000000
# 3 -0.003370 -0.003011 0.006423 0.000000 0.000000 0.000000
# 4 0.000000 0.000000 0.000000 0.069186 0.000000 0.000000
# 5 0.000000 0.000000 0.000000 0.000000 0.019881 0.000000
# 6 0.000000 0.000000 0.000000 0.000000 0.000000 0.054320
#
#
# Mechanical properties :
#
#
# Convention : Reuss Voigt Hill
#
# Bulk Modulus (GPa) = 15.92243 87.50229 51.71236
# Shear Modulus (GPa) = 18.58380 37.09044 27.83712
#
# Velocity S-wave (km/s) = 3.07502 4.34422 3.76351
# Velocity P-wave (km/s) = 4.55074 8.34779 6.72290
#
# Compressibility (1/GPa) = 0.06280450
#
# Stress axis : x y z
#
# Youngs Moduli (GPa) = 148.34869 14.16382 155.68041
#
# Poissons Ratio (x) = 0.05807 0.52467
# Poissons Ratio (y) = 0.60822 0.46875
# Poissons Ratio (z) = 0.49996 0.04265
#
# Static dielectric constant tensor:
#      x y z
#    x 3.865200 0.000000 0.000000 
#    y 0.000000 2.878310 0.000000 
#    z 0.000000 0.000000 3.913990 
# 
# 
# High freq. dielectric constant tensor:
#      x y z
#    x 1.789700 0.000000 0.000000 
#    y 0.000000 1.689540 0.000000 
#    z 0.000000 0.000000 1.790490 
# 
# From -- ./inp_files/12997.got.cif
#   From: 2010.03.12/outbox.cif.g09.slc.cpg/sg59_7_cif.got.tgz:12997.got - 2010.04.16 16:29:54.
