data_PCOD8241330
_publ_section_title
;
Structure prediction by ZEFSAII (Michael W. Deem and Ramdas Pophale) SiO2 
 PCOD8241330
Probable space group: P M M N
;
_chemical_formula_sum "Si O2"
_cell_formula_units_Z 64
_cell_length_a 19.460148
_cell_length_b 16.988502
_cell_length_c 10.237668
_cell_angle_alpha 90.000000
_cell_angle_beta 90.000000
_cell_angle_gamma 90.000000
_cell_volume 3384.560379
_symmetry_space_group_name_H-M "P M M N"
_symmetry_group_IT_number 59
_space_group.IT_coordinate_system_code '2'
_symmetry_cell_setting 'orthorhombic'
loop_
_space_group_symop_operation_xyz
x,y,z
1/2-x,1/2-y,z
1/2+x,-y,-z
-x,1/2+y,-z
-x,-y,-z
1/2+x,1/2+y,-z
1/2-x,y,z
x,1/2-y,z
loop_
_atom_site_type_symbol
_atom_site_label
_atom_site_fract_x
_atom_site_fract_y
_atom_site_fract_z
Si Si1 0.325071 0.104940 0.034500
Si Si2 0.530272 0.655505 0.306870
Si Si3 0.325363 0.928661 0.967286
Si Si4 0.951028 0.659111 0.821373
Si Si5 0.326485 0.659103 0.698435
Si Si6 0.323987 0.161770 0.760521
Si Si7 0.965696 0.157271 0.424923
Si Si8 0.972190 0.085517 0.953091
O O1 0.250000 0.119840 0.097597
O O2 0.380367 0.112124 0.150382
O O3 0.327429 0.022294 0.959449
O O4 0.340484 0.164923 0.916227
O O5 0.523566 0.750000 0.285070
O O6 0.610283 0.627790 0.317382
O O7 0.491961 0.625043 0.436630
O O8 0.498337 0.606398 0.189404
O O9 0.250000 0.900433 0.022087
O O10 0.389520 0.904622 0.057501
O O11 0.336664 0.895261 0.823446
O O12 0.932694 0.750000 0.802177
O O13 0.987184 0.622797 0.692411
O O14 0.002069 0.649700 0.943270
O O15 0.250000 0.646762 0.637614
O O16 0.336520 0.750000 0.741394
O O17 0.385257 0.634805 0.594254
O O18 0.250000 0.117653 0.733789
O O19 0.314925 0.250000 0.711752
O O20 0.974958 0.250000 0.422467
O O21 0.000000 0.000000 0.000000
#
# Coordination Sequence:
#
# PCOD8241330 Si02
#       8
#     8   8   8   8   8   8   8   8
#     4  10  19  32  52  79 111 142 176 223 277 325
#     4  10  20  35  54  80 110 142 179 225 276 325
#     4  10  20  33  52  78 111 143 177 226 279 320
#     4  11  20  33  55  81 108 140 179 226 270 323
#     4   9  17  31  53  78 103 139 187 230 272 328
#     4   9  16  28  49  75 102 133 173 217 263 320
#     4   9  19  34  52  76 108 140 176 224 275 324
#     4  12  21  34  56  81 109 141 183 226 273 327
#
# _framework density 18.909397999999999
#
# number of rings (size 3 to 8) (size 9 to 14) (size 15 to 20)
#    0.000    2.000    3.750    0.750    0.000    1.250 
#    0.000    1.875    0.000    3.000    0.000    0.000 
#    0.000    0.000    0.000    0.000    0.000    0.000 
#
# Total GULP energy -792924.442484 kJ/mol
# GULP energy per Si atom -12389.444414 kJ/mol
# Density = 1.886636 g / cm^3
# Si number density = 18.909398 Si / 1000 Ang^3
#
#
#
# Elastic Constant Matrix: (Units=GPa)
#
#
# Indices 1 2 3 4 5 6 
#
# 1 210.8618 31.6433 81.6717 0.0000 0.0000 0.0000
# 2 31.6433 38.8361 30.6642 0.0000 0.0000 0.0000
# 3 81.6717 30.6642 120.7883 0.0000 0.0000 0.0000
# 4 0.0000 0.0000 0.0000 15.5416 0.0000 0.0000
# 5 0.0000 0.0000 0.0000 0.0000 30.0502 0.0000
# 6 0.0000 0.0000 0.0000 0.0000 0.0000 22.1222
#
#
#
# Elastic Compliance Matrix: (Units=1/GPa)
#
#
# Indices 1 2 3 4 5 6 
#
# 1 0.006587 -0.002314 -0.003867 0.000000 0.000000 0.000000
# 2 -0.002314 0.033018 -0.006817 0.000000 0.000000 0.000000
# 3 -0.003867 -0.006817 0.012624 0.000000 0.000000 0.000000
# 4 0.000000 0.000000 0.000000 0.064343 0.000000 0.000000
# 5 0.000000 0.000000 0.000000 0.000000 0.033278 0.000000
# 6 0.000000 0.000000 0.000000 0.000000 0.000000 0.045204
#
#
# Mechanical properties :
#
#
# Convention : Reuss Voigt Hill
#
# Bulk Modulus (GPa) = 38.12024 73.16052 55.64038
# Shear Modulus (GPa) = 21.75861 28.64327 25.20094
#
# Velocity S-wave (km/s) = 3.39584 3.89622 3.65460
# Velocity P-wave (km/s) = 5.96480 7.68210 6.87727
#
# Compressibility (1/GPa) = 0.02623278
#
# Stress axis : x y z
#
# Youngs Moduli (GPa) = 151.80606 30.28677 79.21429
#
# Poissons Ratio (x) = 0.07010 0.30628
# Poissons Ratio (y) = 0.35134 0.54002
# Poissons Ratio (z) = 0.58696 0.20647
#
# Static dielectric constant tensor:
#      x y z
#    x 4.116520 0.000000 0.000000 
#    y 0.000000 3.298710 0.000000 
#    z 0.000000 0.000000 3.234860 
# 
# 
# High freq. dielectric constant tensor:
#      x y z
#    x 1.762870 0.000000 0.000000 
#    y 0.000000 1.716090 0.000000 
#    z 0.000000 0.000000 1.688980 
# 
# From -- ./inp_files/11615.got.cif
#   From: 2010.03.12/outbox.cif.g09.slc.cpg/sg59_6_cif.got.tgz:11615.got - 2010.04.16 16:29:54.
