data_PCOD8241552
_publ_section_title
;
Structure prediction by ZEFSAII (Michael W. Deem and Ramdas Pophale) SiO2 
 PCOD8241552
Probable space group: P M M N
;
_chemical_formula_sum "Si O2"
_cell_formula_units_Z 48
_cell_length_a 9.134548
_cell_length_b 33.491519
_cell_length_c 9.069676
_cell_angle_alpha 90.000000
_cell_angle_beta 90.000000
_cell_angle_gamma 90.000000
_cell_volume 2774.684962
_symmetry_space_group_name_H-M "P M M N"
_symmetry_group_IT_number 59
_space_group.IT_coordinate_system_code '2'
_symmetry_cell_setting 'orthorhombic'
loop_
_space_group_symop_operation_xyz
x,y,z
1/2-x,1/2-y,z
1/2+x,-y,-z
-x,1/2+y,-z
-x,-y,-z
1/2+x,1/2+y,-z
1/2-x,y,z
x,1/2-y,z
loop_
_atom_site_type_symbol
_atom_site_label
_atom_site_fract_x
_atom_site_fract_y
_atom_site_fract_z
Si Si1 0.418205 0.540813 0.527533
Si Si2 0.416725 0.631657 0.076189
Si Si3 0.917547 0.661957 0.642423
Si Si4 0.920740 0.205845 0.125035
Si Si5 0.413629 0.906355 0.785525
Si Si6 0.421163 0.386709 0.629736
O O1 0.500000 0.500000 0.500000
O O2 0.250000 0.536114 0.479213
O O3 0.430676 0.550992 0.703521
O O4 0.488053 0.575745 0.429694
O O5 0.250000 0.635977 0.134472
O O6 0.527641 0.624075 0.207399
O O7 0.468026 0.672411 0.993734
O O8 0.428435 0.593674 0.963465
O O9 0.750000 0.672141 0.671054
O O10 0.948830 0.653096 0.469564
O O11 0.009036 0.698116 0.713266
O O12 0.958560 0.621309 0.725058
O O13 0.750000 0.203457 0.151201
O O14 0.968217 0.250000 0.069573
O O15 0.250000 0.889100 0.747503
O O16 0.250000 0.398141 0.630085
#
# Coordination Sequence:
#
# PCOD8241552 Si02
#       6
#     8   8   8   8   8   8
#     4  10  19  33  53  75  99 127 161 203 248 290
#     4   9  17  31  51  73  97 127 163 201 242 288
#     4   9  17  29  47  70  95 123 157 196 235 279
#     4   9  18  33  52  73  97 126 162 202 242 287
#     4   8  16  31  50  70  94 126 162 197 235 285
#     4  10  20  33  49  72 100 129 162 198 239 289
#
# _framework density 17.299261999999999
#
# number of rings (size 3 to 8) (size 9 to 14) (size 15 to 20)
#    0.000    2.833    0.000    2.500    0.000    5.667 
#    0.000    1.667    0.000    3.000    0.000    0.000 
#    0.000    0.000    0.000    0.000    0.000    0.000 
#
# Total GULP energy -594673.245631 kJ/mol
# GULP energy per Si atom -12389.025951 kJ/mol
# Density = 1.725989 g / cm^3
# Si number density = 17.299262 Si / 1000 Ang^3
#
#
#
# Elastic Constant Matrix: (Units=GPa)
#
#
# Indices 1 2 3 4 5 6 
#
# 1 77.9931 41.1418 52.5709 0.0000 0.0000 0.0000
# 2 41.1418 90.5344 42.9691 0.0000 0.0000 0.0000
# 3 52.5709 42.9691 107.3954 0.0000 0.0000 0.0000
# 4 0.0000 0.0000 0.0000 18.1443 0.0000 0.0000
# 5 0.0000 0.0000 0.0000 0.0000 30.1746 0.0000
# 6 0.0000 0.0000 0.0000 0.0000 0.0000 25.8938
#
#
#
# Elastic Compliance Matrix: (Units=1/GPa)
#
#
# Indices 1 2 3 4 5 6 
#
# 1 0.021392 -0.005865 -0.008125 0.000000 0.000000 0.000000
# 2 -0.005865 0.015243 -0.003228 0.000000 0.000000 0.000000
# 3 -0.008125 -0.003228 0.014580 0.000000 0.000000 0.000000
# 4 0.000000 0.000000 0.000000 0.055114 0.000000 0.000000
# 5 0.000000 0.000000 0.000000 0.000000 0.033140 0.000000
# 6 0.000000 0.000000 0.000000 0.000000 0.000000 0.038619
#
#
# Mechanical properties :
#
#
# Convention : Reuss Voigt Hill
#
# Bulk Modulus (GPa) = 59.59662 61.03182 60.31422
# Shear Modulus (GPa) = 22.92349 24.12527 23.52438
#
# Velocity S-wave (km/s) = 3.64416 3.73846 3.69161
# Velocity P-wave (km/s) = 7.22715 7.34789 7.28777
#
# Compressibility (1/GPa) = 0.01677947
#
# Stress axis : x y z
#
# Youngs Moduli (GPa) = 46.74618 65.60523 68.58700
#
# Poissons Ratio (x) = 0.38478 0.55727
# Poissons Ratio (y) = 0.27417 0.22137
# Poissons Ratio (z) = 0.37981 0.21175
#
# Static dielectric constant tensor:
#      x y z
#    x 3.282330 0.000000 0.000000 
#    y 0.000000 3.257380 0.000000 
#    z 0.000000 0.000000 3.277470 
# 
# 
# High freq. dielectric constant tensor:
#      x y z
#    x 1.677330 0.000000 0.000000 
#    y 0.000000 1.642000 0.000000 
#    z 0.000000 0.000000 1.658800 
# 
# From -- ./inp_files/6233.got.cif
#   From: 2010.03.12/outbox.cif.g09.slc.cpg/sg59_4_cif.got.tgz:6233.got - 2010.04.16 16:29:54.
