data_PCOD8241609
_publ_section_title
;
Structure prediction by ZEFSAII (Michael W. Deem and Ramdas Pophale) SiO2 
 PCOD8241609
Probable space group: P M M N
;
_chemical_formula_sum "Si O2"
_cell_formula_units_Z 64
_cell_length_a 9.037109
_cell_length_b 17.668323
_cell_length_c 22.818348
_cell_angle_alpha 90.000000
_cell_angle_beta 90.000000
_cell_angle_gamma 90.000000
_cell_volume 3643.418422
_symmetry_space_group_name_H-M "P M M N"
_symmetry_group_IT_number 59
_space_group.IT_coordinate_system_code '2'
_symmetry_cell_setting 'orthorhombic'
loop_
_space_group_symop_operation_xyz
x,y,z
1/2-x,1/2-y,z
1/2+x,-y,-z
-x,1/2+y,-z
-x,-y,-z
1/2+x,1/2+y,-z
1/2-x,y,z
x,1/2-y,z
loop_
_atom_site_type_symbol
_atom_site_label
_atom_site_fract_x
_atom_site_fract_y
_atom_site_fract_z
Si Si1 0.424701 0.834748 0.564005
Si Si2 0.079633 0.563152 0.464503
Si Si3 0.576023 0.898434 0.068550
Si Si4 0.925141 0.541700 0.885141
Si Si5 0.919499 0.337521 0.043993
Si Si6 0.423462 0.976211 0.239094
Si Si7 0.076337 0.465377 0.361996
Si Si8 0.577899 0.834773 0.194745
O O1 0.250000 0.836797 0.574496
O O2 0.486615 0.750000 0.574472
O O3 0.463517 0.856934 0.495483
O O4 0.496386 0.892791 0.610084
O O5 0.250000 0.549158 0.475144
O O6 0.041607 0.545541 0.396314
O O7 0.000000 0.500000 0.500000
O O8 0.750000 0.912022 0.058716
O O9 0.542944 0.850834 0.126875
O O10 0.493003 0.978613 0.071885
O O11 0.509520 0.851444 0.015323
O O12 0.750000 0.545596 0.894697
O O13 0.967678 0.524537 0.817928
O O14 0.001402 0.620386 0.901967
O O15 0.750000 0.364746 0.036688
O O16 0.926611 0.250000 0.060105
O O17 0.250000 0.963033 0.243247
O O18 0.494402 0.893048 0.236880
O O19 0.481445 0.021733 0.295907
O O20 0.250000 0.447351 0.362984
O O21 0.750000 0.843953 0.207440
O O22 0.523222 0.750000 0.209354
#
# Coordination Sequence:
#
# PCOD8241609 Si02
#       8
#     8   8   8   8   8   8   8   8
#     4   9  17  29  46  71 100 127 158 196 238 283
#     4   8  14  26  45  67  92 121 150 185 228 274
#     4  10  19  33  54  76  98 124 156 194 240 296
#     4  10  20  35  53  71  95 127 162 199 240 288
#     4  11  23  36  50  71  98 125 157 200 247 293
#     4   9  19  34  51  72  96 126 165 203 237 278
#     4   9  17  31  50  71  95 125 164 202 236 279
#     4   9  18  32  50  73  99 126 157 194 237 286
#
# _framework density 17.565922
#
# number of rings (size 3 to 8) (size 9 to 14) (size 15 to 20)
#    0.000    2.625    0.000    1.875    0.000    3.500 
#    0.000    1.250    0.000    6.000    0.000    0.000 
#    0.000    0.000    0.000    0.000    0.000    0.000 
#
# Total GULP energy -793125.826022 kJ/mol
# GULP energy per Si atom -12392.591032 kJ/mol
# Density = 1.752594 g / cm^3
# Si number density = 17.565922 Si / 1000 Ang^3
#
#
#
# Elastic Constant Matrix: (Units=GPa)
#
#
# Indices 1 2 3 4 5 6 
#
# 1 57.2507 43.2798 35.3145 0.0000 0.0000 0.0000
# 2 43.2798 124.9264 65.2968 0.0000 0.0000 0.0000
# 3 35.3145 65.2968 100.6094 0.0000 0.0000 0.0000
# 4 0.0000 0.0000 0.0000 22.1464 0.0000 0.0000
# 5 0.0000 0.0000 0.0000 0.0000 21.4196 0.0000
# 6 0.0000 0.0000 0.0000 0.0000 0.0000 28.4403
#
#
#
# Elastic Compliance Matrix: (Units=1/GPa)
#
#
# Indices 1 2 3 4 5 6 
#
# 1 0.025105 -0.006192 -0.004793 0.000000 0.000000 0.000000
# 2 -0.006192 0.013641 -0.006680 0.000000 0.000000 0.000000
# 3 -0.004793 -0.006680 0.015957 0.000000 0.000000 0.000000
# 4 0.000000 0.000000 0.000000 0.045154 0.000000 0.000000
# 5 0.000000 0.000000 0.000000 0.000000 0.046686 0.000000
# 6 0.000000 0.000000 0.000000 0.000000 0.000000 0.035161
#
#
# Mechanical properties :
#
#
# Convention : Reuss Voigt Hill
#
# Bulk Modulus (GPa) = 51.61849 63.39653 57.50751
# Shear Modulus (GPa) = 22.37206 23.66095 23.01651
#
# Velocity S-wave (km/s) = 3.57263 3.67410 3.62372
# Velocity P-wave (km/s) = 6.81672 7.35987 7.09350
#
# Compressibility (1/GPa) = 0.01937290
#
# Stress axis : x y z
#
# Youngs Moduli (GPa) = 39.83333 73.30615 62.66729
#
# Poissons Ratio (x) = 0.45391 0.30038
# Poissons Ratio (y) = 0.24665 0.41862
# Poissons Ratio (z) = 0.19093 0.48969
#
# Static dielectric constant tensor:
#      x y z
#    x 3.344430 0.000000 0.000000 
#    y 0.000000 0.717290 0.000000 
#    z 0.000000 0.000000 3.963690 
# 
# 
# High freq. dielectric constant tensor:
#      x y z
#    x 1.682070 0.000000 0.000000 
#    y 0.000000 1.671560 0.000000 
#    z 0.000000 0.000000 1.670190 
# 
# From -- ./inp_files/31719.got.cif
#   From: 2010.03.12/outbox.cif.g09.slc.cpg/sg59_16_cif.got.tgz:31719.got - 2010.04.16 16:29:54.
