data_PCOD8241112
_publ_section_title
;
Structure prediction by ZEFSAII (Michael W. Deem and Ramdas Pophale) SiO2 
 PCOD8241112
Probable space group: P M M N
;
_chemical_formula_sum "Si O2"
_cell_formula_units_Z 64
_cell_length_a 31.343204
_cell_length_b 9.160385
_cell_length_c 12.069077
_cell_angle_alpha 90.000000
_cell_angle_beta 90.000000
_cell_angle_gamma 90.000000
_cell_volume 3465.222888
_symmetry_space_group_name_H-M "P M M N"
_symmetry_group_IT_number 59
_space_group.IT_coordinate_system_code '2'
_symmetry_cell_setting 'orthorhombic'
loop_
_space_group_symop_operation_xyz
x,y,z
1/2-x,1/2-y,z
1/2+x,-y,-z
-x,1/2+y,-z
-x,-y,-z
1/2+x,1/2+y,-z
1/2-x,y,z
x,1/2-y,z
loop_
_atom_site_type_symbol
_atom_site_label
_atom_site_fract_x
_atom_site_fract_y
_atom_site_fract_z
Si Si1 0.296278 0.077374 0.243077
Si Si2 0.562949 0.086010 0.760986
Si Si3 0.870995 0.921708 0.905358
Si Si4 0.700561 0.579732 0.504946
Si Si5 0.389297 0.421648 0.848358
Si Si6 0.482337 0.413774 0.897318
Si Si7 0.872912 0.076888 0.372115
Si Si8 0.545667 0.422878 0.516057
O O1 0.250000 0.010265 0.214035
O O2 0.294159 0.250000 0.230354
O O3 0.330206 0.010429 0.157493
O O4 0.308904 0.037571 0.368040
O O5 0.581170 0.250000 0.771075
O O6 0.513282 0.080649 0.792439
O O7 0.565751 0.030473 0.634675
O O8 0.587080 0.985707 0.848526
O O9 0.874175 0.750000 0.888525
O O10 0.866825 0.960761 0.034854
O O11 0.750000 0.544329 0.474918
O O12 0.691298 0.750000 0.482867
O O13 0.668206 0.482065 0.436048
O O14 0.385937 0.250000 0.821134
O O15 0.437717 0.478489 0.856443
O O16 0.367783 0.512790 0.750876
O O17 0.474613 0.250000 0.940414
O O18 0.500000 0.500000 0.000000
O O19 0.869991 0.250000 0.368825
O O20 0.918368 0.028408 0.426577
O O21 0.500000 0.500000 0.500000
O O22 0.537394 0.250000 0.512064
#
# Coordination Sequence:
#
# PCOD8241112 Si02
#       8
#     8   8   8   8   8   8   8   8
#     4   8  15  30  54  83 109 130 160 209 264 314
#     4  10  20  33  51  74 103 136 168 214 272 316
#     4  10  19  32  53  79 103 133 175 216 256 308
#     4   9  18  35  60  86 110 140 178 220 272 333
#     4  10  21  36  52  74 107 145 184 224 263 316
#     4  10  19  32  50  72 101 137 174 215 260 309
#     4  11  23  37  55  80 110 146 186 230 278 326
#     4  10  22  38  54  77 108 143 183 225 274 330
#
# _framework density 18.469231000000001
#
# number of rings (size 3 to 8) (size 9 to 14) (size 15 to 20)
#    0.000    2.250    1.250    2.625    0.000    3.750 
#    0.000    0.625    0.000    3.375    0.000    0.000 
#    0.000    0.000    0.000    0.000    0.000    0.000 
#
# Total GULP energy -793415.730650 kJ/mol
# GULP energy per Si atom -12397.120791 kJ/mol
# Density = 1.842719 g / cm^3
# Si number density = 18.469231 Si / 1000 Ang^3
#
#
#
# Elastic Constant Matrix: (Units=GPa)
#
#
# Indices 1 2 3 4 5 6 
#
# 1 117.9570 41.0920 64.8398 0.0000 0.0000 0.0000
# 2 41.0920 51.7584 47.2256 0.0000 0.0000 0.0000
# 3 64.8398 47.2256 132.2760 0.0000 0.0000 0.0000
# 4 0.0000 0.0000 0.0000 25.5019 0.0000 0.0000
# 5 0.0000 0.0000 0.0000 0.0000 29.7877 0.0000
# 6 0.0000 0.0000 0.0000 0.0000 0.0000 25.5316
#
#
#
# Elastic Compliance Matrix: (Units=1/GPa)
#
#
# Indices 1 2 3 4 5 6 
#
# 1 0.012996 -0.006682 -0.003985 0.000000 0.000000 0.000000
# 2 -0.006682 0.032090 -0.008182 0.000000 0.000000 0.000000
# 3 -0.003985 -0.008182 0.012434 0.000000 0.000000 0.000000
# 4 0.000000 0.000000 0.000000 0.039213 0.000000 0.000000
# 5 0.000000 0.000000 0.000000 0.000000 0.033571 0.000000
# 6 0.000000 0.000000 0.000000 0.000000 0.000000 0.039167
#
#
# Mechanical properties :
#
#
# Convention : Reuss Voigt Hill
#
# Bulk Modulus (GPa) = 50.44395 67.58957 59.01676
# Shear Modulus (GPa) = 23.38897 26.08650 24.73773
#
# Velocity S-wave (km/s) = 3.56248 3.76231 3.66376
# Velocity P-wave (km/s) = 6.65533 7.45309 7.06548
#
# Compressibility (1/GPa) = 0.01982398
#
# Stress axis : x y z
#
# Youngs Moduli (GPa) = 76.94822 31.16187 80.42261
#
# Poissons Ratio (x) = 0.20822 0.32047
# Poissons Ratio (y) = 0.51415 0.65800
# Poissons Ratio (z) = 0.30662 0.25496
#
# Static dielectric constant tensor:
#      x y z
#    x 3.772970 0.000000 0.000000 
#    y 0.000000 3.402380 0.000000 
#    z 0.000000 0.000000 3.568220 
# 
# 
# High freq. dielectric constant tensor:
#      x y z
#    x 1.716350 0.000000 0.000000 
#    y 0.000000 1.695150 0.000000 
#    z 0.000000 0.000000 1.722080 
# 
# From -- ./inp_files/19318.got.cif
#   From: 2010.03.12/outbox.cif.g09.slc.cpg/sg59_10_cif.got.tgz:19318.got - 2010.04.16 16:29:54.
