data_PCOD8241693
_publ_section_title
;
Structure prediction by ZEFSAII (Michael W. Deem and Ramdas Pophale) SiO2 
 PCOD8241693
Probable space group: P M M N
;
_chemical_formula_sum "Si O2"
_cell_formula_units_Z 64
_cell_length_a 20.021583
_cell_length_b 9.048862
_cell_length_c 19.637724
_cell_angle_alpha 90.000000
_cell_angle_beta 90.000000
_cell_angle_gamma 90.000000
_cell_volume 3557.816368
_symmetry_space_group_name_H-M "P M M N"
_symmetry_group_IT_number 59
_space_group.IT_coordinate_system_code '2'
_symmetry_cell_setting 'orthorhombic'
loop_
_space_group_symop_operation_xyz
x,y,z
1/2-x,1/2-y,z
1/2+x,-y,-z
-x,1/2+y,-z
-x,-y,-z
1/2+x,1/2+y,-z
1/2-x,y,z
x,1/2-y,z
loop_
_atom_site_type_symbol
_atom_site_label
_atom_site_fract_x
_atom_site_fract_y
_atom_site_fract_z
Si Si1 0.324080 0.575525 0.423283
Si Si2 0.326145 0.580188 0.056903
Si Si3 0.565902 0.424141 0.473113
Si Si4 0.952912 0.418382 0.322574
Si Si5 0.574468 0.924157 0.844105
Si Si6 0.173308 0.581181 0.898023
Si Si7 0.562112 0.575606 0.185132
Si Si8 0.393674 0.082834 0.306197
O O1 0.250000 0.517708 0.439919
O O2 0.326502 0.750000 0.420856
O O3 0.372180 0.515133 0.482705
O O4 0.345028 0.520420 0.348850
O O5 0.250000 0.537333 0.075705
O O6 0.339785 0.750000 0.076721
O O7 0.377147 0.475327 0.096107
O O8 0.338892 0.554448 0.977562
O O9 0.500000 0.500000 0.500000
O O10 0.555894 0.250000 0.481556
O O11 0.581048 0.463441 0.394141
O O12 0.935613 0.250000 0.301706
O O13 0.927268 0.524710 0.263060
O O14 0.031719 0.435787 0.334181
O O15 0.561574 0.750000 0.849262
O O16 0.609217 0.965879 0.772637
O O17 0.502619 0.001980 0.849513
O O18 0.250000 0.547488 0.879199
O O19 0.155453 0.750000 0.878952
O O20 0.127455 0.469165 0.856605
O O21 0.552942 0.750000 0.183201
O O22 0.368693 0.250000 0.314711
#
# Coordination Sequence:
#
# PCOD8241693 Si02
#       8
#     8   8   8   8   8   8   8   8
#     4  10  21  34  49  75 108 138 171 215 264 315
#     4   9  19  36  57  81 108 140 182 227 270 323
#     4  10  19  33  55  78 102 135 178 222 263 315
#     4   9  18  34  54  77 105 135 174 222 267 319
#     4  10  21  36  54  78 111 146 183 224 267 323
#     4   9  19  38  61  81 106 143 182 221 272 332
#     4  11  22  35  55  83 112 141 178 228 276 322
#     4   9  18  33  51  72 100 136 177 215 255 307
#
# _framework density 17.988562000000002
#
# number of rings (size 3 to 8) (size 9 to 14) (size 15 to 20)
#    0.000    2.375    1.250    3.000    0.000    5.250 
#    0.000    4.375    0.000    2.250    0.000    0.000 
#    0.000    0.000    0.000    0.000    0.000    0.000 
#
# Total GULP energy -793647.603258 kJ/mol
# GULP energy per Si atom -12400.743801 kJ/mol
# Density = 1.794762 g / cm^3
# Si number density = 17.988562 Si / 1000 Ang^3
#
#
#
# Elastic Constant Matrix: (Units=GPa)
#
#
# Indices 1 2 3 4 5 6 
#
# 1 112.6618 50.9787 68.1488 0.0000 0.0000 0.0000
# 2 50.9787 78.2853 48.8780 0.0000 0.0000 0.0000
# 3 68.1488 48.8780 94.9651 0.0000 0.0000 0.0000
# 4 0.0000 0.0000 0.0000 30.8772 0.0000 0.0000
# 5 0.0000 0.0000 0.0000 0.0000 27.2478 0.0000
# 6 0.0000 0.0000 0.0000 0.0000 0.0000 29.1627
#
#
#
# Elastic Compliance Matrix: (Units=1/GPa)
#
#
# Indices 1 2 3 4 5 6 
#
# 1 0.016950 -0.005074 -0.009552 0.000000 0.000000 0.000000
# 2 -0.005074 0.020341 -0.006828 0.000000 0.000000 0.000000
# 3 -0.009552 -0.006828 0.020900 0.000000 0.000000 0.000000
# 4 0.000000 0.000000 0.000000 0.032386 0.000000 0.000000
# 5 0.000000 0.000000 0.000000 0.000000 0.036700 0.000000
# 6 0.000000 0.000000 0.000000 0.000000 0.000000 0.034290
#
#
# Mechanical properties :
#
#
# Convention : Reuss Voigt Hill
#
# Bulk Modulus (GPa) = 65.43672 69.10257 67.26964
# Shear Modulus (GPa) = 23.85828 25.31799 24.58814
#
# Velocity S-wave (km/s) = 3.64580 3.75567 3.70114
# Velocity P-wave (km/s) = 7.36059 7.57000 7.46603
#
# Compressibility (1/GPa) = 0.01528194
#
# Stress axis : x y z
#
# Youngs Moduli (GPa) = 58.99671 49.16149 47.84761
#
# Poissons Ratio (x) = 0.24943 0.45706
# Poissons Ratio (y) = 0.29933 0.32673
# Poissons Ratio (z) = 0.56356 0.33570
#
# Static dielectric constant tensor:
#      x y z
#    x 3.314830 0.000000 0.000000 
#    y 0.000000 3.222800 0.000000 
#    z 0.000000 0.000000 3.412590 
# 
# 
# High freq. dielectric constant tensor:
#      x y z
#    x 1.686550 0.000000 0.000000 
#    y 0.000000 1.690930 0.000000 
#    z 0.000000 0.000000 1.701570 
# 
# From -- ./inp_files/28142.got.cif
#   From: 2010.03.12/outbox.cif.g09.slc.cpg/sg59_15_cif.got.tgz:28142.got - 2010.04.16 16:29:54.
