data_PCOD8241214
_publ_section_title
;
Structure prediction by ZEFSAII (Michael W. Deem and Ramdas Pophale) SiO2 
 PCOD8241214
Probable space group: P M M N
;
_chemical_formula_sum "Si O2"
_cell_formula_units_Z 48
_cell_length_a 22.168312
_cell_length_b 12.599660
_cell_length_c 9.866853
_cell_angle_alpha 90.000000
_cell_angle_beta 90.000000
_cell_angle_gamma 90.000000
_cell_volume 2755.942226
_symmetry_space_group_name_H-M "P M M N"
_symmetry_group_IT_number 59
_space_group.IT_coordinate_system_code '2'
_symmetry_cell_setting 'orthorhombic'
loop_
_space_group_symop_operation_xyz
x,y,z
1/2-x,1/2-y,z
1/2+x,-y,-z
-x,1/2+y,-z
-x,-y,-z
1/2+x,1/2+y,-z
1/2-x,y,z
x,1/2-y,z
loop_
_atom_site_type_symbol
_atom_site_label
_atom_site_fract_x
_atom_site_fract_y
_atom_site_fract_z
Si Si1 0.320000 0.002498 0.401415
Si Si2 0.507037 0.996548 0.293247
Si Si3 0.428477 0.373407 0.488808
Si Si4 0.182915 0.627631 0.667240
Si Si5 0.085765 0.873496 0.889455
Si Si6 0.606757 0.125696 0.802304
O O1 0.250000 0.036615 0.391221
O O2 0.362556 0.105050 0.422734
O O3 0.334838 0.929506 0.529335
O O4 0.338302 0.938367 0.266184
O O5 0.480881 0.090729 0.386079
O O6 0.530029 0.052187 0.155231
O O7 0.561751 0.936959 0.370320
O O8 0.456617 0.909028 0.261776
O O9 0.434705 0.250000 0.518335
O O10 0.250000 0.595879 0.713844
O O11 0.177550 0.750000 0.631312
O O12 0.140237 0.596707 0.790436
O O13 0.066899 0.750000 0.880279
O O14 0.107060 0.902972 0.039457
O O15 0.616340 0.250000 0.776920
#
# Coordination Sequence:
#
# PCOD8241214 Si02
#       6
#     8   8   8   8   8   8
#     4  10  20  35  53  75 101 132 170 214 260 303
#     4  10  19  34  51  75 107 140 170 209 259 305
#     4  10  20  33  53  79 102 132 174 218 259 301
#     4   9  17  30  49  72  99 132 169 208 253 303
#     4  10  19  32  51  76 106 139 172 209 253 308
#     4  10  21  33  50  77 107 138 171 208 255 307
#
# _framework density 17.416910000000001
#
# number of rings (size 3 to 8) (size 9 to 14) (size 15 to 20)
#    0.000    2.167    1.667    2.000    0.000    2.000 
#    0.000    1.667    0.000    1.000    0.000    0.000 
#    0.000    0.000    0.000    0.000    0.000    0.000 
#
# Total GULP energy -595175.093677 kJ/mol
# GULP energy per Si atom -12399.481118 kJ/mol
# Density = 1.737727 g / cm^3
# Si number density = 17.416910 Si / 1000 Ang^3
#
#
#
# Elastic Constant Matrix: (Units=GPa)
#
#
# Indices 1 2 3 4 5 6 
#
# 1 84.9911 41.2028 31.0662 0.0000 0.0000 0.0000
# 2 41.2028 74.1364 33.4099 0.0000 0.0000 0.0000
# 3 31.0662 33.4099 91.5676 0.0000 0.0000 0.0000
# 4 0.0000 0.0000 0.0000 25.6890 0.0000 0.0000
# 5 0.0000 0.0000 0.0000 0.0000 23.7362 0.0000
# 6 0.0000 0.0000 0.0000 0.0000 0.0000 15.3135
#
#
#
# Elastic Compliance Matrix: (Units=1/GPa)
#
#
# Indices 1 2 3 4 5 6 
#
# 1 0.016653 -0.008029 -0.002720 0.000000 0.000000 0.000000
# 2 -0.008029 0.020014 -0.004578 0.000000 0.000000 0.000000
# 3 -0.002720 -0.004578 0.013514 0.000000 0.000000 0.000000
# 4 0.000000 0.000000 0.000000 0.038927 0.000000 0.000000
# 5 0.000000 0.000000 0.000000 0.000000 0.042130 0.000000
# 6 0.000000 0.000000 0.000000 0.000000 0.000000 0.065302
#
#
# Mechanical properties :
#
#
# Convention : Reuss Voigt Hill
#
# Bulk Modulus (GPa) = 51.21478 51.33920 51.27699
# Shear Modulus (GPa) = 21.39454 22.61548 22.00501
#
# Velocity S-wave (km/s) = 3.50862 3.60735 3.55833
# Velocity P-wave (km/s) = 6.77370 6.84772 6.81081
#
# Compressibility (1/GPa) = 0.01952561
#
# Stress axis : x y z
#
# Youngs Moduli (GPa) = 60.05027 49.96408 73.99566
#
# Poissons Ratio (x) = 0.40117 0.20128
# Poissons Ratio (y) = 0.48216 0.33879
# Poissons Ratio (z) = 0.16335 0.22876
#
# Static dielectric constant tensor:
#      x y z
#    x 3.252080 0.000000 0.000000 
#    y 0.000000 3.048970 0.000000 
#    z 0.000000 0.000000 3.355530 
# 
# 
# High freq. dielectric constant tensor:
#      x y z
#    x 1.672890 0.000000 0.000000 
#    y 0.000000 1.658920 0.000000 
#    z 0.000000 0.000000 1.674720 
# 
# From -- ./inp_files/7576.got.cif
#   From: 2010.03.12/outbox.cif.g09.slc.cpg/sg59_4_cif.got.tgz:7576.got - 2010.04.16 16:29:54.
