data_PCOD8241221
_publ_section_title
;
Structure prediction by ZEFSAII (Michael W. Deem and Ramdas Pophale) SiO2 
 PCOD8241221
Probable space group: P M M N
;
_chemical_formula_sum "Si O2"
_cell_formula_units_Z 48
_cell_length_a 30.612611
_cell_length_b 8.593355
_cell_length_c 9.644561
_cell_angle_alpha 90.000000
_cell_angle_beta 90.000000
_cell_angle_gamma 90.000000
_cell_volume 2537.146765
_symmetry_space_group_name_H-M "P M M N"
_symmetry_group_IT_number 59
_space_group.IT_coordinate_system_code '2'
_symmetry_cell_setting 'orthorhombic'
loop_
_space_group_symop_operation_xyz
x,y,z
1/2-x,1/2-y,z
1/2+x,-y,-z
-x,1/2+y,-z
-x,-y,-z
1/2+x,1/2+y,-z
1/2-x,y,z
x,1/2-y,z
loop_
_atom_site_type_symbol
_atom_site_label
_atom_site_fract_x
_atom_site_fract_y
_atom_site_fract_z
Si Si1 0.644052 0.066402 0.085690
Si Si2 0.112970 0.432690 0.190211
Si Si3 0.930950 0.433820 0.287706
Si Si4 0.300802 0.430707 0.685069
Si Si5 0.368420 0.932764 0.479380
Si Si6 0.515392 0.934551 0.854874
O O1 0.650530 0.250000 0.095791
O O2 0.599657 0.008433 0.161211
O O3 0.684790 0.984275 0.161277
O O4 0.642226 0.014926 0.926274
O O5 0.114218 0.250000 0.164625
O O6 0.133889 0.472933 0.337381
O O7 0.063201 0.497514 0.185124
O O8 0.929253 0.250000 0.288185
O O9 0.911217 0.491946 0.434267
O O10 0.980478 0.492965 0.261926
O O11 0.250000 0.465180 0.667789
O O12 0.311865 0.250000 0.664242
O O13 0.325501 0.531139 0.568725
O O14 0.370542 0.750000 0.447657
O O15 0.515221 0.750000 0.864118
O O16 0.500000 0.000000 0.000000
#
# Coordination Sequence:
#
# PCOD8241221 Si02
#       6
#     8   8   8   8   8   8
#     4  10  19  34  58  82 110 145 183 227 269 325
#     4  11  22  34  52  81 116 151 188 234 282 326
#     4   8  16  32  52  75 105 142 187 230 269 313
#     4  10  21  39  63  88 113 139 172 221 278 337
#     4  10  21  37  57  80 111 151 189 229 276 333
#     4  10  19  32  51  77 109 147 193 237 276 322
#
# _framework density 18.918890999999999
#
# number of rings (size 3 to 8) (size 9 to 14) (size 15 to 20)
#    0.000    2.167    1.667    3.000    0.000    2.667 
#    0.000    1.667    0.000    5.000    0.000    0.000 
#    0.000    0.000    0.000    0.000    0.000    0.000 
#
# Total GULP energy -595157.328880 kJ/mol
# GULP energy per Si atom -12399.111018 kJ/mol
# Density = 1.887583 g / cm^3
# Si number density = 18.918891 Si / 1000 Ang^3
#
#
#
# Elastic Constant Matrix: (Units=GPa)
#
#
# Indices 1 2 3 4 5 6 
#
# 1 82.7676 20.1672 30.3848 0.0000 0.0000 0.0000
# 2 20.1672 37.6299 5.1322 0.0000 0.0000 0.0000
# 3 30.3848 5.1322 109.1031 0.0000 0.0000 0.0000
# 4 0.0000 0.0000 0.0000 31.7064 0.0000 0.0000
# 5 0.0000 0.0000 0.0000 0.0000 20.6336 0.0000
# 6 0.0000 0.0000 0.0000 0.0000 0.0000 23.2893
#
#
#
# Elastic Compliance Matrix: (Units=1/GPa)
#
#
# Indices 1 2 3 4 5 6 
#
# 1 0.015405 -0.007720 -0.003927 0.000000 0.000000 0.000000
# 2 -0.007720 0.030615 0.000710 0.000000 0.000000 0.000000
# 3 -0.003927 0.000710 0.010226 0.000000 0.000000 0.000000
# 4 0.000000 0.000000 0.000000 0.031539 0.000000 0.000000
# 5 0.000000 0.000000 0.000000 0.000000 0.048465 0.000000
# 6 0.000000 0.000000 0.000000 0.000000 0.000000 0.042938
#
#
# Mechanical properties :
#
#
# Convention : Reuss Voigt Hill
#
# Bulk Modulus (GPa) = 29.09412 37.87434 33.48423
# Shear Modulus (GPa) = 23.52718 26.71363 25.12040
#
# Velocity S-wave (km/s) = 3.53027 3.76175 3.64784
# Velocity P-wave (km/s) = 5.65940 6.23943 5.95648
#
# Compressibility (1/GPa) = 0.03437121
#
# Stress axis : x y z
#
# Youngs Moduli (GPa) = 64.91474 32.66331 97.79081
#
# Poissons Ratio (x) = 0.25217 0.38403
# Poissons Ratio (y) = 0.50117 -0.06943
# Poissons Ratio (z) = 0.25492 -0.02319
#
# Static dielectric constant tensor:
#      x y z
#    x 3.461930 0.000000 0.000000 
#    y 0.000000 3.385830 0.000000 
#    z 0.000000 0.000000 3.408540 
# 
# 
# High freq. dielectric constant tensor:
#      x y z
#    x 1.723570 0.000000 0.000000 
#    y 0.000000 1.728840 0.000000 
#    z 0.000000 0.000000 1.733100 
# 
# From -- ./inp_files/6322.got.cif
#   From: 2010.03.12/outbox.cif.g09.slc.cpg/sg59_4_cif.got.tgz:6322.got - 2010.04.16 16:29:54.
