data_PCOD8241544
_publ_section_title
;
Structure prediction by ZEFSAII (Michael W. Deem and Ramdas Pophale) SiO2 
 PCOD8241544
Probable space group: P M M N
;
_chemical_formula_sum "Si O2"
_cell_formula_units_Z 64
_cell_length_a 8.719306
_cell_length_b 28.115192
_cell_length_c 15.412235
_cell_angle_alpha 90.000000
_cell_angle_beta 90.000000
_cell_angle_gamma 90.000000
_cell_volume 3778.231768
_symmetry_space_group_name_H-M "P M M N"
_symmetry_group_IT_number 59
_space_group.IT_coordinate_system_code '2'
_symmetry_cell_setting 'orthorhombic'
loop_
_space_group_symop_operation_xyz
x,y,z
1/2-x,1/2-y,z
1/2+x,-y,-z
-x,1/2+y,-z
-x,-y,-z
1/2+x,1/2+y,-z
1/2-x,y,z
x,1/2-y,z
loop_
_atom_site_type_symbol
_atom_site_label
_atom_site_fract_x
_atom_site_fract_y
_atom_site_fract_z
Si Si1 0.077887 0.193540 0.507127
Si Si2 0.927134 0.053774 0.900858
Si Si3 0.073849 0.447555 0.082514
Si Si4 0.426143 0.148557 0.169668
Si Si5 0.073309 0.805961 0.316976
Si Si6 0.570878 0.304222 0.331753
Si Si7 0.428281 0.143881 0.842549
Si Si8 0.072948 0.694702 0.995220
O O1 0.250000 0.174168 0.519387
O O2 0.074354 0.250000 0.503332
O O3 0.974499 0.176105 0.587423
O O4 0.010857 0.173951 0.416691
O O5 0.750000 0.065481 0.884757
O O6 0.028755 0.087926 0.839928
O O7 0.966304 0.999057 0.876993
O O8 0.965123 0.063772 0.001497
O O9 0.250000 0.446871 0.049456
O O10 0.046464 0.407678 0.155324
O O11 0.250000 0.159659 0.191719
O O12 0.530268 0.163904 0.249553
O O13 0.469682 0.177393 0.083914
O O14 0.250000 0.818863 0.300790
O O15 0.043578 0.750000 0.306433
O O16 0.966952 0.833065 0.249225
O O17 0.750000 0.306344 0.349289
O O18 0.517813 0.250000 0.313524
O O19 0.250000 0.150804 0.862932
O O20 0.528136 0.168127 0.917173
O O21 0.250000 0.684294 0.973578
O O22 0.042573 0.750000 0.010652
#
# Coordination Sequence:
#
# PCOD8241544 Si02
#       8
#     8   8   8   8   8   8   8   8
#     4   9  17  31  51  74  99 128 164 207 252 292
#     4  10  19  33  53  72  95 127 164 207 255 299
#     4   9  19  34  51  73  97 125 163 209 255 300
#     4  11  21  33  50  73 100 130 166 206 249 296
#     4  10  20  34  52  74 101 133 168 205 247 296
#     4  10  20  33  49  71 101 136 172 207 243 289
#     4  12  23  34  49  72 100 131 169 207 247 294
#     4  11  23  36  48  66  96 134 172 205 242 292
#
# _framework density 16.939140999999999
#
# number of rings (size 3 to 8) (size 9 to 14) (size 15 to 20)
#    0.000    1.750    1.250    4.125    0.000    8.000 
#    0.000    0.000    0.000    0.000    0.000    0.875 
#    0.000    0.000    0.000    0.000    0.000    0.000 
#
# Total GULP energy -793803.226585 kJ/mol
# GULP energy per Si atom -12403.175415 kJ/mol
# Density = 1.690059 g / cm^3
# Si number density = 16.939141 Si / 1000 Ang^3
#
#
#
# Elastic Constant Matrix: (Units=GPa)
#
#
# Indices 1 2 3 4 5 6 
#
# 1 57.2709 31.1948 13.7490 0.0000 0.0000 0.0000
# 2 31.1948 74.9096 32.9666 0.0000 0.0000 0.0000
# 3 13.7490 32.9666 88.2623 0.0000 0.0000 0.0000
# 4 0.0000 0.0000 0.0000 3.6302 0.0000 0.0000
# 5 0.0000 0.0000 0.0000 0.0000 33.2321 0.0000
# 6 0.0000 0.0000 0.0000 0.0000 0.0000 20.9756
#
#
#
# Elastic Compliance Matrix: (Units=1/GPa)
#
#
# Indices 1 2 3 4 5 6 
#
# 1 0.022583 -0.009402 -0.000006 0.000000 0.000000 0.000000
# 2 -0.009402 0.019889 -0.005964 0.000000 0.000000 0.000000
# 3 -0.000006 -0.005964 0.013559 0.000000 0.000000 0.000000
# 4 0.000000 0.000000 0.000000 0.275469 0.000000 0.000000
# 5 0.000000 0.000000 0.000000 0.000000 0.030091 0.000000
# 6 0.000000 0.000000 0.000000 0.000000 0.000000 0.047674
#
#
# Mechanical properties :
#
#
# Convention : Reuss Voigt Hill
#
# Bulk Modulus (GPa) = 39.54640 41.80708 40.67674
# Shear Modulus (GPa) = 11.14978 21.06974 16.10976
#
# Velocity S-wave (km/s) = 2.56837 3.53065 3.08724
# Velocity P-wave (km/s) = 5.67382 6.43078 6.06413
#
# Compressibility (1/GPa) = 0.02528675
#
# Stress axis : x y z
#
# Youngs Moduli (GPa) = 44.28039 50.27811 73.75419
#
# Poissons Ratio (x) = 0.47270 0.00047
# Poissons Ratio (y) = 0.41631 0.43989
# Poissons Ratio (z) = 0.00028 0.29987
#
# Static dielectric constant tensor:
#      x y z
#    x 3.300780 0.000000 0.000000 
#    y 0.000000 3.206430 0.000000 
#    z 0.000000 0.000000 3.116940 
# 
# 
# High freq. dielectric constant tensor:
#      x y z
#    x 1.670220 0.000000 0.000000 
#    y 0.000000 1.633580 0.000000 
#    z 0.000000 0.000000 1.637270 
# 
# From -- ./inp_files/21847.got.cif
#   From: 2010.03.12/outbox.cif.g09.slc.cpg/sg59_11_cif.got.tgz:21847.got - 2010.04.16 16:29:54.
