data_PCOD8241603
_publ_section_title
;
Structure prediction by ZEFSAII (Michael W. Deem and Ramdas Pophale) SiO2 
 PCOD8241603
Probable space group: P M M N
;
_chemical_formula_sum "Si O2"
_cell_formula_units_Z 64
_cell_length_a 9.064177
_cell_length_b 19.998906
_cell_length_c 19.815229
_cell_angle_alpha 90.000000
_cell_angle_beta 90.000000
_cell_angle_gamma 90.000000
_cell_volume 3591.978367
_symmetry_space_group_name_H-M "P M M N"
_symmetry_group_IT_number 59
_space_group.IT_coordinate_system_code '2'
_symmetry_cell_setting 'orthorhombic'
loop_
_space_group_symop_operation_xyz
x,y,z
1/2-x,1/2-y,z
1/2+x,-y,-z
-x,1/2+y,-z
-x,-y,-z
1/2+x,1/2+y,-z
1/2-x,y,z
x,1/2-y,z
loop_
_atom_site_type_symbol
_atom_site_label
_atom_site_fract_x
_atom_site_fract_y
_atom_site_fract_z
Si Si1 0.075870 0.577413 0.658235
Si Si2 0.924137 0.675905 0.924293
Si Si3 0.577443 0.441250 0.688540
Si Si4 0.918543 0.547143 0.176205
Si Si5 0.080970 0.674104 0.414729
Si Si6 0.923893 0.565772 0.026949
Si Si7 0.416957 0.606616 0.808424
Si Si8 0.422343 0.172909 0.447733
O O1 0.250000 0.568853 0.648029
O O2 0.038851 0.611196 0.729970
O O3 0.004882 0.503885 0.654533
O O4 0.010801 0.625073 0.601727
O O5 0.750000 0.673381 0.921765
O O6 0.981764 0.750000 0.941008
O O7 0.979231 0.655180 0.850475
O O8 0.984310 0.627750 0.983164
O O9 0.750000 0.457433 0.690189
O O10 0.522769 0.426226 0.764401
O O11 0.540541 0.375162 0.646064
O O12 0.750000 0.563274 0.196524
O O13 0.963391 0.580977 0.105188
O O14 0.939381 0.468346 0.165344
O O15 0.250000 0.664121 0.438176
O O16 0.054433 0.750000 0.389572
O O17 0.975176 0.656883 0.476905
O O18 0.750000 0.555509 0.018860
O O19 0.000000 0.500000 0.000000
O O20 0.250000 0.630400 0.819313
O O21 0.250000 0.156927 0.442269
O O22 0.456586 0.250000 0.429210
#
# Coordination Sequence:
#
# PCOD8241603 Si02
#       8
#     8   8   8   8   8   8   8   8
#     4  10  21  36  54  77 109 144 177 216 264 318
#     4  10  21  34  49  74 106 137 170 213 263 310
#     4  10  20  34  55  82 108 136 175 222 267 314
#     4   9  18  33  52  76 105 133 169 216 262 312
#     4   9  19  37  58  78 104 140 178 217 267 324
#     4  10  19  33  54  76 100 134 176 216 257 310
#     4   9  18  33  51  72  99 133 173 210 250 304
#     4  10  21  36  55  80 107 137 179 225 263 311
#
# _framework density 17.817478999999999
#
# number of rings (size 3 to 8) (size 9 to 14) (size 15 to 20)
#    0.000    2.375    1.250    1.875    0.000    6.000 
#    0.000    3.125    0.000    0.750    0.000    0.000 
#    0.000    0.000    0.000    0.000    0.000    0.000 
#
# Total GULP energy -793649.208185 kJ/mol
# GULP energy per Si atom -12400.768878 kJ/mol
# Density = 1.777693 g / cm^3
# Si number density = 17.817479 Si / 1000 Ang^3
#
#
#
# Elastic Constant Matrix: (Units=GPa)
#
#
# Indices 1 2 3 4 5 6 
#
# 1 69.5717 51.2609 55.0552 0.0000 0.0000 0.0000
# 2 51.2609 117.2653 83.0118 0.0000 0.0000 0.0000
# 3 55.0552 83.0118 122.3259 0.0000 0.0000 0.0000
# 4 0.0000 0.0000 0.0000 27.0402 0.0000 0.0000
# 5 0.0000 0.0000 0.0000 0.0000 33.2194 0.0000
# 6 0.0000 0.0000 0.0000 0.0000 0.0000 22.1703
#
#
#
# Elastic Compliance Matrix: (Units=1/GPa)
#
#
# Indices 1 2 3 4 5 6 
#
# 1 0.024026 -0.005481 -0.007094 0.000000 0.000000 0.000000
# 2 -0.005481 0.017662 -0.009519 0.000000 0.000000 0.000000
# 3 -0.007094 -0.009519 0.017827 0.000000 0.000000 0.000000
# 4 0.000000 0.000000 0.000000 0.036982 0.000000 0.000000
# 5 0.000000 0.000000 0.000000 0.000000 0.030103 0.000000
# 6 0.000000 0.000000 0.000000 0.000000 0.000000 0.045105
#
#
# Mechanical properties :
#
#
# Convention : Reuss Voigt Hill
#
# Bulk Modulus (GPa) = 65.24109 76.42430 70.83270
# Shear Modulus (GPa) = 22.62433 24.47500 23.54966
#
# Velocity S-wave (km/s) = 3.56727 3.71030 3.63949
# Velocity P-wave (km/s) = 7.32551 7.83206 7.58301
#
# Compressibility (1/GPa) = 0.01532776
#
# Stress axis : x y z
#
# Youngs Moduli (GPa) = 41.62225 56.61930 56.09387
#
# Poissons Ratio (x) = 0.31031 0.39793
# Poissons Ratio (y) = 0.22812 0.53395
# Poissons Ratio (z) = 0.29527 0.53895
#
# Static dielectric constant tensor:
#      x y z
#    x 3.315110 0.000000 0.000000 
#    y 0.000000 3.334680 0.000000 
#    z 0.000000 0.000000 3.377880 
# 
# 
# High freq. dielectric constant tensor:
#      x y z
#    x 1.691660 0.000000 0.000000 
#    y 0.000000 1.678310 0.000000 
#    z 0.000000 0.000000 1.694250 
# 
# From -- ./inp_files/26353.got.cif
#   From: 2010.03.12/outbox.cif.g09.slc.cpg/sg59_14_cif.got.tgz:26353.got - 2010.04.16 16:29:54.
