data_PCOD8241231
_publ_section_title
;
Structure prediction by ZEFSAII (Michael W. Deem and Ramdas Pophale) SiO2 
 PCOD8241231
Probable space group: P M M N
;
_chemical_formula_sum "Si O2"
_cell_formula_units_Z 56
_cell_length_a 23.242391
_cell_length_b 8.895102
_cell_length_c 14.059741
_cell_angle_alpha 90.000000
_cell_angle_beta 90.000000
_cell_angle_gamma 90.000000
_cell_volume 2906.759201
_symmetry_space_group_name_H-M "P M M N"
_symmetry_group_IT_number 59
_space_group.IT_coordinate_system_code '2'
_symmetry_cell_setting 'orthorhombic'
loop_
_space_group_symop_operation_xyz
x,y,z
1/2-x,1/2-y,z
1/2+x,-y,-z
-x,1/2+y,-z
-x,-y,-z
1/2+x,1/2+y,-z
1/2-x,y,z
x,1/2-y,z
loop_
_atom_site_type_symbol
_atom_site_label
_atom_site_fract_x
_atom_site_fract_y
_atom_site_fract_z
Si Si1 0.086467 0.576682 0.148767
Si Si2 0.136752 0.428929 0.536329
Si Si3 0.091860 0.571436 0.361524
Si Si4 0.470825 0.921385 0.857407
Si Si5 0.250000 0.072539 0.861731
Si Si6 0.857243 0.074907 0.040987
Si Si7 0.472121 0.575790 0.635056
Si Si8 0.750000 0.928178 0.353446
O O1 0.071583 0.750000 0.159249
O O2 0.104184 0.515850 0.253213
O O3 0.028329 0.503700 0.108543
O O4 0.137546 0.548719 0.073045
O O5 0.131399 0.250000 0.538086
O O6 0.139266 0.489936 0.427818
O O7 0.082075 0.504374 0.584235
O O8 0.193602 0.485631 0.591093
O O9 0.096466 0.750000 0.372837
O O10 0.028873 0.516090 0.395127
O O11 0.478666 0.750000 0.887510
O O12 0.415069 0.987670 0.909979
O O13 0.460954 0.942495 0.746160
O O14 0.250000 0.250000 0.857558
O O15 0.250000 0.006610 0.754181
O O16 0.305085 0.019681 0.919364
O O17 0.847250 0.250000 0.064760
O O18 0.479512 0.750000 0.605628
O O19 0.750000 0.750000 0.350292
#
# Coordination Sequence:
#
# PCOD8241231 Si02
#       8
#     8   8   8   8   4   8   8   4
#     4   9  19  34  54  78 108 142 174 209 258 312
#     4  11  21  36  56  76 101 139 178 218 265 313
#     4  10  20  35  53  78 108 139 175 216 258 309
#     4   9  18  31  52  81 111 139 173 215 261 309
#     4  11  23  39  58  81 104 134 175 217 256 307
#     4  10  20  36  55  78 108 143 176 213 261 310
#     4  10  19  32  51  80 112 141 172 213 262 314
#     4   9  22  41  58  77 104 134 171 215 264 315
#
# _framework density 19.265440999999999
#
# number of rings (size 3 to 8) (size 9 to 14) (size 15 to 20)
#    0.000    2.143    0.000    3.214    0.000    2.286 
#    0.000    4.286    0.000    2.571    0.000    0.000 
#    0.000    0.000    0.000    0.000    0.000    0.000 
#
# Total GULP energy -694422.502822 kJ/mol
# GULP energy per Si atom -12400.401836 kJ/mol
# Density = 1.922159 g / cm^3
# Si number density = 19.265441 Si / 1000 Ang^3
#
#
#
# Elastic Constant Matrix: (Units=GPa)
#
#
# Indices 1 2 3 4 5 6 
#
# 1 96.6702 28.1474 79.0402 0.0000 0.0000 0.0000
# 2 28.1474 55.5334 35.5660 0.0000 0.0000 0.0000
# 3 79.0402 35.5660 100.7448 0.0000 0.0000 0.0000
# 4 0.0000 0.0000 0.0000 27.6515 0.0000 0.0000
# 5 0.0000 0.0000 0.0000 0.0000 31.1853 0.0000
# 6 0.0000 0.0000 0.0000 0.0000 0.0000 25.2722
#
#
#
# Elastic Compliance Matrix: (Units=1/GPa)
#
#
# Indices 1 2 3 4 5 6 
#
# 1 0.028854 -0.000164 -0.022580 0.000000 0.000000 0.000000
# 2 -0.000164 0.023269 -0.008086 0.000000 0.000000 0.000000
# 3 -0.022580 -0.008086 0.030496 0.000000 0.000000 0.000000
# 4 0.000000 0.000000 0.000000 0.036164 0.000000 0.000000
# 5 0.000000 0.000000 0.000000 0.000000 0.032066 0.000000
# 6 0.000000 0.000000 0.000000 0.000000 0.000000 0.039569
#
#
# Mechanical properties :
#
#
# Convention : Reuss Voigt Hill
#
# Bulk Modulus (GPa) = 47.71140 59.82841 53.76991
# Shear Modulus (GPa) = 19.30017 24.16810 21.73414
#
# Velocity S-wave (km/s) = 3.16856 3.54571 3.36243
# Velocity P-wave (km/s) = 6.18105 6.91989 6.56088
#
# Compressibility (1/GPa) = 0.02095935
#
# Stress axis : x y z
#
# Youngs Moduli (GPa) = 34.65720 42.97583 32.79120
#
# Poissons Ratio (x) = 0.00703 0.74042
# Poissons Ratio (y) = 0.00567 0.26516
# Poissons Ratio (z) = 0.78256 0.34751
#
# Static dielectric constant tensor:
#      x y z
#    x 3.473760 0.000000 0.000000 
#    y 0.000000 3.461270 0.000000 
#    z 0.000000 0.000000 4.002610 
# 
# 
# High freq. dielectric constant tensor:
#      x y z
#    x 1.729650 0.000000 0.000000 
#    y 0.000000 1.743140 0.000000 
#    z 0.000000 0.000000 1.770520 
# 
# From -- ./inp_files/24412.got.cif
#   From: 2010.03.12/outbox.cif.g09.slc.cpg/sg59_13_cif.got.tgz:24412.got - 2010.04.16 16:29:54.
