data_PCOD8241955
_publ_section_title
;
Structure prediction by ZEFSAII (Michael W. Deem and Ramdas Pophale) SiO2 
 PCOD8241955
Probable space group: P M M N
;
_chemical_formula_sum "Si O2"
_cell_formula_units_Z 64
_cell_length_a 9.221237
_cell_length_b 19.416408
_cell_length_c 19.056564
_cell_angle_alpha 90.000000
_cell_angle_beta 90.000000
_cell_angle_gamma 90.000000
_cell_volume 3411.950102
_symmetry_space_group_name_H-M "P M M N"
_symmetry_group_IT_number 59
_space_group.IT_coordinate_system_code '2'
_symmetry_cell_setting 'orthorhombic'
loop_
_space_group_symop_operation_xyz
x,y,z
1/2-x,1/2-y,z
1/2+x,-y,-z
-x,1/2+y,-z
-x,-y,-z
1/2+x,1/2+y,-z
1/2-x,y,z
x,1/2-y,z
loop_
_atom_site_type_symbol
_atom_site_label
_atom_site_fract_x
_atom_site_fract_y
_atom_site_fract_z
Si Si1 0.579801 0.906788 0.561438
Si Si2 0.581566 0.170866 0.316552
Si Si3 0.414280 0.168691 0.831226
Si Si4 0.085410 0.827401 0.034535
Si Si5 0.083844 0.953623 0.944426
Si Si6 0.585813 0.434940 0.570046
Si Si7 0.420282 0.950021 0.784902
Si Si8 0.083392 0.922461 0.272989
O O1 0.750000 0.892518 0.561413
O O2 0.508627 0.855527 0.617051
O O3 0.516489 0.893106 0.483461
O O4 0.539324 0.985402 0.579623
O O5 0.750000 0.164229 0.336310
O O6 0.539327 0.250000 0.300078
O O7 0.546180 0.125536 0.247111
O O8 0.250000 0.141454 0.827761
O O9 0.423826 0.250000 0.824993
O O10 0.481704 0.143372 0.904549
O O11 0.505393 0.138044 0.768217
O O12 0.250000 0.830041 0.063059
O O13 0.041243 0.750000 0.013050
O O14 0.066556 0.873904 0.966044
O O15 0.250000 0.977394 0.946875
O O16 0.023382 0.957379 0.865136
O O17 0.000000 0.000000 0.000000
O O18 0.750000 0.431165 0.541454
O O19 0.571362 0.400282 0.645987
O O20 0.250000 0.966101 0.781102
O O21 0.506331 0.004718 0.738726
O O22 0.250000 0.929205 0.249300
#
# Coordination Sequence:
#
# PCOD8241955 Si02
#       8
#     8   8   8   8   8   8   8   8
#     4  10  19  34  56  82 109 140 181 225 269 319
#     4  10  21  37  57  81 113 153 192 232 279 330
#     4  10  21  36  54  78 108 140 176 220 272 331
#     4   9  18  34  55  76 100 136 181 224 269 323
#     4  10  21  35  52  78 108 140 177 225 277 325
#     4   9  19  34  54  81 110 140 177 221 269 321
#     4  10  21  36  55  80 111 146 188 230 276 329
#     4  11  21  35  56  82 111 142 180 225 272 325
#
# _framework density 18.757603
#
# number of rings (size 3 to 8) (size 9 to 14) (size 15 to 20)
#    0.000    2.125    1.250    1.875    0.000    6.000 
#    0.000    3.125    0.000    0.750    0.000    3.500 
#    0.000    0.000    0.000    0.000    0.000    0.000 
#
# Total GULP energy -793629.745051 kJ/mol
# GULP energy per Si atom -12400.464766 kJ/mol
# Density = 1.871491 g / cm^3
# Si number density = 18.757603 Si / 1000 Ang^3
#
#
#
# Elastic Constant Matrix: (Units=GPa)
#
#
# Indices 1 2 3 4 5 6 
#
# 1 84.1014 31.4000 53.3298 0.0000 0.0000 0.0000
# 2 31.4000 59.5511 39.8102 0.0000 0.0000 0.0000
# 3 53.3298 39.8102 116.6964 0.0000 0.0000 0.0000
# 4 0.0000 0.0000 0.0000 30.4911 0.0000 0.0000
# 5 0.0000 0.0000 0.0000 0.0000 29.0760 0.0000
# 6 0.0000 0.0000 0.0000 0.0000 0.0000 26.8002
#
#
#
# Elastic Compliance Matrix: (Units=1/GPa)
#
#
# Indices 1 2 3 4 5 6 
#
# 1 0.017878 -0.005136 -0.006418 0.000000 0.000000 0.000000
# 2 -0.005136 0.023229 -0.005577 0.000000 0.000000 0.000000
# 3 -0.006418 -0.005577 0.013405 0.000000 0.000000 0.000000
# 4 0.000000 0.000000 0.000000 0.032796 0.000000 0.000000
# 5 0.000000 0.000000 0.000000 0.000000 0.034393 0.000000
# 6 0.000000 0.000000 0.000000 0.000000 0.000000 0.037313
#
#
# Mechanical properties :
#
#
# Convention : Reuss Voigt Hill
#
# Bulk Modulus (GPa) = 49.38525 56.60324 52.99424
# Shear Modulus (GPa) = 24.99680 26.32738 25.66209
#
# Velocity S-wave (km/s) = 3.65447 3.75047 3.70278
# Velocity P-wave (km/s) = 6.64772 6.99974 6.82600
#
# Compressibility (1/GPa) = 0.02024896
#
# Stress axis : x y z
#
# Youngs Moduli (GPa) = 55.93564 43.04991 74.60010
#
# Poissons Ratio (x) = 0.22111 0.47877
# Poissons Ratio (y) = 0.28729 0.41606
# Poissons Ratio (z) = 0.35899 0.24010
#
# Static dielectric constant tensor:
#      x y z
#    x 3.521330 0.000000 0.000000 
#    y 0.000000 3.370150 0.000000 
#    z 0.000000 0.000000 3.496640 
# 
# 
# High freq. dielectric constant tensor:
#      x y z
#    x 1.729840 0.000000 0.000000 
#    y 0.000000 1.717790 0.000000 
#    z 0.000000 0.000000 1.731050 
# 
# From -- ./inp_files/26216.got.cif
#   From: 2010.03.12/outbox.cif.g09.slc.cpg/sg59_14_cif.got.tgz:26216.got - 2010.04.16 16:29:54.
