data_PCOD8241204
_publ_section_title
;
Structure prediction by ZEFSAII (Michael W. Deem and Ramdas Pophale) SiO2 
 PCOD8241204
Probable space group: P M M N
;
_chemical_formula_sum "Si O2"
_cell_formula_units_Z 56
_cell_length_a 21.472979
_cell_length_b 8.786806
_cell_length_c 16.632949
_cell_angle_alpha 90.000000
_cell_angle_beta 90.000000
_cell_angle_gamma 90.000000
_cell_volume 3138.286533
_symmetry_space_group_name_H-M "P M M N"
_symmetry_group_IT_number 59
_space_group.IT_coordinate_system_code '2'
_symmetry_cell_setting 'orthorhombic'
loop_
_space_group_symop_operation_xyz
x,y,z
1/2-x,1/2-y,z
1/2+x,-y,-z
-x,1/2+y,-z
-x,-y,-z
1/2+x,1/2+y,-z
1/2-x,y,z
x,1/2-y,z
loop_
_atom_site_type_symbol
_atom_site_label
_atom_site_fract_x
_atom_site_fract_y
_atom_site_fract_z
Si Si1 0.528686 0.572905 0.873545
Si Si2 0.939623 0.075095 0.540858
Si Si3 0.681821 0.069518 0.143570
Si Si4 0.587383 0.427321 0.015536
Si Si5 0.375110 0.570011 0.692304
Si Si6 0.504377 0.075962 0.707252
Si Si7 0.820904 0.929116 0.460793
O O1 0.532870 0.750000 0.853860
O O2 0.465770 0.529306 0.920179
O O3 0.533605 0.484596 0.789893
O O4 0.584317 0.521869 0.932867
O O5 0.938103 0.250000 0.512629
O O6 0.944138 0.061476 0.637421
O O7 0.873669 0.999941 0.518134
O O8 0.000000 0.000000 0.500000
O O9 0.750000 0.995858 0.145084
O O10 0.684784 0.250000 0.150328
O O11 0.650972 0.023885 0.059007
O O12 0.643118 0.008578 0.219505
O O13 0.583791 0.250000 0.993836
O O14 0.368737 0.750000 0.684456
O O15 0.445964 0.522473 0.677188
O O16 0.329117 0.493372 0.628769
O O17 0.483230 0.250000 0.718832
O O18 0.750000 0.968532 0.489598
O O19 0.831501 0.750000 0.459435
#
# Coordination Sequence:
#
# PCOD8241204 Si02
#       7
#     8   8   8   8   8   8   8
#     4  10  19  32  51  76 102 135 174 217 266 318
#     4  11  23  38  59  84 112 147 189 235 284 338
#     4   9  17  30  49  75 107 141 178 217 259 315
#     4   9  17  31  49  73 103 136 175 216 260 309
#     4  11  20  33  54  81 112 148 187 223 268 331
#     4  11  22  35  54  81 112 143 177 227 281 329
#     4  11  24  40  57  81 115 152 190 233 283 339
#
# _framework density 17.844132999999999
#
# number of rings (size 3 to 8) (size 9 to 14) (size 15 to 20)
#    0.000    1.714    2.857    2.571    0.000    4.000 
#    0.000    0.000    0.000    3.000    0.000    2.000 
#    0.000    0.000    0.000    0.000    0.000    0.000 
#
# Total GULP energy -694327.337957 kJ/mol
# GULP energy per Si atom -12398.702464 kJ/mol
# Density = 1.780352 g / cm^3
# Si number density = 17.844133 Si / 1000 Ang^3
#
#
#
# Elastic Constant Matrix: (Units=GPa)
#
#
# Indices 1 2 3 4 5 6 
#
# 1 110.9751 45.6548 51.0710 0.0000 0.0000 0.0000
# 2 45.6548 83.0936 46.3900 0.0000 0.0000 0.0000
# 3 51.0710 46.3900 106.4690 0.0000 0.0000 0.0000
# 4 0.0000 0.0000 0.0000 30.4720 0.0000 0.0000
# 5 0.0000 0.0000 0.0000 0.0000 25.0697 0.0000
# 6 0.0000 0.0000 0.0000 0.0000 0.0000 22.3755
#
#
#
# Elastic Compliance Matrix: (Units=1/GPa)
#
#
# Indices 1 2 3 4 5 6 
#
# 1 0.012859 -0.004786 -0.004083 0.000000 0.000000 0.000000
# 2 -0.004786 0.017684 -0.005410 0.000000 0.000000 0.000000
# 3 -0.004083 -0.005410 0.013708 0.000000 0.000000 0.000000
# 4 0.000000 0.000000 0.000000 0.032817 0.000000 0.000000
# 5 0.000000 0.000000 0.000000 0.000000 0.039889 0.000000
# 6 0.000000 0.000000 0.000000 0.000000 0.000000 0.044692
#
#
# Mechanical properties :
#
#
# Convention : Reuss Voigt Hill
#
# Bulk Modulus (GPa) = 63.71680 65.19660 64.45670
# Shear Modulus (GPa) = 25.58377 26.07824 25.83100
#
# Velocity S-wave (km/s) = 3.79058 3.82703 3.80885
# Velocity P-wave (km/s) = 7.41235 7.49295 7.45276
#
# Compressibility (1/GPa) = 0.01569445
#
# Stress axis : x y z
#
# Youngs Moduli (GPa) = 77.76763 56.54768 72.95027
#
# Poissons Ratio (x) = 0.27062 0.29785
# Poissons Ratio (y) = 0.37217 0.39464
# Poissons Ratio (z) = 0.31752 0.30590
#
# Static dielectric constant tensor:
#      x y z
#    x 3.341940 0.000000 0.000000 
#    y 0.000000 3.298030 0.000000 
#    z 0.000000 0.000000 3.442080 
# 
# 
# High freq. dielectric constant tensor:
#      x y z
#    x 1.670670 0.000000 0.000000 
#    y 0.000000 1.690580 0.000000 
#    z 0.000000 0.000000 1.692520 
# 
# From -- ./inp_files/28061.got.cif
#   From: 2010.03.12/outbox.cif.g09.slc.cpg/sg59_15_cif.got.tgz:28061.got - 2010.04.16 16:29:54.
