data_PCOD8241776
_publ_section_title
;
Structure prediction by ZEFSAII (Michael W. Deem and Ramdas Pophale) SiO2 
 PCOD8241776
Probable space group: P M M N
;
_chemical_formula_sum "Si O2"
_cell_formula_units_Z 32
_cell_length_a 19.786278
_cell_length_b 8.944796
_cell_length_c 9.933504
_cell_angle_alpha 90.000000
_cell_angle_beta 90.000000
_cell_angle_gamma 90.000000
_cell_volume 1758.073460
_symmetry_space_group_name_H-M "P M M N"
_symmetry_group_IT_number 59
_space_group.IT_coordinate_system_code '2'
_symmetry_cell_setting 'orthorhombic'
loop_
_space_group_symop_operation_xyz
x,y,z
1/2-x,1/2-y,z
1/2+x,-y,-z
-x,1/2+y,-z
-x,-y,-z
1/2+x,1/2+y,-z
1/2-x,y,z
x,1/2-y,z
loop_
_atom_site_type_symbol
_atom_site_label
_atom_site_fract_x
_atom_site_fract_y
_atom_site_fract_z
Si Si1 0.955723 0.420691 0.173131
Si Si2 0.908572 0.076159 0.886993
Si Si3 0.429505 0.922497 0.530761
Si Si4 0.328309 0.076290 0.331526
O O1 0.981801 0.250000 0.157172
O O2 0.913329 0.440225 0.310097
O O3 0.020430 0.528006 0.178832
O O4 0.908091 0.462404 0.046292
O O5 0.897628 0.250000 0.859575
O O6 0.848346 0.987425 0.814837
O O7 0.434709 0.750000 0.488461
O O8 0.500000 0.000000 0.500000
O O9 0.368800 0.996900 0.450455
O O10 0.250000 0.044612 0.356411
O O11 0.345983 0.250000 0.334792
#
# Coordination Sequence:
#
# PCOD8241776 Si02
#       4
#     8   8   8   8
#     4   9  19  34  54  83 115 141 176 228 282 332
#     4  10  19  33  56  83 109 143 183 227 279 335
#     4  11  21  35  58  86 115 147 186 233 284 338
#     4  11  24  40  56  78 113 154 193 236 285 337
#
# _framework density 18.201741999999999
#
# number of rings (size 3 to 8) (size 9 to 14) (size 15 to 20)
#    0.000    1.750    2.500    2.250    0.000    4.000 
#    0.000    1.250    0.000    7.500    0.000    0.000 
#    0.000    0.000    0.000    0.000    0.000    0.000 
#
# Total GULP energy -396847.205807 kJ/mol
# GULP energy per Si atom -12401.475181 kJ/mol
# Density = 1.816031 g / cm^3
# Si number density = 18.201742 Si / 1000 Ang^3
#
#
#
# Elastic Constant Matrix: (Units=GPa)
#
#
# Indices 1 2 3 4 5 6 
#
# 1 92.0445 69.8634 59.8579 0.0000 0.0000 0.0000
# 2 69.8634 126.0050 61.2684 0.0000 0.0000 0.0000
# 3 59.8579 61.2684 129.1441 0.0000 0.0000 0.0000
# 4 0.0000 0.0000 0.0000 28.3750 0.0000 0.0000
# 5 0.0000 0.0000 0.0000 0.0000 28.0757 0.0000
# 6 0.0000 0.0000 0.0000 0.0000 0.0000 29.6797
#
#
#
# Elastic Compliance Matrix: (Units=1/GPa)
#
#
# Indices 1 2 3 4 5 6 
#
# 1 0.021476 -0.009186 -0.005596 0.000000 0.000000 0.000000
# 2 -0.009186 0.014245 -0.002500 0.000000 0.000000 0.000000
# 3 -0.005596 -0.002500 0.011523 0.000000 0.000000 0.000000
# 4 0.000000 0.000000 0.000000 0.035242 0.000000 0.000000
# 5 0.000000 0.000000 0.000000 0.000000 0.035618 0.000000
# 6 0.000000 0.000000 0.000000 0.000000 0.000000 0.033693
#
#
# Mechanical properties :
#
#
# Convention : Reuss Voigt Hill
#
# Bulk Modulus (GPa) = 78.86916 81.01921 79.94418
# Shear Modulus (GPa) = 26.23434 27.63967 26.93701
#
# Velocity S-wave (km/s) = 3.80058 3.90104 3.85114
# Velocity P-wave (km/s) = 7.91731 8.05601 7.98696
#
# Compressibility (1/GPa) = 0.01267923
#
# Stress axis : x y z
#
# Youngs Moduli (GPa) = 46.56342 70.19794 86.78158
#
# Poissons Ratio (x) = 0.64487 0.48562
# Poissons Ratio (y) = 0.42775 0.21699
# Poissons Ratio (z) = 0.26056 0.17552
#
# Static dielectric constant tensor:
#      x y z
#    x 3.063870 0.000000 0.000000 
#    y 0.000000 3.541410 0.000000 
#    z 0.000000 0.000000 3.832370 
# 
# 
# High freq. dielectric constant tensor:
#      x y z
#    x 1.667240 0.000000 0.000000 
#    y 0.000000 1.721820 0.000000 
#    z 0.000000 0.000000 1.725030 
# 
# From -- ./inp_files/10908.got.cif
#   From: 2010.03.12/outbox.cif.g09.slc.cpg/sg59_6_cif.got.tgz:10908.got - 2010.04.16 16:29:54.
