data_PCOD8241888
_publ_section_title
;
Structure prediction by ZEFSAII (Michael W. Deem and Ramdas Pophale) SiO2 
 PCOD8241888
Probable space group: P M M N
;
_chemical_formula_sum "Si O2"
_cell_formula_units_Z 56
_cell_length_a 8.884689
_cell_length_b 19.556302
_cell_length_c 17.240907
_cell_angle_alpha 90.000000
_cell_angle_beta 90.000000
_cell_angle_gamma 90.000000
_cell_volume 2995.636233
_symmetry_space_group_name_H-M "P M M N"
_symmetry_group_IT_number 59
_space_group.IT_coordinate_system_code '2'
_symmetry_cell_setting 'orthorhombic'
loop_
_space_group_symop_operation_xyz
x,y,z
1/2-x,1/2-y,z
1/2+x,-y,-z
-x,1/2+y,-z
-x,-y,-z
1/2+x,1/2+y,-z
1/2-x,y,z
x,1/2-y,z
loop_
_atom_site_type_symbol
_atom_site_label
_atom_site_fract_x
_atom_site_fract_y
_atom_site_fract_z
Si Si1 0.921646 0.948962 0.109780
Si Si2 0.570823 0.325542 0.182527
Si Si3 0.571891 0.420253 0.319432
Si Si4 0.924510 0.829302 0.375100
Si Si5 0.927590 0.441777 0.725962
Si Si6 0.423960 0.671766 0.535421
Si Si7 0.421978 0.596581 0.964596
O O1 0.750000 0.931443 0.130738
O O2 0.022007 0.939732 0.185209
O O3 0.940184 0.025425 0.079814
O O4 0.977684 0.898331 0.041809
O O5 0.750000 0.326434 0.188149
O O6 0.507384 0.250000 0.200081
O O7 0.506900 0.378194 0.245997
O O8 0.520601 0.346336 0.095813
O O9 0.750000 0.430071 0.312758
O O10 0.496797 0.494427 0.320818
O O11 0.526649 0.378823 0.396148
O O12 0.750000 0.847951 0.366739
O O13 0.955970 0.750000 0.357280
O O14 0.019606 0.872045 0.313738
O O15 0.975648 0.847642 0.461883
O O16 0.750000 0.447324 0.722170
O O17 0.250000 0.661071 0.513196
O O18 0.452043 0.750000 0.562365
O O19 0.250000 0.608476 0.989585
#
# Coordination Sequence:
#
# PCOD8241888 Si02
#       7
#     8   8   8   8   8   8   8
#     4  10  19  34  55  78 106 142 183 228 276 328
#     4   9  16  29  52  81 113 148 186 228 274 324
#     4  10  19  34  55  83 116 150 188 228 273 326
#     4  10  22  41  63  83 107 142 182 228 286 343
#     4  12  24  37  57  84 113 145 185 233 282 331
#     4   9  18  34  58  86 115 149 189 230 274 329
#     4   9  17  31  52  79 107 141 184 227 273 326
#
# _framework density 18.693857999999999
#
# number of rings (size 3 to 8) (size 9 to 14) (size 15 to 20)
#    0.000    2.143    1.429    2.571    0.000    4.286 
#    0.000    0.714    0.000    5.143    0.000    0.000 
#    0.000    0.000    0.000    0.000    0.000    0.000 
#
# Total GULP energy -694479.076050 kJ/mol
# GULP energy per Si atom -12401.412072 kJ/mol
# Density = 1.865131 g / cm^3
# Si number density = 18.693858 Si / 1000 Ang^3
#
#
#
# Elastic Constant Matrix: (Units=GPa)
#
#
# Indices 1 2 3 4 5 6 
#
# 1 76.3754 36.7908 46.3663 0.0000 0.0000 0.0000
# 2 36.7908 69.3260 34.9499 0.0000 0.0000 0.0000
# 3 46.3663 34.9499 86.6793 0.0000 0.0000 0.0000
# 4 0.0000 0.0000 0.0000 17.9054 0.0000 0.0000
# 5 0.0000 0.0000 0.0000 0.0000 31.9599 0.0000
# 6 0.0000 0.0000 0.0000 0.0000 0.0000 21.8416
#
#
#
# Elastic Compliance Matrix: (Units=1/GPa)
#
#
# Indices 1 2 3 4 5 6 
#
# 1 0.021908 -0.007177 -0.008825 0.000000 0.000000 0.000000
# 2 -0.007177 0.020456 -0.004409 0.000000 0.000000 0.000000
# 3 -0.008825 -0.004409 0.018035 0.000000 0.000000 0.000000
# 4 0.000000 0.000000 0.000000 0.055849 0.000000 0.000000
# 5 0.000000 0.000000 0.000000 0.000000 0.031289 0.000000
# 6 0.000000 0.000000 0.000000 0.000000 0.000000 0.045784
#
#
# Mechanical properties :
#
#
# Convention : Reuss Voigt Hill
#
# Bulk Modulus (GPa) = 51.08048 52.06606 51.57327
# Shear Modulus (GPa) = 20.77528 21.95962 21.36745
#
# Velocity S-wave (km/s) = 3.33730 3.43110 3.38453
# Velocity P-wave (km/s) = 6.49878 6.60372 6.55146
#
# Compressibility (1/GPa) = 0.01957695
#
# Stress axis : x y z
#
# Youngs Moduli (GPa) = 45.64483 48.88469 55.44727
#
# Poissons Ratio (x) = 0.35087 0.48933
# Poissons Ratio (y) = 0.32762 0.24446
# Poissons Ratio (z) = 0.40282 0.21552
#
# Static dielectric constant tensor:
#      x y z
#    x 3.312000 0.000000 0.000000 
#    y 0.000000 3.457120 0.000000 
#    z 0.000000 0.000000 3.515700 
# 
# 
# High freq. dielectric constant tensor:
#      x y z
#    x 1.709810 0.000000 0.000000 
#    y 0.000000 1.717340 0.000000 
#    z 0.000000 0.000000 1.733260 
# 
# From -- ./inp_files/21084.got.cif
#   From: 2010.03.12/outbox.cif.g09.slc.cpg/sg59_11_cif.got.tgz:21084.got - 2010.04.16 16:29:54.
