data_PCOD8241652
_publ_section_title
;
Structure prediction by ZEFSAII (Michael W. Deem and Ramdas Pophale) SiO2 
 PCOD8241652
Probable space group: P M M N
;
_chemical_formula_sum "Si O2"
_cell_formula_units_Z 56
_cell_length_a 8.794074
_cell_length_b 25.340135
_cell_length_c 14.186873
_cell_angle_alpha 90.000000
_cell_angle_beta 90.000000
_cell_angle_gamma 90.000000
_cell_volume 3161.445657
_symmetry_space_group_name_H-M "P M M N"
_symmetry_group_IT_number 59
_space_group.IT_coordinate_system_code '2'
_symmetry_cell_setting 'orthorhombic'
loop_
_space_group_symop_operation_xyz
x,y,z
1/2-x,1/2-y,z
1/2+x,-y,-z
-x,1/2+y,-z
-x,-y,-z
1/2+x,1/2+y,-z
1/2-x,y,z
x,1/2-y,z
loop_
_atom_site_type_symbol
_atom_site_label
_atom_site_fract_x
_atom_site_fract_y
_atom_site_fract_z
Si Si1 0.926329 0.557564 0.609283
Si Si2 0.425926 0.645930 0.287716
Si Si3 0.073670 0.311583 0.103769
Si Si4 0.071735 0.652909 0.711913
Si Si5 0.425383 0.689596 0.087735
Si Si6 0.425783 0.750000 0.404151
Si Si7 0.928507 0.750000 0.603878
Si Si8 0.926027 0.551978 0.392979
O O1 0.750000 0.566051 0.633268
O O2 0.961441 0.569446 0.499869
O O3 0.027087 0.596223 0.671759
O O4 0.972830 0.498124 0.635216
O O5 0.250000 0.630865 0.302759
O O6 0.463761 0.653821 0.177760
O O7 0.465696 0.699134 0.342764
O O8 0.532346 0.599524 0.324274
O O9 0.250000 0.323261 0.119194
O O10 0.034974 0.250000 0.116911
O O11 0.978641 0.344558 0.179522
O O12 0.026003 0.330525 0.999629
O O13 0.250000 0.661193 0.703965
O O14 0.991686 0.697865 0.651706
O O15 0.250000 0.684294 0.058886
O O16 0.464470 0.750000 0.113351
O O17 0.250000 0.750000 0.435781
O O18 0.532505 0.750000 0.494411
O O19 0.750000 0.750000 0.618330
O O20 0.750000 0.536945 0.381271
#
# Coordination Sequence:
#
# PCOD8241652 Si02
#       8
#     8   8   8   8   8   4   4   8
#     4  10  21  38  58  79 107 142 182 228 271 316
#     4  10  19  33  54  79 109 145 182 223 270 319
#     4  10  20  34  53  78 109 142 178 222 268 320
#     4  12  23  36  56  80 107 142 180 221 269 324
#     4   9  17  32  53  77 107 142 182 223 264 318
#     4  10  20  34  51  76 109 146 183 218 264 322
#     4  12  24  36  49  74 111 146 179 218 266 320
#     4  10  21  36  55  80 108 142 185 227 268 319
#
# _framework density 17.713415999999999
#
# number of rings (size 3 to 8) (size 9 to 14) (size 15 to 20)
#    0.000    1.714    1.429    4.071    0.000    5.714 
#    0.000    0.000    0.000    0.857    0.000    0.000 
#    0.000    0.000    0.000    0.000    0.000    0.000 
#
# Total GULP energy -694688.853790 kJ/mol
# GULP energy per Si atom -12405.158103 kJ/mol
# Density = 1.767310 g / cm^3
# Si number density = 17.713416 Si / 1000 Ang^3
#
#
#
# Elastic Constant Matrix: (Units=GPa)
#
#
# Indices 1 2 3 4 5 6 
#
# 1 99.6361 38.1281 50.5540 0.0000 0.0000 0.0000
# 2 38.1281 80.0302 48.5657 0.0000 0.0000 0.0000
# 3 50.5540 48.5657 106.9368 0.0000 0.0000 0.0000
# 4 0.0000 0.0000 0.0000 -6.7186 0.0000 0.0000
# 5 0.0000 0.0000 0.0000 0.0000 29.3970 0.0000
# 6 0.0000 0.0000 0.0000 0.0000 0.0000 30.2819
#
#
#
# Elastic Compliance Matrix: (Units=1/GPa)
#
#
# Indices 1 2 3 4 5 6 
#
# 1 0.013934 -0.003646 -0.004931 0.000000 0.000000 0.000000
# 2 -0.003646 0.018203 -0.006543 0.000000 0.000000 0.000000
# 3 -0.004931 -0.006543 0.014654 0.000000 0.000000 0.000000
# 4 0.000000 0.000000 0.000000 -0.148841 0.000000 0.000000
# 5 0.000000 0.000000 0.000000 0.000000 0.034017 0.000000
# 6 0.000000 0.000000 0.000000 0.000000 0.000000 0.033023
#
#
# Mechanical properties :
#
#
# Convention : Reuss Voigt Hill
#
# Bulk Modulus (GPa) = 60.42325 62.34433 61.38379
# Shear Modulus (GPa) = 6681.48778 20.54908 3351.01843
#
# Velocity S-wave (km/s) = 61.48318 3.40970 43.54198
# Velocity P-wave (km/s) = 71.23502 7.12558 50.62214
#
# Compressibility (1/GPa) = 0.01654992
#
# Stress axis : x y z
#
# Youngs Moduli (GPa) = 71.76796 54.93587 68.23902
#
# Poissons Ratio (x) = 0.20028 0.33652
# Poissons Ratio (y) = 0.26165 0.44652
# Poissons Ratio (z) = 0.35392 0.35947
#
# Static dielectric constant tensor:
#      x y z
#    x 3.317420 0.000000 0.000000 
#    y 0.000000 3.283270 0.000000 
#    z 0.000000 0.000000 3.351780 
# 
# 
# High freq. dielectric constant tensor:
#      x y z
#    x 1.693900 0.000000 0.000000 
#    y 0.000000 1.667690 0.000000 
#    z 0.000000 0.000000 1.686630 
# 
# From -- ./inp_files/21183.got.cif
#   From: 2010.03.12/outbox.cif.g09.slc.cpg/sg59_11_cif.got.tgz:21183.got - 2010.04.16 16:29:54.
