data_PCOD8241606
_publ_section_title
;
Structure prediction by ZEFSAII (Michael W. Deem and Ramdas Pophale) SiO2 
 PCOD8241606
Probable space group: P M M N
;
_chemical_formula_sum "Si O2"
_cell_formula_units_Z 48
_cell_length_a 30.193905
_cell_length_b 9.797780
_cell_length_c 8.767077
_cell_angle_alpha 90.000000
_cell_angle_beta 90.000000
_cell_angle_gamma 90.000000
_cell_volume 2593.592781
_symmetry_space_group_name_H-M "P M M N"
_symmetry_group_IT_number 59
_space_group.IT_coordinate_system_code '2'
_symmetry_cell_setting 'orthorhombic'
loop_
_space_group_symop_operation_xyz
x,y,z
1/2-x,1/2-y,z
1/2+x,-y,-z
-x,1/2+y,-z
-x,-y,-z
1/2+x,1/2+y,-z
1/2-x,y,z
x,1/2-y,z
loop_
_atom_site_type_symbol
_atom_site_label
_atom_site_fract_x
_atom_site_fract_y
_atom_site_fract_z
Si Si1 0.971133 0.400194 0.688981
Si Si2 0.146000 0.099344 0.458255
Si Si3 0.199739 0.906960 0.658348
Si Si4 0.903312 0.589709 0.844048
Si Si5 0.622942 0.402152 0.118006
Si Si6 0.563705 0.495417 0.377440
O O1 0.959702 0.250000 0.755042
O O2 0.948661 0.516776 0.791768
O O3 0.954813 0.402371 0.514087
O O4 0.023938 0.418430 0.696181
O O5 0.166486 0.250000 0.473892
O O6 0.134442 0.067264 0.282744
O O7 0.182418 0.992099 0.513749
O O8 0.101077 0.096669 0.557594
O O9 0.250000 0.948440 0.696477
O O10 0.195717 0.750000 0.609074
O O11 0.170630 0.936620 0.808137
O O12 0.913104 0.750000 0.871467
O O13 0.885855 0.520186 0.996900
O O14 0.623515 0.250000 0.044617
O O15 0.585226 0.400838 0.247907
#
# Coordination Sequence:
#
# PCOD8241606 Si02
#       6
#     8   8   8   8   8   8
#     4  10  19  33  54  76 101 137 180 218 257 305
#     4   9  18  34  54  76 103 134 168 206 253 304
#     4   9  19  36  58  83 105 126 161 210 257 304
#     4  10  22  36  50  73 107 141 172 212 254 297
#     4  10  20  35  55  76 103 138 172 207 254 310
#     4   9  19  32  52  78 104 131 172 223 262 295
#
# _framework density 18.507147
#
# number of rings (size 3 to 8) (size 9 to 14) (size 15 to 20)
#    0.000    2.500    0.000    1.500    0.000   13.667 
#    0.000    0.833    0.000    3.000    0.000    0.000 
#    0.000    0.000    0.000    0.000    0.000    0.000 
#
# Total GULP energy -595146.885242 kJ/mol
# GULP energy per Si atom -12398.893443 kJ/mol
# Density = 1.846502 g / cm^3
# Si number density = 18.507147 Si / 1000 Ang^3
#
#
#
# Elastic Constant Matrix: (Units=GPa)
#
#
# Indices 1 2 3 4 5 6 
#
# 1 126.8496 54.5020 49.7562 0.0000 0.0000 0.0000
# 2 54.5020 120.2411 47.4819 0.0000 0.0000 0.0000
# 3 49.7562 47.4819 79.5708 0.0000 0.0000 0.0000
# 4 0.0000 0.0000 0.0000 28.3054 0.0000 0.0000
# 5 0.0000 0.0000 0.0000 0.0000 15.8550 0.0000
# 6 0.0000 0.0000 0.0000 0.0000 0.0000 23.8287
#
#
#
# Elastic Compliance Matrix: (Units=1/GPa)
#
#
# Indices 1 2 3 4 5 6 
#
# 1 0.011231 -0.003032 -0.005214 0.000000 0.000000 0.000000
# 2 -0.003032 0.011699 -0.005085 0.000000 0.000000 0.000000
# 3 -0.005214 -0.005085 0.018862 0.000000 0.000000 0.000000
# 4 0.000000 0.000000 0.000000 0.035329 0.000000 0.000000
# 5 0.000000 0.000000 0.000000 0.000000 0.063072 0.000000
# 6 0.000000 0.000000 0.000000 0.000000 0.000000 0.041966
#
#
# Mechanical properties :
#
#
# Convention : Reuss Voigt Hill
#
# Bulk Modulus (GPa) = 66.09143 70.01572 68.05357
# Shear Modulus (GPa) = 23.37934 25.25925 24.31930
#
# Velocity S-wave (km/s) = 3.55809 3.69838 3.62891
# Velocity P-wave (km/s) = 7.25733 7.49341 7.37632
#
# Compressibility (1/GPa) = 0.01513056
#
# Stress axis : x y z
#
# Youngs Moduli (GPa) = 89.03870 85.47745 53.01659
#
# Poissons Ratio (x) = 0.25916 0.27641
# Poissons Ratio (y) = 0.26996 0.26960
# Poissons Ratio (z) = 0.46422 0.43467
#
# Static dielectric constant tensor:
#      x y z
#    x 3.395350 0.000000 0.000000 
#    y 0.000000 3.397940 0.000000 
#    z 0.000000 0.000000 3.267090 
# 
# 
# High freq. dielectric constant tensor:
#      x y z
#    x 1.706140 0.000000 0.000000 
#    y 0.000000 1.724150 0.000000 
#    z 0.000000 0.000000 1.702800 
# 
# From -- ./inp_files/12915.got.cif
#   From: 2010.03.12/outbox.cif.g09.slc.cpg/sg59_7_cif.got.tgz:12915.got - 2010.04.16 16:29:54.
