data_PCOD8241794
_publ_section_title
;
Structure prediction by ZEFSAII (Michael W. Deem and Ramdas Pophale) SiO2 
 PCOD8241794
Probable space group: P M M N
;
_chemical_formula_sum "Si O2"
_cell_formula_units_Z 64
_cell_length_a 8.920811
_cell_length_b 23.865536
_cell_length_c 15.009202
_cell_angle_alpha 90.000000
_cell_angle_beta 90.000000
_cell_angle_gamma 90.000000
_cell_volume 3195.458146
_symmetry_space_group_name_H-M "P M M N"
_symmetry_group_IT_number 59
_space_group.IT_coordinate_system_code '2'
_symmetry_cell_setting 'orthorhombic'
loop_
_space_group_symop_operation_xyz
x,y,z
1/2-x,1/2-y,z
1/2+x,-y,-z
-x,1/2+y,-z
-x,-y,-z
1/2+x,1/2+y,-z
1/2-x,y,z
x,1/2-y,z
loop_
_atom_site_type_symbol
_atom_site_label
_atom_site_fract_x
_atom_site_fract_y
_atom_site_fract_z
Si Si1 0.427917 0.113064 0.356302
Si Si2 0.423640 0.645394 0.956070
Si Si3 0.072425 0.996726 0.279803
Si Si4 0.071634 0.186158 0.519678
Si Si5 0.575789 0.314517 0.847101
Si Si6 0.926849 0.619672 0.307684
Si Si7 0.080971 0.311249 0.198897
Si Si8 0.073802 0.469086 0.082321
O O1 0.250000 0.117255 0.359251
O O2 0.477944 0.048306 0.344316
O O3 0.493566 0.144111 0.443837
O O4 0.487587 0.145781 0.270012
O O5 0.250000 0.628818 0.949303
O O6 0.470233 0.692981 0.885935
O O7 0.528826 0.594962 0.925396
O O8 0.463661 0.667284 0.053376
O O9 0.250000 0.989446 0.281983
O O10 0.018996 0.006598 0.177646
O O11 0.997024 0.941594 0.319880
O O12 0.250000 0.187853 0.515002
O O13 0.009138 0.250000 0.509718
O O14 0.017428 0.160434 0.613420
O O15 0.750000 0.324499 0.825976
O O16 0.531218 0.250000 0.833237
O O17 0.476948 0.353340 0.784671
O O18 0.750000 0.612740 0.308672
O O19 0.250000 0.329064 0.170444
O O20 0.084526 0.250000 0.243825
O O21 0.250000 0.476478 0.074231
O O22 0.000000 0.500000 0.000000
#
# Coordination Sequence:
#
# PCOD8241794 Si02
#       8
#     8   8   8   8   8   8   8   8
#     4   9  17  34  58  84 114 151 190 230 279 344
#     4  11  22  36  55  81 114 151 190 234 289 347
#     4  10  21  38  58  81 115 154 194 235 282 342
#     4   9  18  34  58  88 118 147 184 235 293 348
#     4  10  22  40  59  80 111 154 198 235 283 349
#     4  11  23  37  57  87 118 148 191 244 293 337
#     4  10  19  33  56  85 114 147 189 233 278 336
#     4  11  22  37  56  81 113 151 198 244 285 339
#
# _framework density 20.028427000000001
#
# number of rings (size 3 to 8) (size 9 to 14) (size 15 to 20)
#    0.000    1.875    1.250    3.000    0.000    8.500 
#    0.000    0.000    0.000    2.250    0.000    0.000 
#    0.000    0.000    0.000    0.000    0.000    0.000 
#
# Total GULP energy -793486.430586 kJ/mol
# GULP energy per Si atom -12398.225478 kJ/mol
# Density = 1.998284 g / cm^3
# Si number density = 20.028427 Si / 1000 Ang^3
#
#
#
# Elastic Constant Matrix: (Units=GPa)
#
#
# Indices 1 2 3 4 5 6 
#
# 1 33.4166 30.6732 25.8611 0.0000 0.0000 0.0000
# 2 30.6732 150.3155 60.9093 0.0000 0.0000 0.0000
# 3 25.8611 60.9093 107.1265 0.0000 0.0000 0.0000
# 4 0.0000 0.0000 0.0000 40.1317 0.0000 0.0000
# 5 0.0000 0.0000 0.0000 0.0000 10.0610 0.0000
# 6 0.0000 0.0000 0.0000 0.0000 0.0000 27.6496
#
#
#
# Elastic Compliance Matrix: (Units=1/GPa)
#
#
# Indices 1 2 3 4 5 6 
#
# 1 0.040049 -0.005529 -0.006525 0.000000 0.000000 0.000000
# 2 -0.005529 0.009407 -0.004014 0.000000 0.000000 0.000000
# 3 -0.006525 -0.004014 0.013192 0.000000 0.000000 0.000000
# 4 0.000000 0.000000 0.000000 0.024918 0.000000 0.000000
# 5 0.000000 0.000000 0.000000 0.000000 0.099394 0.000000
# 6 0.000000 0.000000 0.000000 0.000000 0.000000 0.036167
#
#
# Mechanical properties :
#
#
# Convention : Reuss Voigt Hill
#
# Bulk Modulus (GPa) = 32.77182 58.41622 45.59402
# Shear Modulus (GPa) = 18.83707 27.12946 22.98326
#
# Velocity S-wave (km/s) = 3.07011 3.68441 3.39120
# Velocity P-wave (km/s) = 5.38197 6.87967 6.17638
#
# Compressibility (1/GPa) = 0.03051402
#
# Stress axis : x y z
#
# Youngs Moduli (GPa) = 24.96914 106.29925 75.80204
#
# Poissons Ratio (x) = 0.58768 0.49460
# Poissons Ratio (y) = 0.13804 0.30428
# Poissons Ratio (z) = 0.16292 0.42670
#
# Static dielectric constant tensor:
#      x y z
#    x 3.394510 0.000000 0.000000 
#    y 0.000000 4.775080 0.000000 
#    z 0.000000 0.000000 3.838880 
# 
# 
# High freq. dielectric constant tensor:
#      x y z
#    x 1.747650 0.000000 0.000000 
#    y 0.000000 1.800300 0.000000 
#    z 0.000000 0.000000 1.786070 
# 
# From -- ./inp_files/21593.got.cif
#   From: 2010.03.12/outbox.cif.g09.slc.cpg/sg59_11_cif.got.tgz:21593.got - 2010.04.16 16:29:54.
