data_PCOD8241542
_publ_section_title
;
Structure prediction by ZEFSAII (Michael W. Deem and Ramdas Pophale) SiO2 
 PCOD8241542
Probable space group: P M M N
;
_chemical_formula_sum "Si O2"
_cell_formula_units_Z 56
_cell_length_a 8.436965
_cell_length_b 23.433582
_cell_length_c 15.499796
_cell_angle_alpha 90.000000
_cell_angle_beta 90.000000
_cell_angle_gamma 90.000000
_cell_volume 3064.438490
_symmetry_space_group_name_H-M "P M M N"
_symmetry_group_IT_number 59
_space_group.IT_coordinate_system_code '2'
_symmetry_cell_setting 'orthorhombic'
loop_
_space_group_symop_operation_xyz
x,y,z
1/2-x,1/2-y,z
1/2+x,-y,-z
-x,1/2+y,-z
-x,-y,-z
1/2+x,1/2+y,-z
1/2-x,y,z
x,1/2-y,z
loop_
_atom_site_type_symbol
_atom_site_label
_atom_site_fract_x
_atom_site_fract_y
_atom_site_fract_z
Si Si1 0.565409 0.936880 0.000078
Si Si2 0.437279 0.750000 0.087930
Si Si3 0.934766 0.370442 0.845324
Si Si4 0.437743 0.750000 0.894931
Si Si5 0.065121 0.446671 0.311855
Si Si6 0.564201 0.927440 0.316922
Si Si7 0.934995 0.562404 0.502291
Si Si8 0.565143 0.372236 0.160647
O O1 0.750000 0.936478 0.976041
O O2 0.537953 0.911703 0.094711
O O3 0.467820 0.900014 0.931668
O O4 0.500000 0.000000 0.000000
O O5 0.250000 0.750000 0.080442
O O6 0.494112 0.694254 0.139917
O O7 0.511776 0.750000 0.991479
O O8 0.750000 0.377447 0.868137
O O9 0.965203 0.387620 0.746886
O O10 0.250000 0.750000 0.904549
O O11 0.492521 0.806354 0.843175
O O12 0.250000 0.462625 0.312079
O O13 0.018621 0.413617 0.402458
O O14 0.969727 0.505483 0.300276
O O15 0.031362 0.403498 0.234986
O O16 0.750000 0.917043 0.301921
O O17 0.506179 0.907130 0.413719
O O18 0.750000 0.558983 0.491915
O O19 0.000000 0.500000 0.500000
O O20 0.750000 0.376970 0.181834
#
# Coordination Sequence:
#
# PCOD8241542 Si02
#       8
#     8   4   8   4   8   8   8   8
#     4  12  24  37  52  75 105 138 170 208 255 308
#     4   9  18  36  58  75  96 133 177 216 258 306
#     4  11  21  36  56  77 102 135 173 215 259 307
#     4   9  18  36  58  75  96 133 177 216 258 306
#     4  10  19  33  52  79 109 139 173 211 258 309
#     4  10  19  33  52  79 109 139 173 211 258 309
#     4   8  16  30  50  73 104 139 171 208 252 306
#     4  11  21  36  56  77 102 135 173 215 259 307
#
# _framework density 18.274146999999999
#
# number of rings (size 3 to 8) (size 9 to 14) (size 15 to 20)
#    0.000    1.857    1.429    3.857    0.000    1.143 
#    0.000    3.571    0.000    0.857    0.000    6.000 
#    0.000    0.000    0.000    0.000    0.000    0.000 
#
# Total GULP energy -694031.051528 kJ/mol
# GULP energy per Si atom -12393.411634 kJ/mol
# Density = 1.823255 g / cm^3
# Si number density = 18.274147 Si / 1000 Ang^3
#
#
#
# Elastic Constant Matrix: (Units=GPa)
#
#
# Indices 1 2 3 4 5 6 
#
# 1 32.4620 14.4837 10.7207 0.0000 0.0000 0.0000
# 2 14.4837 89.1538 24.8636 0.0000 0.0000 0.0000
# 3 10.7207 24.8636 108.9450 0.0000 0.0000 0.0000
# 4 0.0000 0.0000 0.0000 8.4623 0.0000 0.0000
# 5 0.0000 0.0000 0.0000 0.0000 23.6870 0.0000
# 6 0.0000 0.0000 0.0000 0.0000 0.0000 17.6763
#
#
#
# Elastic Compliance Matrix: (Units=1/GPa)
#
#
# Indices 1 2 3 4 5 6 
#
# 1 0.033703 -0.004860 -0.002207 0.000000 0.000000 0.000000
# 2 -0.004860 0.012680 -0.002416 0.000000 0.000000 0.000000
# 3 -0.002207 -0.002416 0.009947 0.000000 0.000000 0.000000
# 4 0.000000 0.000000 0.000000 0.118171 0.000000 0.000000
# 5 0.000000 0.000000 0.000000 0.000000 0.042217 0.000000
# 6 0.000000 0.000000 0.000000 0.000000 0.000000 0.056573
#
#
# Mechanical properties :
#
#
# Convention : Reuss Voigt Hill
#
# Bulk Modulus (GPa) = 26.76338 36.74408 31.75373
# Shear Modulus (GPa) = 16.40897 21.99797 19.20347
#
# Velocity S-wave (km/s) = 2.99981 3.47331 3.24521
# Velocity P-wave (km/s) = 5.16485 6.01963 5.60855
#
# Compressibility (1/GPa) = 0.03736449
#
# Stress axis : x y z
#
# Youngs Moduli (GPa) = 29.67138 78.86608 100.52829
#
# Poissons Ratio (x) = 0.38326 0.22191
# Poissons Ratio (y) = 0.14419 0.24283
# Poissons Ratio (z) = 0.06550 0.19051
#
# Static dielectric constant tensor:
#      x y z
#    x 3.327050 0.000000 0.000000 
#    y 0.000000 3.182490 0.000000 
#    z 0.000000 0.000000 3.923890 
# 
# 
# High freq. dielectric constant tensor:
#      x y z
#    x 1.705830 0.000000 0.000000 
#    y 0.000000 1.679900 0.000000 
#    z 0.000000 0.000000 1.722740 
# 
# From -- ./inp_files/21175.got.cif
#   From: 2010.03.12/outbox.cif.g09.slc.cpg/sg59_11_cif.got.tgz:21175.got - 2010.04.16 16:29:54.
