data_PCOD8241810
_publ_section_title
;
Structure prediction by ZEFSAII (Michael W. Deem and Ramdas Pophale) SiO2 
 PCOD8241810
Probable space group: P M M N
;
_chemical_formula_sum "Si O2"
_cell_formula_units_Z 64
_cell_length_a 9.150017
_cell_length_b 23.267234
_cell_length_c 15.181702
_cell_angle_alpha 90.000000
_cell_angle_beta 90.000000
_cell_angle_gamma 90.000000
_cell_volume 3232.117354
_symmetry_space_group_name_H-M "P M M N"
_symmetry_group_IT_number 59
_space_group.IT_coordinate_system_code '2'
_symmetry_cell_setting 'orthorhombic'
loop_
_space_group_symop_operation_xyz
x,y,z
1/2-x,1/2-y,z
1/2+x,-y,-z
-x,1/2+y,-z
-x,-y,-z
1/2+x,1/2+y,-z
1/2-x,y,z
x,1/2-y,z
loop_
_atom_site_type_symbol
_atom_site_label
_atom_site_fract_x
_atom_site_fract_y
_atom_site_fract_z
Si Si1 0.581839 0.498974 0.317439
Si Si2 0.083886 0.184161 0.786520
Si Si3 0.085183 0.516945 0.145175
Si Si4 0.579347 0.316390 0.458179
Si Si5 0.084249 0.388720 0.112505
Si Si6 0.417595 0.865766 0.053363
Si Si7 0.581204 0.620037 0.387278
Si Si8 0.922989 0.616478 0.685931
O O1 0.750000 0.479722 0.309949
O O2 0.530579 0.523100 0.223277
O O3 0.563578 0.550981 0.386842
O O4 0.485720 0.444666 0.347815
O O5 0.250000 0.167152 0.808980
O O6 0.069980 0.250000 0.757365
O O7 0.025656 0.145996 0.705456
O O8 0.989187 0.174219 0.873247
O O9 0.250000 0.519869 0.184831
O O10 0.064258 0.456638 0.095507
O O11 0.057851 0.567488 0.076169
O O12 0.750000 0.328977 0.446001
O O13 0.548986 0.250000 0.479957
O O14 0.519246 0.355436 0.536358
O O15 0.495831 0.332125 0.368302
O O16 0.250000 0.369229 0.097327
O O17 0.035333 0.373785 0.211994
O O18 0.987026 0.354000 0.042514
O O19 0.250000 0.848293 0.047789
O O20 0.750000 0.637726 0.403705
O O21 0.750000 0.615872 0.670992
#
# Coordination Sequence:
#
# PCOD8241810 Si02
#       8
#     8   8   8   8   8   8   8   8
#     4  10  19  33  58  90 122 155 191 235 289 344
#     4  10  21  38  58  80 112 155 200 243 286 342
#     4   9  18  32  50  79 117 155 190 229 279 340
#     4  11  25  43  64  90 116 147 192 244 295 346
#     4   9  19  35  55  80 112 149 192 233 279 339
#     4  11  21  32  52  82 115 151 192 237 287 337
#     4  10  21  38  62  90 118 153 194 235 287 350
#     4  10  22  41  63  87 118 155 194 240 293 351
#
# _framework density 19.801262000000001
#
# number of rings (size 3 to 8) (size 9 to 14) (size 15 to 20)
#    0.000    2.000    1.250    3.000    0.000    6.750 
#    0.000    0.625    0.000    0.750    0.000    0.000 
#    0.000    0.000    0.000    0.000    0.000    0.000 
#
# Total GULP energy -793753.106230 kJ/mol
# GULP energy per Si atom -12402.392285 kJ/mol
# Density = 1.975619 g / cm^3
# Si number density = 19.801262 Si / 1000 Ang^3
#
#
#
# Elastic Constant Matrix: (Units=GPa)
#
#
# Indices 1 2 3 4 5 6 
#
# 1 99.8342 26.7958 47.9922 0.0000 0.0000 0.0000
# 2 26.7958 37.8623 25.5130 0.0000 0.0000 0.0000
# 3 47.9922 25.5130 91.8371 0.0000 0.0000 0.0000
# 4 0.0000 0.0000 0.0000 24.1524 0.0000 0.0000
# 5 0.0000 0.0000 0.0000 0.0000 35.4958 0.0000
# 6 0.0000 0.0000 0.0000 0.0000 0.0000 29.1766
#
#
#
# Elastic Compliance Matrix: (Units=1/GPa)
#
#
# Indices 1 2 3 4 5 6 
#
# 1 0.014521 -0.006353 -0.005824 0.000000 0.000000 0.000000
# 2 -0.006353 0.035274 -0.006479 0.000000 0.000000 0.000000
# 3 -0.005824 -0.006479 0.015732 0.000000 0.000000 0.000000
# 4 0.000000 0.000000 0.000000 0.041404 0.000000 0.000000
# 5 0.000000 0.000000 0.000000 0.000000 0.028172 0.000000
# 6 0.000000 0.000000 0.000000 0.000000 0.000000 0.034274
#
#
# Mechanical properties :
#
#
# Convention : Reuss Voigt Hill
#
# Bulk Modulus (GPa) = 35.44177 47.79286 41.61731
# Shear Modulus (GPa) = 23.13808 26.38046 24.75927
#
# Velocity S-wave (km/s) = 3.42206 3.65398 3.53992
# Velocity P-wave (km/s) = 5.79238 6.48002 6.14583
#
# Compressibility (1/GPa) = 0.02821530
#
# Stress axis : x y z
#
# Youngs Moduli (GPa) = 68.86452 28.34986 63.56380
#
# Poissons Ratio (x) = 0.18010 0.37018
# Poissons Ratio (y) = 0.43748 0.41186
# Poissons Ratio (z) = 0.40105 0.18369
#
# Static dielectric constant tensor:
#      x y z
#    x 3.625660 0.000000 0.000000 
#    y 0.000000 3.488380 0.000000 
#    z 0.000000 0.000000 3.447460 
# 
# 
# High freq. dielectric constant tensor:
#      x y z
#    x 1.776190 0.000000 0.000000 
#    y 0.000000 1.760630 0.000000 
#    z 0.000000 0.000000 1.765250 
# 
# From -- ./inp_files/21543.got.cif
#   From: 2010.03.12/outbox.cif.g09.slc.cpg/sg59_11_cif.got.tgz:21543.got - 2010.04.16 16:29:54.
