data_PCOD8241862
_publ_section_title
;
Structure prediction by ZEFSAII (Michael W. Deem and Ramdas Pophale) SiO2 
 PCOD8241862
Probable space group: P M M N
;
_chemical_formula_sum "Si O2"
_cell_formula_units_Z 48
_cell_length_a 25.370564
_cell_length_b 9.179051
_cell_length_c 11.700318
_cell_angle_alpha 90.000000
_cell_angle_beta 90.000000
_cell_angle_gamma 90.000000
_cell_volume 2724.743155
_symmetry_space_group_name_H-M "P M M N"
_symmetry_group_IT_number 59
_space_group.IT_coordinate_system_code '2'
_symmetry_cell_setting 'orthorhombic'
loop_
_space_group_symop_operation_xyz
x,y,z
1/2-x,1/2-y,z
1/2+x,-y,-z
-x,1/2+y,-z
-x,-y,-z
1/2+x,1/2+y,-z
1/2-x,y,z
x,1/2-y,z
loop_
_atom_site_type_symbol
_atom_site_label
_atom_site_fract_x
_atom_site_fract_y
_atom_site_fract_z
Si Si1 0.808341 0.423129 0.120126
Si Si2 0.496841 0.079736 0.118837
Si Si3 0.810954 0.081974 0.864777
Si Si4 0.944032 0.578259 0.491591
Si Si5 0.898181 0.580305 0.735562
Si Si6 0.096084 0.921474 0.725561
O O1 0.750000 0.479521 0.155840
O O2 0.808142 0.250000 0.114325
O O3 0.850782 0.477370 0.212267
O O4 0.822655 0.479556 0.992601
O O5 0.493358 0.250000 0.094969
O O6 0.446156 0.021779 0.187065
O O7 0.547842 0.041019 0.192389
O O8 0.500000 0.000000 0.000000
O O9 0.750000 0.059066 0.833925
O O10 0.826979 0.250000 0.857902
O O11 0.844469 0.997385 0.770806
O O12 0.953790 0.750000 0.475307
O O13 0.910587 0.544918 0.604511
O O14 0.909464 0.513568 0.389275
O O15 0.000000 0.500000 0.500000
O O16 0.890444 0.750000 0.755323
O O17 0.097993 0.750000 0.696304
#
# Coordination Sequence:
#
# PCOD8241862 Si02
#       6
#     8   8   8   8   8   8
#     4   8  15  30  54  81 108 139 173 214 264 311
#     4  10  20  33  49  75 107 138 173 216 267 321
#     4   9  18  34  57  83 107 136 178 219 258 312
#     4  11  22  38  56  75 103 141 182 220 262 315
#     4  10  21  36  52  74 107 140 175 216 266 321
#     4  10  19  34  54  77 108 140 175 219 265 312
#
# _framework density 17.616339
#
# number of rings (size 3 to 8) (size 9 to 14) (size 15 to 20)
#    0.000    2.333    1.667    2.500    0.000    4.333 
#    0.000    1.667    0.000    4.500    0.000    0.000 
#    0.000    0.000    0.000    0.000    0.000    0.000 
#
# Total GULP energy -595211.793385 kJ/mol
# GULP energy per Si atom -12400.245696 kJ/mol
# Density = 1.757624 g / cm^3
# Si number density = 17.616339 Si / 1000 Ang^3
#
#
#
# Elastic Constant Matrix: (Units=GPa)
#
#
# Indices 1 2 3 4 5 6 
#
# 1 121.8827 46.6404 78.7067 0.0000 0.0000 0.0000
# 2 46.6404 51.8832 62.2475 0.0000 0.0000 0.0000
# 3 78.7067 62.2475 147.5751 0.0000 0.0000 0.0000
# 4 0.0000 0.0000 0.0000 34.9846 0.0000 0.0000
# 5 0.0000 0.0000 0.0000 0.0000 27.6744 0.0000
# 6 0.0000 0.0000 0.0000 0.0000 0.0000 24.9302
#
#
#
# Elastic Compliance Matrix: (Units=1/GPa)
#
#
# Indices 1 2 3 4 5 6 
#
# 1 0.013726 -0.007199 -0.004284 0.000000 0.000000 0.000000
# 2 -0.007199 0.042797 -0.014212 0.000000 0.000000 0.000000
# 3 -0.004284 -0.014212 0.015056 0.000000 0.000000 0.000000
# 4 0.000000 0.000000 0.000000 0.028584 0.000000 0.000000
# 5 0.000000 0.000000 0.000000 0.000000 0.036134 0.000000
# 6 0.000000 0.000000 0.000000 0.000000 0.000000 0.040112
#
#
# Mechanical properties :
#
#
# Convention : Reuss Voigt Hill
#
# Bulk Modulus (GPa) = 49.53448 77.39224 63.46336
# Shear Modulus (GPa) = 21.31927 26.43428 23.87678
#
# Velocity S-wave (km/s) = 3.48257 3.87790 3.68554
# Velocity P-wave (km/s) = 6.65962 8.00489 7.36304
#
# Compressibility (1/GPa) = 0.02018796
#
# Stress axis : x y z
#
# Youngs Moduli (GPa) = 72.85547 23.36589 66.42016
#
# Poissons Ratio (x) = 0.16822 0.28452
# Poissons Ratio (y) = 0.52451 0.94399
# Poissons Ratio (z) = 0.31209 0.33208
#
# Static dielectric constant tensor:
#      x y z
#    x 3.442680 0.000000 0.000000 
#    y 0.000000 3.058910 0.000000 
#    z 0.000000 0.000000 3.305790 
# 
# 
# High freq. dielectric constant tensor:
#      x y z
#    x 1.686330 0.000000 0.000000 
#    y 0.000000 1.661120 0.000000 
#    z 0.000000 0.000000 1.684330 
# 
# From -- ./inp_files/12527.got.cif
#   From: 2010.03.12/outbox.cif.g09.slc.cpg/sg59_7_cif.got.tgz:12527.got - 2010.04.16 16:29:54.
