data_PCOD8241103
_publ_section_title
;
Structure prediction by ZEFSAII (Michael W. Deem and Ramdas Pophale) SiO2 
 PCOD8241103
Probable space group: P M M N
;
_chemical_formula_sum "Si O2"
_cell_formula_units_Z 64
_cell_length_a 24.465478
_cell_length_b 9.207189
_cell_length_c 15.728950
_cell_angle_alpha 90.000000
_cell_angle_beta 90.000000
_cell_angle_gamma 90.000000
_cell_volume 3543.076222
_symmetry_space_group_name_H-M "P M M N"
_symmetry_group_IT_number 59
_space_group.IT_coordinate_system_code '2'
_symmetry_cell_setting 'orthorhombic'
loop_
_space_group_symop_operation_xyz
x,y,z
1/2-x,1/2-y,z
1/2+x,-y,-z
-x,1/2+y,-z
-x,-y,-z
1/2+x,1/2+y,-z
1/2-x,y,z
x,1/2-y,z
loop_
_atom_site_type_symbol
_atom_site_label
_atom_site_fract_x
_atom_site_fract_y
_atom_site_fract_z
Si Si1 0.811908 0.409853 0.310886
Si Si2 0.917164 0.919806 0.037470
Si Si3 0.343975 0.078143 0.527130
Si Si4 0.186448 0.080001 0.852855
Si Si5 0.588948 0.082228 0.716588
Si Si6 0.469005 0.920184 0.114814
Si Si7 0.189155 0.082904 0.339447
Si Si8 0.053031 0.920395 0.471225
O O1 0.750000 0.381578 0.286997
O O2 0.840229 0.250000 0.323032
O O3 0.811968 0.508959 0.394632
O O4 0.836148 0.496356 0.230311
O O5 0.918819 0.750000 0.017681
O O6 0.857227 0.963540 0.073731
O O7 0.967235 0.962398 0.101239
O O8 0.927475 0.002951 0.949877
O O9 0.350504 0.250000 0.540808
O O10 0.313428 0.040658 0.439135
O O11 0.401488 0.997748 0.527459
O O12 0.250000 0.041859 0.878106
O O13 0.181871 0.250000 0.832562
O O14 0.602374 0.250000 0.726412
O O15 0.548688 0.028344 0.791025
O O16 0.559779 0.046888 0.628183
O O17 0.647501 0.003872 0.719866
O O18 0.460563 0.750000 0.102522
O O19 0.250000 0.048602 0.306617
O O20 0.173789 0.250000 0.329143
O O21 0.051641 0.750000 0.491295
O O22 0.000000 0.000000 0.500000
#
# Coordination Sequence:
#
# PCOD8241103 Si02
#       8
#     8   8   8   8   8   8   8   8
#     4  10  20  32  47  71 102 132 165 206 247 290
#     4   9  18  33  54  78 101 128 162 202 248 296
#     4  10  19  32  50  70  95 130 170 210 252 297
#     4   9  18  33  52  74 102 135 168 202 247 305
#     4   9  19  34  51  72 100 133 167 206 252 302
#     4   9  18  34  54  75  99 127 163 205 247 295
#     4   9  18  32  50  72  97 127 166 210 253 298
#     4  10  20  34  50  71 100 133 170 209 252 301
#
# _framework density 18.063400000000001
#
# number of rings (size 3 to 8) (size 9 to 14) (size 15 to 20)
#    0.000    2.625    0.000    1.500    0.000    4.500 
#    0.000    3.125    0.000    2.250    0.000    0.000 
#    0.000    0.000    0.000    0.000    0.000    0.000 
#
# Total GULP energy -793252.264481 kJ/mol
# GULP energy per Si atom -12394.566633 kJ/mol
# Density = 1.802229 g / cm^3
# Si number density = 18.063400 Si / 1000 Ang^3
#
#
#
# Elastic Constant Matrix: (Units=GPa)
#
#
# Indices 1 2 3 4 5 6 
#
# 1 100.1766 35.4264 42.2192 0.0000 0.0000 0.0000
# 2 35.4264 65.5733 33.9521 0.0000 0.0000 0.0000
# 3 42.2192 33.9521 73.4224 0.0000 0.0000 0.0000
# 4 0.0000 0.0000 0.0000 30.8152 0.0000 0.0000
# 5 0.0000 0.0000 0.0000 0.0000 27.3151 0.0000
# 6 0.0000 0.0000 0.0000 0.0000 0.0000 29.6709
#
#
#
# Elastic Compliance Matrix: (Units=1/GPa)
#
#
# Indices 1 2 3 4 5 6 
#
# 1 0.014119 -0.004502 -0.006037 0.000000 0.000000 0.000000
# 2 -0.004502 0.021487 -0.007347 0.000000 0.000000 0.000000
# 3 -0.006037 -0.007347 0.020488 0.000000 0.000000 0.000000
# 4 0.000000 0.000000 0.000000 0.032451 0.000000 0.000000
# 5 0.000000 0.000000 0.000000 0.000000 0.036610 0.000000
# 6 0.000000 0.000000 0.000000 0.000000 0.000000 0.033703
#
#
# Mechanical properties :
#
#
# Convention : Reuss Voigt Hill
#
# Bulk Modulus (GPa) = 49.20759 51.37420 50.29090
# Shear Modulus (GPa) = 24.82581 26.06521 25.44551
#
# Velocity S-wave (km/s) = 3.71127 3.80279 3.75731
# Velocity P-wave (km/s) = 6.75762 6.91262 6.83556
#
# Compressibility (1/GPa) = 0.02032207
#
# Stress axis : x y z
#
# Youngs Moduli (GPa) = 70.82861 46.54084 48.80805
#
# Poissons Ratio (x) = 0.20953 0.29463
# Poissons Ratio (y) = 0.31888 0.35860
# Poissons Ratio (z) = 0.42756 0.34194
#
# Static dielectric constant tensor:
#      x y z
#    x 7.456900 0.000000 0.000000 
#    y 0.000000 3.442370 0.000000 
#    z 0.000000 0.000000 3.853740 
# 
# 
# High freq. dielectric constant tensor:
#      x y z
#    x 1.697030 0.000000 0.000000 
#    y 0.000000 1.703960 0.000000 
#    z 0.000000 0.000000 1.684320 
# 
# From -- ./inp_files/24668.got.cif
#   From: 2010.03.12/outbox.cif.g09.slc.cpg/sg59_13_cif.got.tgz:24668.got - 2010.04.16 16:29:54.
