data_PCOD8241256
_publ_section_title
;
Structure prediction by ZEFSAII (Michael W. Deem and Ramdas Pophale) SiO2 
 PCOD8241256
Probable space group: P M M N
;
_chemical_formula_sum "Si O2"
_cell_formula_units_Z 64
_cell_length_a 9.049166
_cell_length_b 18.543982
_cell_length_c 21.674329
_cell_angle_alpha 90.000000
_cell_angle_beta 90.000000
_cell_angle_gamma 90.000000
_cell_volume 3637.116512
_symmetry_space_group_name_H-M "P M M N"
_symmetry_group_IT_number 59
_space_group.IT_coordinate_system_code '2'
_symmetry_cell_setting 'orthorhombic'
loop_
_space_group_symop_operation_xyz
x,y,z
1/2-x,1/2-y,z
1/2+x,-y,-z
-x,1/2+y,-z
-x,-y,-z
1/2+x,1/2+y,-z
1/2-x,y,z
x,1/2-y,z
loop_
_atom_site_type_symbol
_atom_site_label
_atom_site_fract_x
_atom_site_fract_y
_atom_site_fract_z
Si Si1 0.422988 0.671295 0.378167
Si Si2 0.926760 0.474516 0.562542
Si Si3 0.076648 0.832013 0.131263
Si Si4 0.923148 0.409066 0.743982
Si Si5 0.584445 0.663991 0.010183
Si Si6 0.086166 0.664433 0.892697
Si Si7 0.425136 0.535830 0.680073
Si Si8 0.574764 0.170439 0.242084
O O1 0.250000 0.678063 0.387449
O O2 0.495609 0.750000 0.393145
O O3 0.479566 0.607906 0.423764
O O4 0.459221 0.651074 0.307580
O O5 0.750000 0.480803 0.559435
O O6 0.000000 0.500000 0.500000
O O7 0.986985 0.525678 0.616567
O O8 0.250000 0.835555 0.120408
O O9 0.025311 0.750000 0.143114
O O10 0.028480 0.878700 0.190055
O O11 0.000289 0.864884 0.070576
O O12 0.750000 0.429780 0.741249
O O13 0.022294 0.478871 0.731239
O O14 0.750000 0.634694 0.013527
O O15 0.577890 0.750000 0.008818
O O16 0.512767 0.631895 0.947778
O O17 0.250000 0.631116 0.899598
O O18 0.095143 0.750000 0.898746
O O19 0.015471 0.645444 0.825570
O O20 0.250000 0.528678 0.668960
O O21 0.471177 0.614608 0.704949
O O22 0.750000 0.174424 0.235519
O O23 0.512742 0.250000 0.259769
#
# Coordination Sequence:
#
# PCOD8241256 Si02
#       8
#     8   8   8   8   8   8   8   8
#     4   8  14  27  49  74  95 119 158 201 231 260
#     4  10  20  35  55  76 101 132 162 193 229 273
#     4   9  16  26  42  63  87 121 164 201 232 273
#     4   9  17  29  46  68  95 125 156 194 236 278
#     4   9  16  24  35  57  90 121 149 189 242 291
#     4   8  13  24  43  63  83 111 150 194 235 276
#     4  10  19  32  52  75  98 124 153 187 230 281
#     4   8  15  29  50  74  95 118 155 199 235 273
#
# _framework density 17.596357000000001
#
# number of rings (size 3 to 8) (size 9 to 14) (size 15 to 20)
#    0.000    3.125    0.000    3.000    0.000    3.500 
#    0.000    1.875    0.000   19.875    0.000    0.000 
#    0.000    0.000    0.000    0.000    0.000    0.000 
#
# Total GULP energy -793181.829003 kJ/mol
# GULP energy per Si atom -12393.466078 kJ/mol
# Density = 1.755631 g / cm^3
# Si number density = 17.596357 Si / 1000 Ang^3
#
#
#
# Elastic Constant Matrix: (Units=GPa)
#
#
# Indices 1 2 3 4 5 6 
#
# 1 59.2611 30.9390 49.4139 0.0000 0.0000 0.0000
# 2 30.9390 91.1542 74.5177 0.0000 0.0000 0.0000
# 3 49.4139 74.5177 148.5839 0.0000 0.0000 0.0000
# 4 0.0000 0.0000 0.0000 9.4910 0.0000 0.0000
# 5 0.0000 0.0000 0.0000 0.0000 25.8094 0.0000
# 6 0.0000 0.0000 0.0000 0.0000 0.0000 17.8694
#
#
#
# Elastic Compliance Matrix: (Units=1/GPa)
#
#
# Indices 1 2 3 4 5 6 
#
# 1 0.023740 -0.002718 -0.006532 0.000000 0.000000 0.000000
# 2 -0.002718 0.018905 -0.008577 0.000000 0.000000 0.000000
# 3 -0.006532 -0.008577 0.013204 0.000000 0.000000 0.000000
# 4 0.000000 0.000000 0.000000 0.105363 0.000000 0.000000
# 5 0.000000 0.000000 0.000000 0.000000 0.038746 0.000000
# 6 0.000000 0.000000 0.000000 0.000000 0.000000 0.055961
#
#
# Mechanical properties :
#
#
# Convention : Reuss Voigt Hill
#
# Bulk Modulus (GPa) = 49.51786 67.63781 58.57784
# Shear Modulus (GPa) = 16.76138 20.24253 18.50195
#
# Velocity S-wave (km/s) = 3.08969 3.39541 3.24615
# Velocity P-wave (km/s) = 6.39768 7.34123 6.88564
#
# Compressibility (1/GPa) = 0.02019473
#
# Stress axis : x y z
#
# Youngs Moduli (GPa) = 42.12290 52.89701 75.73345
#
# Poissons Ratio (x) = 0.14376 0.49470
# Poissons Ratio (y) = 0.11448 0.64958
# Poissons Ratio (z) = 0.27515 0.45371
#
# Static dielectric constant tensor:
#      x y z
#    x 3.119620 0.000000 0.000000 
#    y 0.000000 3.223610 0.000000 
#    z 0.000000 0.000000 3.355780 
# 
# 
# High freq. dielectric constant tensor:
#      x y z
#    x 1.659050 0.000000 0.000000 
#    y 0.000000 1.651430 0.000000 
#    z 0.000000 0.000000 1.683310 
# 
# From -- ./inp_files/29729.got.cif
#   From: 2010.03.12/outbox.cif.g09.slc.cpg/sg59_15_cif.got.tgz:29729.got - 2010.04.16 16:29:54.
