data_PCOD8241777
_publ_section_title
;
Structure prediction by ZEFSAII (Michael W. Deem and Ramdas Pophale) SiO2 
 PCOD8241777
Probable space group: P M M N
;
_chemical_formula_sum "Si O2"
_cell_formula_units_Z 64
_cell_length_a 8.960817
_cell_length_b 17.766321
_cell_length_c 21.569849
_cell_angle_alpha 90.000000
_cell_angle_beta 90.000000
_cell_angle_gamma 90.000000
_cell_volume 3433.936165
_symmetry_space_group_name_H-M "P M M N"
_symmetry_group_IT_number 59
_space_group.IT_coordinate_system_code '2'
_symmetry_cell_setting 'orthorhombic'
loop_
_space_group_symop_operation_xyz
x,y,z
1/2-x,1/2-y,z
1/2+x,-y,-z
-x,1/2+y,-z
-x,-y,-z
1/2+x,1/2+y,-z
1/2-x,y,z
x,1/2-y,z
loop_
_atom_site_type_symbol
_atom_site_label
_atom_site_fract_x
_atom_site_fract_y
_atom_site_fract_z
Si Si1 0.575309 0.162167 0.731850
Si Si2 0.574722 0.517987 0.935383
Si Si3 0.079103 0.166144 0.133843
Si Si4 0.421418 0.837102 0.511488
Si Si5 0.423163 0.601157 0.752505
Si Si6 0.424345 0.447910 0.820050
Si Si7 0.927123 0.420979 0.609480
Si Si8 0.426540 0.409409 0.374676
O O1 0.750000 0.145232 0.740529
O O2 0.540990 0.250000 0.728941
O O3 0.487102 0.128208 0.790124
O O4 0.512873 0.124929 0.668737
O O5 0.750000 0.504263 0.940351
O O6 0.535518 0.604579 0.917943
O O7 0.508666 0.461581 0.884415
O O8 0.500000 0.500000 0.000000
O O9 0.250000 0.153531 0.154409
O O10 0.054499 0.250000 0.106180
O O11 0.977227 0.157721 0.194328
O O12 0.250000 0.859226 0.524693
O O13 0.436145 0.750000 0.494363
O O14 0.488267 0.883680 0.453562
O O15 0.518149 0.854517 0.571714
O O16 0.250000 0.614833 0.740641
O O17 0.458207 0.515802 0.772731
O O18 0.510281 0.620563 0.690027
O O19 0.250000 0.439754 0.834208
O O20 0.750000 0.416815 0.609164
O O21 0.986096 0.506287 0.612417
O O22 0.250000 0.407343 0.371470
#
# Coordination Sequence:
#
# PCOD8241777 Si02
#       8
#     8   8   8   8   8   8   8   8
#     4  10  19  33  56  83 110 141 180 226 277 332
#     4  10  20  36  60  86 114 150 190 228 269 322
#     4   9  19  36  58  84 113 145 182 226 275 322
#     4  10  21  37  54  73 102 139 179 225 276 331
#     4  10  20  34  54  80 108 141 179 220 269 324
#     4  10  20  35  55  80 112 145 180 223 268 321
#     4   9  18  34  56  79 102 136 181 224 272 331
#     4  11  21  34  55  79 105 138 178 226 275 328
#
# _framework density 18.637505000000001
#
# number of rings (size 3 to 8) (size 9 to 14) (size 15 to 20)
#    0.000    2.125    1.250    2.250    0.000    4.250 
#    0.000    1.875    0.000    3.750    0.000    0.000 
#    0.000    0.000    0.000    0.000    0.000    0.000 
#
# Total GULP energy -793836.029497 kJ/mol
# GULP energy per Si atom -12403.687961 kJ/mol
# Density = 1.859509 g / cm^3
# Si number density = 18.637505 Si / 1000 Ang^3
#
#
#
# Elastic Constant Matrix: (Units=GPa)
#
#
# Indices 1 2 3 4 5 6 
#
# 1 72.3868 28.5185 50.0302 0.0000 0.0000 0.0000
# 2 28.5185 76.6859 39.1571 0.0000 0.0000 0.0000
# 3 50.0302 39.1571 137.8736 0.0000 0.0000 0.0000
# 4 0.0000 0.0000 0.0000 23.3092 0.0000 0.0000
# 5 0.0000 0.0000 0.0000 0.0000 30.4243 0.0000
# 6 0.0000 0.0000 0.0000 0.0000 0.0000 24.5496
#
#
#
# Elastic Compliance Matrix: (Units=1/GPa)
#
#
# Indices 1 2 3 4 5 6 
#
# 1 0.019566 -0.004270 -0.005887 0.000000 0.000000 0.000000
# 2 -0.004270 0.016184 -0.003047 0.000000 0.000000 0.000000
# 3 -0.005887 -0.003047 0.010255 0.000000 0.000000 0.000000
# 4 0.000000 0.000000 0.000000 0.042901 0.000000 0.000000
# 5 0.000000 0.000000 0.000000 0.000000 0.032869 0.000000
# 6 0.000000 0.000000 0.000000 0.000000 0.000000 0.040734
#
#
# Mechanical properties :
#
#
# Convention : Reuss Voigt Hill
#
# Bulk Modulus (GPa) = 51.03043 58.03978 54.53511
# Shear Modulus (GPa) = 25.58213 26.93931 26.26072
#
# Velocity S-wave (km/s) = 3.70890 3.80601 3.75777
# Velocity P-wave (km/s) = 6.76618 7.10797 6.93918
#
# Compressibility (1/GPa) = 0.01959615
#
# Stress axis : x y z
#
# Youngs Moduli (GPa) = 51.10925 61.78928 97.51730
#
# Poissons Ratio (x) = 0.26386 0.57409
# Poissons Ratio (y) = 0.21825 0.29712
# Poissons Ratio (z) = 0.30088 0.18826
#
# Static dielectric constant tensor:
#      x y z
#    x 3.301630 0.000000 0.000000 
#    y 0.000000 3.429590 0.000000 
#    z 0.000000 0.000000 3.393710 
# 
# 
# High freq. dielectric constant tensor:
#      x y z
#    x 1.715380 0.000000 0.000000 
#    y 0.000000 1.721430 0.000000 
#    z 0.000000 0.000000 1.721380 
# 
# From -- ./inp_files/29383.got.cif
#   From: 2010.03.12/outbox.cif.g09.slc.cpg/sg59_15_cif.got.tgz:29383.got - 2010.04.16 16:29:54.
