data_PCOD8241521
_publ_section_title
;
Structure prediction by ZEFSAII (Michael W. Deem and Ramdas Pophale) SiO2 
 PCOD8241521
Probable space group: P M M N
;
_chemical_formula_sum "Si O2"
_cell_formula_units_Z 64
_cell_length_a 9.199415
_cell_length_b 18.458730
_cell_length_c 20.154775
_cell_angle_alpha 90.000000
_cell_angle_beta 90.000000
_cell_angle_gamma 90.000000
_cell_volume 3422.472621
_symmetry_space_group_name_H-M "P M M N"
_symmetry_group_IT_number 59
_space_group.IT_coordinate_system_code '2'
_symmetry_cell_setting 'orthorhombic'
loop_
_space_group_symop_operation_xyz
x,y,z
1/2-x,1/2-y,z
1/2+x,-y,-z
-x,1/2+y,-z
-x,-y,-z
1/2+x,1/2+y,-z
1/2-x,y,z
x,1/2-y,z
loop_
_atom_site_type_symbol
_atom_site_label
_atom_site_fract_x
_atom_site_fract_y
_atom_site_fract_z
Si Si1 0.414446 0.585585 0.544065
Si Si2 0.580986 0.664853 0.901333
Si Si3 0.577040 0.168629 0.861474
Si Si4 0.080605 0.579197 0.259149
Si Si5 0.583436 0.328881 0.333501
Si Si6 0.419839 0.949474 0.403214
Si Si7 0.082558 0.417329 0.229904
Si Si8 0.576635 0.422845 0.988428
O O1 0.250000 0.555023 0.547303
O O2 0.430710 0.658157 0.587273
O O3 0.517620 0.526977 0.577565
O O4 0.452661 0.602776 0.466595
O O5 0.750000 0.647541 0.916998
O O6 0.554852 0.750000 0.892337
O O7 0.528089 0.624113 0.835212
O O8 0.477802 0.635453 0.958580
O O9 0.750000 0.171364 0.859920
O O10 0.515407 0.250000 0.874414
O O11 0.514594 0.139916 0.790438
O O12 0.528928 0.111744 0.918081
O O13 0.250000 0.594717 0.265640
O O14 0.011991 0.581466 0.333988
O O15 0.051634 0.502420 0.223405
O O16 0.750000 0.332110 0.311136
O O17 0.516889 0.250000 0.318073
O O18 0.499810 0.390188 0.294361
O O19 0.250000 0.961067 0.390344
O O20 0.250000 0.400392 0.241875
O O21 0.750000 0.433153 0.993448
O O22 0.500000 0.500000 0.000000
#
# Coordination Sequence:
#
# PCOD8241521 Si02
#       8
#     8   8   8   8   8   8   8   8
#     4   9  17  29  45  67  97 130 165 207 256 305
#     4  10  21  36  54  78 109 142 175 216 267 317
#     4   9  18  33  53  78 107 136 167 209 263 315
#     4   9  16  28  49  75 100 127 165 213 254 297
#     4  10  20  32  45  66 101 139 171 210 262 315
#     4   9  16  28  48  72  95 124 165 211 254 300
#     4  10  19  33  52  74 101 135 174 215 256 304
#     4  11  22  37  58  82 108 140 179 222 266 319
#
# _framework density 18.699930999999999
#
# number of rings (size 3 to 8) (size 9 to 14) (size 15 to 20)
#    0.000    2.375    1.250    1.875    0.000    4.000 
#    0.000    0.625    0.000    4.500    0.000    0.000 
#    0.000    1.000    0.000    0.000    0.000    0.000 
#
# Total GULP energy -793117.913233 kJ/mol
# GULP energy per Si atom -12392.467394 kJ/mol
# Density = 1.865737 g / cm^3
# Si number density = 18.699931 Si / 1000 Ang^3
#
#
#
# Elastic Constant Matrix: (Units=GPa)
#
#
# Indices 1 2 3 4 5 6 
#
# 1 31.9774 22.3643 28.0550 0.0000 0.0000 0.0000
# 2 22.3643 83.1967 57.2856 0.0000 0.0000 0.0000
# 3 28.0550 57.2856 154.5966 0.0000 0.0000 0.0000
# 4 0.0000 0.0000 0.0000 22.5531 0.0000 0.0000
# 5 0.0000 0.0000 0.0000 0.0000 23.0462 0.0000
# 6 0.0000 0.0000 0.0000 0.0000 0.0000 19.6829
#
#
#
# Elastic Compliance Matrix: (Units=1/GPa)
#
#
# Indices 1 2 3 4 5 6 
#
# 1 0.040692 -0.007859 -0.004472 0.000000 0.000000 0.000000
# 2 -0.007859 0.017655 -0.005116 0.000000 0.000000 0.000000
# 3 -0.004472 -0.005116 0.009176 0.000000 0.000000 0.000000
# 4 0.000000 0.000000 0.000000 0.044340 0.000000 0.000000
# 5 0.000000 0.000000 0.000000 0.000000 0.043391 0.000000
# 6 0.000000 0.000000 0.000000 0.000000 0.000000 0.050806
#
#
# Mechanical properties :
#
#
# Convention : Reuss Voigt Hill
#
# Bulk Modulus (GPa) = 30.64815 53.90895 42.27855
# Shear Modulus (GPa) = 19.85467 23.86083 21.85775
#
# Velocity S-wave (km/s) = 3.26199 3.57597 3.42258
# Velocity P-wave (km/s) = 5.53285 6.77798 6.18682
#
# Compressibility (1/GPa) = 0.03262839
#
# Stress axis : x y z
#
# Youngs Moduli (GPa) = 24.57462 56.64165 108.98361
#
# Poissons Ratio (x) = 0.44516 0.48741
# Poissons Ratio (y) = 0.19314 0.55753
# Poissons Ratio (z) = 0.10991 0.28977
#
# Static dielectric constant tensor:
#      x y z
#    x 3.163730 0.000000 0.000000 
#    y 0.000000 3.450060 0.000000 
#    z 0.000000 0.000000 3.924840 
# 
# 
# High freq. dielectric constant tensor:
#      x y z
#    x 1.691310 0.000000 0.000000 
#    y 0.000000 1.714750 0.000000 
#    z 0.000000 0.000000 1.745630 
# 
# From -- ./inp_files/29521.got.cif
#   From: 2010.03.12/outbox.cif.g09.slc.cpg/sg59_15_cif.got.tgz:29521.got - 2010.04.16 16:29:54.
