data_PCOD8241433
_publ_section_title
;
Structure prediction by ZEFSAII (Michael W. Deem and Ramdas Pophale) SiO2 
 PCOD8241433
Probable space group: P M M N
;
_chemical_formula_sum "Si O2"
_cell_formula_units_Z 64
_cell_length_a 9.341663
_cell_length_b 23.958676
_cell_length_c 15.289342
_cell_angle_alpha 90.000000
_cell_angle_beta 90.000000
_cell_angle_gamma 90.000000
_cell_volume 3421.966912
_symmetry_space_group_name_H-M "P M M N"
_symmetry_group_IT_number 59
_space_group.IT_coordinate_system_code '2'
_symmetry_cell_setting 'orthorhombic'
loop_
_space_group_symop_operation_xyz
x,y,z
1/2-x,1/2-y,z
1/2+x,-y,-z
-x,1/2+y,-z
-x,-y,-z
1/2+x,1/2+y,-z
1/2-x,y,z
x,1/2-y,z
loop_
_atom_site_type_symbol
_atom_site_label
_atom_site_fract_x
_atom_site_fract_y
_atom_site_fract_z
Si Si1 0.920058 0.312537 0.034121
Si Si2 0.419681 0.880766 0.132407
Si Si3 0.585551 0.872412 0.447853
Si Si4 0.088894 0.011562 0.627548
Si Si5 0.419449 0.610371 0.808253
Si Si6 0.916224 0.598120 0.636501
Si Si7 0.583747 0.186061 0.697519
Si Si8 0.909853 0.515023 0.170728
O O1 0.750000 0.310725 0.031751
O O2 0.983529 0.250000 0.036979
O O3 0.971551 0.345183 0.120369
O O4 0.977016 0.343347 0.947661
O O5 0.250000 0.886754 0.129429
O O6 0.471681 0.851673 0.222077
O O7 0.485640 0.942394 0.121049
O O8 0.750000 0.864940 0.420040
O O9 0.535957 0.935664 0.428146
O O10 0.564567 0.861891 0.551758
O O11 0.494764 0.828383 0.392783
O O12 0.250000 0.992579 0.601109
O O13 0.087031 0.030369 0.727772
O O14 0.977774 0.962239 0.611009
O O15 0.250000 0.612501 0.789832
O O16 0.499332 0.624920 0.717843
O O17 0.462635 0.548726 0.842458
O O18 0.750000 0.591249 0.661160
O O19 0.750000 0.175275 0.681506
O O20 0.552937 0.250000 0.722240
O O21 0.750000 0.522058 0.132428
#
# Coordination Sequence:
#
# PCOD8241433 Si02
#       8
#     8   8   8   8   8   8   8   8
#     4   9  18  35  59  81 100 131 178 223 264 314
#     4  10  19  32  54  82 107 132 170 218 265 313
#     4  10  20  34  51  74 104 141 179 212 256 314
#     4   9  17  31  50  74 107 142 174 210 252 307
#     4   9  19  36  55  76 106 142 177 217 263 313
#     4  10  20  32  51  78 106 135 173 218 263 307
#     4  10  21  35  51  75 107 140 176 222 268 310
#     4   9  17  30  49  75 110 144 170 203 256 317
#
# _framework density 18.702694000000001
#
# number of rings (size 3 to 8) (size 9 to 14) (size 15 to 20)
#    0.000    2.500    1.250    1.875    0.000    5.750 
#    0.000    1.250    0.000    4.500    0.000    0.000 
#    0.000    0.000    0.000    0.000    0.000    0.000 
#
# Total GULP energy -793555.654161 kJ/mol
# GULP energy per Si atom -12399.307096 kJ/mol
# Density = 1.866013 g / cm^3
# Si number density = 18.702694 Si / 1000 Ang^3
#
#
#
# Elastic Constant Matrix: (Units=GPa)
#
#
# Indices 1 2 3 4 5 6 
#
# 1 50.1831 30.4064 35.7206 0.0000 0.0000 0.0000
# 2 30.4064 85.9842 58.5104 0.0000 0.0000 0.0000
# 3 35.7206 58.5104 101.0823 0.0000 0.0000 0.0000
# 4 0.0000 0.0000 0.0000 27.0194 0.0000 0.0000
# 5 0.0000 0.0000 0.0000 0.0000 22.3045 0.0000
# 6 0.0000 0.0000 0.0000 0.0000 0.0000 25.6557
#
#
#
# Elastic Compliance Matrix: (Units=1/GPa)
#
#
# Indices 1 2 3 4 5 6 
#
# 1 0.027977 -0.005223 -0.006863 0.000000 0.000000 0.000000
# 2 -0.005223 0.020163 -0.009825 0.000000 0.000000 0.000000
# 3 -0.006863 -0.009825 0.018006 0.000000 0.000000 0.000000
# 4 0.000000 0.000000 0.000000 0.037010 0.000000 0.000000
# 5 0.000000 0.000000 0.000000 0.000000 0.044834 0.000000
# 6 0.000000 0.000000 0.000000 0.000000 0.000000 0.038978
#
#
# Mechanical properties :
#
#
# Convention : Reuss Voigt Hill
#
# Bulk Modulus (GPa) = 44.79856 54.05826 49.42841
# Shear Modulus (GPa) = 20.98794 22.50342 21.74568
#
# Velocity S-wave (km/s) = 3.35354 3.47251 3.41354
# Velocity P-wave (km/s) = 6.24500 6.71152 6.48246
#
# Compressibility (1/GPa) = 0.02232215
#
# Stress axis : x y z
#
# Youngs Moduli (GPa) = 35.74358 49.59553 55.53826
#
# Poissons Ratio (x) = 0.25905 0.38117
# Poissons Ratio (y) = 0.18670 0.54569
# Poissons Ratio (z) = 0.24531 0.48730
#
# Static dielectric constant tensor:
#      x y z
#    x 3.221730 0.000000 0.000000 
#    y 0.000000 3.332170 0.000000 
#    z 0.000000 0.000000 3.484400 
# 
# 
# High freq. dielectric constant tensor:
#      x y z
#    x 1.705620 0.000000 0.000000 
#    y 0.000000 1.711670 0.000000 
#    z 0.000000 0.000000 1.727630 
# 
# From -- ./inp_files/21562.got.cif
#   From: 2010.03.12/outbox.cif.g09.slc.cpg/sg59_11_cif.got.tgz:21562.got - 2010.04.16 16:29:54.
