data_PCOD8241637
_publ_section_title
;
Structure prediction by ZEFSAII (Michael W. Deem and Ramdas Pophale) SiO2 
 PCOD8241637
Probable space group: P M M N
;
_chemical_formula_sum "Si O2"
_cell_formula_units_Z 64
_cell_length_a 9.198339
_cell_length_b 18.729387
_cell_length_c 19.725809
_cell_angle_alpha 90.000000
_cell_angle_beta 90.000000
_cell_angle_gamma 90.000000
_cell_volume 3398.347598
_symmetry_space_group_name_H-M "P M M N"
_symmetry_group_IT_number 59
_space_group.IT_coordinate_system_code '2'
_symmetry_cell_setting 'orthorhombic'
loop_
_space_group_symop_operation_xyz
x,y,z
1/2-x,1/2-y,z
1/2+x,-y,-z
-x,1/2+y,-z
-x,-y,-z
1/2+x,1/2+y,-z
1/2-x,y,z
x,1/2-y,z
loop_
_atom_site_type_symbol
_atom_site_label
_atom_site_fract_x
_atom_site_fract_y
_atom_site_fract_z
Si Si1 0.578774 0.170765 0.918842
Si Si2 0.580086 0.066177 0.033566
Si Si3 0.080298 0.922204 0.204726
Si Si4 0.919419 0.435030 0.187356
Si Si5 0.081939 0.074483 0.569400
Si Si6 0.080589 0.067243 0.411806
Si Si7 0.084810 0.668088 0.335966
Si Si8 0.580279 0.167299 0.307910
O O1 0.750000 0.177086 0.907255
O O2 0.508947 0.250000 0.914516
O O3 0.514987 0.118741 0.860809
O O4 0.541626 0.137756 0.992093
O O5 0.750000 0.048956 0.029777
O O6 0.528568 0.080415 0.110522
O O7 0.500000 0.000000 0.000000
O O8 0.250000 0.937421 0.195348
O O9 0.044814 0.874086 0.268714
O O10 0.002344 0.997021 0.216647
O O11 0.750000 0.452621 0.189098
O O12 0.956345 0.367398 0.234847
O O13 0.250000 0.061748 0.585574
O O14 0.054088 0.085756 0.490111
O O15 0.023542 0.146135 0.604046
O O16 0.994285 0.008678 0.602475
O O17 0.250000 0.060885 0.393601
O O18 0.009970 0.129238 0.367079
O O19 0.250000 0.653161 0.359234
O O20 0.059397 0.750000 0.318724
O O21 0.750000 0.158964 0.325177
O O22 0.533910 0.250000 0.304704
#
# Coordination Sequence:
#
# PCOD8241637 Si02
#       8
#     8   8   8   8   8   8   8   8
#     4   9  17  30  51  78 104 134 175 219 263 313
#     4  10  19  33  54  79 106 139 178 223 270 322
#     4  10  19  33  54  78 105 140 181 223 265 318
#     4  10  21  35  54  80 109 140 178 225 273 325
#     4  10  21  37  58  83 111 143 183 228 276 332
#     4  10  21  38  60  84 109 141 184 233 277 325
#     4  10  21  35  52  78 112 146 181 224 272 323
#     4  10  22  39  57  80 113 150 186 229 283 337
#
# _framework density 18.832681999999998
#
# number of rings (size 3 to 8) (size 9 to 14) (size 15 to 20)
#    0.000    2.125    1.250    1.875    0.000    7.500 
#    0.000    5.000    0.000    2.250    0.000    1.750 
#    0.000    0.000    0.000    0.000    0.000    0.000 
#
# Total GULP energy -793738.111632 kJ/mol
# GULP energy per Si atom -12402.157994 kJ/mol
# Density = 1.878982 g / cm^3
# Si number density = 18.832682 Si / 1000 Ang^3
#
#
#
# Elastic Constant Matrix: (Units=GPa)
#
#
# Indices 1 2 3 4 5 6 
#
# 1 61.3197 48.1867 54.5510 0.0000 0.0000 0.0000
# 2 48.1867 124.3127 67.3933 0.0000 0.0000 0.0000
# 3 54.5510 67.3933 112.7086 0.0000 0.0000 0.0000
# 4 0.0000 0.0000 0.0000 31.3713 0.0000 0.0000
# 5 0.0000 0.0000 0.0000 0.0000 23.1331 0.0000
# 6 0.0000 0.0000 0.0000 0.0000 0.0000 29.1539
#
#
#
# Elastic Compliance Matrix: (Units=1/GPa)
#
#
# Indices 1 2 3 4 5 6 
#
# 1 0.031219 -0.005785 -0.011651 0.000000 0.000000 0.000000
# 2 -0.005785 0.012975 -0.004958 0.000000 0.000000 0.000000
# 3 -0.011651 -0.004958 0.017476 0.000000 0.000000 0.000000
# 4 0.000000 0.000000 0.000000 0.031876 0.000000 0.000000
# 5 0.000000 0.000000 0.000000 0.000000 0.043228 0.000000
# 6 0.000000 0.000000 0.000000 0.000000 0.000000 0.034301
#
#
# Mechanical properties :
#
#
# Convention : Reuss Voigt Hill
#
# Bulk Modulus (GPa) = 59.23604 70.95587 65.09595
# Shear Modulus (GPa) = 22.57447 25.27901 23.92674
#
# Velocity S-wave (km/s) = 3.46596 3.66771 3.56826
# Velocity P-wave (km/s) = 6.89488 7.46290 7.18450
#
# Compressibility (1/GPa) = 0.01688162
#
# Stress axis : x y z
#
# Youngs Moduli (GPa) = 32.03218 77.07399 57.22104
#
# Poissons Ratio (x) = 0.44587 0.66667
# Poissons Ratio (y) = 0.18530 0.28371
# Poissons Ratio (z) = 0.37320 0.38214
#
# Static dielectric constant tensor:
#      x y z
#    x 3.310800 0.000000 0.000000 
#    y 0.000000 3.559650 0.000000 
#    z 0.000000 0.000000 3.631330 
# 
# 
# High freq. dielectric constant tensor:
#      x y z
#    x 1.712920 0.000000 0.000000 
#    y 0.000000 1.732760 0.000000 
#    z 0.000000 0.000000 1.744120 
# 
# From -- ./inp_files/26283.got.cif
#   From: 2010.03.12/outbox.cif.g09.slc.cpg/sg59_14_cif.got.tgz:26283.got - 2010.04.16 16:29:54.
