data_PCOD8241259
_publ_section_title
;
Structure prediction by ZEFSAII (Michael W. Deem and Ramdas Pophale) SiO2 
 PCOD8241259
Probable space group: P M M N
;
_chemical_formula_sum "Si O2"
_cell_formula_units_Z 56
_cell_length_a 14.137449
_cell_length_b 9.619858
_cell_length_c 22.560790
_cell_angle_alpha 90.000000
_cell_angle_beta 90.000000
_cell_angle_gamma 90.000000
_cell_volume 3068.273122
_symmetry_space_group_name_H-M "P M M N"
_symmetry_group_IT_number 59
_space_group.IT_coordinate_system_code '2'
_symmetry_cell_setting 'orthorhombic'
loop_
_space_group_symop_operation_xyz
x,y,z
1/2-x,1/2-y,z
1/2+x,-y,-z
-x,1/2+y,-z
-x,-y,-z
1/2+x,1/2+y,-z
1/2-x,y,z
x,1/2-y,z
loop_
_atom_site_type_symbol
_atom_site_label
_atom_site_fract_x
_atom_site_fract_y
_atom_site_fract_z
Si Si1 0.356227 0.590037 0.585376
Si Si2 0.646200 0.414722 0.970107
Si Si3 0.359049 0.911606 0.254345
Si Si4 0.523489 0.087793 0.862042
Si Si5 0.958937 0.910242 0.646416
Si Si6 0.359836 0.408609 0.474347
Si Si7 0.359032 0.588271 0.895895
O O1 0.250000 0.546104 0.605148
O O2 0.359365 0.750000 0.565325
O O3 0.427612 0.565891 0.640457
O O4 0.392163 0.502548 0.529249
O O5 0.750000 0.476041 0.955079
O O6 0.651698 0.250000 0.965744
O O7 0.571685 0.470534 0.922188
O O8 0.618182 0.458315 0.036654
O O9 0.250000 0.960521 0.253570
O O10 0.366406 0.750000 0.270563
O O11 0.403974 0.942720 0.190672
O O12 0.418354 0.995777 0.302077
O O13 0.498161 0.250000 0.866033
O O14 0.426244 0.002316 0.853015
O O15 0.934762 0.750000 0.660691
O O16 0.913838 0.956727 0.584316
O O17 0.250000 0.429610 0.461019
O O18 0.384320 0.250000 0.490543
O O19 0.250000 0.556904 0.880088
O O20 0.381430 0.750000 0.886125
#
# Coordination Sequence:
#
# PCOD8241259 Si02
#       7
#     8   8   8   8   8   8   8
#     4   9  18  32  50  74 102 130 163 203 245 291
#     4   8  14  27  49  75 102 132 164 200 247 301
#     4  10  22  38  54  74  99 127 163 205 246 292
#     4  10  19  32  52  75  99 130 167 207 249 291
#     4  10  20  34  52  73 100 135 170 204 244 289
#     4   9  17  29  47  73 102 130 162 202 249 297
#     4   9  18  32  50  74 103 133 165 201 244 297
#
# _framework density 18.251308000000002
#
# number of rings (size 3 to 8) (size 9 to 14) (size 15 to 20)
#    0.000    2.714    0.000    2.571    0.000    4.571 
#    0.000    2.143    0.000    4.714    0.000    0.000 
#    0.000    0.000    0.000    0.000    0.000    0.000 
#
# Total GULP energy -694287.028104 kJ/mol
# GULP energy per Si atom -12397.982645 kJ/mol
# Density = 1.820977 g / cm^3
# Si number density = 18.251308 Si / 1000 Ang^3
#
#
#
# Elastic Constant Matrix: (Units=GPa)
#
#
# Indices 1 2 3 4 5 6 
#
# 1 101.8523 42.4535 47.2893 0.0000 0.0000 0.0000
# 2 42.4535 51.1764 37.0362 0.0000 0.0000 0.0000
# 3 47.2893 37.0362 59.9773 0.0000 0.0000 0.0000
# 4 0.0000 0.0000 0.0000 26.9136 0.0000 0.0000
# 5 0.0000 0.0000 0.0000 0.0000 27.4029 0.0000
# 6 0.0000 0.0000 0.0000 0.0000 0.0000 28.5935
#
#
#
# Elastic Compliance Matrix: (Units=1/GPa)
#
#
# Indices 1 2 3 4 5 6 
#
# 1 0.017134 -0.008022 -0.008556 0.000000 0.000000 0.000000
# 2 -0.008022 0.039083 -0.017809 0.000000 0.000000 0.000000
# 3 -0.008556 -0.017809 0.034416 0.000000 0.000000 0.000000
# 4 0.000000 0.000000 0.000000 0.037156 0.000000 0.000000
# 5 0.000000 0.000000 0.000000 0.000000 0.036492 0.000000
# 6 0.000000 0.000000 0.000000 0.000000 0.000000 0.034973
#
#
# Mechanical properties :
#
#
# Convention : Reuss Voigt Hill
#
# Bulk Modulus (GPa) = 45.74645 51.84043 48.79344
# Shear Modulus (GPa) = 18.16095 22.33047 20.24571
#
# Velocity S-wave (km/s) = 3.15786 3.50165 3.33419
# Velocity P-wave (km/s) = 6.19801 6.69433 6.45094
#
# Compressibility (1/GPa) = 0.02185962
#
# Stress axis : x y z
#
# Youngs Moduli (GPa) = 58.36268 25.58641 29.05594
#
# Poissons Ratio (x) = 0.20525 0.24861
# Poissons Ratio (y) = 0.46817 0.51747
# Poissons Ratio (z) = 0.49936 0.45568
#
# Static dielectric constant tensor:
#      x y z
#    x 3.611360 0.000000 0.000000 
#    y 0.000000 3.175660 0.000000 
#    z 0.000000 0.000000 3.233660 
# 
# 
# High freq. dielectric constant tensor:
#      x y z
#    x 1.724260 0.000000 0.000000 
#    y 0.000000 1.688300 0.000000 
#    z 0.000000 0.000000 1.685590 
# 
# From -- ./inp_files/29079.got.cif
#   From: 2010.03.12/outbox.cif.g09.slc.cpg/sg59_15_cif.got.tgz:29079.got - 2010.04.16 16:29:54.
