data_PCOD8241094
_publ_section_title
;
Structure prediction by ZEFSAII (Michael W. Deem and Ramdas Pophale) SiO2 
 PCOD8241094
Probable space group: P M M N
;
_chemical_formula_sum "Si O2"
_cell_formula_units_Z 48
_cell_length_a 26.213075
_cell_length_b 8.859301
_cell_length_c 11.989933
_cell_angle_alpha 90.000000
_cell_angle_beta 90.000000
_cell_angle_gamma 90.000000
_cell_volume 2784.416404
_symmetry_space_group_name_H-M "P M M N"
_symmetry_group_IT_number 59
_space_group.IT_coordinate_system_code '2'
_symmetry_cell_setting 'orthorhombic'
loop_
_space_group_symop_operation_xyz
x,y,z
1/2-x,1/2-y,z
1/2+x,-y,-z
-x,1/2+y,-z
-x,-y,-z
1/2+x,1/2+y,-z
1/2-x,y,z
x,1/2-y,z
loop_
_atom_site_type_symbol
_atom_site_label
_atom_site_fract_x
_atom_site_fract_y
_atom_site_fract_z
Si Si1 0.444835 0.570211 0.474664
Si Si2 0.308161 0.929329 0.827283
Si Si3 0.615172 0.427383 0.989752
Si Si4 0.382563 0.421166 0.663896
Si Si5 0.537730 0.579486 0.139980
Si Si6 0.431846 0.928809 0.227122
O O1 0.500000 0.500000 0.500000
O O2 0.450207 0.750000 0.481450
O O3 0.400691 0.514362 0.556707
O O4 0.424989 0.513077 0.353072
O O5 0.250000 0.982809 0.836901
O O6 0.312725 0.750000 0.817058
O O7 0.336938 0.991738 0.939294
O O8 0.332427 0.001879 0.716677
O O9 0.617448 0.250000 0.998448
O O10 0.561785 0.479069 0.042817
O O11 0.614370 0.476470 0.858110
O O12 0.369176 0.250000 0.629132
O O13 0.428118 0.425287 0.750481
O O14 0.532596 0.750000 0.095406
O O15 0.484008 0.506302 0.174680
O O16 0.437307 0.750000 0.231382
#
# Coordination Sequence:
#
# PCOD8241094 Si02
#       6
#     8   8   8   8   8   8
#     4  11  20  32  48  68  99 138 173 206 243 289
#     4   9  18  33  53  76  98 120 154 203 252 296
#     4   9  17  29  46  68  92 123 159 195 239 290
#     4  10  19  32  49  72  99 128 166 206 245 290
#     4   9  16  28  43  63  95 127 155 196 239 282
#     4   9  17  29  44  64  96 131 161 195 238 283
#
# _framework density 17.238802
#
# number of rings (size 3 to 8) (size 9 to 14) (size 15 to 20)
#    0.000    2.500    1.667    1.500    0.000    1.000 
#    0.000    1.667    0.000    1.000    0.000    4.667 
#    0.000    0.000    0.000    0.000    0.000    0.000 
#
# Total GULP energy -594822.222066 kJ/mol
# GULP energy per Si atom -12392.129626 kJ/mol
# Density = 1.719957 g / cm^3
# Si number density = 17.238802 Si / 1000 Ang^3
#
#
#
# Elastic Constant Matrix: (Units=GPa)
#
#
# Indices 1 2 3 4 5 6 
#
# 1 93.8945 29.6749 61.8520 0.0000 0.0000 0.0000
# 2 29.6749 35.7293 35.1557 0.0000 0.0000 0.0000
# 3 61.8520 35.1557 147.2018 0.0000 0.0000 0.0000
# 4 0.0000 0.0000 0.0000 18.6485 0.0000 0.0000
# 5 0.0000 0.0000 0.0000 0.0000 11.5544 0.0000
# 6 0.0000 0.0000 0.0000 0.0000 0.0000 20.0355
#
#
#
# Elastic Compliance Matrix: (Units=1/GPa)
#
#
# Indices 1 2 3 4 5 6 
#
# 1 0.016728 -0.009121 -0.004851 0.000000 0.000000 0.000000
# 2 -0.009121 0.041558 -0.006093 0.000000 0.000000 0.000000
# 3 -0.004851 -0.006093 0.010287 0.000000 0.000000 0.000000
# 4 0.000000 0.000000 0.000000 0.053624 0.000000 0.000000
# 5 0.000000 0.000000 0.000000 0.000000 0.086547 0.000000
# 6 0.000000 0.000000 0.000000 0.000000 0.000000 0.049911
#
#
# Mechanical properties :
#
#
# Convention : Reuss Voigt Hill
#
# Bulk Modulus (GPa) = 35.15577 58.91007 47.03292
# Shear Modulus (GPa) = 16.21979 20.05721 18.13850
#
# Velocity S-wave (km/s) = 3.07072 3.41470 3.24727
# Velocity P-wave (km/s) = 5.74544 7.05649 6.43444
#
# Compressibility (1/GPa) = 0.02844483
#
# Stress axis : x y z
#
# Youngs Moduli (GPa) = 59.77963 24.06247 97.21286
#
# Poissons Ratio (x) = 0.21947 0.47154
# Poissons Ratio (y) = 0.54523 0.59231
# Poissons Ratio (z) = 0.28997 0.14661
#
# Static dielectric constant tensor:
#      x y z
#    x 3.125170 0.000000 0.000000 
#    y 0.000000 3.131140 0.000000 
#    z 0.000000 0.000000 3.570420 
# 
# 
# High freq. dielectric constant tensor:
#      x y z
#    x 1.634630 0.000000 0.000000 
#    y 0.000000 1.651930 0.000000 
#    z 0.000000 0.000000 1.672520 
# 
# From -- ./inp_files/14375.got.cif
#   From: 2010.03.12/outbox.cif.g09.slc.cpg/sg59_8_cif.got.tgz:14375.got - 2010.04.16 16:29:54.
