data_PCOD8241389
_publ_section_title
;
Structure prediction by ZEFSAII (Michael W. Deem and Ramdas Pophale) SiO2 
 PCOD8241389
Probable space group: P M M N
;
_chemical_formula_sum "Si O2"
_cell_formula_units_Z 64
_cell_length_a 8.864524
_cell_length_b 16.255368
_cell_length_c 22.340993
_cell_angle_alpha 90.000000
_cell_angle_beta 90.000000
_cell_angle_gamma 90.000000
_cell_volume 3219.249956
_symmetry_space_group_name_H-M "P M M N"
_symmetry_group_IT_number 59
_space_group.IT_coordinate_system_code '2'
_symmetry_cell_setting 'orthorhombic'
loop_
_space_group_symop_operation_xyz
x,y,z
1/2-x,1/2-y,z
1/2+x,-y,-z
-x,1/2+y,-z
-x,-y,-z
1/2+x,1/2+y,-z
1/2-x,y,z
x,1/2-y,z
loop_
_atom_site_type_symbol
_atom_site_label
_atom_site_fract_x
_atom_site_fract_y
_atom_site_fract_z
Si Si1 0.072778 0.340505 0.990370
Si Si2 0.572332 0.845201 0.643829
Si Si3 0.426832 0.383802 0.119839
Si Si4 0.572316 0.660909 0.232217
Si Si5 0.413034 0.657969 0.762073
Si Si6 0.929122 0.001424 0.564830
Si Si7 0.927604 0.653760 0.366550
Si Si8 0.570031 0.555202 0.120992
O O1 0.250000 0.352392 0.996214
O O2 0.030221 0.250000 0.967760
O O3 0.012688 0.401844 0.939867
O O4 0.002519 0.354540 0.056292
O O5 0.750000 0.845483 0.650124
O O6 0.521169 0.750000 0.627092
O O7 0.508732 0.879112 0.707350
O O8 0.519328 0.915276 0.596586
O O9 0.250000 0.366368 0.122350
O O10 0.501440 0.337520 0.175060
O O11 0.466046 0.477575 0.126672
O O12 0.750000 0.669564 0.227516
O O13 0.498082 0.750000 0.221422
O O14 0.529098 0.629899 0.298343
O O15 0.515154 0.602889 0.179676
O O16 0.250000 0.611541 0.768410
O O17 0.380471 0.750000 0.742414
O O18 0.750000 0.004690 0.561064
O O19 0.000000 0.000000 0.500000
O O20 0.984154 0.086537 0.594778
O O21 0.750000 0.643745 0.378425
O O22 0.972985 0.750000 0.380285
O O23 0.750000 0.538178 0.120209
#
# Coordination Sequence:
#
# PCOD8241389 Si02
#       8
#     8   8   8   8   8   8   8   8
#     4   9  18  33  53  74  99 139 189 236 280 332
#     4   9  20  40  63  87 119 158 197 239 291 349
#     4  11  22  34  50  75 111 150 184 222 278 345
#     4   8  15  30  54  82 107 137 181 231 284 337
#     4  10  21  37  58  84 110 140 185 238 286 333
#     4  11  24  40  61  91 123 159 201 242 288 343
#     4   9  19  37  60  86 119 159 200 243 294 351
#     4  10  19  32  53  80 106 136 182 238 284 326
#
# _framework density 19.880407000000002
#
# number of rings (size 3 to 8) (size 9 to 14) (size 15 to 20)
#    0.000    2.375    0.000    3.000    1.750    4.500 
#    0.000    1.875    0.000    3.750    0.000    0.000 
#    0.000    0.000    0.000    0.000    0.000    0.000 
#
# Total GULP energy -792862.816248 kJ/mol
# GULP energy per Si atom -12388.481504 kJ/mol
# Density = 1.983516 g / cm^3
# Si number density = 19.880407 Si / 1000 Ang^3
#
#
#
# Elastic Constant Matrix: (Units=GPa)
#
#
# Indices 1 2 3 4 5 6 
#
# 1 43.9179 23.9576 34.2985 0.0000 0.0000 0.0000
# 2 23.9576 98.5187 56.3046 0.0000 0.0000 0.0000
# 3 34.2985 56.3046 149.2163 0.0000 0.0000 0.0000
# 4 0.0000 0.0000 0.0000 30.5222 0.0000 0.0000
# 5 0.0000 0.0000 0.0000 0.0000 23.4754 0.0000
# 6 0.0000 0.0000 0.0000 0.0000 0.0000 4.6225
#
#
#
# Elastic Compliance Matrix: (Units=1/GPa)
#
#
# Indices 1 2 3 4 5 6 
#
# 1 0.029016 -0.004136 -0.005109 0.000000 0.000000 0.000000
# 2 -0.004136 0.013531 -0.004155 0.000000 0.000000 0.000000
# 3 -0.005109 -0.004155 0.009444 0.000000 0.000000 0.000000
# 4 0.000000 0.000000 0.000000 0.032763 0.000000 0.000000
# 5 0.000000 0.000000 0.000000 0.000000 0.042598 0.000000
# 6 0.000000 0.000000 0.000000 0.000000 0.000000 0.216333
#
#
# Mechanical properties :
#
#
# Convention : Reuss Voigt Hill
#
# Bulk Modulus (GPa) = 39.69739 57.86380 48.78059
# Shear Modulus (GPa) = 13.19674 23.53016 18.36345
#
# Velocity S-wave (km/s) = 2.57924 3.44406 3.04253
# Velocity P-wave (km/s) = 5.37414 6.70705 6.07725
#
# Compressibility (1/GPa) = 0.02519057
#
# Stress axis : x y z
#
# Youngs Moduli (GPa) = 34.46379 73.90560 105.89007
#
# Poissons Ratio (x) = 0.30570 0.54097
# Poissons Ratio (y) = 0.14255 0.43996
# Poissons Ratio (z) = 0.17607 0.30707
#
# Static dielectric constant tensor:
#      x y z
#    x 3.451390 0.000000 0.000000 
#    y 0.000000 3.565670 0.000000 
#    z 0.000000 0.000000 4.053740 
# 
# 
# High freq. dielectric constant tensor:
#      x y z
#    x 1.743530 0.000000 0.000000 
#    y 0.000000 1.783320 0.000000 
#    z 0.000000 0.000000 1.785750 
# 
# From -- ./inp_files/31513.got.cif
#   From: 2010.03.12/outbox.cif.g09.slc.cpg/sg59_16_cif.got.tgz:31513.got - 2010.04.16 16:29:54.
