data_PCOD8241227
_publ_section_title
;
Structure prediction by ZEFSAII (Michael W. Deem and Ramdas Pophale) SiO2 
 PCOD8241227
Probable space group: P M M N
;
_chemical_formula_sum "Si O2"
_cell_formula_units_Z 64
_cell_length_a 20.560853
_cell_length_b 9.062924
_cell_length_c 19.590456
_cell_angle_alpha 90.000000
_cell_angle_beta 90.000000
_cell_angle_gamma 90.000000
_cell_volume 3650.513940
_symmetry_space_group_name_H-M "P M M N"
_symmetry_group_IT_number 59
_space_group.IT_coordinate_system_code '2'
_symmetry_cell_setting 'orthorhombic'
loop_
_space_group_symop_operation_xyz
x,y,z
1/2-x,1/2-y,z
1/2+x,-y,-z
-x,1/2+y,-z
-x,-y,-z
1/2+x,1/2+y,-z
1/2-x,y,z
x,1/2-y,z
loop_
_atom_site_type_symbol
_atom_site_label
_atom_site_fract_x
_atom_site_fract_y
_atom_site_fract_z
Si Si1 0.175996 0.921435 0.037244
Si Si2 0.439419 0.422664 0.964038
Si Si3 0.370265 0.920576 0.182678
Si Si4 0.629927 0.919673 0.683465
Si Si5 0.821649 0.924939 0.540832
Si Si6 0.943881 0.574004 0.455522
Si Si7 0.020106 0.080266 0.814731
Si Si8 0.523222 0.420526 0.319466
O O1 0.250000 0.948540 0.013637
O O2 0.156056 0.750000 0.030745
O O3 0.168795 0.972341 0.115833
O O4 0.129207 0.016711 0.989844
O O5 0.445036 0.250000 0.979832
O O6 0.439923 0.453760 0.883140
O O7 0.500000 0.500000 0.000000
O O8 0.359542 0.750000 0.196788
O O9 0.445438 0.960261 0.169955
O O10 0.342449 0.002299 0.249105
O O11 0.647790 0.750000 0.691609
O O12 0.663303 0.989046 0.616278
O O13 0.553424 0.945087 0.675049
O O14 0.750000 0.978688 0.517421
O O15 0.825088 0.750000 0.546226
O O16 0.874928 0.978262 0.486566
O O17 0.952980 0.750000 0.457353
O O18 0.943330 0.515572 0.378558
O O19 0.000000 0.500000 0.500000
O O20 0.026661 0.250000 0.792312
O O21 0.048297 0.979889 0.753647
O O22 0.542684 0.250000 0.327436
#
# Coordination Sequence:
#
# PCOD8241227 Si02
#       8
#     8   8   8   8   8   8   8   8
#     4  10  21  37  54  75 109 149 184 220 269 324
#     4  11  21  35  57  82 109 139 181 227 271 321
#     4   9  17  31  48  71 104 141 176 209 253 307
#     4   9  17  30  47  72 102 134 173 210 249 301
#     4   9  18  33  51  72 101 136 172 210 253 302
#     4  11  20  33  54  78 103 136 175 216 260 308
#     4   9  18  33  52  77 106 137 171 216 266 314
#     4  10  19  32  51  79 107 133 169 215 264 311
#
# _framework density 17.531777999999999
#
# number of rings (size 3 to 8) (size 9 to 14) (size 15 to 20)
#    0.000    2.250    2.500    1.125    0.000    2.750 
#    0.000    0.000    0.000    3.750    0.000    1.750 
#    0.000    0.000    0.000    0.000    0.000    0.000 
#
# Total GULP energy -793593.117627 kJ/mol
# GULP energy per Si atom -12399.892463 kJ/mol
# Density = 1.749188 g / cm^3
# Si number density = 17.531778 Si / 1000 Ang^3
#
#
#
# Elastic Constant Matrix: (Units=GPa)
#
#
# Indices 1 2 3 4 5 6 
#
# 1 92.8606 43.5798 60.2752 0.0000 0.0000 0.0000
# 2 43.5798 74.4793 57.7856 0.0000 0.0000 0.0000
# 3 60.2752 57.7856 122.8909 0.0000 0.0000 0.0000
# 4 0.0000 0.0000 0.0000 34.5842 0.0000 0.0000
# 5 0.0000 0.0000 0.0000 0.0000 24.2528 0.0000
# 6 0.0000 0.0000 0.0000 0.0000 0.0000 19.6680
#
#
#
# Elastic Compliance Matrix: (Units=1/GPa)
#
#
# Indices 1 2 3 4 5 6 
#
# 1 0.017126 -0.005516 -0.005806 0.000000 0.000000 0.000000
# 2 -0.005516 0.022915 -0.008069 0.000000 0.000000 0.000000
# 3 -0.005806 -0.008069 0.014780 0.000000 0.000000 0.000000
# 4 0.000000 0.000000 0.000000 0.028915 0.000000 0.000000
# 5 0.000000 0.000000 0.000000 0.000000 0.041232 0.000000
# 6 0.000000 0.000000 0.000000 0.000000 0.000000 0.050844
#
#
# Mechanical properties :
#
#
# Convention : Reuss Voigt Hill
#
# Bulk Modulus (GPa) = 62.35575 68.16799 65.26187
# Shear Modulus (GPa) = 22.73328 24.27370 23.50349
#
# Velocity S-wave (km/s) = 3.60486 3.72500 3.66542
# Velocity P-wave (km/s) = 7.27813 7.58075 7.43098
#
# Compressibility (1/GPa) = 0.01603701
#
# Stress axis : x y z
#
# Youngs Moduli (GPa) = 58.38927 43.63947 67.66102
#
# Poissons Ratio (x) = 0.24073 0.39286
# Poissons Ratio (y) = 0.32209 0.54599
# Poissons Ratio (z) = 0.33902 0.35215
#
# Static dielectric constant tensor:
#      x y z
#    x 3.141840 0.000000 0.000000 
#    y 0.000000 3.208730 0.000000 
#    z 0.000000 0.000000 3.442390 
# 
# 
# High freq. dielectric constant tensor:
#      x y z
#    x 1.652900 0.000000 0.000000 
#    y 0.000000 1.669020 0.000000 
#    z 0.000000 0.000000 1.684200 
# 
# From -- ./inp_files/28178.got.cif
#   From: 2010.03.12/outbox.cif.g09.slc.cpg/sg59_15_cif.got.tgz:28178.got - 2010.04.16 16:29:54.
