data_PCOD8241069
_publ_section_title
;
Structure prediction by ZEFSAII (Michael W. Deem and Ramdas Pophale) SiO2 
 PCOD8241069
Probable space group: P M M N
;
_chemical_formula_sum "Si O2"
_cell_formula_units_Z 64
_cell_length_a 30.305985
_cell_length_b 8.856912
_cell_length_c 14.510573
_cell_angle_alpha 90.000000
_cell_angle_beta 90.000000
_cell_angle_gamma 90.000000
_cell_volume 3894.890890
_symmetry_space_group_name_H-M "P M M N"
_symmetry_group_IT_number 59
_space_group.IT_coordinate_system_code '2'
_symmetry_cell_setting 'orthorhombic'
loop_
_space_group_symop_operation_xyz
x,y,z
1/2-x,1/2-y,z
1/2+x,-y,-z
-x,1/2+y,-z
-x,-y,-z
1/2+x,1/2+y,-z
1/2-x,y,z
x,1/2-y,z
loop_
_atom_site_type_symbol
_atom_site_label
_atom_site_fract_x
_atom_site_fract_y
_atom_site_fract_z
Si Si1 0.041127 0.571385 0.444736
Si Si2 0.299422 0.427993 0.647910
Si Si3 0.379376 0.927853 0.570570
Si Si4 0.542872 0.572483 0.950744
Si Si5 0.881416 0.070925 0.062476
Si Si6 0.523735 0.573478 0.742935
Si Si7 0.699357 0.573187 0.142911
Si Si8 0.074707 0.929007 0.752073
O O1 0.034816 0.750000 0.450666
O O2 0.087912 0.521800 0.489224
O O3 0.046614 0.517153 0.339812
O O4 0.000000 0.500000 0.500000
O O5 0.250000 0.479632 0.622584
O O6 0.303459 0.250000 0.644757
O O7 0.330891 0.498098 0.568679
O O8 0.310576 0.483706 0.752383
O O9 0.373386 0.750000 0.571792
O O10 0.400023 0.992691 0.664421
O O11 0.540061 0.750000 0.970427
O O12 0.544998 0.539122 0.841743
O O13 0.500000 0.500000 0.000000
O O14 0.589498 0.504429 0.982841
O O15 0.882738 0.250000 0.049972
O O16 0.902979 0.009868 0.156232
O O17 0.830839 0.014003 0.067611
O O18 0.525379 0.750000 0.718490
O O19 0.474517 0.509214 0.747906
O O20 0.750000 0.537311 0.117629
O O21 0.689783 0.750000 0.134832
O O22 0.074269 0.750000 0.752729
#
# Coordination Sequence:
#
# PCOD8241069 Si02
#       8
#     8   8   8   8   8   8   8   8
#     4  11  22  34  50  73 100 132 171 210 249 294
#     4   9  18  31  47  71 101 129 162 205 247 292
#     4  10  19  32  48  69  99 133 167 203 243 291
#     4  11  22  35  52  74 101 134 171 210 254 300
#     4  11  20  32  50  73 101 135 172 208 248 296
#     4  10  20  37  52  67  99 135 169 211 250 289
#     4   9  18  32  48  70 102 134 165 206 252 297
#     4   9  16  29  46  67  99 132 163 203 243 281
#
# _framework density 16.431781999999998
#
# number of rings (size 3 to 8) (size 9 to 14) (size 15 to 20)
#    0.000    2.000    3.750    1.875    0.000    2.500 
#    0.000    1.250    0.000    0.000    0.000    0.875 
#    0.000    5.000    0.000    0.000    0.000    0.000 
#
# Total GULP energy -793282.529005 kJ/mol
# GULP energy per Si atom -12395.039516 kJ/mol
# Density = 1.639438 g / cm^3
# Si number density = 16.431782 Si / 1000 Ang^3
#
#
#
# Elastic Constant Matrix: (Units=GPa)
#
#
# Indices 1 2 3 4 5 6 
#
# 1 127.9947 44.8827 55.2052 0.0000 0.0000 0.0000
# 2 44.8827 60.1698 39.4395 0.0000 0.0000 0.0000
# 3 55.2052 39.4395 93.3668 0.0000 0.0000 0.0000
# 4 0.0000 0.0000 0.0000 24.8817 0.0000 0.0000
# 5 0.0000 0.0000 0.0000 0.0000 22.8228 0.0000
# 6 0.0000 0.0000 0.0000 0.0000 0.0000 29.0837
#
#
#
# Elastic Compliance Matrix: (Units=1/GPa)
#
#
# Indices 1 2 3 4 5 6 
#
# 1 0.011811 -0.005853 -0.004511 0.000000 0.000000 0.000000
# 2 -0.005853 0.025884 -0.007473 0.000000 0.000000 0.000000
# 3 -0.004511 -0.007473 0.016534 0.000000 0.000000 0.000000
# 4 0.000000 0.000000 0.000000 0.040190 0.000000 0.000000
# 5 0.000000 0.000000 0.000000 0.000000 0.043816 0.000000
# 6 0.000000 0.000000 0.000000 0.000000 0.000000 0.034384
#
#
# Mechanical properties :
#
#
# Convention : Reuss Voigt Hill
#
# Bulk Modulus (GPa) = 53.89397 62.28734 58.09066
# Shear Modulus (GPa) = 23.31238 24.82458 24.06848
#
# Velocity S-wave (km/s) = 3.77070 3.89107 3.83136
# Velocity P-wave (km/s) = 7.19912 7.62733 7.41632
#
# Compressibility (1/GPa) = 0.01855495
#
# Stress axis : x y z
#
# Youngs Moduli (GPa) = 84.66674 38.63366 60.48047
#
# Poissons Ratio (x) = 0.22614 0.27282
# Poissons Ratio (y) = 0.49559 0.45196
# Poissons Ratio (z) = 0.38193 0.28870
#
# Static dielectric constant tensor:
#      x y z
#    x 3.200300 0.000000 0.000000 
#    y 0.000000 2.964500 0.000000 
#    z 0.000000 0.000000 3.040340 
# 
# 
# High freq. dielectric constant tensor:
#      x y z
#    x 1.630750 0.000000 0.000000 
#    y 0.000000 1.628050 0.000000 
#    z 0.000000 0.000000 1.607360 
# 
# From -- ./inp_files/25086.got.cif
#   From: 2010.03.12/outbox.cif.g09.slc.cpg/sg59_13_cif.got.tgz:25086.got - 2010.04.16 16:29:54.
