data_PCOD8241188
_publ_section_title
;
Structure prediction by ZEFSAII (Michael W. Deem and Ramdas Pophale) SiO2 
 PCOD8241188
Probable space group: P M M N
;
_chemical_formula_sum "Si O2"
_cell_formula_units_Z 64
_cell_length_a 19.669980
_cell_length_b 9.081648
_cell_length_c 19.901261
_cell_angle_alpha 90.000000
_cell_angle_beta 90.000000
_cell_angle_gamma 90.000000
_cell_volume 3555.078367
_symmetry_space_group_name_H-M "P M M N"
_symmetry_group_IT_number 59
_space_group.IT_coordinate_system_code '2'
_symmetry_cell_setting 'orthorhombic'
loop_
_space_group_symop_operation_xyz
x,y,z
1/2-x,1/2-y,z
1/2+x,-y,-z
-x,1/2+y,-z
-x,-y,-z
1/2+x,1/2+y,-z
1/2-x,y,z
x,1/2-y,z
loop_
_atom_site_type_symbol
_atom_site_label
_atom_site_fract_x
_atom_site_fract_y
_atom_site_fract_z
Si Si1 0.824295 0.913384 0.442515
Si Si2 0.955844 0.920454 0.825305
Si Si3 0.539649 0.925919 0.061235
Si Si4 0.673073 0.418956 0.867053
Si Si5 0.047181 0.581797 0.703123
Si Si6 0.952821 0.078294 0.447554
Si Si7 0.672811 0.419825 0.024933
Si Si8 0.176458 0.414809 0.716922
O O1 0.750000 0.951535 0.472129
O O2 0.846846 0.750000 0.466584
O O3 0.821344 0.916021 0.362793
O O4 0.876195 0.036137 0.468810
O O5 0.960244 0.750000 0.848346
O O6 0.980644 0.939472 0.748648
O O7 0.878072 0.974720 0.827385
O O8 0.003244 0.022112 0.871155
O O9 0.535942 0.750000 0.055007
O O10 0.618450 0.977594 0.063074
O O11 0.500000 0.000000 0.000000
O O12 0.750000 0.461686 0.846752
O O13 0.658120 0.250000 0.847792
O O14 0.662068 0.442195 0.945929
O O15 0.068174 0.750000 0.694648
O O16 0.032124 0.518733 0.628355
O O17 0.111912 0.508997 0.740891
O O18 0.964614 0.250000 0.453600
O O19 0.000000 0.000000 0.500000
O O20 0.750000 0.465484 0.045085
O O21 0.659792 0.250000 0.044420
O O22 0.250000 0.476169 0.743399
O O23 0.166245 0.250000 0.744518
#
# Coordination Sequence:
#
# PCOD8241188 Si02
#       8
#     8   8   8   8   8   8   8   8
#     4   8  14  26  45  70  99 128 160 201 249 298
#     4  11  22  36  54  77 105 138 174 213 257 308
#     4  12  23  35  53  78 106 136 172 213 256 303
#     4   9  18  33  54  79 104 131 167 213 263 309
#     4   9  20  35  50  73 104 136 172 211 254 305
#     4  10  19  32  51  75 103 134 170 213 257 306
#     4   9  18  34  55  78 106 137 171 215 263 308
#     4   8  14  26  46  71  97 127 165 206 245 291
#
# _framework density 18.002414999999999
#
# number of rings (size 3 to 8) (size 9 to 14) (size 15 to 20)
#    0.000    2.500    1.250    3.375    0.000    2.500 
#    0.000    4.375    0.000    1.500    0.000    1.750 
#    0.000    0.000    0.000    0.000    0.000    0.000 
#
# Total GULP energy -793267.287340 kJ/mol
# GULP energy per Si atom -12394.801365 kJ/mol
# Density = 1.796144 g / cm^3
# Si number density = 18.002415 Si / 1000 Ang^3
#
#
#
# Elastic Constant Matrix: (Units=GPa)
#
#
# Indices 1 2 3 4 5 6 
#
# 1 135.2850 60.9955 41.3172 0.0000 0.0000 0.0000
# 2 60.9955 93.8202 33.9709 0.0000 0.0000 0.0000
# 3 41.3172 33.9709 52.2382 0.0000 0.0000 0.0000
# 4 0.0000 0.0000 0.0000 19.8407 0.0000 0.0000
# 5 0.0000 0.0000 0.0000 0.0000 22.6890 0.0000
# 6 0.0000 0.0000 0.0000 0.0000 0.0000 38.2102
#
#
#
# Elastic Compliance Matrix: (Units=1/GPa)
#
#
# Indices 1 2 3 4 5 6 
#
# 1 0.011578 -0.005509 -0.005575 0.000000 0.000000 0.000000
# 2 -0.005509 0.016562 -0.006414 0.000000 0.000000 0.000000
# 3 -0.005575 -0.006414 0.027724 0.000000 0.000000 0.000000
# 4 0.000000 0.000000 0.000000 0.050401 0.000000 0.000000
# 5 0.000000 0.000000 0.000000 0.000000 0.044074 0.000000
# 6 0.000000 0.000000 0.000000 0.000000 0.000000 0.026171
#
#
# Mechanical properties :
#
#
# Convention : Reuss Voigt Hill
#
# Bulk Modulus (GPa) = 47.91794 61.54562 54.73178
# Shear Modulus (GPa) = 22.88724 25.81864 24.35294
#
# Velocity S-wave (km/s) = 3.56946 3.79116 3.68198
# Velocity P-wave (km/s) = 6.60782 7.30928 6.96738
#
# Compressibility (1/GPa) = 0.02086901
#
# Stress axis : x y z
#
# Youngs Moduli (GPa) = 86.36911 60.37815 36.07022
#
# Poissons Ratio (x) = 0.33260 0.20110
# Poissons Ratio (y) = 0.47577 0.23134
# Poissons Ratio (z) = 0.48154 0.38724
#
# Static dielectric constant tensor:
#      x y z
#    x 3.996960 0.000000 0.000000 
#    y 0.000000 3.409820 0.000000 
#    z 0.000000 0.000000 3.001420 
# 
# 
# High freq. dielectric constant tensor:
#      x y z
#    x 1.708610 0.000000 0.000000 
#    y 0.000000 1.696630 0.000000 
#    z 0.000000 0.000000 1.652360 
# 
# From -- ./inp_files/30792.got.cif
#   From: 2010.03.12/outbox.cif.g09.slc.cpg/sg59_16_cif.got.tgz:30792.got - 2010.04.16 16:29:54.
