data_PCOD8241417
_publ_section_title
;
Structure prediction by ZEFSAII (Michael W. Deem and Ramdas Pophale) SiO2 
 PCOD8241417
Probable space group: P M M N
;
_chemical_formula_sum "Si O2"
_cell_formula_units_Z 48
_cell_length_a 30.707813
_cell_length_b 8.945165
_cell_length_c 9.622521
_cell_angle_alpha 90.000000
_cell_angle_beta 90.000000
_cell_angle_gamma 90.000000
_cell_volume 2643.176173
_symmetry_space_group_name_H-M "P M M N"
_symmetry_group_IT_number 59
_space_group.IT_coordinate_system_code '2'
_symmetry_cell_setting 'orthorhombic'
loop_
_space_group_symop_operation_xyz
x,y,z
1/2-x,1/2-y,z
1/2+x,-y,-z
-x,1/2+y,-z
-x,-y,-z
1/2+x,1/2+y,-z
1/2-x,y,z
x,1/2-y,z
loop_
_atom_site_type_symbol
_atom_site_label
_atom_site_fract_x
_atom_site_fract_y
_atom_site_fract_z
Si Si1 0.633002 0.925500 0.066877
Si Si2 0.111309 0.574831 0.202337
Si Si3 0.933726 0.073711 0.262543
Si Si4 0.298965 0.425123 0.702779
Si Si5 0.365244 0.925395 0.509851
Si Si6 0.488019 0.925810 0.145166
O O1 0.622789 0.750000 0.070692
O O2 0.676201 0.965235 0.154376
O O3 0.592122 0.015513 0.127796
O O4 0.639567 0.982522 0.909718
O O5 0.119312 0.750000 0.179644
O O6 0.127896 0.521607 0.352638
O O7 0.060684 0.533606 0.189838
O O8 0.940169 0.250000 0.247836
O O9 0.907867 0.028114 0.401673
O O10 0.980572 0.993235 0.264731
O O11 0.250000 0.488214 0.714779
O O12 0.298898 0.250000 0.676721
O O13 0.322243 0.497967 0.570318
O O14 0.358097 0.750000 0.520511
O O15 0.495262 0.750000 0.133574
O O16 0.500000 0.000000 0.000000
#
# Coordination Sequence:
#
# PCOD8241417 Si02
#       6
#     8   8   8   8   8   8
#     4  10  19  32  54  79 103 135 175 214 257 313
#     4  10  21  36  52  74 108 143 174 218 267 306
#     4  10  19  33  52  74 103 140 180 223 261 301
#     4   9  19  37  59  82 106 132 167 214 265 317
#     4   9  20  37  55  77 107 142 177 214 264 317
#     4  11  21  32  50  75 105 142 185 225 263 306
#
# _framework density 18.159970000000001
#
# number of rings (size 3 to 8) (size 9 to 14) (size 15 to 20)
#    0.000    2.167    1.667    1.500    0.000    3.667 
#    0.000    0.833    0.000    3.000    0.000    0.000 
#    0.000    0.000    0.000    0.000    0.000    0.000 
#
# Total GULP energy -595308.143198 kJ/mol
# GULP energy per Si atom -12402.252983 kJ/mol
# Density = 1.811864 g / cm^3
# Si number density = 18.159970 Si / 1000 Ang^3
#
#
#
# Elastic Constant Matrix: (Units=GPa)
#
#
# Indices 1 2 3 4 5 6 
#
# 1 124.0429 43.0632 64.9169 0.0000 0.0000 0.0000
# 2 43.0632 55.7088 41.7172 0.0000 0.0000 0.0000
# 3 64.9169 41.7172 140.3074 0.0000 0.0000 0.0000
# 4 0.0000 0.0000 0.0000 27.9819 0.0000 0.0000
# 5 0.0000 0.0000 0.0000 0.0000 20.9033 0.0000
# 6 0.0000 0.0000 0.0000 0.0000 0.0000 27.0663
#
#
#
# Elastic Compliance Matrix: (Units=1/GPa)
#
#
# Indices 1 2 3 4 5 6 
#
# 1 0.012350 -0.006777 -0.003699 0.000000 0.000000 0.000000
# 2 -0.006777 0.026810 -0.004836 0.000000 0.000000 0.000000
# 3 -0.003699 -0.004836 0.010277 0.000000 0.000000 0.000000
# 4 0.000000 0.000000 0.000000 0.035737 0.000000 0.000000
# 5 0.000000 0.000000 0.000000 0.000000 0.047839 0.000000
# 6 0.000000 0.000000 0.000000 0.000000 0.000000 0.036946
#
#
# Mechanical properties :
#
#
# Convention : Reuss Voigt Hill
#
# Bulk Modulus (GPa) = 53.15387 68.82819 60.99103
# Shear Modulus (GPa) = 24.17144 26.54775 25.35959
#
# Velocity S-wave (km/s) = 3.65228 3.82761 3.74097
# Velocity P-wave (km/s) = 6.86432 7.58402 7.23313
#
# Compressibility (1/GPa) = 0.01881331
#
# Stress axis : x y z
#
# Youngs Moduli (GPa) = 80.96929 37.29902 97.30776
#
# Poissons Ratio (x) = 0.25276 0.35997
# Poissons Ratio (y) = 0.54870 0.47058
# Poissons Ratio (z) = 0.29953 0.18038
#
# Static dielectric constant tensor:
#      x y z
#    x 3.502410 0.000000 0.000000 
#    y 0.000000 3.331650 0.000000 
#    z 0.000000 0.000000 3.434250 
# 
# 
# High freq. dielectric constant tensor:
#      x y z
#    x 1.692980 0.000000 0.000000 
#    y 0.000000 1.706480 0.000000 
#    z 0.000000 0.000000 1.700900 
# 
# From -- ./inp_files/6208.got.cif
#   From: 2010.03.12/outbox.cif.g09.slc.cpg/sg59_4_cif.got.tgz:6208.got - 2010.04.16 16:29:54.
