data_PCOD8241276
_publ_section_title
;
Structure prediction by ZEFSAII (Michael W. Deem and Ramdas Pophale) SiO2 
 PCOD8241276
Probable space group: P M M N
;
_chemical_formula_sum "Si O2"
_cell_formula_units_Z 64
_cell_length_a 24.406768
_cell_length_b 9.171397
_cell_length_c 14.829193
_cell_angle_alpha 90.000000
_cell_angle_beta 90.000000
_cell_angle_gamma 90.000000
_cell_volume 3319.428233
_symmetry_space_group_name_H-M "P M M N"
_symmetry_group_IT_number 59
_space_group.IT_coordinate_system_code '2'
_symmetry_cell_setting 'orthorhombic'
loop_
_space_group_symop_operation_xyz
x,y,z
1/2-x,1/2-y,z
1/2+x,-y,-z
-x,1/2+y,-z
-x,-y,-z
1/2+x,1/2+y,-z
1/2-x,y,z
x,1/2-y,z
loop_
_atom_site_type_symbol
_atom_site_label
_atom_site_fract_x
_atom_site_fract_y
_atom_site_fract_z
Si Si1 0.512199 0.079366 0.246544
Si Si2 0.462653 0.593401 0.560339
Si Si3 0.115447 0.422271 0.790197
Si Si4 0.851640 0.412520 0.541902
Si Si5 0.813775 0.415276 0.069216
Si Si6 0.811489 0.582327 0.378184
Si Si7 0.887255 0.577193 0.723125
Si Si8 0.686354 0.415851 0.861034
O O1 0.516844 0.250000 0.223466
O O2 0.539233 0.028578 0.340563
O O3 0.448819 0.028410 0.247436
O O4 0.555142 0.990196 0.185048
O O5 0.500000 0.500000 0.500000
O O6 0.492106 0.750000 0.568651
O O7 0.404135 0.607805 0.518738
O O8 0.109546 0.250000 0.789289
O O9 0.153434 0.468528 0.872844
O O10 0.145271 0.476409 0.696964
O O11 0.828648 0.250000 0.566489
O O12 0.811464 0.498910 0.474839
O O13 0.866298 0.499516 0.632431
O O14 0.750000 0.441591 0.085928
O O15 0.829735 0.250000 0.096791
O O16 0.828177 0.442074 0.964897
O O17 0.750000 0.564957 0.338607
O O18 0.825236 0.750000 0.399662
O O19 0.884822 0.750000 0.707537
O O20 0.847931 0.531148 0.803764
O O21 0.750000 0.445533 0.842140
O O22 0.671457 0.250000 0.833099
#
# Coordination Sequence:
#
# PCOD8241276 Si02
#       8
#     8   8   8   8   8   8   8   8
#     4  10  21  37  54  79 116 153 192 232 276 336
#     4  10  19  32  52  76 105 142 187 235 276 320
#     4  11  22  35  57  87 118 150 187 234 286 338
#     4  11  22  35  54  79 107 145 191 234 276 329
#     4   9  19  38  64  89 113 146 186 230 284 342
#     4  10  22  38  53  75 112 152 188 232 285 336
#     4  11  23  38  59  86 116 151 189 235 287 336
#     4   9  20  41  66  89 113 143 184 234 284 338
#
# _framework density 19.280429999999999
#
# number of rings (size 3 to 8) (size 9 to 14) (size 15 to 20)
#    0.000    1.875    2.500    2.250    0.000    4.750 
#    0.000    1.875    0.000    0.000    0.000    0.000 
#    0.000    0.000    0.000    0.000    0.000    0.000 
#
# Total GULP energy -793059.421101 kJ/mol
# GULP energy per Si atom -12391.553455 kJ/mol
# Density = 1.923655 g / cm^3
# Si number density = 19.280430 Si / 1000 Ang^3
#
#
#
# Elastic Constant Matrix: (Units=GPa)
#
#
# Indices 1 2 3 4 5 6 
#
# 1 90.6258 43.0799 44.7539 0.0000 0.0000 0.0000
# 2 43.0799 78.0801 38.6955 0.0000 0.0000 0.0000
# 3 44.7539 38.6955 81.9621 0.0000 0.0000 0.0000
# 4 0.0000 0.0000 0.0000 35.1654 0.0000 0.0000
# 5 0.0000 0.0000 0.0000 0.0000 29.8625 0.0000
# 6 0.0000 0.0000 0.0000 0.0000 0.0000 26.8316
#
#
#
# Elastic Compliance Matrix: (Units=1/GPa)
#
#
# Indices 1 2 3 4 5 6 
#
# 1 0.017202 -0.006313 -0.006412 0.000000 0.000000 0.000000
# 2 -0.006313 0.019036 -0.005540 0.000000 0.000000 0.000000
# 3 -0.006412 -0.005540 0.018318 0.000000 0.000000 0.000000
# 4 0.000000 0.000000 0.000000 0.028437 0.000000 0.000000
# 5 0.000000 0.000000 0.000000 0.000000 0.033487 0.000000
# 6 0.000000 0.000000 0.000000 0.000000 0.000000 0.037269
#
#
# Mechanical properties :
#
#
# Convention : Reuss Voigt Hill
#
# Bulk Modulus (GPa) = 55.47930 55.96960 55.72445
# Shear Modulus (GPa) = 25.47272 26.64783 26.06027
#
# Velocity S-wave (km/s) = 3.63873 3.72172 3.68046
# Velocity P-wave (km/s) = 6.81845 6.89641 6.85754
#
# Compressibility (1/GPa) = 0.01802474
#
# Stress axis : x y z
#
# Youngs Moduli (GPa) = 58.13275 52.53159 54.59229
#
# Poissons Ratio (x) = 0.33164 0.35006
# Poissons Ratio (y) = 0.36700 0.30244
# Poissons Ratio (z) = 0.37276 0.29103
#
# Static dielectric constant tensor:
#      x y z
#    x 3.502040 0.000000 0.000000 
#    y 0.000000 3.726110 0.000000 
#    z 0.000000 0.000000 3.414120 
# 
# 
# High freq. dielectric constant tensor:
#      x y z
#    x 1.752810 0.000000 0.000000 
#    y 0.000000 1.750940 0.000000 
#    z 0.000000 0.000000 1.738630 
# 
# From -- ./inp_files/24733.got.cif
#   From: 2010.03.12/outbox.cif.g09.slc.cpg/sg59_13_cif.got.tgz:24733.got - 2010.04.16 16:29:54.
