data_PCOD8241059
_publ_section_title
;
Structure prediction by ZEFSAII (Michael W. Deem and Ramdas Pophale) SiO2 
 PCOD8241059
Probable space group: P M M N
;
_chemical_formula_sum "Si O2"
_cell_formula_units_Z 32
_cell_length_a 10.479556
_cell_length_b 17.007984
_cell_length_c 9.326419
_cell_angle_alpha 90.000000
_cell_angle_beta 90.000000
_cell_angle_gamma 90.000000
_cell_volume 1662.304743
_symmetry_space_group_name_H-M "P M M N"
_symmetry_group_IT_number 59
_space_group.IT_coordinate_system_code '2'
_symmetry_cell_setting 'orthorhombic'
loop_
_space_group_symop_operation_xyz
x,y,z
1/2-x,1/2-y,z
1/2+x,-y,-z
-x,1/2+y,-z
-x,-y,-z
1/2+x,1/2+y,-z
1/2-x,y,z
x,1/2-y,z
loop_
_atom_site_type_symbol
_atom_site_label
_atom_site_fract_x
_atom_site_fract_y
_atom_site_fract_z
Si Si1 0.250000 0.159957 0.626204
Si Si2 0.525178 0.159332 0.601428
Si Si3 0.750000 0.101801 0.086963
Si Si4 0.250000 0.655772 0.593851
Si Si5 0.750000 0.580806 0.075336
Si Si6 0.494269 0.841727 0.075778
O O1 0.250000 0.250000 0.685980
O O2 0.381153 0.146253 0.537501
O O3 0.250000 0.100025 0.756935
O O4 0.562249 0.250000 0.610810
O O5 0.627249 0.122230 0.492908
O O6 0.534216 0.125040 0.763373
O O7 0.750000 0.111919 0.256424
O O8 0.750000 0.011237 0.044660
O O9 0.625335 0.143403 0.025043
O O10 0.250000 0.750000 0.616490
O O11 0.880176 0.616585 0.008153
O O12 0.524821 0.750000 0.083587
#
# Coordination Sequence:
#
# PCOD8241059 Si02
#       6
#     4   8   4   4   4   8
#     4   8  14  30  54  75  91 125 181 227 249 287
#     4   8  15  29  53  75  93 125 177 222 248 286
#     4  12  23  33  49  81 117 140 162 210 274 324
#     4  10  19  32  47  72 107 138 164 204 260 316
#     4  10  20  35  54  78 107 137 171 221 271 307
#     4  10  19  36  59  79  98 136 187 224 250 300
#
# _framework density 19.250381999999998
#
# number of rings (size 3 to 8) (size 9 to 14) (size 15 to 20)
#    0.000    2.500    0.000    5.250    0.000    2.000 
#    0.000    6.250    0.000    3.000    0.000    0.000 
#    0.000    0.000    0.000    0.000    0.000    0.000 
#
# Total GULP energy -396544.901709 kJ/mol
# GULP energy per Si atom -12392.028178 kJ/mol
# Density = 1.920657 g / cm^3
# Si number density = 19.250382 Si / 1000 Ang^3
#
#
#
# Elastic Constant Matrix: (Units=GPa)
#
#
# Indices 1 2 3 4 5 6 
#
# 1 170.7756 5.3142 50.6949 0.0000 0.0000 0.0000
# 2 5.3142 44.7106 -1.1303 0.0000 0.0000 0.0000
# 3 50.6949 -1.1303 71.6960 0.0000 0.0000 0.0000
# 4 0.0000 0.0000 0.0000 14.0042 0.0000 0.0000
# 5 0.0000 0.0000 0.0000 0.0000 1.1677 0.0000
# 6 0.0000 0.0000 0.0000 0.0000 0.0000 14.6385
#
#
#
# Elastic Compliance Matrix: (Units=1/GPa)
#
#
# Indices 1 2 3 4 5 6 
#
# 1 0.007457 -0.001020 -0.005289 0.000000 0.000000 0.000000
# 2 -0.001020 0.022514 0.001076 0.000000 0.000000 0.000000
# 3 -0.005289 0.001076 0.017705 0.000000 0.000000 0.000000
# 4 0.000000 0.000000 0.000000 0.071407 0.000000 0.000000
# 5 0.000000 0.000000 0.000000 0.000000 0.856377 0.000000
# 6 0.000000 0.000000 0.000000 0.000000 0.000000 0.068313
#
#
# Mechanical properties :
#
#
# Convention : Reuss Voigt Hill
#
# Bulk Modulus (GPa) = 26.87408 44.10442 35.48925
# Shear Modulus (GPa) = 4.68761 21.44899 13.06830
#
# Velocity S-wave (km/s) = 1.56216 3.34160 2.60832
# Velocity P-wave (km/s) = 4.15264 6.15216 5.24850
#
# Compressibility (1/GPa) = 0.03721058
#
# Stress axis : x y z
#
# Youngs Moduli (GPa) = 134.09402 44.41583 56.48261
#
# Poissons Ratio (x) = 0.04531 0.29874
# Poissons Ratio (y) = 0.13679 -0.06079
# Poissons Ratio (z) = 0.70924 -0.04780
#
# Static dielectric constant tensor:
#      x y z
#    x 4.045160 0.000000 0.000000 
#    y 0.000000 3.184970 0.000000 
#    z 0.000000 0.000000 3.233550 
# 
# 
# High freq. dielectric constant tensor:
#      x y z
#    x 1.779280 0.000000 0.000000 
#    y 0.000000 1.718060 0.000000 
#    z 0.000000 0.000000 1.708390 
# 
# From -- ./inp_files/7063.got.cif
#   From: 2010.03.12/outbox.cif.g09.slc.cpg/sg59_4_cif.got.tgz:7063.got - 2010.04.16 16:29:54.
