data_PCOD8241656
_publ_section_title
;
Structure prediction by ZEFSAII (Michael W. Deem and Ramdas Pophale) SiO2 
 PCOD8241656
Probable space group: P M M N
;
_chemical_formula_sum "Si O2"
_cell_formula_units_Z 48
_cell_length_a 9.516301
_cell_length_b 18.942784
_cell_length_c 15.080157
_cell_angle_alpha 90.000000
_cell_angle_beta 90.000000
_cell_angle_gamma 90.000000
_cell_volume 2718.428035
_symmetry_space_group_name_H-M "P M M N"
_symmetry_group_IT_number 59
_space_group.IT_coordinate_system_code '2'
_symmetry_cell_setting 'orthorhombic'
loop_
_space_group_symop_operation_xyz
x,y,z
1/2-x,1/2-y,z
1/2+x,-y,-z
-x,1/2+y,-z
-x,-y,-z
1/2+x,1/2+y,-z
1/2-x,y,z
x,1/2-y,z
loop_
_atom_site_type_symbol
_atom_site_label
_atom_site_fract_x
_atom_site_fract_y
_atom_site_fract_z
Si Si1 0.083953 0.411635 0.269769
Si Si2 0.410699 0.333051 0.635914
Si Si3 0.083312 0.328130 0.439171
Si Si4 0.588401 0.434773 0.965973
Si Si5 0.414135 0.928706 0.235304
Si Si6 0.088316 0.668572 0.878147
O O1 0.250000 0.401753 0.257084
O O2 0.031151 0.383197 0.365166
O O3 0.039125 0.492817 0.263305
O O4 0.009712 0.367289 0.193876
O O5 0.250000 0.357367 0.648053
O O6 0.425274 0.250000 0.651870
O O7 0.466346 0.352517 0.536957
O O8 0.504867 0.372465 0.706585
O O9 0.250000 0.323531 0.440537
O O10 0.022920 0.250000 0.416867
O O11 0.750000 0.459037 0.967711
O O12 0.543452 0.415026 0.866442
O O13 0.500000 0.500000 0.000000
O O14 0.561122 0.366592 0.026411
O O15 0.250000 0.917328 0.251581
O O16 0.250000 0.659128 0.848989
O O17 0.046383 0.750000 0.887087
#
# Coordination Sequence:
#
# PCOD8241656 Si02
#       6
#     8   8   8   8   8   8
#     4  10  19  33  54  80 107 137 175 215 258 313
#     4   9  19  36  55  75 101 137 181 220 257 310
#     4   8  15  30  52  75 102 138 175 214 261 307
#     4  10  20  36  55  75 104 141 175 212 259 312
#     4  10  21  34  52  80 108 136 172 216 265 315
#     4  10  21  35  52  77 107 139 175 215 262 314
#
# _framework density 17.657263
#
# number of rings (size 3 to 8) (size 9 to 14) (size 15 to 20)
#    0.000    2.500    1.667    1.500    0.000    4.000 
#    0.000    2.500    0.000    1.000    0.000    0.000 
#    0.000    0.000    0.000    0.000    0.000    0.000 
#
# Total GULP energy -595190.284367 kJ/mol
# GULP energy per Si atom -12399.797591 kJ/mol
# Density = 1.761707 g / cm^3
# Si number density = 17.657263 Si / 1000 Ang^3
#
#
#
# Elastic Constant Matrix: (Units=GPa)
#
#
# Indices 1 2 3 4 5 6 
#
# 1 43.2595 40.2424 50.2991 0.0000 0.0000 0.0000
# 2 40.2424 90.5839 71.9811 0.0000 0.0000 0.0000
# 3 50.2991 71.9811 161.5164 0.0000 0.0000 0.0000
# 4 0.0000 0.0000 0.0000 37.1423 0.0000 0.0000
# 5 0.0000 0.0000 0.0000 0.0000 28.6620 0.0000
# 6 0.0000 0.0000 0.0000 0.0000 0.0000 23.1322
#
#
#
# Elastic Compliance Matrix: (Units=1/GPa)
#
#
# Indices 1 2 3 4 5 6 
#
# 1 0.045118 -0.013747 -0.007924 0.000000 0.000000 0.000000
# 2 -0.013747 0.021281 -0.005203 0.000000 0.000000 0.000000
# 3 -0.007924 -0.005203 0.010978 0.000000 0.000000 0.000000
# 4 0.000000 0.000000 0.000000 0.026923 0.000000 0.000000
# 5 0.000000 0.000000 0.000000 0.000000 0.034889 0.000000
# 6 0.000000 0.000000 0.000000 0.000000 0.000000 0.043230
#
#
# Mechanical properties :
#
#
# Convention : Reuss Voigt Hill
#
# Bulk Modulus (GPa) = 42.32156 68.93390 55.62773
# Shear Modulus (GPa) = 20.48800 26.64312 23.56556
#
# Velocity S-wave (km/s) = 3.41004 3.88868 3.65719
# Velocity P-wave (km/s) = 6.28688 7.69981 7.02894
#
# Compressibility (1/GPa) = 0.02362862
#
# Stress axis : x y z
#
# Youngs Moduli (GPa) = 22.16390 46.98951 91.09312
#
# Poissons Ratio (x) = 0.64598 0.72183
# Poissons Ratio (y) = 0.30470 0.47396
# Poissons Ratio (z) = 0.17563 0.24449
#
# Static dielectric constant tensor:
#      x y z
#    x 3.108980 0.000000 0.000000 
#    y 0.000000 3.419780 0.000000 
#    z 0.000000 0.000000 3.556970 
# 
# 
# High freq. dielectric constant tensor:
#      x y z
#    x 1.662200 0.000000 0.000000 
#    y 0.000000 1.684290 0.000000 
#    z 0.000000 0.000000 1.696340 
# 
# From -- ./inp_files/20344.got.cif
#   From: 2010.03.12/outbox.cif.g09.slc.cpg/sg59_11_cif.got.tgz:20344.got - 2010.04.16 16:29:54.
