data_PCOD8241585
_publ_section_title
;
Structure prediction by ZEFSAII (Michael W. Deem and Ramdas Pophale) SiO2 
 PCOD8241585
Probable space group: P M M N
;
_chemical_formula_sum "Si O2"
_cell_formula_units_Z 64
_cell_length_a 9.307772
_cell_length_b 26.792713
_cell_length_c 13.243877
_cell_angle_alpha 90.000000
_cell_angle_beta 90.000000
_cell_angle_gamma 90.000000
_cell_volume 3302.764190
_symmetry_space_group_name_H-M "P M M N"
_symmetry_group_IT_number 59
_space_group.IT_coordinate_system_code '2'
_symmetry_cell_setting 'orthorhombic'
loop_
_space_group_symop_operation_xyz
x,y,z
1/2-x,1/2-y,z
1/2+x,-y,-z
-x,1/2+y,-z
-x,-y,-z
1/2+x,1/2+y,-z
1/2-x,y,z
x,1/2-y,z
loop_
_atom_site_type_symbol
_atom_site_label
_atom_site_fract_x
_atom_site_fract_y
_atom_site_fract_z
Si Si1 0.912041 0.691508 0.452149
Si Si2 0.079230 0.851756 0.262556
Si Si3 0.079515 0.870900 0.855877
Si Si4 0.579392 0.193216 0.953253
Si Si5 0.405678 0.448605 0.740673
Si Si6 0.412862 0.970233 0.580376
Si Si7 0.592293 0.021062 0.086412
Si Si8 0.078878 0.640818 0.629643
O O1 0.750000 0.668434 0.449845
O O2 0.899804 0.750000 0.452108
O O3 0.001420 0.676797 0.352948
O O4 0.994295 0.677030 0.554813
O O5 0.250000 0.847055 0.276471
O O6 0.028201 0.830519 0.153541
O O7 0.033826 0.909436 0.271742
O O8 0.250000 0.869313 0.856253
O O9 0.025375 0.928387 0.864907
O O10 0.029762 0.849566 0.746287
O O11 0.018883 0.837869 0.950053
O O12 0.750000 0.192709 0.955960
O O13 0.521336 0.250000 0.960202
O O14 0.250000 0.424314 0.711254
O O15 0.434000 0.499402 0.681607
O O16 0.399171 0.470520 0.850809
O O17 0.250000 0.967869 0.543262
O O18 0.469614 0.914599 0.597473
O O19 0.500000 0.000000 0.500000
O O20 0.750000 0.036357 0.047000
O O21 0.500000 0.000000 0.000000
O O22 0.250000 0.648562 0.617802
#
# Coordination Sequence:
#
# PCOD8241585 Si02
#       8
#     8   8   8   8   8   8   8   8
#     4  11  25  43  61  83 115 155 194 238 298 356
#     4  11  22  37  59  88 118 148 194 250 292 341
#     4   9  17  33  56  82 117 153 187 234 291 345
#     4   9  18  32  53  83 115 146 184 238 299 346
#     4  10  20  35  54  78 114 154 185 220 285 351
#     4  10  20  34  52  78 110 146 184 226 278 334
#     4  10  19  33  53  79 114 154 190 232 282 339
#     4  10  20  37  61  87 115 149 195 244 286 338
#
# _framework density 19.377707999999998
#
# number of rings (size 3 to 8) (size 9 to 14) (size 15 to 20)
#    0.000    2.000    1.250    2.625    0.000    6.500 
#    0.000    1.875    0.000    1.500    0.000    1.750 
#    0.000    0.000    0.000    0.000    0.000    0.000 
#
# Total GULP energy -792989.367178 kJ/mol
# GULP energy per Si atom -12390.458862 kJ/mol
# Density = 1.933360 g / cm^3
# Si number density = 19.377708 Si / 1000 Ang^3
#
#
#
# Elastic Constant Matrix: (Units=GPa)
#
#
# Indices 1 2 3 4 5 6 
#
# 1 63.8051 31.3857 47.7247 0.0000 0.0000 0.0000
# 2 31.3857 77.1022 21.8482 0.0000 0.0000 0.0000
# 3 47.7247 21.8482 128.6859 0.0000 0.0000 0.0000
# 4 0.0000 0.0000 0.0000 13.9994 0.0000 0.0000
# 5 0.0000 0.0000 0.0000 0.0000 23.8426 0.0000
# 6 0.0000 0.0000 0.0000 0.0000 0.0000 23.2346
#
#
#
# Elastic Compliance Matrix: (Units=1/GPa)
#
#
# Indices 1 2 3 4 5 6 
#
# 1 0.025827 -0.008193 -0.008187 0.000000 0.000000 0.000000
# 2 -0.008193 0.016225 0.000284 0.000000 0.000000 0.000000
# 3 -0.008187 0.000284 0.010759 0.000000 0.000000 0.000000
# 4 0.000000 0.000000 0.000000 0.071432 0.000000 0.000000
# 5 0.000000 0.000000 0.000000 0.000000 0.041942 0.000000
# 6 0.000000 0.000000 0.000000 0.000000 0.000000 0.043039
#
#
# Mechanical properties :
#
#
# Convention : Reuss Voigt Hill
#
# Bulk Modulus (GPa) = 48.50262 52.39003 50.44632
# Shear Modulus (GPa) = 20.13790 23.45763 21.79776
#
# Velocity S-wave (km/s) = 3.22721 3.48307 3.35757
# Velocity P-wave (km/s) = 6.24267 6.57804 6.41255
#
# Compressibility (1/GPa) = 0.02061744
#
# Stress axis : x y z
#
# Youngs Moduli (GPa) = 38.71961 61.63511 92.94603
#
# Poissons Ratio (x) = 0.50499 0.76096
# Poissons Ratio (y) = 0.31724 -0.02639
# Poissons Ratio (z) = 0.31700 -0.01750
#
# Static dielectric constant tensor:
#      x y z
#    x 3.788320 0.000000 0.000000 
#    y 0.000000 2.959010 0.000000 
#    z 0.000000 0.000000 3.677140 
# 
# 
# High freq. dielectric constant tensor:
#      x y z
#    x 1.722150 0.000000 0.000000 
#    y 0.000000 1.760060 0.000000 
#    z 0.000000 0.000000 1.769050 
# 
# From -- ./inp_files/14994.got.cif
#   From: 2010.03.12/outbox.cif.g09.slc.cpg/sg59_8_cif.got.tgz:14994.got - 2010.04.16 16:29:54.
