data_PCOD8241949
_publ_section_title
;
Structure prediction by ZEFSAII (Michael W. Deem and Ramdas Pophale) SiO2 
 PCOD8241949
Probable space group: P M M N
;
_chemical_formula_sum "Si O2"
_cell_formula_units_Z 64
_cell_length_a 18.550262
_cell_length_b 9.131857
_cell_length_c 20.020362
_cell_angle_alpha 90.000000
_cell_angle_beta 90.000000
_cell_angle_gamma 90.000000
_cell_volume 3391.416087
_symmetry_space_group_name_H-M "P M M N"
_symmetry_group_IT_number 59
_space_group.IT_coordinate_system_code '2'
_symmetry_cell_setting 'orthorhombic'
loop_
_space_group_symop_operation_xyz
x,y,z
1/2-x,1/2-y,z
1/2+x,-y,-z
-x,1/2+y,-z
-x,-y,-z
1/2+x,1/2+y,-z
1/2-x,y,z
x,1/2-y,z
loop_
_atom_site_type_symbol
_atom_site_label
_atom_site_fract_x
_atom_site_fract_y
_atom_site_fract_z
Si Si1 0.397690 0.575565 0.095222
Si Si2 0.912049 0.419093 0.664522
Si Si3 0.830072 0.076044 0.535126
Si Si4 0.569394 0.581975 0.290060
Si Si5 0.052548 0.078039 0.858043
Si Si6 0.666932 0.582006 0.781575
Si Si7 0.835158 0.413665 0.389035
Si Si8 0.333726 0.420962 0.967875
O O1 0.392187 0.750000 0.095564
O O2 0.479717 0.518803 0.106588
O O3 0.346841 0.512022 0.152524
O O4 0.368756 0.516571 0.025527
O O5 0.889444 0.250000 0.677100
O O6 0.884994 0.476095 0.592459
O O7 0.878638 0.519352 0.721020
O O8 0.997562 0.437828 0.666315
O O9 0.750000 0.015571 0.552148
O O10 0.826730 0.250000 0.530842
O O11 0.855863 0.019107 0.462115
O O12 0.590609 0.750000 0.281352
O O13 0.560207 0.510144 0.216303
O O14 0.634119 0.508134 0.329057
O O15 0.042492 0.250000 0.850552
O O16 0.123427 0.037820 0.900417
O O17 0.750000 0.568362 0.761971
O O18 0.644856 0.750000 0.794797
O O19 0.750000 0.412863 0.381812
O O20 0.866411 0.250000 0.382241
O O21 0.250000 0.461692 0.957522
O O22 0.342856 0.250000 0.985583
#
# Coordination Sequence:
#
# PCOD8241949 Si02
#       8
#     8   8   8   8   8   8   8   8
#     4  11  21  37  59  81 108 143 181 224 267 318
#     4  10  19  34  56  81 109 143 185 229 270 324
#     4   8  15  30  53  78 106 144 186 225 271 327
#     4  10  20  35  55  82 112 140 181 231 273 323
#     4   9  19  37  57  79 109 144 180 219 270 330
#     4  11  23  36  52  79 114 148 182 221 268 323
#     4   9  19  36  55  77 107 144 187 230 273 327
#     4  10  21  37  57  81 109 141 178 222 273 327
#
# _framework density 18.871172999999999
#
# number of rings (size 3 to 8) (size 9 to 14) (size 15 to 20)
#    0.000    2.250    1.250    2.625    0.000    5.000 
#    0.000    3.125    0.000    0.750    0.000    0.000 
#    0.000    0.000    0.000    0.000    0.000    0.000 
#
# Total GULP energy -793549.028073 kJ/mol
# GULP energy per Si atom -12399.203564 kJ/mol
# Density = 1.882822 g / cm^3
# Si number density = 18.871173 Si / 1000 Ang^3
#
#
#
# Elastic Constant Matrix: (Units=GPa)
#
#
# Indices 1 2 3 4 5 6 
#
# 1 65.8688 29.6782 52.0838 0.0000 0.0000 0.0000
# 2 29.6782 54.3428 37.8192 0.0000 0.0000 0.0000
# 3 52.0838 37.8192 122.1248 0.0000 0.0000 0.0000
# 4 0.0000 0.0000 0.0000 24.7775 0.0000 0.0000
# 5 0.0000 0.0000 0.0000 0.0000 41.0366 0.0000
# 6 0.0000 0.0000 0.0000 0.0000 0.0000 19.9638
#
#
#
# Elastic Compliance Matrix: (Units=1/GPa)
#
#
# Indices 1 2 3 4 5 6 
#
# 1 0.025413 -0.008077 -0.008337 0.000000 0.000000 0.000000
# 2 -0.008077 0.026024 -0.004614 0.000000 0.000000 0.000000
# 3 -0.008337 -0.004614 0.013173 0.000000 0.000000 0.000000
# 4 0.000000 0.000000 0.000000 0.040359 0.000000 0.000000
# 5 0.000000 0.000000 0.000000 0.000000 0.024369 0.000000
# 6 0.000000 0.000000 0.000000 0.000000 0.000000 0.050091
#
#
# Mechanical properties :
#
#
# Convention : Reuss Voigt Hill
#
# Bulk Modulus (GPa) = 44.33893 53.49987 48.91940
# Shear Modulus (GPa) = 21.83383 25.33926 23.58654
#
# Velocity S-wave (km/s) = 3.40515 3.66833 3.53919
# Velocity P-wave (km/s) = 6.24553 6.80836 6.53301
#
# Compressibility (1/GPa) = 0.02255354
#
# Stress axis : x y z
#
# Youngs Moduli (GPa) = 39.34995 38.42604 75.91355
#
# Poissons Ratio (x) = 0.31036 0.63289
# Poissons Ratio (y) = 0.31782 0.35030
# Poissons Ratio (z) = 0.32806 0.17731
#
# Static dielectric constant tensor:
#      x y z
#    x 3.538760 0.000000 0.000000 
#    y 0.000000 3.240900 0.000000 
#    z 0.000000 0.000000 3.842780 
# 
# 
# High freq. dielectric constant tensor:
#      x y z
#    x 1.735440 0.000000 0.000000 
#    y 0.000000 1.704180 0.000000 
#    z 0.000000 0.000000 1.744390 
# 
# From -- ./inp_files/30804.got.cif
#   From: 2010.03.12/outbox.cif.g09.slc.cpg/sg59_16_cif.got.tgz:30804.got - 2010.04.16 16:29:54.
