data_PCOD8241198
_publ_section_title
;
Structure prediction by ZEFSAII (Michael W. Deem and Ramdas Pophale) SiO2 
 PCOD8241198
Probable space group: P M M N
;
_chemical_formula_sum "Si O2"
_cell_formula_units_Z 56
_cell_length_a 9.240519
_cell_length_b 21.289830
_cell_length_c 16.497820
_cell_angle_alpha 90.000000
_cell_angle_beta 90.000000
_cell_angle_gamma 90.000000
_cell_volume 3245.600928
_symmetry_space_group_name_H-M "P M M N"
_symmetry_group_IT_number 59
_space_group.IT_coordinate_system_code '2'
_symmetry_cell_setting 'orthorhombic'
loop_
_space_group_symop_operation_xyz
x,y,z
1/2-x,1/2-y,z
1/2+x,-y,-z
-x,1/2+y,-z
-x,-y,-z
1/2+x,1/2+y,-z
1/2-x,y,z
x,1/2-y,z
loop_
_atom_site_type_symbol
_atom_site_label
_atom_site_fract_x
_atom_site_fract_y
_atom_site_fract_z
Si Si1 0.086951 0.176219 0.127433
Si Si2 0.080775 0.820134 0.549563
Si Si3 0.582431 0.868846 0.699516
Si Si4 0.081503 0.556920 0.456945
Si Si5 0.081464 0.470793 0.878832
Si Si6 0.582021 0.407113 0.016161
Si Si7 0.415590 0.987945 0.284075
O O1 0.250000 0.151102 0.111510
O O2 0.084477 0.250000 0.133523
O O3 0.026126 0.147921 0.210993
O O4 0.983560 0.155856 0.054171
O O5 0.250000 0.827278 0.564765
O O6 0.044609 0.750000 0.515255
O O7 0.026854 0.874849 0.488371
O O8 0.004569 0.827662 0.635739
O O9 0.750000 0.850900 0.690561
O O10 0.552905 0.942045 0.684093
O O11 0.250000 0.546704 0.475687
O O12 0.053143 0.557163 0.360383
O O13 0.000000 0.500000 0.500000
O O14 0.250000 0.454020 0.877172
O O15 0.051819 0.538147 0.918912
O O16 0.021548 0.468865 0.788031
O O17 0.998197 0.418952 0.931462
O O18 0.750000 0.398143 0.997555
O O19 0.250000 0.982455 0.253336
#
# Coordination Sequence:
#
# PCOD8241198 Si02
#       7
#     8   8   8   8   8   8   8
#     4  10  20  33  49  71 103 140 171 204 250 306
#     4  10  21  35  51  73 104 140 176 216 262 315
#     4  10  19  32  51  75 105 139 175 210 255 311
#     4  10  20  34  52  75 103 136 175 218 265 313
#     4  10  20  33  52  76 101 131 166 208 258 306
#     4  10  20  33  51  74 101 132 168 208 249 299
#     4  10  19  32  52  76 103 134 170 216 263 308
#
# _framework density 17.254123
#
# number of rings (size 3 to 8) (size 9 to 14) (size 15 to 20)
#    0.000    2.000    2.857    1.286    0.000    4.000 
#    0.000    0.000    0.000    0.857    0.000    2.000 
#    0.000    0.000    0.000    0.000    0.000    0.000 
#
# Total GULP energy -694493.540685 kJ/mol
# GULP energy per Si atom -12401.670369 kJ/mol
# Density = 1.721485 g / cm^3
# Si number density = 17.254123 Si / 1000 Ang^3
#
#
#
# Elastic Constant Matrix: (Units=GPa)
#
#
# Indices 1 2 3 4 5 6 
#
# 1 72.2645 36.0018 47.7143 0.0000 0.0000 0.0000
# 2 36.0018 85.6544 43.2906 0.0000 0.0000 0.0000
# 3 47.7143 43.2906 89.1305 0.0000 0.0000 0.0000
# 4 0.0000 0.0000 0.0000 26.7066 0.0000 0.0000
# 5 0.0000 0.0000 0.0000 0.0000 32.8158 0.0000
# 6 0.0000 0.0000 0.0000 0.0000 0.0000 23.0683
#
#
#
# Elastic Compliance Matrix: (Units=1/GPa)
#
#
# Indices 1 2 3 4 5 6 
#
# 1 0.022637 -0.004493 -0.009936 0.000000 0.000000 0.000000
# 2 -0.004493 0.016365 -0.005543 0.000000 0.000000 0.000000
# 3 -0.009936 -0.005543 0.019231 0.000000 0.000000 0.000000
# 4 0.000000 0.000000 0.000000 0.037444 0.000000 0.000000
# 5 0.000000 0.000000 0.000000 0.000000 0.030473 0.000000
# 6 0.000000 0.000000 0.000000 0.000000 0.000000 0.043350
#
#
# Mechanical properties :
#
#
# Convention : Reuss Voigt Hill
#
# Bulk Modulus (GPa) = 54.67950 55.67366 55.17658
# Shear Modulus (GPa) = 23.19759 24.52098 23.85929
#
# Velocity S-wave (km/s) = 3.67067 3.77393 3.72266
# Velocity P-wave (km/s) = 7.05157 7.16428 7.10815
#
# Compressibility (1/GPa) = 0.01828839
#
# Stress axis : x y z
#
# Youngs Moduli (GPa) = 44.17574 61.10671 51.99959
#
# Poissons Ratio (x) = 0.27454 0.51667
# Poissons Ratio (y) = 0.19847 0.28825
# Poissons Ratio (z) = 0.43893 0.33873
#
# Static dielectric constant tensor:
#      x y z
#    x 3.246610 0.000000 0.000000 
#    y 0.000000 3.193800 0.000000 
#    z 0.000000 0.000000 3.174550 
# 
# 
# High freq. dielectric constant tensor:
#      x y z
#    x 1.667440 0.000000 0.000000 
#    y 0.000000 1.649970 0.000000 
#    z 0.000000 0.000000 1.660740 
# 
# From -- ./inp_files/20924.got.cif
#   From: 2010.03.12/outbox.cif.g09.slc.cpg/sg59_11_cif.got.tgz:20924.got - 2010.04.16 16:29:54.
