data_PCOD8241060
_publ_section_title
;
Structure prediction by ZEFSAII (Michael W. Deem and Ramdas Pophale) SiO2 
 PCOD8241060
Probable space group: P M M N
;
_chemical_formula_sum "Si O2"
_cell_formula_units_Z 64
_cell_length_a 10.383776
_cell_length_b 13.142071
_cell_length_c 27.302365
_cell_angle_alpha 90.000000
_cell_angle_beta 90.000000
_cell_angle_gamma 90.000000
_cell_volume 3725.798713
_symmetry_space_group_name_H-M "P M M N"
_symmetry_group_IT_number 59
_space_group.IT_coordinate_system_code '2'
_symmetry_cell_setting 'orthorhombic'
loop_
_space_group_symop_operation_xyz
x,y,z
1/2-x,1/2-y,z
1/2+x,-y,-z
-x,1/2+y,-z
-x,-y,-z
1/2+x,1/2+y,-z
1/2-x,y,z
x,1/2-y,z
loop_
_atom_site_type_symbol
_atom_site_label
_atom_site_fract_x
_atom_site_fract_y
_atom_site_fract_z
Si Si1 0.401689 0.546913 0.272356
Si Si2 0.105554 0.638615 0.492714
Si Si3 0.098549 0.636221 0.170471
Si Si4 0.600690 0.061069 0.934365
Si Si5 0.973381 0.013068 0.418764
Si Si6 0.899650 0.638360 0.664785
Si Si7 0.889998 0.636629 0.340807
Si Si8 0.894605 0.636743 0.990789
O O1 0.250000 0.571935 0.281559
O O2 0.442582 0.565853 0.216187
O O3 0.434653 0.430684 0.287680
O O4 0.489781 0.620720 0.304807
O O5 0.250000 0.656768 0.476854
O O6 0.035582 0.750000 0.493416
O O7 0.104675 0.589500 0.546764
O O8 0.050552 0.564292 0.452327
O O9 0.250000 0.648178 0.170106
O O10 0.037435 0.750000 0.174077
O O11 0.053924 0.580064 0.121003
O O12 0.750000 0.095931 0.942403
O O13 0.504851 0.124976 0.968497
O O14 0.583754 0.941679 0.946248
O O15 0.882840 0.945104 0.384490
O O16 0.065114 0.081589 0.385183
O O17 0.750000 0.656575 0.662988
O O18 0.967517 0.750000 0.669369
O O19 0.750000 0.627522 0.313863
O O20 0.906371 0.750000 0.362785
O O21 0.750000 0.619968 0.013157
O O22 0.906338 0.750000 0.968749
#
# Coordination Sequence:
#
# PCOD8241060 Si02
#       8
#     8   8   8   8   8   8   8   8
#     4   9  18  32  50  71  94 121 153 189 230 275
#     4  10  20  32  46  66  90 115 147 186 222 260
#     4   9  16  27  45  69  94 119 152 194 234 273
#     4   9  17  29  46  67  91 123 162 196 229 278
#     4  10  19  32  48  65  89 120 149 179 222 271
#     4   9  17  30  48  69  91 116 150 190 227 266
#     4  10  20  33  49  70  95 121 150 186 227 271
#     4   9  17  29  44  65  95 126 157 198 242 277
#
# _framework density 17.177524999999999
#
# number of rings (size 3 to 8) (size 9 to 14) (size 15 to 20)
#    0.000    2.625    0.000    2.250    0.000    2.000 
#    0.000    1.250    0.000   15.375    0.000    0.000 
#    0.000    6.000    0.000    0.000    0.000    0.000 
#
# Total GULP energy -792941.111948 kJ/mol
# GULP energy per Si atom -12389.704874 kJ/mol
# Density = 1.713843 g / cm^3
# Si number density = 17.177525 Si / 1000 Ang^3
#
#
#
# Elastic Constant Matrix: (Units=GPa)
#
#
# Indices 1 2 3 4 5 6 
#
# 1 54.5520 32.7927 31.9387 0.0000 0.0000 0.0000
# 2 32.7927 140.6895 61.9636 0.0000 0.0000 0.0000
# 3 31.9387 61.9636 114.8589 0.0000 0.0000 0.0000
# 4 0.0000 0.0000 0.0000 -7.3650 0.0000 0.0000
# 5 0.0000 0.0000 0.0000 0.0000 17.3547 0.0000
# 6 0.0000 0.0000 0.0000 0.0000 0.0000 16.9491
#
#
#
# Elastic Compliance Matrix: (Units=1/GPa)
#
#
# Indices 1 2 3 4 5 6 
#
# 1 0.023035 -0.003342 -0.004602 0.000000 0.000000 0.000000
# 2 -0.003342 0.009808 -0.004362 0.000000 0.000000 0.000000
# 3 -0.004602 -0.004362 0.012339 0.000000 0.000000 0.000000
# 4 0.000000 0.000000 0.000000 -0.135777 0.000000 0.000000
# 5 0.000000 0.000000 0.000000 0.000000 0.057621 0.000000
# 6 0.000000 0.000000 0.000000 0.000000 0.000000 0.059000
#
#
# Mechanical properties :
#
#
# Convention : Reuss Voigt Hill
#
# Bulk Modulus (GPa) = 48.61582 62.61006 55.61294
# Shear Modulus (GPa) = 86.96448 17.61478 52.28963
#
# Velocity S-wave (km/s) = 7.12298 3.20575 5.52330
# Velocity P-wave (km/s) = 9.79860 7.08734 8.55111
#
# Compressibility (1/GPa) = 0.02056944
#
# Stress axis : x y z
#
# Youngs Moduli (GPa) = 43.41291 101.95854 81.04275
#
# Poissons Ratio (x) = 0.34075 0.37298
# Poissons Ratio (y) = 0.14509 0.35349
# Poissons Ratio (z) = 0.19980 0.44472
#
# Static dielectric constant tensor:
#      x y z
#    x 3.081080 0.000000 0.000000 
#    y 0.000000 3.545140 0.000000 
#    z 0.000000 0.000000 3.225390 
# 
# 
# High freq. dielectric constant tensor:
#      x y z
#    x 1.645750 0.000000 0.000000 
#    y 0.000000 1.678290 0.000000 
#    z 0.000000 0.000000 1.645010 
# 
# From -- ./inp_files/31974.got.cif
#   From: 2010.03.12/outbox.cif.g09.slc.cpg/sg59_16_cif.got.tgz:31974.got - 2010.04.16 16:29:54.
