data_PCOD8241174
_publ_section_title
;
Structure prediction by ZEFSAII (Michael W. Deem and Ramdas Pophale) SiO2 
 PCOD8241174
Probable space group: P M M N
;
_chemical_formula_sum "Si O2"
_cell_formula_units_Z 56
_cell_length_a 13.649904
_cell_length_b 18.118588
_cell_length_c 13.556694
_cell_angle_alpha 90.000000
_cell_angle_beta 90.000000
_cell_angle_gamma 90.000000
_cell_volume 3352.800711
_symmetry_space_group_name_H-M "P M M N"
_symmetry_group_IT_number 59
_space_group.IT_coordinate_system_code '2'
_symmetry_cell_setting 'orthorhombic'
loop_
_space_group_symop_operation_xyz
x,y,z
1/2-x,1/2-y,z
1/2+x,-y,-z
-x,1/2+y,-z
-x,-y,-z
1/2+x,1/2+y,-z
1/2-x,y,z
x,1/2-y,z
loop_
_atom_site_type_symbol
_atom_site_label
_atom_site_fract_x
_atom_site_fract_y
_atom_site_fract_z
Si Si1 0.637636 0.834169 0.746187
Si Si2 0.985944 0.836272 0.126148
Si Si3 0.138743 0.332181 0.679926
Si Si4 0.862206 0.974760 0.437663
Si Si5 0.863811 0.453569 0.833838
Si Si6 0.138076 0.401056 0.049200
Si Si7 0.950097 0.533455 0.647681
O O1 0.750000 0.859211 0.728312
O O2 0.620491 0.750000 0.717593
O O3 0.611273 0.847314 0.860152
O O4 0.568132 0.881651 0.675804
O O5 0.999175 0.750000 0.101293
O O6 0.091702 0.875173 0.133182
O O7 0.929934 0.849132 0.227958
O O8 0.928216 0.878719 0.041533
O O9 0.250000 0.339031 0.718197
O O10 0.118059 0.250000 0.638116
O O11 0.119012 0.389224 0.591328
O O12 0.750000 0.998446 0.417421
O O13 0.887630 0.987109 0.551395
O O14 0.933600 0.025015 0.370857
O O15 0.750000 0.441852 0.812459
O O16 0.880826 0.514170 0.919472
O O17 0.915660 0.479615 0.733950
O O18 0.250000 0.389427 0.016887
#
# Coordination Sequence:
#
# PCOD8241174 Si02
#       7
#     8   8   8   8   8   8   8
#     4   9  17  30  50  77 101 123 159 206 254 299
#     4  11  20  31  49  73 101 135 167 197 244 297
#     4   9  18  31  47  72 104 129 158 203 251 297
#     4  10  19  32  51  74  98 130 168 205 247 295
#     4  10  20  35  51  72 100 131 170 210 245 292
#     4   9  18  32  52  75  99 126 161 206 253 296
#     4  10  19  33  52  73  98 131 164 204 253 297
#
# _framework density 16.702452999999998
#
# number of rings (size 3 to 8) (size 9 to 14) (size 15 to 20)
#    0.000    2.286    1.429    3.429    0.000    2.286 
#    0.000    1.429    0.000    0.429    0.000    0.000 
#    0.000    0.000    0.000    0.000    0.000    0.000 
#
# Total GULP energy -694369.605566 kJ/mol
# GULP energy per Si atom -12399.457242 kJ/mol
# Density = 1.666444 g / cm^3
# Si number density = 16.702453 Si / 1000 Ang^3
#
#
#
# Elastic Constant Matrix: (Units=GPa)
#
#
# Indices 1 2 3 4 5 6 
#
# 1 96.1653 38.3970 32.7597 0.0000 0.0000 0.0000
# 2 38.3970 63.9916 18.5478 0.0000 0.0000 0.0000
# 3 32.7597 18.5478 54.1909 0.0000 0.0000 0.0000
# 4 0.0000 0.0000 0.0000 13.5829 0.0000 0.0000
# 5 0.0000 0.0000 0.0000 0.0000 22.8469 0.0000
# 6 0.0000 0.0000 0.0000 0.0000 0.0000 28.1803
#
#
#
# Elastic Compliance Matrix: (Units=1/GPa)
#
#
# Indices 1 2 3 4 5 6 
#
# 1 0.015738 -0.007422 -0.006974 0.000000 0.000000 0.000000
# 2 -0.007422 0.020848 -0.002649 0.000000 0.000000 0.000000
# 3 -0.006974 -0.002649 0.023576 0.000000 0.000000 0.000000
# 4 0.000000 0.000000 0.000000 0.073622 0.000000 0.000000
# 5 0.000000 0.000000 0.000000 0.000000 0.043770 0.000000
# 6 0.000000 0.000000 0.000000 0.000000 0.000000 0.035486
#
#
# Mechanical properties :
#
#
# Convention : Reuss Voigt Hill
#
# Bulk Modulus (GPa) = 38.35424 43.75075 41.05250
# Shear Modulus (GPa) = 19.54506 21.23157 20.38831
#
# Velocity S-wave (km/s) = 3.42452 3.56921 3.49761
# Velocity P-wave (km/s) = 6.21687 6.57546 6.39868
#
# Compressibility (1/GPa) = 0.02607273
#
# Stress axis : x y z
#
# Youngs Moduli (GPa) = 63.54121 47.96577 42.41666
#
# Poissons Ratio (x) = 0.35600 0.29580
# Poissons Ratio (y) = 0.47160 0.11236
# Poissons Ratio (z) = 0.44311 0.12706
#
# Static dielectric constant tensor:
#      x y z
#    x 3.126370 0.000000 0.000000 
#    y 0.000000 3.176030 0.000000 
#    z 0.000000 0.000000 3.066780 
# 
# 
# High freq. dielectric constant tensor:
#      x y z
#    x 1.635460 0.000000 0.000000 
#    y 0.000000 1.639420 0.000000 
#    z 0.000000 0.000000 1.643260 
# 
# From -- ./inp_files/16003.got.cif
#   From: 2010.03.12/outbox.cif.g09.slc.cpg/sg59_9_cif.got.tgz:16003.got - 2010.04.16 16:29:54.
