data_PCOD8241650
_publ_section_title
;
Structure prediction by ZEFSAII (Michael W. Deem and Ramdas Pophale) SiO2 
 PCOD8241650
Probable space group: P M M N
;
_chemical_formula_sum "Si O2"
_cell_formula_units_Z 64
_cell_length_a 8.929113
_cell_length_b 19.884801
_cell_length_c 19.897439
_cell_angle_alpha 90.000000
_cell_angle_beta 90.000000
_cell_angle_gamma 90.000000
_cell_volume 3532.862624
_symmetry_space_group_name_H-M "P M M N"
_symmetry_group_IT_number 59
_space_group.IT_coordinate_system_code '2'
_symmetry_cell_setting 'orthorhombic'
loop_
_space_group_symop_operation_xyz
x,y,z
1/2-x,1/2-y,z
1/2+x,-y,-z
-x,1/2+y,-z
-x,-y,-z
1/2+x,1/2+y,-z
1/2-x,y,z
x,1/2-y,z
loop_
_atom_site_type_symbol
_atom_site_label
_atom_site_fract_x
_atom_site_fract_y
_atom_site_fract_z
Si Si1 0.576734 0.172856 0.590950
Si Si2 0.573333 0.912222 0.302270
Si Si3 0.925512 0.430567 0.980655
Si Si4 0.927163 0.175030 0.088490
Si Si5 0.421324 0.091453 0.196382
Si Si6 0.073745 0.931211 0.523906
Si Si7 0.924581 0.949381 0.657247
Si Si8 0.924018 0.439745 0.830197
O O1 0.750000 0.161891 0.609917
O O2 0.542481 0.250000 0.573091
O O3 0.476026 0.152238 0.654641
O O4 0.531781 0.128742 0.526425
O O5 0.750000 0.922141 0.305257
O O6 0.522083 0.900720 0.225142
O O7 0.493177 0.976830 0.333875
O O8 0.750000 0.440444 0.991090
O O9 0.960837 0.410062 0.903634
O O10 0.989519 0.371517 0.028126
O O11 0.000000 0.500000 0.000000
O O12 0.750000 0.176302 0.087208
O O13 0.991899 0.250000 0.078541
O O14 0.977877 0.147068 0.160581
O O15 0.250000 0.106549 0.178308
O O16 0.449196 0.095399 0.276287
O O17 0.468207 0.018215 0.169370
O O18 0.250000 0.941889 0.530059
O O19 0.006135 0.911291 0.596348
O O20 0.000000 0.000000 0.500000
O O21 0.750000 0.959128 0.641107
O O22 0.750000 0.431659 0.810667
#
# Coordination Sequence:
#
# PCOD8241650 Si02
#       8
#     8   8   8   8   8   8   8   8
#     4  10  22  40  59  79 110 152 189 224 275 337
#     4  11  21  33  54  83 111 141 180 228 277 327
#     4  10  19  33  54  79 108 142 183 230 275 324
#     4  10  21  35  52  78 111 144 179 224 277 333
#     4   9  18  33  53  77 105 140 181 223 269 321
#     4  11  21  34  57  86 114 145 185 230 277 326
#     4  10  20  35  55  80 112 142 179 228 274 326
#     4   9  18  33  53  78 109 139 176 227 276 324
#
# _framework density 18.115621000000001
#
# number of rings (size 3 to 8) (size 9 to 14) (size 15 to 20)
#    0.000    2.000    2.500    2.625    0.000    4.000 
#    0.000    1.250    0.000    4.500    0.000    0.000 
#    0.000    0.000    0.000    0.000    0.000    0.000 
#
# Total GULP energy -793726.970559 kJ/mol
# GULP energy per Si atom -12401.983915 kJ/mol
# Density = 1.807439 g / cm^3
# Si number density = 18.115621 Si / 1000 Ang^3
#
#
#
# Elastic Constant Matrix: (Units=GPa)
#
#
# Indices 1 2 3 4 5 6 
#
# 1 73.0383 41.7306 51.0902 0.0000 0.0000 0.0000
# 2 41.7306 112.5151 67.6245 0.0000 0.0000 0.0000
# 3 51.0902 67.6245 136.2049 0.0000 0.0000 0.0000
# 4 0.0000 0.0000 0.0000 25.9579 0.0000 0.0000
# 5 0.0000 0.0000 0.0000 0.0000 33.1216 0.0000
# 6 0.0000 0.0000 0.0000 0.0000 0.0000 22.5322
#
#
#
# Elastic Compliance Matrix: (Units=1/GPa)
#
#
# Indices 1 2 3 4 5 6 
#
# 1 0.019809 -0.004107 -0.005391 0.000000 0.000000 0.000000
# 2 -0.004107 0.013519 -0.005172 0.000000 0.000000 0.000000
# 3 -0.005391 -0.005172 0.011932 0.000000 0.000000 0.000000
# 4 0.000000 0.000000 0.000000 0.038524 0.000000 0.000000
# 5 0.000000 0.000000 0.000000 0.000000 0.030192 0.000000
# 6 0.000000 0.000000 0.000000 0.000000 0.000000 0.044381
#
#
# Mechanical properties :
#
#
# Convention : Reuss Voigt Hill
#
# Bulk Modulus (GPa) = 62.81186 71.40544 67.10865
# Shear Modulus (GPa) = 25.90630 27.07653 26.49142
#
# Velocity S-wave (km/s) = 3.78571 3.87027 3.82822
# Velocity P-wave (km/s) = 7.33872 7.71194 7.52764
#
# Compressibility (1/GPa) = 0.01592056
#
# Stress axis : x y z
#
# Youngs Moduli (GPa) = 50.48191 73.96919 83.80864
#
# Poissons Ratio (x) = 0.30376 0.45185
# Poissons Ratio (y) = 0.20731 0.43344
# Poissons Ratio (z) = 0.27217 0.38255
#
# Static dielectric constant tensor:
#      x y z
#    x 3.297900 0.000000 0.000000 
#    y 0.000000 3.196350 0.000000 
#    z 0.000000 0.000000 3.697890 
# 
# 
# High freq. dielectric constant tensor:
#      x y z
#    x 1.699910 0.000000 0.000000 
#    y 0.000000 1.671440 0.000000 
#    z 0.000000 0.000000 1.716760 
# 
# From -- ./inp_files/29468.got.cif
#   From: 2010.03.12/outbox.cif.g09.slc.cpg/sg59_15_cif.got.tgz:29468.got - 2010.04.16 16:29:54.
