data_PCOD8241130
_publ_section_title
;
Structure prediction by ZEFSAII (Michael W. Deem and Ramdas Pophale) SiO2 
 PCOD8241130
Probable space group: P M M N
;
_chemical_formula_sum "Si O2"
_cell_formula_units_Z 64
_cell_length_a 8.993912
_cell_length_b 20.044479
_cell_length_c 20.015392
_cell_angle_alpha 90.000000
_cell_angle_beta 90.000000
_cell_angle_gamma 90.000000
_cell_volume 3608.340448
_symmetry_space_group_name_H-M "P M M N"
_symmetry_group_IT_number 59
_space_group.IT_coordinate_system_code '2'
_symmetry_cell_setting 'orthorhombic'
loop_
_space_group_symop_operation_xyz
x,y,z
1/2-x,1/2-y,z
1/2+x,-y,-z
-x,1/2+y,-z
-x,-y,-z
1/2+x,1/2+y,-z
1/2-x,y,z
x,1/2-y,z
loop_
_atom_site_type_symbol
_atom_site_label
_atom_site_fract_x
_atom_site_fract_y
_atom_site_fract_z
Si Si1 0.922136 0.452589 0.088074
Si Si2 0.426417 0.570254 0.278005
Si Si3 0.573393 0.323794 0.830241
Si Si4 0.577010 0.326126 0.343303
Si Si5 0.422304 0.934398 0.764327
Si Si6 0.575410 0.413155 0.946564
Si Si7 0.922959 0.948790 0.409188
Si Si8 0.423161 0.084626 0.442751
O O1 0.750000 0.470774 0.080756
O O2 0.954505 0.415487 0.158089
O O3 0.009336 0.521420 0.087373
O O4 0.971662 0.406473 0.024767
O O5 0.250000 0.569649 0.281943
O O6 0.486116 0.625772 0.226317
O O7 0.480774 0.497344 0.256915
O O8 0.492901 0.590195 0.350205
O O9 0.750000 0.320482 0.826502
O O10 0.505380 0.250000 0.819085
O O11 0.521162 0.349524 0.903609
O O12 0.750000 0.334135 0.360905
O O13 0.536343 0.250000 0.326419
O O14 0.532054 0.370212 0.279081
O O15 0.481672 0.348367 0.407740
O O16 0.250000 0.952992 0.753692
O O17 0.750000 0.420654 0.938925
O O18 0.750000 0.953830 0.392160
O O19 0.952186 0.909346 0.477993
O O20 0.985009 0.023624 0.412297
O O21 0.250000 0.072942 0.427619
#
# Coordination Sequence:
#
# PCOD8241130 Si02
#       8
#     8   8   8   8   8   8   8   8
#     4   9  17  28  47  74 101 128 165 213 263 303
#     4  11  20  31  52  79 103 134 177 217 256 307
#     4   9  18  32  49  72 104 138 173 216 262 308
#     4  10  21  36  53  74 105 145 179 213 264 318
#     4  10  19  32  50  74 105 137 170 216 266 309
#     4   9  16  29  48  71  98 130 169 210 255 306
#     4  10  20  34  53  78 107 133 163 212 264 306
#     4  10  20  34  54  79 104 133 171 213 257 308
#
# _framework density 17.736687
#
# number of rings (size 3 to 8) (size 9 to 14) (size 15 to 20)
#    0.000    2.250    2.500    1.125    0.000    1.750 
#    0.000    1.250    0.000    9.375    0.000    0.000 
#    0.000    3.000    0.000    0.000    0.000    0.000 
#
# Total GULP energy -793435.188275 kJ/mol
# GULP energy per Si atom -12397.424817 kJ/mol
# Density = 1.769632 g / cm^3
# Si number density = 17.736687 Si / 1000 Ang^3
#
#
#
# Elastic Constant Matrix: (Units=GPa)
#
#
# Indices 1 2 3 4 5 6 
#
# 1 51.3066 33.8604 41.9629 0.0000 0.0000 0.0000
# 2 33.8604 119.7111 75.0183 0.0000 0.0000 0.0000
# 3 41.9629 75.0183 150.6669 0.0000 0.0000 0.0000
# 4 0.0000 0.0000 0.0000 26.5427 0.0000 0.0000
# 5 0.0000 0.0000 0.0000 0.0000 24.4295 0.0000
# 6 0.0000 0.0000 0.0000 0.0000 0.0000 19.9745
#
#
#
# Elastic Compliance Matrix: (Units=1/GPa)
#
#
# Indices 1 2 3 4 5 6 
#
# 1 0.026611 -0.004190 -0.005326 0.000000 0.000000 0.000000
# 2 -0.004190 0.012802 -0.005207 0.000000 0.000000 0.000000
# 3 -0.005326 -0.005207 0.010713 0.000000 0.000000 0.000000
# 4 0.000000 0.000000 0.000000 0.037675 0.000000 0.000000
# 5 0.000000 0.000000 0.000000 0.000000 0.040934 0.000000
# 6 0.000000 0.000000 0.000000 0.000000 0.000000 0.050064
#
#
# Mechanical properties :
#
#
# Convention : Reuss Voigt Hill
#
# Bulk Modulus (GPa) = 48.35294 69.26309 58.80802
# Shear Modulus (GPa) = 23.24091 25.57888 24.40989
#
# Velocity S-wave (km/s) = 3.62378 3.80168 3.71379
# Velocity P-wave (km/s) = 6.69550 7.64237 7.18455
#
# Compressibility (1/GPa) = 0.02068126
#
# Stress axis : x y z
#
# Youngs Moduli (GPa) = 37.57781 78.11500 93.34390
#
# Poissons Ratio (x) = 0.32728 0.49711
# Poissons Ratio (y) = 0.15744 0.48605
# Poissons Ratio (z) = 0.20012 0.40676
#
# Static dielectric constant tensor:
#      x y z
#    x 3.199740 0.000000 0.000000 
#    y 0.000000 3.213550 0.000000 
#    z 0.000000 0.000000 3.753870 
# 
# 
# High freq. dielectric constant tensor:
#      x y z
#    x 1.676540 0.000000 0.000000 
#    y 0.000000 1.652770 0.000000 
#    z 0.000000 0.000000 1.706050 
# 
# From -- ./inp_files/29556.got.cif
#   From: 2010.03.12/outbox.cif.g09.slc.cpg/sg59_15_cif.got.tgz:29556.got - 2010.04.16 16:29:54.
