data_PCOD8241265
_publ_section_title
;
Structure prediction by ZEFSAII (Michael W. Deem and Ramdas Pophale) SiO2 
 PCOD8241265
Probable space group: P M M N
;
_chemical_formula_sum "Si O2"
_cell_formula_units_Z 64
_cell_length_a 18.944803
_cell_length_b 9.199397
_cell_length_c 21.282705
_cell_angle_alpha 90.000000
_cell_angle_beta 90.000000
_cell_angle_gamma 90.000000
_cell_volume 3709.166085
_symmetry_space_group_name_H-M "P M M N"
_symmetry_group_IT_number 59
_space_group.IT_coordinate_system_code '2'
_symmetry_cell_setting 'orthorhombic'
loop_
_space_group_symop_operation_xyz
x,y,z
1/2-x,1/2-y,z
1/2+x,-y,-z
-x,1/2+y,-z
-x,-y,-z
1/2+x,1/2+y,-z
1/2-x,y,z
x,1/2-y,z
loop_
_atom_site_type_symbol
_atom_site_label
_atom_site_fract_x
_atom_site_fract_y
_atom_site_fract_z
Si Si1 0.673606 0.584985 0.613882
Si Si2 0.330670 0.580219 0.903611
Si Si3 0.059445 0.580264 0.799717
Si Si4 0.330927 0.080465 0.028196
Si Si5 0.863075 0.088444 0.730288
Si Si6 0.478940 0.086056 0.682211
Si Si7 0.975125 0.577377 0.562527
Si Si8 0.904172 0.580942 0.845414
O O1 0.750000 0.570337 0.578517
O O2 0.659589 0.750000 0.635333
O O3 0.680913 0.490667 0.676499
O O4 0.608146 0.537200 0.570120
O O5 0.250000 0.538082 0.888400
O O6 0.340154 0.750000 0.915574
O O7 0.377516 0.529238 0.844895
O O8 0.357677 0.501345 0.966222
O O9 0.063875 0.750000 0.782731
O O10 0.069201 0.491033 0.734997
O O11 0.986412 0.544772 0.835426
O O12 0.250000 0.039205 0.043902
O O13 0.338976 0.250000 0.015002
O O14 0.380825 0.030059 0.085376
O O15 0.832617 0.250000 0.739112
O O16 0.943578 0.092108 0.709770
O O17 0.855554 0.003890 0.795710
O O18 0.451356 0.250000 0.667911
O O19 0.478722 0.988936 0.619278
O O20 0.987886 0.750000 0.558848
O O21 0.000000 0.500000 0.500000
O O22 0.888207 0.750000 0.835642
#
# Coordination Sequence:
#
# PCOD8241265 Si02
#       8
#     8   8   8   8   8   8   8   8
#     4   9  18  32  49  69  95 129 165 196 227 268
#     4   9  18  32  48  65  86 114 149 191 241 291
#     4   9  17  30  48  68  90 117 149 188 233 278
#     4   9  18  31  44  59  83 116 152 189 229 277
#     4   9  17  28  43  66  94 121 150 187 229 270
#     4   9  17  30  48  71  97 121 149 186 226 270
#     4  10  19  32  52  76 102 132 163 194 230 274
#     4   9  17  29  44  63  89 121 154 186 225 276
#
# _framework density 17.254552
#
# number of rings (size 3 to 8) (size 9 to 14) (size 15 to 20)
#    0.000    2.875    0.000    1.125    0.000    5.750 
#    0.000    1.250    0.000    0.750    0.000    0.000 
#    0.000    0.000    0.000    0.000    0.000    0.000 
#
# Total GULP energy -793415.666576 kJ/mol
# GULP energy per Si atom -12397.119790 kJ/mol
# Density = 1.721528 g / cm^3
# Si number density = 17.254552 Si / 1000 Ang^3
#
#
#
# Elastic Constant Matrix: (Units=GPa)
#
#
# Indices 1 2 3 4 5 6 
#
# 1 67.7771 36.4976 60.1058 0.0000 0.0000 0.0000
# 2 36.4976 83.6590 67.6097 0.0000 0.0000 0.0000
# 3 60.1058 67.6097 148.6104 0.0000 0.0000 0.0000
# 4 0.0000 0.0000 0.0000 36.3212 0.0000 0.0000
# 5 0.0000 0.0000 0.0000 0.0000 19.6880 0.0000
# 6 0.0000 0.0000 0.0000 0.0000 0.0000 14.3042
#
#
#
# Elastic Compliance Matrix: (Units=1/GPa)
#
#
# Indices 1 2 3 4 5 6 
#
# 1 0.023876 -0.004131 -0.007777 0.000000 0.000000 0.000000
# 2 -0.004131 0.019618 -0.007254 0.000000 0.000000 0.000000
# 3 -0.007777 -0.007254 0.013175 0.000000 0.000000 0.000000
# 4 0.000000 0.000000 0.000000 0.027532 0.000000 0.000000
# 5 0.000000 0.000000 0.000000 0.000000 0.050792 0.000000
# 6 0.000000 0.000000 0.000000 0.000000 0.000000 0.069910
#
#
# Mechanical properties :
#
#
# Convention : Reuss Voigt Hill
#
# Bulk Modulus (GPa) = 54.51500 69.83029 62.17265
# Shear Modulus (GPa) = 20.05271 23.11823 21.58547
#
# Velocity S-wave (km/s) = 3.41276 3.66434 3.54079
# Velocity P-wave (km/s) = 6.86967 7.64603 7.26822
#
# Compressibility (1/GPa) = 0.01834357
#
# Stress axis : x y z
#
# Youngs Moduli (GPa) = 41.88360 50.97304 75.90192
#
# Poissons Ratio (x) = 0.21057 0.59031
# Poissons Ratio (y) = 0.17302 0.55063
# Poissons Ratio (z) = 0.32574 0.36978
#
# Static dielectric constant tensor:
#      x y z
#    x 3.121130 0.000000 0.000000 
#    y 0.000000 3.356240 0.000000 
#    z 0.000000 0.000000 3.184240 
# 
# 
# High freq. dielectric constant tensor:
#      x y z
#    x 1.644780 0.000000 0.000000 
#    y 0.000000 1.670630 0.000000 
#    z 0.000000 0.000000 1.655680 
# 
# From -- ./inp_files/30930.got.cif
#   From: 2010.03.12/outbox.cif.g09.slc.cpg/sg59_16_cif.got.tgz:30930.got - 2010.04.16 16:29:54.
