data_PCOD8241262
_publ_section_title
;
Structure prediction by ZEFSAII (Michael W. Deem and Ramdas Pophale) SiO2 
 PCOD8241262
Probable space group: P M M N
;
_chemical_formula_sum "Si O2"
_cell_formula_units_Z 64
_cell_length_a 9.006418
_cell_length_b 19.624222
_cell_length_c 20.747964
_cell_angle_alpha 90.000000
_cell_angle_beta 90.000000
_cell_angle_gamma 90.000000
_cell_volume 3667.077034
_symmetry_space_group_name_H-M "P M M N"
_symmetry_group_IT_number 59
_space_group.IT_coordinate_system_code '2'
_symmetry_cell_setting 'orthorhombic'
loop_
_space_group_symop_operation_xyz
x,y,z
1/2-x,1/2-y,z
1/2+x,-y,-z
-x,1/2+y,-z
-x,-y,-z
1/2+x,1/2+y,-z
1/2-x,y,z
x,1/2-y,z
loop_
_atom_site_type_symbol
_atom_site_label
_atom_site_fract_x
_atom_site_fract_y
_atom_site_fract_z
Si Si1 0.922521 0.672282 0.868543
Si Si2 0.074526 0.545857 0.814277
Si Si3 0.925641 0.823587 0.013989
Si Si4 0.574536 0.965092 0.060613
Si Si5 0.573745 0.823769 0.626705
Si Si6 0.924871 0.041851 0.557435
Si Si7 0.923345 0.826942 0.480436
Si Si8 0.424707 0.038353 0.314447
O O1 0.750000 0.652638 0.862778
O O2 0.948216 0.750000 0.845804
O O3 0.014769 0.622586 0.822423
O O4 0.982572 0.662328 0.941390
O O5 0.250000 0.546894 0.809875
O O6 0.018532 0.498881 0.873402
O O7 0.008991 0.512767 0.749246
O O8 0.750000 0.818472 0.009866
O O9 0.988254 0.750000 0.038730
O O10 0.974192 0.885125 0.060927
O O11 0.750000 0.972785 0.052606
O O12 0.500000 0.000000 0.000000
O O13 0.750000 0.824638 0.625244
O O14 0.517210 0.750000 0.652829
O O15 0.519362 0.834290 0.553635
O O16 0.515743 0.884977 0.671036
O O17 0.750000 0.039892 0.545857
O O18 0.982952 0.119390 0.561223
O O19 0.967723 0.009167 0.625810
O O20 0.000000 0.000000 0.500000
O O21 0.750000 0.845098 0.474998
O O22 0.952998 0.750000 0.455249
O O23 0.250000 0.037411 0.301258
#
# Coordination Sequence:
#
# PCOD8241262 Si02
#       8
#     8   8   8   8   8   8   8   8
#     4   9  17  31  52  74  97 134 177 207 241 302
#     4  11  23  34  47  74 108 138 167 213 268 303
#     4   8  14  27  50  76  97 122 164 210 245 290
#     4  10  19  32  52  76 101 130 165 207 257 302
#     4   8  14  28  50  73  98 130 171 211 244 292
#     4  11  21  34  55  81 107 137 177 221 266 310
#     4   9  17  32  55  81 108 136 168 213 266 315
#     4  10  21  36  52  72 101 143 184 211 248 308
#
# _framework density 17.452591999999999
#
# number of rings (size 3 to 8) (size 9 to 14) (size 15 to 20)
#    0.000    2.500    2.500    2.250    0.000    2.500 
#    0.000    1.250    0.000    1.125    0.000    1.750 
#    0.000    0.000    0.000    0.000    0.000    0.000 
#
# Total GULP energy -793311.144819 kJ/mol
# GULP energy per Si atom -12395.486638 kJ/mol
# Density = 1.741287 g / cm^3
# Si number density = 17.452592 Si / 1000 Ang^3
#
#
#
# Elastic Constant Matrix: (Units=GPa)
#
#
# Indices 1 2 3 4 5 6 
#
# 1 45.7087 36.6191 42.9655 0.0000 0.0000 0.0000
# 2 36.6191 120.7949 66.7817 0.0000 0.0000 0.0000
# 3 42.9655 66.7817 116.6380 0.0000 0.0000 0.0000
# 4 0.0000 0.0000 0.0000 23.5174 0.0000 0.0000
# 5 0.0000 0.0000 0.0000 0.0000 24.3459 0.0000
# 6 0.0000 0.0000 0.0000 0.0000 0.0000 25.3170
#
#
#
# Elastic Compliance Matrix: (Units=1/GPa)
#
#
# Indices 1 2 3 4 5 6 
#
# 1 0.035547 -0.005175 -0.010131 0.000000 0.000000 0.000000
# 2 -0.005175 0.012866 -0.005460 0.000000 0.000000 0.000000
# 3 -0.010131 -0.005460 0.015432 0.000000 0.000000 0.000000
# 4 0.000000 0.000000 0.000000 0.042522 0.000000 0.000000
# 5 0.000000 0.000000 0.000000 0.000000 0.041075 0.000000
# 6 0.000000 0.000000 0.000000 0.000000 0.000000 0.039499
#
#
# Mechanical properties :
#
#
# Convention : Reuss Voigt Hill
#
# Bulk Modulus (GPa) = 44.81953 63.98603 54.40278
# Shear Modulus (GPa) = 21.19449 23.75440 22.47444
#
# Velocity S-wave (km/s) = 3.48861 3.69329 3.59241
# Velocity P-wave (km/s) = 6.47794 7.41144 6.96036
#
# Compressibility (1/GPa) = 0.02231170
#
# Stress axis : x y z
#
# Youngs Moduli (GPa) = 28.13194 77.72438 64.80098
#
# Poissons Ratio (x) = 0.40222 0.65652
# Poissons Ratio (y) = 0.14558 0.35383
# Poissons Ratio (z) = 0.28501 0.42439
#
# Static dielectric constant tensor:
#      x y z
#    x 2.961910 0.000000 0.000000 
#    y 0.000000 4.058000 0.000000 
#    z 0.000000 0.000000 3.141270 
# 
# 
# High freq. dielectric constant tensor:
#      x y z
#    x 1.647590 0.000000 0.000000 
#    y 0.000000 1.683250 0.000000 
#    z 0.000000 0.000000 1.651640 
# 
# From -- ./inp_files/26290.got.cif
#   From: 2010.03.12/outbox.cif.g09.slc.cpg/sg59_14_cif.got.tgz:26290.got - 2010.04.16 16:29:54.
