data_PCOD8241999
_publ_section_title
;
Structure prediction by ZEFSAII (Michael W. Deem and Ramdas Pophale) SiO2 
 PCOD8241999
Probable space group: P M M N
;
_chemical_formula_sum "Si O2"
_cell_formula_units_Z 64
_cell_length_a 23.148564
_cell_length_b 8.609664
_cell_length_c 16.243552
_cell_angle_alpha 90.000000
_cell_angle_beta 90.000000
_cell_angle_gamma 90.000000
_cell_volume 3237.361974
_symmetry_space_group_name_H-M "P M M N"
_symmetry_group_IT_number 59
_space_group.IT_coordinate_system_code '2'
_symmetry_cell_setting 'orthorhombic'
loop_
_space_group_symop_operation_xyz
x,y,z
1/2-x,1/2-y,z
1/2+x,-y,-z
-x,1/2+y,-z
-x,-y,-z
1/2+x,1/2+y,-z
1/2-x,y,z
x,1/2-y,z
loop_
_atom_site_type_symbol
_atom_site_label
_atom_site_fract_x
_atom_site_fract_y
_atom_site_fract_z
Si Si1 0.409038 0.567461 0.046111
Si Si2 0.620460 0.070227 0.673154
Si Si3 0.182726 0.421692 0.470017
Si Si4 0.688150 0.568033 0.350283
Si Si5 0.034475 0.067102 0.894281
Si Si6 0.182912 0.066263 0.167149
Si Si7 0.571909 0.931374 0.283745
Si Si8 0.991581 0.930694 0.590577
O O1 0.399776 0.750000 0.052493
O O2 0.468663 0.513901 0.089869
O O3 0.352705 0.488463 0.086528
O O4 0.417739 0.516320 0.951469
O O5 0.613058 0.250000 0.694786
O O6 0.662145 0.046191 0.596128
O O7 0.648310 0.990392 0.752857
O O8 0.558756 0.003849 0.646514
O O9 0.250000 0.401454 0.459517
O O10 0.153744 0.250000 0.456016
O O11 0.167700 0.492516 0.559772
O O12 0.750000 0.493952 0.323741
O O13 0.696695 0.750000 0.363096
O O14 0.640611 0.533555 0.281111
O O15 0.042094 0.250000 0.906791
O O16 0.046327 0.012383 0.802020
O O17 0.250000 0.004667 0.165154
O O18 0.184001 0.250000 0.168400
O O19 0.558813 0.750000 0.300277
O O20 0.548963 0.034683 0.358332
O O21 0.980290 0.750000 0.580228
O O22 0.000000 0.000000 0.500000
#
# Coordination Sequence:
#
# PCOD8241999 Si02
#       8
#     8   8   8   8   8   8   8   8
#     4  10  20  36  59  84 113 149 190 237 289 346
#     4  12  24  37  55  81 113 149 192 238 288 348
#     4   9  17  31  51  74 103 142 187 230 272 321
#     4   8  15  29  51  77 103 135 174 216 264 317
#     4   9  19  35  57  86 116 147 186 234 288 347
#     4  11  24  41  61  86 119 159 200 244 299 362
#     4  10  19  34  57  83 112 145 186 233 278 332
#     4  12  25  40  58  82 116 155 196 244 299 354
#
# _framework density 19.769181
#
# number of rings (size 3 to 8) (size 9 to 14) (size 15 to 20)
#    0.000    1.875    0.000    5.625    0.000    5.750 
#    0.000    0.625    0.000    3.375    0.000    0.000 
#    0.000    0.000    0.000    0.000    0.000    0.000 
#
# Total GULP energy -793270.017045 kJ/mol
# GULP energy per Si atom -12394.844016 kJ/mol
# Density = 1.972419 g / cm^3
# Si number density = 19.769181 Si / 1000 Ang^3
#
#
#
# Elastic Constant Matrix: (Units=GPa)
#
#
# Indices 1 2 3 4 5 6 
#
# 1 111.6248 33.8887 62.0016 0.0000 0.0000 0.0000
# 2 33.8887 69.7536 24.3120 0.0000 0.0000 0.0000
# 3 62.0016 24.3120 97.7882 0.0000 0.0000 0.0000
# 4 0.0000 0.0000 0.0000 9.9145 0.0000 0.0000
# 5 0.0000 0.0000 0.0000 0.0000 32.2212 0.0000
# 6 0.0000 0.0000 0.0000 0.0000 0.0000 25.0767
#
#
#
# Elastic Compliance Matrix: (Units=1/GPa)
#
#
# Indices 1 2 3 4 5 6 
#
# 1 0.014935 -0.004331 -0.008393 0.000000 0.000000 0.000000
# 2 -0.004331 0.016952 -0.001469 0.000000 0.000000 0.000000
# 3 -0.008393 -0.001469 0.015913 0.000000 0.000000 0.000000
# 4 0.000000 0.000000 0.000000 0.100862 0.000000 0.000000
# 5 0.000000 0.000000 0.000000 0.000000 0.031035 0.000000
# 6 0.000000 0.000000 0.000000 0.000000 0.000000 0.039878
#
#
# Mechanical properties :
#
#
# Convention : Reuss Voigt Hill
#
# Bulk Modulus (GPa) = 51.50549 57.73013 54.61781
# Shear Modulus (GPa) = 19.65167 24.04010 21.84588
#
# Velocity S-wave (km/s) = 3.15629 3.49096 3.32783
# Velocity P-wave (km/s) = 6.27637 6.74645 6.51565
#
# Compressibility (1/GPa) = 0.01941541
#
# Stress axis : x y z
#
# Youngs Moduli (GPa) = 66.95643 58.98957 62.84303
#
# Poissons Ratio (x) = 0.25547 0.52742
# Poissons Ratio (y) = 0.28997 0.09230
# Poissons Ratio (z) = 0.56195 0.08664
#
# Static dielectric constant tensor:
#      x y z
#    x 3.907710 0.000000 0.000000 
#    y 0.000000 2.694740 0.000000 
#    z 0.000000 0.000000 3.669280 
# 
# 
# High freq. dielectric constant tensor:
#      x y z
#    x 1.779120 0.000000 0.000000 
#    y 0.000000 1.754020 0.000000 
#    z 0.000000 0.000000 1.767040 
# 
# From -- ./inp_files/24760.got.cif
#   From: 2010.03.12/outbox.cif.g09.slc.cpg/sg59_13_cif.got.tgz:24760.got - 2010.04.16 16:29:54.
