data_PCOD8241823
_publ_section_title
;
Structure prediction by ZEFSAII (Michael W. Deem and Ramdas Pophale) SiO2 
 PCOD8241823
Probable space group: P M M N
;
_chemical_formula_sum "Si O2"
_cell_formula_units_Z 40
_cell_length_a 14.297849
_cell_length_b 9.219047
_cell_length_c 17.221406
_cell_angle_alpha 90.000000
_cell_angle_beta 90.000000
_cell_angle_gamma 90.000000
_cell_volume 2269.997300
_symmetry_space_group_name_H-M "P M M N"
_symmetry_group_IT_number 59
_space_group.IT_coordinate_system_code '2'
_symmetry_cell_setting 'orthorhombic'
loop_
_space_group_symop_operation_xyz
x,y,z
1/2-x,1/2-y,z
1/2+x,-y,-z
-x,1/2+y,-z
-x,-y,-z
1/2+x,1/2+y,-z
1/2-x,y,z
x,1/2-y,z
loop_
_atom_site_type_symbol
_atom_site_label
_atom_site_fract_x
_atom_site_fract_y
_atom_site_fract_z
Si Si1 0.475890 0.418178 0.112598
Si Si2 0.144287 0.920216 0.993750
Si Si3 0.569226 0.581307 0.713739
Si Si4 0.052131 0.580100 0.568137
Si Si5 0.250000 0.920898 0.517787
Si Si6 0.250000 0.923079 0.341552
O O1 0.456653 0.250000 0.096967
O O2 0.391835 0.504315 0.072002
O O3 0.476492 0.454592 0.203464
O O4 0.576995 0.464354 0.078046
O O5 0.250000 0.972002 0.975002
O O6 0.141629 0.750000 0.008986
O O7 0.597752 0.750000 0.706739
O O8 0.490974 0.538118 0.650836
O O9 0.659777 0.483136 0.702462
O O10 0.044153 0.750000 0.551570
O O11 0.159684 0.526787 0.565909
O O12 0.000000 0.500000 0.500000
O O13 0.250000 0.750000 0.509515
O O14 0.250000 0.983345 0.429956
O O15 0.250000 0.750000 0.337160
#
# Coordination Sequence:
#
# PCOD8241823 Si02
#       6
#     8   8   8   8   4   4
#     4   9  19  35  52  75 105 134 165 207 256 304
#     4   9  18  34  55  77 101 131 169 208 250 304
#     4  10  21  35  52  77 106 135 169 211 258 304
#     4  10  19  34  53  73 101 135 172 211 253 301
#     4   9  18  33  51  73  98 131 172 210 251 299
#     4  11  21  33  53  77 104 135 170 214 259 299
#
# _framework density 17.621167
#
# number of rings (size 3 to 8) (size 9 to 14) (size 15 to 20)
#    0.000    2.400    2.000    0.300    1.400    1.200 
#    1.800    0.500    0.000    0.000    0.000    0.000 
#    0.000    0.000    0.000    0.000    0.000    0.000 
#
# Total GULP energy -495996.250398 kJ/mol
# GULP energy per Si atom -12399.906260 kJ/mol
# Density = 1.758106 g / cm^3
# Si number density = 17.621167 Si / 1000 Ang^3
#
#
#
# Elastic Constant Matrix: (Units=GPa)
#
#
# Indices 1 2 3 4 5 6 
#
# 1 165.9688 43.9827 79.5650 0.0000 0.0000 0.0000
# 2 43.9827 37.8410 41.4098 0.0000 0.0000 0.0000
# 3 79.5650 41.4098 145.9265 0.0000 0.0000 0.0000
# 4 0.0000 0.0000 0.0000 25.5531 0.0000 0.0000
# 5 0.0000 0.0000 0.0000 0.0000 21.6592 0.0000
# 6 0.0000 0.0000 0.0000 0.0000 0.0000 21.6154
#
#
#
# Elastic Compliance Matrix: (Units=1/GPa)
#
#
# Indices 1 2 3 4 5 6 
#
# 1 0.009521 -0.007811 -0.002975 0.000000 0.000000 0.000000
# 2 -0.007811 0.044737 -0.008436 0.000000 0.000000 0.000000
# 3 -0.002975 -0.008436 0.010869 0.000000 0.000000 0.000000
# 4 0.000000 0.000000 0.000000 0.039134 0.000000 0.000000
# 5 0.000000 0.000000 0.000000 0.000000 0.046170 0.000000
# 6 0.000000 0.000000 0.000000 0.000000 0.000000 0.046263
#
#
# Mechanical properties :
#
#
# Convention : Reuss Voigt Hill
#
# Bulk Modulus (GPa) = 37.47733 75.51680 56.49706
# Shear Modulus (GPa) = 20.48901 26.08414 23.28658
#
# Velocity S-wave (km/s) = 3.41361 3.85161 3.63920
# Velocity P-wave (km/s) = 6.07054 7.92014 7.05621
#
# Compressibility (1/GPa) = 0.02668280
#
# Stress axis : x y z
#
# Youngs Moduli (GPa) = 105.02652 22.35272 92.00763
#
# Poissons Ratio (x) = 0.17461 0.27370
# Poissons Ratio (y) = 0.82040 0.77618
# Poissons Ratio (z) = 0.31243 0.18857
#
# Static dielectric constant tensor:
#      x y z
#    x 4.057700 0.000000 0.000000 
#    y 0.000000 3.166440 0.000000 
#    z 0.000000 0.000000 3.365970 
# 
# 
# High freq. dielectric constant tensor:
#      x y z
#    x 1.689700 0.000000 0.000000 
#    y 0.000000 1.667860 0.000000 
#    z 0.000000 0.000000 1.679440 
# 
# From -- ./inp_files/23030.got.cif
#   From: 2010.03.12/outbox.cif.g09.slc.cpg/sg59_12_cif.got.tgz:23030.got - 2010.04.16 16:29:54.
