data_PCOD8241841
_publ_section_title
;
Structure prediction by ZEFSAII (Michael W. Deem and Ramdas Pophale) SiO2 
 PCOD8241841
Probable space group: P M M N
;
_chemical_formula_sum "Si O2"
_cell_formula_units_Z 64
_cell_length_a 9.327581
_cell_length_b 30.814443
_cell_length_c 12.148182
_cell_angle_alpha 90.000000
_cell_angle_beta 90.000000
_cell_angle_gamma 90.000000
_cell_volume 3491.681651
_symmetry_space_group_name_H-M "P M M N"
_symmetry_group_IT_number 59
_space_group.IT_coordinate_system_code '2'
_symmetry_cell_setting 'orthorhombic'
loop_
_space_group_symop_operation_xyz
x,y,z
1/2-x,1/2-y,z
1/2+x,-y,-z
-x,1/2+y,-z
-x,-y,-z
1/2+x,1/2+y,-z
1/2-x,y,z
x,1/2-y,z
loop_
_atom_site_type_symbol
_atom_site_label
_atom_site_fract_x
_atom_site_fract_y
_atom_site_fract_z
Si Si1 0.918631 0.981674 0.104317
Si Si2 0.082918 0.561548 0.754897
Si Si3 0.585478 0.371242 0.620636
Si Si4 0.580756 0.045310 0.486410
Si Si5 0.917687 0.138477 0.097536
Si Si6 0.414060 0.895819 0.136293
Si Si7 0.909028 0.699144 0.759433
Si Si8 0.080156 0.299494 0.487317
O O1 0.750000 0.979172 0.078831
O O2 0.976977 0.935378 0.139351
O O3 0.955162 0.013343 0.205298
O O4 0.000000 0.000000 0.000000
O O5 0.250000 0.569544 0.763173
O O6 0.030915 0.566377 0.629549
O O7 0.013794 0.597642 0.835414
O O8 0.750000 0.363757 0.585954
O O9 0.537023 0.419124 0.578312
O O10 0.565475 0.368643 0.752123
O O11 0.493094 0.332527 0.570967
O O12 0.750000 0.035272 0.488152
O O13 0.500000 0.000000 0.500000
O O14 0.750000 0.142868 0.117128
O O15 0.989547 0.181372 0.145101
O O16 0.952682 0.134262 0.968022
O O17 0.250000 0.912982 0.125834
O O18 0.750000 0.679415 0.773515
O O19 0.903125 0.750000 0.775089
O O20 0.967716 0.688158 0.636979
O O21 0.250000 0.303797 0.498754
O O22 0.033079 0.250000 0.514990
#
# Coordination Sequence:
#
# PCOD8241841 Si02
#       8
#     8   8   8   8   8   8   8   8
#     4  11  20  33  52  74 103 142 183 223 268 317
#     4   9  18  32  50  72 100 134 169 213 263 306
#     4  10  21  36  56  81 110 145 185 229 272 323
#     4  10  20  34  51  74 105 139 178 220 267 320
#     4  10  19  34  54  75 103 136 172 215 262 311
#     4  10  21  37  53  75 109 144 180 225 268 309
#     4   9  19  36  56  80 109 134 163 213 269 318
#     4   9  19  37  60  84 110 140 175 220 275 332
#
# _framework density 18.329276
#
# number of rings (size 3 to 8) (size 9 to 14) (size 15 to 20)
#    0.000    2.250    1.250    2.625    0.000    3.500 
#    0.000    3.125    0.000    3.750    0.000    0.000 
#    0.000    0.000    0.000    0.000    0.000    0.000 
#
# Total GULP energy -793474.191838 kJ/mol
# GULP energy per Si atom -12398.034247 kJ/mol
# Density = 1.828756 g / cm^3
# Si number density = 18.329276 Si / 1000 Ang^3
#
#
#
# Elastic Constant Matrix: (Units=GPa)
#
#
# Indices 1 2 3 4 5 6 
#
# 1 55.7002 40.3874 39.3450 0.0000 0.0000 0.0000
# 2 40.3874 83.1885 54.2216 0.0000 0.0000 0.0000
# 3 39.3450 54.2216 134.0975 0.0000 0.0000 0.0000
# 4 0.0000 0.0000 0.0000 29.9916 0.0000 0.0000
# 5 0.0000 0.0000 0.0000 0.0000 24.0374 0.0000
# 6 0.0000 0.0000 0.0000 0.0000 0.0000 35.6866
#
#
#
# Elastic Compliance Matrix: (Units=1/GPa)
#
#
# Indices 1 2 3 4 5 6 
#
# 1 0.029090 -0.011623 -0.003836 0.000000 0.000000 0.000000
# 2 -0.011623 0.020967 -0.005068 0.000000 0.000000 0.000000
# 3 -0.003836 -0.005068 0.010632 0.000000 0.000000 0.000000
# 4 0.000000 0.000000 0.000000 0.033343 0.000000 0.000000
# 5 0.000000 0.000000 0.000000 0.000000 0.041602 0.000000
# 6 0.000000 0.000000 0.000000 0.000000 0.000000 0.028022
#
#
# Mechanical properties :
#
#
# Convention : Reuss Voigt Hill
#
# Bulk Modulus (GPa) = 50.92585 60.09938 55.51261
# Shear Modulus (GPa) = 23.66831 27.21193 25.44012
#
# Velocity S-wave (km/s) = 3.59734 3.85725 3.72956
# Velocity P-wave (km/s) = 6.71556 7.25932 6.99273
#
# Compressibility (1/GPa) = 0.01963639
#
# Stress axis : x y z
#
# Youngs Moduli (GPa) = 34.37567 47.69438 94.05886
#
# Poissons Ratio (x) = 0.55436 0.36076
# Poissons Ratio (y) = 0.39956 0.47664
# Poissons Ratio (z) = 0.13185 0.24169
#
# Static dielectric constant tensor:
#      x y z
#    x -17.884960 0.000000 0.000000 
#    y 0.000000 3.310080 0.000000 
#    z 0.000000 0.000000 3.648370 
# 
# 
# High freq. dielectric constant tensor:
#      x y z
#    x 1.695920 0.000000 0.000000 
#    y 0.000000 1.701570 0.000000 
#    z 0.000000 0.000000 1.719520 
# 
# From -- ./inp_files/14980.got.cif
#   From: 2010.03.12/outbox.cif.g09.slc.cpg/sg59_8_cif.got.tgz:14980.got - 2010.04.16 16:29:54.
