data_PCOD8241348
_publ_section_title
;
Structure prediction by ZEFSAII (Michael W. Deem and Ramdas Pophale) SiO2 
 PCOD8241348
Probable space group: P M M N
;
_chemical_formula_sum "Si O2"
_cell_formula_units_Z 56
_cell_length_a 14.357232
_cell_length_b 9.071749
_cell_length_c 22.858393
_cell_angle_alpha 90.000000
_cell_angle_beta 90.000000
_cell_angle_gamma 90.000000
_cell_volume 2977.196083
_symmetry_space_group_name_H-M "P M M N"
_symmetry_group_IT_number 59
_space_group.IT_coordinate_system_code '2'
_symmetry_cell_setting 'orthorhombic'
loop_
_space_group_symop_operation_xyz
x,y,z
1/2-x,1/2-y,z
1/2+x,-y,-z
-x,1/2+y,-z
-x,-y,-z
1/2+x,1/2+y,-z
1/2-x,y,z
x,1/2-y,z
loop_
_atom_site_type_symbol
_atom_site_label
_atom_site_fract_x
_atom_site_fract_y
_atom_site_fract_z
Si Si1 0.351269 0.575591 0.594270
Si Si2 0.646995 0.425165 0.967371
Si Si3 0.356739 0.924408 0.252365
Si Si4 0.527780 0.075423 0.860047
Si Si5 0.956125 0.923737 0.639902
Si Si6 0.357945 0.582491 0.462918
Si Si7 0.356230 0.576922 0.901346
O O1 0.250000 0.513709 0.615860
O O2 0.344607 0.750000 0.589904
O O3 0.434133 0.529877 0.638395
O O4 0.372819 0.520205 0.528506
O O5 0.750000 0.484730 0.951881
O O6 0.648729 0.250000 0.965346
O O7 0.575991 0.487109 0.919098
O O8 0.619703 0.477096 0.032646
O O9 0.250000 0.978552 0.248182
O O10 0.360891 0.750000 0.259190
O O11 0.410989 0.977748 0.194660
O O12 0.406356 0.994262 0.307658
O O13 0.518904 0.250000 0.860926
O O14 0.424673 0.006073 0.856484
O O15 0.943704 0.750000 0.648128
O O16 0.912123 0.971263 0.578762
O O17 0.250000 0.579165 0.445504
O O18 0.395812 0.750000 0.455827
O O19 0.250000 0.535347 0.885505
O O20 0.371877 0.750000 0.894941
#
# Coordination Sequence:
#
# PCOD8241348 Si02
#       7
#     8   8   8   8   8   8   8
#     4   8  16  32  52  74 100 130 164 200 242 296
#     4   8  14  27  49  76 103 130 162 201 247 301
#     4  10  22  39  55  71  96 132 169 202 242 295
#     4  10  19  32  53  76  96 126 171 216 248 279
#     4  11  21  32  51  77 102 130 166 209 249 284
#     4   9  17  31  52  75 101 134 165 195 241 301
#     4   9  18  32  50  74 105 136 161 192 245 309
#
# _framework density 18.809643999999999
#
# number of rings (size 3 to 8) (size 9 to 14) (size 15 to 20)
#    0.000    2.714    0.000    3.857    0.000    4.857 
#    0.000    1.429    0.000    8.143    0.000    0.000 
#    0.000    0.000    0.000    0.000    0.000    0.000 
#
# Total GULP energy -694165.228713 kJ/mol
# GULP energy per Si atom -12395.807656 kJ/mol
# Density = 1.876683 g / cm^3
# Si number density = 18.809644 Si / 1000 Ang^3
#
#
#
# Elastic Constant Matrix: (Units=GPa)
#
#
# Indices 1 2 3 4 5 6 
#
# 1 151.4507 27.3941 78.8522 0.0000 0.0000 0.0000
# 2 27.3941 9.5556 21.1011 0.0000 0.0000 0.0000
# 3 78.8522 21.1011 81.2367 0.0000 0.0000 0.0000
# 4 0.0000 0.0000 0.0000 13.5137 0.0000 0.0000
# 5 0.0000 0.0000 0.0000 0.0000 33.6353 0.0000
# 6 0.0000 0.0000 0.0000 0.0000 0.0000 27.1375
#
#
#
# Elastic Compliance Matrix: (Units=1/GPa)
#
#
# Indices 1 2 3 4 5 6 
#
# 1 0.015826 -0.026848 -0.008388 0.000000 0.000000 0.000000
# 2 -0.026848 0.290969 -0.049519 0.000000 0.000000 0.000000
# 3 -0.008388 -0.049519 0.033314 0.000000 0.000000 0.000000
# 4 0.000000 0.000000 0.000000 0.073999 0.000000 0.000000
# 5 0.000000 0.000000 0.000000 0.000000 0.029731 0.000000
# 6 0.000000 0.000000 0.000000 0.000000 0.000000 0.036849
#
#
# Mechanical properties :
#
#
# Convention : Reuss Voigt Hill
#
# Bulk Modulus (GPa) = 5.86169 55.21532 30.53850
# Shear Modulus (GPa) = 7.07150 22.51700 14.79425
#
# Velocity S-wave (km/s) = 1.94105 3.46366 2.80755
# Velocity P-wave (km/s) = 2.85423 6.73903 5.17499
#
# Compressibility (1/GPa) = 0.17059941
#
# Stress axis : x y z
#
# Youngs Moduli (GPa) = 63.18668 3.43680 30.01767
#
# Poissons Ratio (x) = 0.09227 0.25178
# Poissons Ratio (y) = 1.69644 1.48643
# Poissons Ratio (z) = 0.53000 0.17019
#
# Static dielectric constant tensor:
#      x y z
#    x 3.843570 0.000000 0.000000 
#    y 0.000000 3.053100 0.000000 
#    z 0.000000 0.000000 3.411640 
# 
# 
# High freq. dielectric constant tensor:
#      x y z
#    x 1.747330 0.000000 0.000000 
#    y 0.000000 1.694870 0.000000 
#    z 0.000000 0.000000 1.715320 
# 
# From -- ./inp_files/29040.got.cif
#   From: 2010.03.12/outbox.cif.g09.slc.cpg/sg59_15_cif.got.tgz:29040.got - 2010.04.16 16:29:54.
