data_PCOD8241005
_publ_section_title
;
Structure prediction by ZEFSAII (Michael W. Deem and Ramdas Pophale) SiO2 
 PCOD8241005
Probable space group: P M M N
;
_chemical_formula_sum "Si O2"
_cell_formula_units_Z 64
_cell_length_a 18.982266
_cell_length_b 8.913012
_cell_length_c 21.298156
_cell_angle_alpha 90.000000
_cell_angle_beta 90.000000
_cell_angle_gamma 90.000000
_cell_volume 3603.417222
_symmetry_space_group_name_H-M "P M M N"
_symmetry_group_IT_number 59
_space_group.IT_coordinate_system_code '2'
_symmetry_cell_setting 'orthorhombic'
loop_
_space_group_symop_operation_xyz
x,y,z
1/2-x,1/2-y,z
1/2+x,-y,-z
-x,1/2+y,-z
-x,-y,-z
1/2+x,1/2+y,-z
1/2-x,y,z
x,1/2-y,z
loop_
_atom_site_type_symbol
_atom_site_label
_atom_site_fract_x
_atom_site_fract_y
_atom_site_fract_z
Si Si1 0.075436 0.428179 0.353613
Si Si2 0.326930 0.077135 0.118739
Si Si3 0.629234 0.416877 0.762665
Si Si4 0.168901 0.923418 0.599879
Si Si5 0.573375 0.073578 0.518077
Si Si6 0.567663 0.926771 0.309648
Si Si7 0.972047 0.925527 0.937628
Si Si8 0.524029 0.915146 0.178489
O O1 0.076093 0.250000 0.357282
O O2 0.129674 0.483366 0.300133
O O3 0.102513 0.498474 0.418559
O O4 0.995965 0.482077 0.341016
O O5 0.250000 0.056245 0.085453
O O6 0.342055 0.250000 0.134424
O O7 0.391277 0.018897 0.074971
O O8 0.321989 0.990630 0.184498
O O9 0.657428 0.250000 0.747377
O O10 0.550991 0.408863 0.788644
O O11 0.250000 0.965411 0.590804
O O12 0.158352 0.750000 0.617899
O O13 0.130016 0.962458 0.535318
O O14 0.139210 0.024341 0.656517
O O15 0.562433 0.250000 0.528117
O O16 0.500000 0.000000 0.500000
O O17 0.552986 0.750000 0.318174
O O18 0.576336 0.965336 0.234924
O O19 0.975929 0.750000 0.947188
O O20 0.022999 0.970078 0.879637
O O21 0.000000 0.000000 0.000000
O O22 0.544379 0.750000 0.152407
#
# Coordination Sequence:
#
# PCOD8241005 Si02
#       8
#     8   8   8   8   8   8   8   8
#     4  11  20  31  50  75 102 133 170 216 262 309
#     4   9  18  33  52  75 104 139 178 216 259 315
#     4   9  17  30  48  73 102 131 165 208 255 305
#     4  10  22  38  54  74 102 136 172 215 271 330
#     4  11  21  34  53  76 102 134 177 225 268 321
#     4  10  19  32  53  78 102 129 166 214 263 311
#     4  10  19  31  51  78 108 142 176 215 258 303
#     4   8  16  30  48  73 102 128 160 205 250 296
#
# _framework density 17.760918
#
# number of rings (size 3 to 8) (size 9 to 14) (size 15 to 20)
#    0.000    2.250    1.250    3.375    0.000    5.000 
#    0.000    0.625    0.000    3.000    0.000    1.750 
#    0.000    0.000    0.000    0.000    0.000    0.000 
#
# Total GULP energy -793419.474985 kJ/mol
# GULP energy per Si atom -12397.179297 kJ/mol
# Density = 1.772049 g / cm^3
# Si number density = 17.760918 Si / 1000 Ang^3
#
#
#
# Elastic Constant Matrix: (Units=GPa)
#
#
# Indices 1 2 3 4 5 6 
#
# 1 85.1953 39.0424 55.5486 0.0000 0.0000 0.0000
# 2 39.0424 103.0199 62.6977 0.0000 0.0000 0.0000
# 3 55.5486 62.6977 138.4783 0.0000 0.0000 0.0000
# 4 0.0000 0.0000 0.0000 34.9210 0.0000 0.0000
# 5 0.0000 0.0000 0.0000 0.0000 20.0203 0.0000
# 6 0.0000 0.0000 0.0000 0.0000 0.0000 18.1574
#
#
#
# Elastic Compliance Matrix: (Units=1/GPa)
#
#
# Indices 1 2 3 4 5 6 
#
# 1 0.016576 -0.003086 -0.005252 0.000000 0.000000 0.000000
# 2 -0.003086 0.013973 -0.005089 0.000000 0.000000 0.000000
# 3 -0.005252 -0.005089 0.011632 0.000000 0.000000 0.000000
# 4 0.000000 0.000000 0.000000 0.028636 0.000000 0.000000
# 5 0.000000 0.000000 0.000000 0.000000 0.049949 0.000000
# 6 0.000000 0.000000 0.000000 0.000000 0.000000 0.055074
#
#
# Mechanical properties :
#
#
# Convention : Reuss Voigt Hill
#
# Bulk Modulus (GPa) = 65.23812 71.25231 68.24522
# Shear Modulus (GPa) = 24.06112 25.91340 24.98726
#
# Velocity S-wave (km/s) = 3.68465 3.82385 3.75489
# Velocity P-wave (km/s) = 7.41034 7.72660 7.57012
#
# Compressibility (1/GPa) = 0.01532846
#
# Stress axis : x y z
#
# Youngs Moduli (GPa) = 60.32686 71.56521 85.96758
#
# Poissons Ratio (x) = 0.22082 0.45153
# Poissons Ratio (y) = 0.18614 0.43748
# Poissons Ratio (z) = 0.31686 0.36418
#
# Static dielectric constant tensor:
#      x y z
#    x 3.437320 0.000000 0.000000 
#    y 0.000000 3.441000 0.000000 
#    z 0.000000 0.000000 3.507330 
# 
# 
# High freq. dielectric constant tensor:
#      x y z
#    x 1.654230 0.000000 0.000000 
#    y 0.000000 1.696760 0.000000 
#    z 0.000000 0.000000 1.684040 
# 
# From -- ./inp_files/30651.got.cif
#   From: 2010.03.12/outbox.cif.g09.slc.cpg/sg59_16_cif.got.tgz:30651.got - 2010.04.16 16:29:54.
