data_PCOD8241143
_publ_section_title
;
Structure prediction by ZEFSAII (Michael W. Deem and Ramdas Pophale) SiO2 
 PCOD8241143
Probable space group: P M M N
;
_chemical_formula_sum "Si O2"
_cell_formula_units_Z 64
_cell_length_a 17.923266
_cell_length_b 9.055420
_cell_length_c 20.724907
_cell_angle_alpha 90.000000
_cell_angle_beta 90.000000
_cell_angle_gamma 90.000000
_cell_volume 3363.708392
_symmetry_space_group_name_H-M "P M M N"
_symmetry_group_IT_number 59
_space_group.IT_coordinate_system_code '2'
_symmetry_cell_setting 'orthorhombic'
loop_
_space_group_symop_operation_xyz
x,y,z
1/2-x,1/2-y,z
1/2+x,-y,-z
-x,1/2+y,-z
-x,-y,-z
1/2+x,1/2+y,-z
1/2-x,y,z
x,1/2-y,z
loop_
_atom_site_type_symbol
_atom_site_label
_atom_site_fract_x
_atom_site_fract_y
_atom_site_fract_z
Si Si1 0.835970 0.076505 0.997320
Si Si2 0.578766 0.925700 0.882381
Si Si3 0.410310 0.574997 0.870914
Si Si4 0.833984 0.574337 0.757214
Si Si5 0.091994 0.425454 0.374050
Si Si6 0.336370 0.579588 0.492900
Si Si7 0.076748 0.574345 0.617900
Si Si8 0.665552 0.073652 0.258520
O O1 0.750000 0.033337 0.988134
O O2 0.849151 0.250000 0.988370
O O3 0.884842 0.990415 0.946033
O O4 0.861745 0.023824 0.068012
O O5 0.581723 0.750000 0.886679
O O6 0.494393 0.985056 0.877383
O O7 0.623186 0.984982 0.820062
O O8 0.411881 0.750000 0.865953
O O9 0.372736 0.510230 0.806250
O O10 0.750000 0.511169 0.757994
O O11 0.833149 0.750000 0.757198
O O12 0.876204 0.515726 0.693829
O O13 0.094546 0.250000 0.377207
O O14 0.143990 0.487143 0.430023
O O15 0.007815 0.484917 0.381699
O O16 0.250000 0.558569 0.509971
O O17 0.355790 0.750000 0.479794
O O18 0.383434 0.516753 0.553154
O O19 0.078706 0.750000 0.620232
O O20 0.120058 0.511495 0.680180
O O21 0.750000 0.014562 0.262398
O O22 0.664698 0.250000 0.258033
#
# Coordination Sequence:
#
# PCOD8241143 Si02
#       8
#     8   8   8   8   8   8   8   8
#     4  10  20  33  48  69  99 129 156 193 240 285
#     4  10  19  32  51  72  95 125 161 199 237 281
#     4   9  17  29  46  70  98 126 158 197 239 280
#     4   9  17  29  46  69  94 118 150 195 238 271
#     4  10  19  32  51  72  95 125 161 199 237 281
#     4  10  20  33  48  69  99 129 156 193 240 285
#     4   9  17  29  46  70  98 126 158 197 239 280
#     4   9  15  25  45  72 100 129 160 194 236 287
#
# _framework density 19.026619
#
# number of rings (size 3 to 8) (size 9 to 14) (size 15 to 20)
#    0.000    2.500    0.000    3.000    0.000    7.500 
#    0.000    0.625    0.000    2.250    0.000    2.625 
#    0.000    6.000    0.000    0.000    0.000    0.000 
#
# Total GULP energy -793681.232988 kJ/mol
# GULP energy per Si atom -12401.269265 kJ/mol
# Density = 1.898331 g / cm^3
# Si number density = 19.026619 Si / 1000 Ang^3
#
#
#
# Elastic Constant Matrix: (Units=GPa)
#
#
# Indices 1 2 3 4 5 6 
#
# 1 107.2594 13.5654 22.9321 0.0000 0.0000 0.0000
# 2 13.5654 11.9020 14.7259 0.0000 0.0000 0.0000
# 3 22.9321 14.7259 113.6586 0.0000 0.0000 0.0000
# 4 0.0000 0.0000 0.0000 18.2776 0.0000 0.0000
# 5 0.0000 0.0000 0.0000 0.0000 46.9992 0.0000
# 6 0.0000 0.0000 0.0000 0.0000 0.0000 17.3355
#
#
#
# Elastic Compliance Matrix: (Units=1/GPa)
#
#
# Indices 1 2 3 4 5 6 
#
# 1 0.010941 -0.011598 -0.000705 0.000000 0.000000 0.000000
# 2 -0.011598 0.112354 -0.012217 0.000000 0.000000 0.000000
# 3 -0.000705 -0.012217 0.010523 0.000000 0.000000 0.000000
# 4 0.000000 0.000000 0.000000 0.054712 0.000000 0.000000
# 5 0.000000 0.000000 0.000000 0.000000 0.021277 0.000000
# 6 0.000000 0.000000 0.000000 0.000000 0.000000 0.057685
#
#
# Mechanical properties :
#
#
# Convention : Reuss Voigt Hill
#
# Bulk Modulus (GPa) = 11.79537 37.25187 24.52362
# Shear Modulus (GPa) = 14.50159 28.62890 21.56524
#
# Velocity S-wave (km/s) = 2.76374 3.88322 3.37029
# Velocity P-wave (km/s) = 4.04935 6.30295 5.29738
#
# Compressibility (1/GPa) = 0.08477900
#
# Stress axis : x y z
#
# Youngs Moduli (GPa) = 91.40212 8.90046 95.02698
#
# Poissons Ratio (x) = 0.10322 0.06697
# Poissons Ratio (y) = 1.06005 1.16093
# Poissons Ratio (z) = 0.06442 0.10874
#
# Static dielectric constant tensor:
#      x y z
#    x 3.762680 0.000000 0.000000 
#    y 0.000000 2.858230 0.000000 
#    z 0.000000 0.000000 3.681160 
# 
# 
# High freq. dielectric constant tensor:
#      x y z
#    x 1.760900 0.000000 0.000000 
#    y 0.000000 1.670580 0.000000 
#    z 0.000000 0.000000 1.758900 
# 
# From -- ./inp_files/27987.got.cif
#   From: 2010.03.12/outbox.cif.g09.slc.cpg/sg59_14_cif.got.tgz:27987.got - 2010.04.16 16:29:54.
