data_PCOD8241872
_publ_section_title
;
Structure prediction by ZEFSAII (Michael W. Deem and Ramdas Pophale) SiO2 
 PCOD8241872
Probable space group: P M M N
;
_chemical_formula_sum "Si O2"
_cell_formula_units_Z 64
_cell_length_a 27.362086
_cell_length_b 9.194932
_cell_length_c 13.153970
_cell_angle_alpha 90.000000
_cell_angle_beta 90.000000
_cell_angle_gamma 90.000000
_cell_volume 3309.440462
_symmetry_space_group_name_H-M "P M M N"
_symmetry_group_IT_number 59
_space_group.IT_coordinate_system_code '2'
_symmetry_cell_setting 'orthorhombic'
loop_
_space_group_symop_operation_xyz
x,y,z
1/2-x,1/2-y,z
1/2+x,-y,-z
-x,1/2+y,-z
-x,-y,-z
1/2+x,1/2+y,-z
1/2-x,y,z
x,1/2-y,z
loop_
_atom_site_type_symbol
_atom_site_label
_atom_site_fract_x
_atom_site_fract_y
_atom_site_fract_z
Si Si1 0.543923 0.091847 0.238364
Si Si2 0.979975 0.081006 0.904196
Si Si3 0.845433 0.420612 0.258806
Si Si4 0.869995 0.422654 0.855356
Si Si5 0.307206 0.581907 0.525886
Si Si6 0.527346 0.906069 0.580438
Si Si7 0.805189 0.077307 0.045747
Si Si8 0.367319 0.076010 0.352621
O O1 0.546797 0.250000 0.179142
O O2 0.597835 0.038038 0.266213
O O3 0.512906 0.122033 0.336372
O O4 0.517911 0.959876 0.182548
O O5 0.980773 0.250000 0.925445
O O6 0.925571 0.029135 0.876744
O O7 0.000000 0.000000 0.000000
O O8 0.836146 0.250000 0.255386
O O9 0.819593 0.480062 0.361188
O O10 0.823525 0.488151 0.154156
O O11 0.865026 0.250000 0.838424
O O12 0.851156 0.504170 0.754295
O O13 0.838318 0.477489 0.951816
O O14 0.250000 0.568187 0.507132
O O15 0.324529 0.750000 0.515087
O O16 0.333217 0.482877 0.442094
O O17 0.541600 0.750000 0.531629
O O18 0.577149 0.976448 0.623845
O O19 0.500000 0.000000 0.500000
O O20 0.750000 0.023852 0.026654
O O21 0.808391 0.250000 0.050212
O O22 0.362796 0.250000 0.343512
#
# Coordination Sequence:
#
# PCOD8241872 Si02
#       8
#     8   8   8   8   8   8   8   8
#     4  10  19  34  54  79 112 147 183 223 279 344
#     4  11  22  35  54  80 112 149 190 236 283 342
#     4   9  17  32  57  87 118 147 182 237 295 348
#     4  10  21  37  57  83 115 154 196 241 288 343
#     4  10  21  38  62  89 115 151 199 245 293 350
#     4  10  21  35  54  80 112 150 189 232 283 343
#     4   9  17  31  54  84 113 141 182 239 297 344
#     4  11  23  39  58  83 118 157 195 242 297 349
#
# _framework density 19.338615000000001
#
# number of rings (size 3 to 8) (size 9 to 14) (size 15 to 20)
#    0.000    2.000    1.250    2.625    0.000    7.250 
#    0.000    1.875    0.000    0.750    0.000    0.000 
#    0.000    0.000    0.000    0.000    0.000    0.000 
#
# Total GULP energy -793271.461571 kJ/mol
# GULP energy per Si atom -12394.866587 kJ/mol
# Density = 1.929460 g / cm^3
# Si number density = 19.338615 Si / 1000 Ang^3
#
#
#
# Elastic Constant Matrix: (Units=GPa)
#
#
# Indices 1 2 3 4 5 6 
#
# 1 113.0697 27.4276 54.3331 0.0000 0.0000 0.0000
# 2 27.4276 47.5032 44.9211 0.0000 0.0000 0.0000
# 3 54.3331 44.9211 153.2246 0.0000 0.0000 0.0000
# 4 0.0000 0.0000 0.0000 25.4064 0.0000 0.0000
# 5 0.0000 0.0000 0.0000 0.0000 36.7513 0.0000
# 6 0.0000 0.0000 0.0000 0.0000 0.0000 25.5237
#
#
#
# Elastic Compliance Matrix: (Units=1/GPa)
#
#
# Indices 1 2 3 4 5 6 
#
# 1 0.011117 -0.003723 -0.002851 0.000000 0.000000 0.000000
# 2 -0.003723 0.030373 -0.007584 0.000000 0.000000 0.000000
# 3 -0.002851 -0.007584 0.009761 0.000000 0.000000 0.000000
# 4 0.000000 0.000000 0.000000 0.039360 0.000000 0.000000
# 5 0.000000 0.000000 0.000000 0.000000 0.027210 0.000000
# 6 0.000000 0.000000 0.000000 0.000000 0.000000 0.039179
#
#
# Mechanical properties :
#
#
# Convention : Reuss Voigt Hill
#
# Bulk Modulus (GPa) = 43.60218 63.01790 53.31004
# Shear Modulus (GPa) = 25.91199 30.01065 27.96132
#
# Velocity S-wave (km/s) = 3.66445 3.94363 3.80660
# Velocity P-wave (km/s) = 6.36395 7.30709 6.85177
#
# Compressibility (1/GPa) = 0.02293463
#
# Stress axis : x y z
#
# Youngs Moduli (GPa) = 89.95227 32.92404 102.45233
#
# Poissons Ratio (x) = 0.12258 0.29204
# Poissons Ratio (y) = 0.33491 0.77702
# Poissons Ratio (z) = 0.25641 0.24970
#
# Static dielectric constant tensor:
#      x y z
#    x 3.549120 0.000000 0.000000 
#    y 0.000000 2.833440 0.000000 
#    z 0.000000 0.000000 3.697410 
# 
# 
# High freq. dielectric constant tensor:
#      x y z
#    x 1.762120 0.000000 0.000000 
#    y 0.000000 1.718780 0.000000 
#    z 0.000000 0.000000 1.762100 
# 
# From -- ./inp_files/19295.got.cif
#   From: 2010.03.12/outbox.cif.g09.slc.cpg/sg59_10_cif.got.tgz:19295.got - 2010.04.16 16:29:54.
