data_PCOD8241883
_publ_section_title
;
Structure prediction by ZEFSAII (Michael W. Deem and Ramdas Pophale) SiO2 
 PCOD8241883
Probable space group: P M M N
;
_chemical_formula_sum "Si O2"
_cell_formula_units_Z 64
_cell_length_a 8.805025
_cell_length_b 19.990819
_cell_length_c 20.095696
_cell_angle_alpha 90.000000
_cell_angle_beta 90.000000
_cell_angle_gamma 90.000000
_cell_volume 3537.237599
_symmetry_space_group_name_H-M "P M M N"
_symmetry_group_IT_number 59
_space_group.IT_coordinate_system_code '2'
_symmetry_cell_setting 'orthorhombic'
loop_
_space_group_symop_operation_xyz
x,y,z
1/2-x,1/2-y,z
1/2+x,-y,-z
-x,1/2+y,-z
-x,-y,-z
1/2+x,1/2+y,-z
1/2-x,y,z
x,1/2-y,z
loop_
_atom_site_type_symbol
_atom_site_label
_atom_site_fract_x
_atom_site_fract_y
_atom_site_fract_z
Si Si1 0.570233 0.584329 0.327482
Si Si2 0.571580 0.566536 0.970280
Si Si3 0.070064 0.957748 0.836715
Si Si4 0.570799 0.065920 0.309877
Si Si5 0.930223 0.174716 0.411133
Si Si6 0.924571 0.673989 0.078502
Si Si7 0.428381 0.597904 0.190211
Si Si8 0.927357 0.673518 0.450621
O O1 0.750000 0.590436 0.315692
O O2 0.519938 0.506986 0.336609
O O3 0.485746 0.615591 0.264041
O O4 0.516011 0.625794 0.391462
O O5 0.750000 0.555944 0.964915
O O6 0.505196 0.582625 0.897151
O O7 0.500000 0.500000 0.000000
O O8 0.526586 0.628901 0.016072
O O9 0.250000 0.957229 0.844685
O O10 0.018171 0.924520 0.766682
O O11 0.015101 0.033989 0.839313
O O12 0.750000 0.070983 0.313673
O O13 0.500030 0.124485 0.355708
O O14 0.750000 0.172386 0.410984
O O15 0.988711 0.250000 0.395779
O O16 0.986565 0.150707 0.483042
O O17 0.750000 0.660452 0.098364
O O18 0.951076 0.750000 0.056502
O O19 0.030076 0.659238 0.142117
O O20 0.250000 0.584367 0.190892
O O21 0.750000 0.664303 0.463557
O O22 0.967095 0.750000 0.431859
#
# Coordination Sequence:
#
# PCOD8241883 Si02
#       8
#     8   8   8   8   8   8   8   8
#     4   9  18  33  51  70  99 137 171 206 252 309
#     4  11  21  34  57  83 106 137 178 221 263 311
#     4  10  19  34  55  77 104 137 174 214 258 314
#     4   8  16  31  50  72  98 130 168 208 251 302
#     4   9  17  31  51  72  96 129 168 210 257 308
#     4  10  22  39  56  75 105 145 181 212 257 318
#     4  11  21  33  52  78 106 134 170 217 263 309
#     4   9  18  32  49  70  96 129 169 208 250 308
#
# _framework density 18.093214
#
# number of rings (size 3 to 8) (size 9 to 14) (size 15 to 20)
#    0.000    2.375    1.250    2.625    0.000    2.250 
#    0.000    5.000    0.000    0.750    0.000    0.000 
#    0.000    0.000    0.000    0.000    0.000    0.000 
#
# Total GULP energy -793619.261519 kJ/mol
# GULP energy per Si atom -12400.300961 kJ/mol
# Density = 1.805203 g / cm^3
# Si number density = 18.093214 Si / 1000 Ang^3
#
#
#
# Elastic Constant Matrix: (Units=GPa)
#
#
# Indices 1 2 3 4 5 6 
#
# 1 53.6522 32.1633 41.5522 0.0000 0.0000 0.0000
# 2 32.1633 108.7888 91.1275 0.0000 0.0000 0.0000
# 3 41.5522 91.1275 163.5105 0.0000 0.0000 0.0000
# 4 0.0000 0.0000 0.0000 33.1468 0.0000 0.0000
# 5 0.0000 0.0000 0.0000 0.0000 32.1760 0.0000
# 6 0.0000 0.0000 0.0000 0.0000 0.0000 16.6296
#
#
#
# Elastic Compliance Matrix: (Units=1/GPa)
#
#
# Indices 1 2 3 4 5 6 
#
# 1 0.023984 -0.003724 -0.004020 0.000000 0.000000 0.000000
# 2 -0.003724 0.017819 -0.008985 0.000000 0.000000 0.000000
# 3 -0.004020 -0.008985 0.012145 0.000000 0.000000 0.000000
# 4 0.000000 0.000000 0.000000 0.030169 0.000000 0.000000
# 5 0.000000 0.000000 0.000000 0.000000 0.031079 0.000000
# 6 0.000000 0.000000 0.000000 0.000000 0.000000 0.060134
#
#
# Mechanical properties :
#
#
# Convention : Reuss Voigt Hill
#
# Bulk Modulus (GPa) = 48.80040 72.84860 60.82450
# Shear Modulus (GPa) = 23.18940 27.13105 25.16022
#
# Velocity S-wave (km/s) = 3.58392 3.87656 3.73311
# Velocity P-wave (km/s) = 6.64501 7.77093 7.22992
#
# Compressibility (1/GPa) = 0.02049164
#
# Stress axis : x y z
#
# Youngs Moduli (GPa) = 41.69448 56.11981 82.34143
#
# Poissons Ratio (x) = 0.20898 0.33098
# Poissons Ratio (y) = 0.15526 0.73980
# Poissons Ratio (z) = 0.16759 0.50421
#
# Static dielectric constant tensor:
#      x y z
#    x 3.187590 0.000000 0.000000 
#    y 0.000000 3.422630 0.000000 
#    z 0.000000 0.000000 3.618080 
# 
# 
# High freq. dielectric constant tensor:
#      x y z
#    x 1.687510 0.000000 0.000000 
#    y 0.000000 1.686230 0.000000 
#    z 0.000000 0.000000 1.710250 
# 
# From -- ./inp_files/28181.got.cif
#   From: 2010.03.12/outbox.cif.g09.slc.cpg/sg59_15_cif.got.tgz:28181.got - 2010.04.16 16:29:54.
