data_PCOD8241985
_publ_section_title
;
Structure prediction by ZEFSAII (Michael W. Deem and Ramdas Pophale) SiO2 
 PCOD8241985
Probable space group: P M M N
;
_chemical_formula_sum "Si O2"
_cell_formula_units_Z 36
_cell_length_a 13.116103
_cell_length_b 10.324940
_cell_length_c 14.117037
_cell_angle_alpha 90.000000
_cell_angle_beta 90.000000
_cell_angle_gamma 90.000000
_cell_volume 1911.771170
_symmetry_space_group_name_H-M "P M M N"
_symmetry_group_IT_number 59
_space_group.IT_coordinate_system_code '2'
_symmetry_cell_setting 'orthorhombic'
loop_
_space_group_symop_operation_xyz
x,y,z
1/2-x,1/2-y,z
1/2+x,-y,-z
-x,1/2+y,-z
-x,-y,-z
1/2+x,1/2+y,-z
1/2-x,y,z
x,1/2-y,z
loop_
_atom_site_type_symbol
_atom_site_label
_atom_site_fract_x
_atom_site_fract_y
_atom_site_fract_z
Si Si1 0.989944 0.250000 0.366447
Si Si2 0.365619 0.250000 0.187072
Si Si3 0.136740 0.502031 0.064811
Si Si4 0.869887 0.996997 0.325349
Si Si5 0.934710 0.603297 0.126467
Si Si6 0.131820 0.250000 0.547674
O O1 0.918734 0.124181 0.371291
O O2 0.057255 0.250000 0.272989
O O3 0.064475 0.250000 0.454826
O O4 0.250000 0.250000 0.226084
O O5 0.387205 0.127755 0.121714
O O6 0.250000 0.555699 0.086025
O O7 0.054409 0.607508 0.098223
O O8 0.128613 0.472306 0.953349
O O9 0.750000 0.018088 0.314301
O O10 0.918892 0.972917 0.223331
O O11 0.895802 0.876178 0.391868
O O12 0.894476 0.750000 0.136633
O O13 0.250000 0.250000 0.517861
#
# Coordination Sequence:
#
# PCOD8241985 Si02
#       6
#     4   4   8   8   8   4
#     4  12  22  40  60  88 117 152 187 249 295 349
#     4  10  19  34  57  81 109 150 193 231 282 340
#     4  10  21  36  55  83 117 154 195 239 283 337
#     4  11  23  39  61  89 118 153 194 241 293 349
#     4  11  21  36  60  84 116 158 198 237 288 345
#     4  10  23  42  65  87 110 148 198 244 295 355
#
# _framework density 18.830704999999998
#
# number of rings (size 3 to 8) (size 9 to 14) (size 15 to 20)
#    0.000    1.333    4.444    2.000    0.000    1.333 
#    0.000    0.000    0.000    1.333    0.000    0.000 
#    0.000    0.000    0.000    0.000    0.000    0.000 
#
# Total GULP energy -446515.495611 kJ/mol
# GULP energy per Si atom -12403.208211 kJ/mol
# Density = 1.878785 g / cm^3
# Si number density = 18.830705 Si / 1000 Ang^3
#
#
#
# Elastic Constant Matrix: (Units=GPa)
#
#
# Indices 1 2 3 4 5 6 
#
# 1 93.6968 31.6088 47.5170 0.0000 0.0000 0.0000
# 2 31.6088 103.7727 40.2397 0.0000 0.0000 0.0000
# 3 47.5170 40.2397 122.8196 0.0000 0.0000 0.0000
# 4 0.0000 0.0000 0.0000 -5.7482 0.0000 0.0000
# 5 0.0000 0.0000 0.0000 0.0000 14.1302 0.0000
# 6 0.0000 0.0000 0.0000 0.0000 0.0000 33.3238
#
#
#
# Elastic Compliance Matrix: (Units=1/GPa)
#
#
# Indices 1 2 3 4 5 6 
#
# 1 0.013798 -0.002443 -0.004538 0.000000 0.000000 0.000000
# 2 -0.002443 0.011472 -0.002813 0.000000 0.000000 0.000000
# 3 -0.004538 -0.002813 0.010819 0.000000 0.000000 0.000000
# 4 0.000000 0.000000 0.000000 -0.173966 0.000000 0.000000
# 5 0.000000 0.000000 0.000000 0.000000 0.070771 0.000000
# 6 0.000000 0.000000 0.000000 0.000000 0.000000 0.030009
#
#
# Mechanical properties :
#
#
# Convention : Reuss Voigt Hill
#
# Bulk Modulus (GPa) = 60.60412 62.11335 61.35873
# Shear Modulus (GPa) = -416.35285 21.73605 -197.30840
#
# Velocity S-wave (km/s) = -14.88567 3.40117 -10.24732
# Velocity P-wave (km/s) = 16.22315 6.96281 10.36123
#
# Compressibility (1/GPa) = 0.01650053
#
# Stress axis : x y z
#
# Youngs Moduli (GPa) = 72.47294 87.17244 92.42719
#
# Poissons Ratio (x) = 0.21299 0.41942
# Poissons Ratio (y) = 0.17707 0.26001
# Poissons Ratio (z) = 0.32887 0.24523
#
# Static dielectric constant tensor:
#      x y z
#    x 3.544010 0.000000 0.000000 
#    y 0.000000 3.365240 0.000000 
#    z 0.000000 0.000000 3.435770 
# 
# 
# High freq. dielectric constant tensor:
#      x y z
#    x 1.741180 0.000000 0.000000 
#    y 0.000000 1.730140 0.000000 
#    z 0.000000 0.000000 1.733240 
# 
# From -- ./inp_files/22917.got.cif
#   From: 2010.03.12/outbox.cif.g09.slc.cpg/sg59_12_cif.got.tgz:22917.got - 2010.04.16 16:29:54.
