data_PCOD8241194
_publ_section_title
;
Structure prediction by ZEFSAII (Michael W. Deem and Ramdas Pophale) SiO2 
 PCOD8241194
Probable space group: P M M N
;
_chemical_formula_sum "Si O2"
_cell_formula_units_Z 40
_cell_length_a 28.781726
_cell_length_b 7.759394
_cell_length_c 9.729894
_cell_angle_alpha 90.000000
_cell_angle_beta 90.000000
_cell_angle_gamma 90.000000
_cell_volume 2172.965084
_symmetry_space_group_name_H-M "P M M N"
_symmetry_group_IT_number 59
_space_group.IT_coordinate_system_code '2'
_symmetry_cell_setting 'orthorhombic'
loop_
_space_group_symop_operation_xyz
x,y,z
1/2-x,1/2-y,z
1/2+x,-y,-z
-x,1/2+y,-z
-x,-y,-z
1/2+x,1/2+y,-z
1/2-x,y,z
x,1/2-y,z
loop_
_atom_site_type_symbol
_atom_site_label
_atom_site_fract_x
_atom_site_fract_y
_atom_site_fract_z
Si Si1 0.553571 0.445578 0.840953
Si Si2 0.550292 0.951526 0.139382
Si Si3 0.365570 0.440799 0.340235
Si Si4 0.301702 0.750000 0.660055
Si Si5 0.368268 0.051929 0.657290
Si Si6 0.198285 0.750000 0.334175
O O1 0.557822 0.250000 0.789563
O O2 0.501215 0.517679 0.820519
O O3 0.587650 0.558641 0.748433
O O4 0.567918 0.456188 0.001084
O O5 0.548007 0.750000 0.107609
O O6 0.584801 0.996540 0.262909
O O7 0.343190 0.250000 0.328828
O O8 0.378908 0.481201 0.497552
O O9 0.328663 0.579343 0.282848
O O10 0.250000 0.750000 0.724684
O O11 0.327794 0.576203 0.709449
O O12 0.298102 0.750000 0.496970
O O13 0.353080 0.250000 0.685911
O O14 0.250000 0.750000 0.269454
#
# Coordination Sequence:
#
# PCOD8241194 Si02
#       6
#     8   8   8   4   8   4
#     4  10  19  32  51  75 104 139 176 213 255 306
#     4   9  19  34  50  73 104 138 177 214 253 307
#     4  10  19  33  53  77 105 136 170 211 260 307
#     4   9  18  32  53  79 105 135 171 213 262 311
#     4   9  19  34  52  76 105 135 170 213 258 305
#     4   9  18  34  53  77 107 135 171 217 260 307
#
# _framework density 18.408026
#
# number of rings (size 3 to 8) (size 9 to 14) (size 15 to 20)
#    0.000    2.600    1.000    0.600    1.400    2.400 
#    0.000    4.000    0.000    2.400    0.000    2.800 
#    0.000    0.000    0.000    0.000    0.000    0.000 
#
# Total GULP energy -495971.996546 kJ/mol
# GULP energy per Si atom -12399.299914 kJ/mol
# Density = 1.836613 g / cm^3
# Si number density = 18.408026 Si / 1000 Ang^3
#
#
#
# Elastic Constant Matrix: (Units=GPa)
#
#
# Indices 1 2 3 4 5 6 
#
# 1 139.7002 63.3266 54.0577 0.0000 0.0000 0.0000
# 2 63.3266 103.7034 32.5662 0.0000 0.0000 0.0000
# 3 54.0577 32.5662 55.1407 0.0000 0.0000 0.0000
# 4 0.0000 0.0000 0.0000 21.7073 0.0000 0.0000
# 5 0.0000 0.0000 0.0000 0.0000 7.3353 0.0000
# 6 0.0000 0.0000 0.0000 0.0000 0.0000 24.2758
#
#
#
# Elastic Compliance Matrix: (Units=1/GPa)
#
#
# Indices 1 2 3 4 5 6 
#
# 1 0.013328 -0.004954 -0.010140 0.000000 0.000000 0.000000
# 2 -0.004954 0.013680 -0.003223 0.000000 0.000000 0.000000
# 3 -0.010140 -0.003223 0.029979 0.000000 0.000000 0.000000
# 4 0.000000 0.000000 0.000000 0.046067 0.000000 0.000000
# 5 0.000000 0.000000 0.000000 0.000000 0.136327 0.000000
# 6 0.000000 0.000000 0.000000 0.000000 0.000000 0.041193
#
#
# Mechanical properties :
#
#
# Convention : Reuss Voigt Hill
#
# Bulk Modulus (GPa) = 49.13089 66.49392 57.81241
# Shear Modulus (GPa) = 15.43244 20.56992 18.00118
#
# Velocity S-wave (km/s) = 2.89857 3.34644 3.13053
# Velocity P-wave (km/s) = 6.16037 7.15068 6.67392
#
# Compressibility (1/GPa) = 0.02035379
#
# Stress axis : x y z
#
# Youngs Moduli (GPa) = 75.03187 73.09816 33.35624
#
# Poissons Ratio (x) = 0.36215 0.33823
# Poissons Ratio (y) = 0.37173 0.10749
# Poissons Ratio (z) = 0.76081 0.23556
#
# Static dielectric constant tensor:
#      x y z
#    x 3.461510 0.000000 0.000000 
#    y 0.000000 3.496580 0.000000 
#    z 0.000000 0.000000 3.095680 
# 
# 
# High freq. dielectric constant tensor:
#      x y z
#    x 1.702100 0.000000 0.000000 
#    y 0.000000 1.727370 0.000000 
#    z 0.000000 0.000000 1.684180 
# 
# From -- ./inp_files/5898.got.cif
#   From: 2010.03.12/outbox.cif.g09.slc.cpg/sg59_3_cif.got.tgz:5898.got - 2010.04.16 16:29:54.
