data_PCOD8241866
_publ_section_title
;
Structure prediction by ZEFSAII (Michael W. Deem and Ramdas Pophale) SiO2 
 PCOD8241866
Probable space group: P M M N
;
_chemical_formula_sum "Si O2"
_cell_formula_units_Z 64
_cell_length_a 9.425312
_cell_length_b 19.037481
_cell_length_c 18.792253
_cell_angle_alpha 90.000000
_cell_angle_beta 90.000000
_cell_angle_gamma 90.000000
_cell_volume 3371.972848
_symmetry_space_group_name_H-M "P M M N"
_symmetry_group_IT_number 59
_space_group.IT_coordinate_system_code '2'
_symmetry_cell_setting 'orthorhombic'
loop_
_space_group_symop_operation_xyz
x,y,z
1/2-x,1/2-y,z
1/2+x,-y,-z
-x,1/2+y,-z
-x,-y,-z
1/2+x,1/2+y,-z
1/2-x,y,z
x,1/2-y,z
loop_
_atom_site_type_symbol
_atom_site_label
_atom_site_fract_x
_atom_site_fract_y
_atom_site_fract_z
Si Si1 0.409866 0.473040 0.711392
Si Si2 0.582174 0.920305 0.922133
Si Si3 0.587380 0.439072 0.848020
Si Si4 0.406031 0.173666 0.202979
Si Si5 0.092546 0.631886 0.679550
Si Si6 0.086059 0.832158 0.522964
Si Si7 0.585970 0.168690 0.963903
Si Si8 0.080012 0.055647 0.550545
O O1 0.250000 0.445769 0.722493
O O2 0.502240 0.439316 0.774233
O O3 0.417683 0.556511 0.716321
O O4 0.464117 0.453117 0.632779
O O5 0.750000 0.910782 0.935132
O O6 0.525834 0.879471 0.852741
O O7 0.539872 0.001437 0.906353
O O8 0.502130 0.884748 0.987519
O O9 0.750000 0.454159 0.827698
O O10 0.568525 0.362482 0.884077
O O11 0.250000 0.146654 0.223783
O O12 0.400728 0.250000 0.166195
O O13 0.492289 0.182085 0.275626
O O14 0.250000 0.663388 0.684049
O O15 0.047674 0.630561 0.597505
O O16 0.250000 0.846644 0.501908
O O17 0.054100 0.750000 0.527237
O O18 0.977731 0.866667 0.467307
O O19 0.750000 0.165621 0.987627
O O20 0.531788 0.250000 0.965853
O O21 0.250000 0.048302 0.540181
O O22 0.000000 0.000000 0.500000
#
# Coordination Sequence:
#
# PCOD8241866 Si02
#       8
#     8   8   8   8   8   8   8   8
#     4  10  21  37  58  85 113 144 187 236 282 333
#     4  10  20  35  56  82 111 145 184 225 275 329
#     4  10  21  38  60  84 112 146 185 233 282 331
#     4  10  20  32  47  74 113 149 182 222 269 326
#     4  10  19  34  54  77 110 148 185 226 275 333
#     4  10  21  38  58  83 117 153 190 235 290 348
#     4  10  22  39  58  83 113 145 185 232 281 333
#     4  11  22  38  60  85 116 151 193 240 286 338
#
# _framework density 18.979987000000001
#
# number of rings (size 3 to 8) (size 9 to 14) (size 15 to 20)
#    0.000    1.875    2.500    1.500    0.000    4.750 
#    0.000    0.625    0.000    2.250    0.000    0.000 
#    0.000    0.000    0.000    0.000    0.000    0.000 
#
# Total GULP energy -793266.617451 kJ/mol
# GULP energy per Si atom -12394.790898 kJ/mol
# Density = 1.893679 g / cm^3
# Si number density = 18.979987 Si / 1000 Ang^3
#
#
#
# Elastic Constant Matrix: (Units=GPa)
#
#
# Indices 1 2 3 4 5 6 
#
# 1 69.6958 34.9361 58.6745 0.0000 0.0000 0.0000
# 2 34.9361 69.8164 41.8281 0.0000 0.0000 0.0000
# 3 58.6745 41.8281 112.9234 0.0000 0.0000 0.0000
# 4 0.0000 0.0000 0.0000 23.3745 0.0000 0.0000
# 5 0.0000 0.0000 0.0000 0.0000 37.4381 0.0000
# 6 0.0000 0.0000 0.0000 0.0000 0.0000 10.5015
#
#
#
# Elastic Compliance Matrix: (Units=1/GPa)
#
#
# Indices 1 2 3 4 5 6 
#
# 1 0.027778 -0.006751 -0.011933 0.000000 0.000000 0.000000
# 2 -0.006751 0.020049 -0.003919 0.000000 0.000000 0.000000
# 3 -0.011933 -0.003919 0.016507 0.000000 0.000000 0.000000
# 4 0.000000 0.000000 0.000000 0.042782 0.000000 0.000000
# 5 0.000000 0.000000 0.000000 0.000000 0.026711 0.000000
# 6 0.000000 0.000000 0.000000 0.000000 0.000000 0.095225
#
#
# Mechanical properties :
#
#
# Convention : Reuss Voigt Hill
#
# Bulk Modulus (GPa) = 52.27472 58.14589 55.21030
# Shear Modulus (GPa) = 17.81692 22.06261 19.93976
#
# Velocity S-wave (km/s) = 3.06718 3.41312 3.24476
# Velocity P-wave (km/s) = 6.33603 6.79959 6.57190
#
# Compressibility (1/GPa) = 0.01912971
#
# Stress axis : x y z
#
# Youngs Moduli (GPa) = 36.00011 49.87733 60.57966
#
# Poissons Ratio (x) = 0.33672 0.72287
# Poissons Ratio (y) = 0.24304 0.23739
# Poissons Ratio (z) = 0.42957 0.19545
#
# Static dielectric constant tensor:
#      x y z
#    x 3.435540 0.000000 0.000000 
#    y 0.000000 3.510000 0.000000 
#    z 0.000000 0.000000 3.401490 
# 
# 
# High freq. dielectric constant tensor:
#      x y z
#    x 1.731140 0.000000 0.000000 
#    y 0.000000 1.737570 0.000000 
#    z 0.000000 0.000000 1.731500 
# 
# From -- ./inp_files/26211.got.cif
#   From: 2010.03.12/outbox.cif.g09.slc.cpg/sg59_14_cif.got.tgz:26211.got - 2010.04.16 16:29:54.
