data_PCOD8241534
_publ_section_title
;
Structure prediction by ZEFSAII (Michael W. Deem and Ramdas Pophale) SiO2 
 PCOD8241534
Probable space group: P M M N
;
_chemical_formula_sum "Si O2"
_cell_formula_units_Z 56
_cell_length_a 14.867843
_cell_length_b 23.303562
_cell_length_c 8.610417
_cell_angle_alpha 90.000000
_cell_angle_beta 90.000000
_cell_angle_gamma 90.000000
_cell_volume 2983.283046
_symmetry_space_group_name_H-M "P M M N"
_symmetry_group_IT_number 59
_space_group.IT_coordinate_system_code '2'
_symmetry_cell_setting 'orthorhombic'
loop_
_space_group_symop_operation_xyz
x,y,z
1/2-x,1/2-y,z
1/2+x,-y,-z
-x,1/2+y,-z
-x,-y,-z
1/2+x,1/2+y,-z
1/2-x,y,z
x,1/2-y,z
loop_
_atom_site_type_symbol
_atom_site_label
_atom_site_fract_x
_atom_site_fract_y
_atom_site_fract_z
Si Si1 0.648298 0.043593 0.247148
Si Si2 0.149567 0.642616 0.529770
Si Si3 0.478928 0.186222 0.318330
Si Si4 0.848159 0.918529 0.173668
Si Si5 0.584454 0.185916 0.780476
Si Si6 0.514175 0.109967 0.040146
Si Si7 0.608111 0.812954 0.367457
O O1 0.750000 0.057214 0.190277
O O2 0.629258 0.077682 0.408747
O O3 0.578440 0.061443 0.111999
O O4 0.636339 0.975668 0.277576
O O5 0.250000 0.661336 0.576938
O O6 0.080714 0.684892 0.615519
O O7 0.140286 0.647655 0.343261
O O8 0.460227 0.250000 0.257686
O O9 0.463894 0.144289 0.175651
O O10 0.408313 0.169815 0.453252
O O11 0.750000 0.923074 0.088117
O O12 0.837388 0.863650 0.286153
O O13 0.932142 0.916200 0.057600
O O14 0.626961 0.250000 0.803503
O O15 0.485025 0.193475 0.719429
O O16 0.579967 0.151754 0.942405
O O17 0.656561 0.750000 0.357442
#
# Coordination Sequence:
#
# PCOD8241534 Si02
#       7
#     8   8   8   8   8   8   8
#     4   9  19  35  52  72 101 137 175 213 254 302
#     4   9  17  30  48  71 100 134 173 213 250 291
#     4   9  17  31  51  73 100 134 167 204 253 305
#     4  10  20  35  54  74  98 131 173 217 259 307
#     4   9  17  29  47  72 101 132 164 201 247 296
#     4  10  19  33  52  76 105 138 167 205 256 307
#     4   8  16  32  51  71  94 122 161 207 253 301
#
# _framework density 18.771266000000001
#
# number of rings (size 3 to 8) (size 9 to 14) (size 15 to 20)
#    0.000    2.857    0.000    2.143    0.000    2.571 
#    0.000   13.571    0.000    6.857    0.000    0.000 
#    0.000    0.000    0.000    0.000    0.000    0.000 
#
# Total GULP energy -693798.993974 kJ/mol
# GULP energy per Si atom -12389.267750 kJ/mol
# Density = 1.872854 g / cm^3
# Si number density = 18.771266 Si / 1000 Ang^3
#
#
#
# Elastic Constant Matrix: (Units=GPa)
#
#
# Indices 1 2 3 4 5 6 
#
# 1 71.9593 33.6909 18.8966 0.0000 0.0000 0.0000
# 2 33.6909 129.4582 51.8625 0.0000 0.0000 0.0000
# 3 18.8966 51.8625 79.6390 0.0000 0.0000 0.0000
# 4 0.0000 0.0000 0.0000 20.5394 0.0000 0.0000
# 5 0.0000 0.0000 0.0000 0.0000 18.1742 0.0000
# 6 0.0000 0.0000 0.0000 0.0000 0.0000 16.3044
#
#
#
# Elastic Compliance Matrix: (Units=1/GPa)
#
#
# Indices 1 2 3 4 5 6 
#
# 1 0.015950 -0.003565 -0.001463 0.000000 0.000000 0.000000
# 2 -0.003565 0.011248 -0.006479 0.000000 0.000000 0.000000
# 3 -0.001463 -0.006479 0.017123 0.000000 0.000000 0.000000
# 4 0.000000 0.000000 0.000000 0.048687 0.000000 0.000000
# 5 0.000000 0.000000 0.000000 0.000000 0.055023 0.000000
# 6 0.000000 0.000000 0.000000 0.000000 0.000000 0.061333
#
#
# Mechanical properties :
#
#
# Convention : Reuss Voigt Hill
#
# Bulk Modulus (GPa) = 46.93266 54.43961 50.68613
# Shear Modulus (GPa) = 20.87861 22.77738 21.82799
#
# Velocity S-wave (km/s) = 3.33868 3.48719 3.41374
# Velocity P-wave (km/s) = 6.31815 6.72893 6.52678
#
# Compressibility (1/GPa) = 0.02130712
#
# Stress axis : x y z
#
# Youngs Moduli (GPa) = 62.69608 88.90672 58.40086
#
# Poissons Ratio (x) = 0.31693 0.08545
# Poissons Ratio (y) = 0.22350 0.37837
# Poissons Ratio (z) = 0.09173 0.57602
#
# Static dielectric constant tensor:
#      x y z
#    x 3.282330 0.000000 0.000000 
#    y 0.000000 3.779210 0.000000 
#    z 0.000000 0.000000 3.427300 
# 
# 
# High freq. dielectric constant tensor:
#      x y z
#    x 1.716860 0.000000 0.000000 
#    y 0.000000 1.733290 0.000000 
#    z 0.000000 0.000000 1.708920 
# 
# From -- ./inp_files/9367.got.cif
#   From: 2010.03.12/outbox.cif.g09.slc.cpg/sg59_5_cif.got.tgz:9367.got - 2010.04.16 16:29:54.
