data_PCOD8241522
_publ_section_title
;
Structure prediction by ZEFSAII (Michael W. Deem and Ramdas Pophale) SiO2 
 PCOD8241522
Probable space group: P M M N
;
_chemical_formula_sum "Si O2"
_cell_formula_units_Z 40
_cell_length_a 8.759603
_cell_length_b 25.796717
_cell_length_c 9.617942
_cell_angle_alpha 90.000000
_cell_angle_beta 90.000000
_cell_angle_gamma 90.000000
_cell_volume 2173.356732
_symmetry_space_group_name_H-M "P M M N"
_symmetry_group_IT_number 59
_space_group.IT_coordinate_system_code '2'
_symmetry_cell_setting 'orthorhombic'
loop_
_space_group_symop_operation_xyz
x,y,z
1/2-x,1/2-y,z
1/2+x,-y,-z
-x,1/2+y,-z
-x,-y,-z
1/2+x,1/2+y,-z
1/2-x,y,z
x,1/2-y,z
loop_
_atom_site_type_symbol
_atom_site_label
_atom_site_fract_x
_atom_site_fract_y
_atom_site_fract_z
Si Si1 0.429640 0.421615 0.753111
Si Si2 0.571686 0.532998 0.721116
Si Si3 0.569689 0.110278 0.480807
Si Si4 0.430261 0.692080 0.745166
Si Si5 0.426619 0.383344 0.052539
O O1 0.250000 0.432989 0.747707
O O2 0.521320 0.474792 0.746589
O O3 0.482474 0.384774 0.627117
O O4 0.476381 0.392370 0.894162
O O5 0.750000 0.534877 0.683726
O O6 0.477401 0.556382 0.592104
O O7 0.533462 0.565128 0.860220
O O8 0.750000 0.110953 0.505427
O O9 0.512681 0.158256 0.386173
O O10 0.250000 0.693810 0.746450
O O11 0.498553 0.750000 0.732785
O O12 0.483536 0.666141 0.888789
O O13 0.250000 0.369793 0.064738
#
# Coordination Sequence:
#
# PCOD8241522 Si02
#       5
#     8   8   8   8   8
#     4  11  21  33  49  74 108 138 167 205 248 294
#     4  10  19  33  52  74 102 138 176 207 244 294
#     4  10  20  34  52  75 103 135 170 207 250 298
#     4   9  19  37  59  78  96 124 166 213 256 300
#     4   9  20  35  52  76 104 134 168 207 249 299
#
# _framework density 18.404710999999999
#
# number of rings (size 3 to 8) (size 9 to 14) (size 15 to 20)
#    0.000    2.200    0.000    3.000    0.000    3.600 
#    0.000    1.000    0.000    3.600    0.000    0.000 
#    0.000    0.000    0.000    0.000    0.000    0.000 
#
# Total GULP energy -496125.925805 kJ/mol
# GULP energy per Si atom -12403.148145 kJ/mol
# Density = 1.836282 g / cm^3
# Si number density = 18.404711 Si / 1000 Ang^3
#
#
#
# Elastic Constant Matrix: (Units=GPa)
#
#
# Indices 1 2 3 4 5 6 
#
# 1 33.5191 16.0239 25.5276 0.0000 0.0000 0.0000
# 2 16.0239 118.2459 49.5398 0.0000 0.0000 0.0000
# 3 25.5276 49.5398 141.0000 0.0000 0.0000 0.0000
# 4 0.0000 0.0000 0.0000 12.6088 0.0000 0.0000
# 5 0.0000 0.0000 0.0000 0.0000 31.8217 0.0000
# 6 0.0000 0.0000 0.0000 0.0000 0.0000 24.8183
#
#
#
# Elastic Compliance Matrix: (Units=1/GPa)
#
#
# Indices 1 2 3 4 5 6 
#
# 1 0.035207 -0.002463 -0.005509 0.000000 0.000000 0.000000
# 2 -0.002463 0.010089 -0.003099 0.000000 0.000000 0.000000
# 3 -0.005509 -0.003099 0.009178 0.000000 0.000000 0.000000
# 4 0.000000 0.000000 0.000000 0.079310 0.000000 0.000000
# 5 0.000000 0.000000 0.000000 0.000000 0.031425 0.000000
# 6 0.000000 0.000000 0.000000 0.000000 0.000000 0.040293
#
#
# Mechanical properties :
#
#
# Convention : Reuss Voigt Hill
#
# Bulk Modulus (GPa) = 30.92838 52.77195 41.85017
# Shear Modulus (GPa) = 20.97138 27.29467 24.13303
#
# Velocity S-wave (km/s) = 3.37925 3.85519 3.62504
# Velocity P-wave (km/s) = 5.66276 6.96792 6.34897
#
# Compressibility (1/GPa) = 0.03233276
#
# Stress axis : x y z
#
# Youngs Moduli (GPa) = 28.40381 99.11789 108.95310
#
# Poissons Ratio (x) = 0.24414 0.60018
# Poissons Ratio (y) = 0.06996 0.33762
# Poissons Ratio (z) = 0.15647 0.30715
#
# Static dielectric constant tensor:
#      x y z
#    x 3.352500 0.000000 0.000000 
#    y 0.000000 3.409880 0.000000 
#    z 0.000000 0.000000 3.625230 
# 
# 
# High freq. dielectric constant tensor:
#      x y z
#    x 1.717010 0.000000 0.000000 
#    y 0.000000 1.696690 0.000000 
#    z 0.000000 0.000000 1.720200 
# 
# From -- ./inp_files/5630.got.cif
#   From: 2010.03.12/outbox.cif.g09.slc.cpg/sg59_3_cif.got.tgz:5630.got - 2010.04.16 16:29:54.
