data_PCOD8241163
_publ_section_title
;
Structure prediction by ZEFSAII (Michael W. Deem and Ramdas Pophale) SiO2 
 PCOD8241163
Probable space group: P M M N
;
_chemical_formula_sum "Si O2"
_cell_formula_units_Z 48
_cell_length_a 9.145040
_cell_length_b 17.058202
_cell_length_c 16.441943
_cell_angle_alpha 90.000000
_cell_angle_beta 90.000000
_cell_angle_gamma 90.000000
_cell_volume 2564.909231
_symmetry_space_group_name_H-M "P M M N"
_symmetry_group_IT_number 59
_space_group.IT_coordinate_system_code '2'
_symmetry_cell_setting 'orthorhombic'
loop_
_space_group_symop_operation_xyz
x,y,z
1/2-x,1/2-y,z
1/2+x,-y,-z
-x,1/2+y,-z
-x,-y,-z
1/2+x,1/2+y,-z
1/2-x,y,z
x,1/2-y,z
loop_
_atom_site_type_symbol
_atom_site_label
_atom_site_fract_x
_atom_site_fract_y
_atom_site_fract_z
Si Si1 0.077906 0.921121 0.021595
Si Si2 0.423750 0.750000 0.296639
Si Si3 0.079708 0.546305 0.727517
Si Si4 0.576638 0.164815 0.137661
Si Si5 0.078623 0.923246 0.540702
Si Si6 0.576592 0.250000 0.520828
Si Si7 0.423043 0.899868 0.204115
O O1 0.250000 0.935209 0.019722
O O2 0.025103 0.894397 0.110604
O O3 0.028749 0.859210 0.953319
O O4 0.000000 0.000000 0.000000
O O5 0.250000 0.750000 0.298251
O O6 0.484051 0.750000 0.387799
O O7 0.484618 0.823763 0.248273
O O8 0.250000 0.530575 0.743003
O O9 0.015589 0.608773 0.791941
O O10 0.049566 0.574951 0.636691
O O11 0.991542 0.468534 0.743983
O O12 0.750000 0.167048 0.143584
O O13 0.508954 0.250000 0.154201
O O14 0.250000 0.931223 0.519072
O O15 0.021254 0.834877 0.515628
O O16 0.000000 0.000000 0.500000
O O17 0.750000 0.250000 0.512924
O O18 0.250000 0.907504 0.209289
#
# Coordination Sequence:
#
# PCOD8241163 Si02
#       7
#     8   4   8   8   8   4   8
#     4  10  19  32  51  74 101 135 171 209 253 301
#     4   9  18  32  51  76 104 133 170 215 257 303
#     4  10  20  34  54  79 105 135 172 214 260 309
#     4   9  18  31  50  75 104 136 171 212 254 299
#     4  10  21  36  57  82 108 139 177 220 267 319
#     4   9  18  34  55  78 106 139 174 217 267 319
#     4  10  20  33  53  78 105 138 175 213 254 304
#
# _framework density 18.714112
#
# number of rings (size 3 to 8) (size 9 to 14) (size 15 to 20)
#    0.000    2.333    1.667    1.000    2.333    2.000 
#    0.000    0.833    0.000    5.000    0.000    0.000 
#    0.000    0.000    0.000    0.000    0.000    0.000 
#
# Total GULP energy -594785.189057 kJ/mol
# GULP energy per Si atom -12391.358105 kJ/mol
# Density = 1.867152 g / cm^3
# Si number density = 18.714112 Si / 1000 Ang^3
#
#
#
# Elastic Constant Matrix: (Units=GPa)
#
#
# Indices 1 2 3 4 5 6 
#
# 1 15.1445 27.0318 24.5630 0.0000 0.0000 0.0000
# 2 27.0318 189.4481 84.2318 0.0000 0.0000 0.0000
# 3 24.5630 84.2318 157.4577 0.0000 0.0000 0.0000
# 4 0.0000 0.0000 0.0000 29.4336 0.0000 0.0000
# 5 0.0000 0.0000 0.0000 0.0000 21.8348 0.0000
# 6 0.0000 0.0000 0.0000 0.0000 0.0000 25.2674
#
#
#
# Elastic Compliance Matrix: (Units=1/GPa)
#
#
# Indices 1 2 3 4 5 6 
#
# 1 0.100239 -0.009644 -0.010478 0.000000 0.000000 0.000000
# 2 -0.009644 0.007854 -0.002697 0.000000 0.000000 0.000000
# 3 -0.010478 -0.002697 0.009428 0.000000 0.000000 0.000000
# 4 0.000000 0.000000 0.000000 0.033975 0.000000 0.000000
# 5 0.000000 0.000000 0.000000 0.000000 0.045798 0.000000
# 6 0.000000 0.000000 0.000000 0.000000 0.000000 0.039577
#
#
# Mechanical properties :
#
#
# Convention : Reuss Voigt Hill
#
# Bulk Modulus (GPa) = 13.91154 70.41152 42.16153
# Shear Modulus (GPa) = 16.31486 30.38872 23.35179
#
# Velocity S-wave (km/s) = 2.95582 4.03406 3.53628
# Velocity P-wave (km/s) = 4.37024 7.70744 6.26513
#
# Compressibility (1/GPa) = 0.07188276
#
# Stress axis : x y z
#
# Youngs Moduli (GPa) = 9.97619 127.32956 106.06572
#
# Poissons Ratio (x) = 1.22798 1.11135
# Poissons Ratio (y) = 0.09621 0.28604
# Poissons Ratio (z) = 0.10453 0.34339
#
# Static dielectric constant tensor:
#      x y z
#    x 3.362490 0.000000 0.000000 
#    y 0.000000 3.853110 0.000000 
#    z 0.000000 0.000000 3.532120 
# 
# 
# High freq. dielectric constant tensor:
#      x y z
#    x 1.678280 0.000000 0.000000 
#    y 0.000000 1.741660 0.000000 
#    z 0.000000 0.000000 1.747770 
# 
# From -- ./inp_files/20604.got.cif
#   From: 2010.03.12/outbox.cif.g09.slc.cpg/sg59_11_cif.got.tgz:20604.got - 2010.04.16 16:29:54.
