data_PCOD8241821
_publ_section_title
;
Structure prediction by ZEFSAII (Michael W. Deem and Ramdas Pophale) SiO2 
 PCOD8241821
Probable space group: P M M N
;
_chemical_formula_sum "Si O2"
_cell_formula_units_Z 64
_cell_length_a 19.053318
_cell_length_b 9.211911
_cell_length_c 20.329820
_cell_angle_alpha 90.000000
_cell_angle_beta 90.000000
_cell_angle_gamma 90.000000
_cell_volume 3568.238565
_symmetry_space_group_name_H-M "P M M N"
_symmetry_group_IT_number 59
_space_group.IT_coordinate_system_code '2'
_symmetry_cell_setting 'orthorhombic'
loop_
_space_group_symop_operation_xyz
x,y,z
1/2-x,1/2-y,z
1/2+x,-y,-z
-x,1/2+y,-z
-x,-y,-z
1/2+x,1/2+y,-z
1/2-x,y,z
x,1/2-y,z
loop_
_atom_site_type_symbol
_atom_site_label
_atom_site_fract_x
_atom_site_fract_y
_atom_site_fract_z
Si Si1 0.167608 0.083000 0.073150
Si Si2 0.429859 0.577375 0.976379
Si Si3 0.169476 0.578989 0.716906
Si Si4 0.833553 0.912366 0.411870
Si Si5 0.410278 0.079112 0.205762
Si Si6 0.666662 0.089177 0.534457
Si Si7 0.170131 0.578366 0.318918
Si Si8 0.064680 0.578555 0.827534
O O1 0.250000 0.057596 0.074316
O O2 0.147820 0.250000 0.057481
O O3 0.137529 0.037277 0.143714
O O4 0.135933 0.978860 0.017811
O O5 0.438276 0.750000 0.984070
O O6 0.415719 0.530654 0.901191
O O7 0.500000 0.500000 0.000000
O O8 0.250000 0.537167 0.731480
O O9 0.160783 0.750000 0.706740
O O10 0.140896 0.503060 0.651083
O O11 0.123781 0.518986 0.777829
O O12 0.750000 0.912135 0.414686
O O13 0.863578 0.750000 0.406392
O O14 0.864402 0.983191 0.478602
O O15 0.409443 0.250000 0.218658
O O16 0.488297 0.018323 0.192334
O O17 0.381712 0.001297 0.269960
O O18 0.750000 0.097160 0.529157
O O19 0.635594 0.250000 0.522446
O O20 0.646488 0.033258 0.607289
O O21 0.250000 0.527705 0.305512
O O22 0.163987 0.750000 0.309745
O O23 0.062119 0.750000 0.823603
#
# Coordination Sequence:
#
# PCOD8241821 Si02
#       8
#     8   8   8   8   8   8   8   8
#     4  10  21  37  56  80 110 142 177 218 266 318
#     4  11  21  37  59  80 106 139 178 221 266 317
#     4   9  17  31  52  75  98 128 166 208 256 306
#     4   9  16  26  43  70 102 130 160 205 254 301
#     4  10  19  34  53  72 100 139 176 209 254 310
#     4   8  14  26  44  66  95 132 168 203 249 302
#     4   9  18  31  47  72 105 134 167 215 260 298
#     4   9  19  35  55  76 100 133 173 213 251 307
#
# _framework density 17.936019999999999
#
# number of rings (size 3 to 8) (size 9 to 14) (size 15 to 20)
#    0.000    2.625    1.250    1.875    0.000    4.000 
#    0.000    4.375    0.000    2.250    0.000    0.000 
#    0.000    0.000    0.000    0.000    0.000    0.000 
#
# Total GULP energy -793526.120371 kJ/mol
# GULP energy per Si atom -12398.845631 kJ/mol
# Density = 1.789520 g / cm^3
# Si number density = 17.936020 Si / 1000 Ang^3
#
#
#
# Elastic Constant Matrix: (Units=GPa)
#
#
# Indices 1 2 3 4 5 6 
#
# 1 80.6940 35.0629 65.7325 0.0000 0.0000 0.0000
# 2 35.0629 66.1471 65.6967 0.0000 0.0000 0.0000
# 3 65.7325 65.6967 177.9622 0.0000 0.0000 0.0000
# 4 0.0000 0.0000 0.0000 30.0555 0.0000 0.0000
# 5 0.0000 0.0000 0.0000 0.0000 24.3663 0.0000
# 6 0.0000 0.0000 0.0000 0.0000 0.0000 20.2170
#
#
#
# Elastic Compliance Matrix: (Units=1/GPa)
#
#
# Indices 1 2 3 4 5 6 
#
# 1 0.018645 -0.004805 -0.005113 0.000000 0.000000 0.000000
# 2 -0.004805 0.025108 -0.007494 0.000000 0.000000 0.000000
# 3 -0.005113 -0.007494 0.010274 0.000000 0.000000 0.000000
# 4 0.000000 0.000000 0.000000 0.033272 0.000000 0.000000
# 5 0.000000 0.000000 0.000000 0.000000 0.041040 0.000000
# 6 0.000000 0.000000 0.000000 0.000000 0.000000 0.049463
#
#
# Mechanical properties :
#
#
# Convention : Reuss Voigt Hill
#
# Bulk Modulus (GPa) = 52.07505 73.08750 62.58127
# Shear Modulus (GPa) = 22.82806 25.48183 24.15495
#
# Velocity S-wave (km/s) = 3.57143 3.77332 3.67376
# Velocity P-wave (km/s) = 6.78997 7.73443 7.27753
#
# Compressibility (1/GPa) = 0.01920305
#
# Stress axis : x y z
#
# Youngs Moduli (GPa) = 53.63232 39.82804 97.33124
#
# Poissons Ratio (x) = 0.19139 0.49765
# Poissons Ratio (y) = 0.25772 0.72940
# Poissons Ratio (z) = 0.27422 0.29847
#
# Static dielectric constant tensor:
#      x y z
#    x 3.177750 0.000000 0.000000 
#    y 0.000000 3.271370 0.000000 
#    z 0.000000 0.000000 3.613510 
# 
# 
# High freq. dielectric constant tensor:
#      x y z
#    x 1.666640 0.000000 0.000000 
#    y 0.000000 1.680730 0.000000 
#    z 0.000000 0.000000 1.708950 
# 
# From -- ./inp_files/30686.got.cif
#   From: 2010.03.12/outbox.cif.g09.slc.cpg/sg59_16_cif.got.tgz:30686.got - 2010.04.16 16:29:54.
