data_PCOD8241314
_publ_section_title
;
Structure prediction by ZEFSAII (Michael W. Deem and Ramdas Pophale) SiO2 
 PCOD8241314
Probable space group: P M M N
;
_chemical_formula_sum "Si O2"
_cell_formula_units_Z 64
_cell_length_a 8.815807
_cell_length_b 28.191550
_cell_length_c 13.966713
_cell_angle_alpha 90.000000
_cell_angle_beta 90.000000
_cell_angle_gamma 90.000000
_cell_volume 3471.164833
_symmetry_space_group_name_H-M "P M M N"
_symmetry_group_IT_number 59
_space_group.IT_coordinate_system_code '2'
_symmetry_cell_setting 'orthorhombic'
loop_
_space_group_symop_operation_xyz
x,y,z
1/2-x,1/2-y,z
1/2+x,-y,-z
-x,1/2+y,-z
-x,-y,-z
1/2+x,1/2+y,-z
1/2-x,y,z
x,1/2-y,z
loop_
_atom_site_type_symbol
_atom_site_label
_atom_site_fract_x
_atom_site_fract_y
_atom_site_fract_z
Si Si1 0.922028 0.643278 0.582941
Si Si2 0.574951 0.938253 0.737362
Si Si3 0.574152 0.303493 0.767561
Si Si4 0.069479 0.627280 0.880043
Si Si5 0.926820 0.878867 0.371148
Si Si6 0.571616 0.987139 0.396139
Si Si7 0.427707 0.800429 0.725615
Si Si8 0.428613 0.303824 0.970912
O O1 0.750000 0.660412 0.582453
O O2 0.946512 0.599465 0.653286
O O3 0.978945 0.630761 0.478783
O O4 0.024512 0.686714 0.618196
O O5 0.750000 0.950253 0.756740
O O6 0.502028 0.922333 0.840835
O O7 0.490096 0.983566 0.694318
O O8 0.750000 0.310673 0.794518
O O9 0.548541 0.250000 0.725548
O O10 0.525941 0.344381 0.694307
O O11 0.472154 0.309878 0.860970
O O12 0.250000 0.621632 0.886609
O O13 0.005402 0.663078 0.800674
O O14 0.008715 0.651255 0.977078
O O15 0.750000 0.868041 0.353323
O O16 0.964083 0.934184 0.358786
O O17 0.750000 0.995152 0.409485
O O18 0.500000 0.000000 0.500000
O O19 0.250000 0.799533 0.733466
O O20 0.498373 0.750000 0.752698
O O21 0.250000 0.309745 0.983547
O O22 0.478736 0.250000 0.005086
#
# Coordination Sequence:
#
# PCOD8241314 Si02
#       8
#     8   8   8   8   8   8   8   8
#     4   9  18  32  47  67  98 136 176 217 262 314
#     4  10  19  34  52  77 111 144 181 225 272 326
#     4  10  22  39  58  82 110 141 182 231 277 325
#     4  10  19  32  52  78 107 142 180 223 274 327
#     4  10  21  37  55  78 108 143 184 227 273 326
#     4  11  21  35  56  82 111 146 188 232 276 324
#     4   9  18  30  43  65  99 136 173 214 260 312
#     4  10  20  35  57  83 109 142 183 228 279 333
#
# _framework density 18.437614
#
# number of rings (size 3 to 8) (size 9 to 14) (size 15 to 20)
#    0.000    2.125    1.250    2.250    0.000    5.250 
#    0.000    2.500    0.000    0.750    0.000    0.000 
#    0.000    0.000    0.000    0.000    0.000    0.000 
#
# Total GULP energy -792924.623679 kJ/mol
# GULP energy per Si atom -12389.447245 kJ/mol
# Density = 1.839565 g / cm^3
# Si number density = 18.437614 Si / 1000 Ang^3
#
#
#
# Elastic Constant Matrix: (Units=GPa)
#
#
# Indices 1 2 3 4 5 6 
#
# 1 71.4004 38.9889 26.3594 0.0000 0.0000 0.0000
# 2 38.9889 80.9501 33.6417 0.0000 0.0000 0.0000
# 3 26.3594 33.6417 54.5659 0.0000 0.0000 0.0000
# 4 0.0000 0.0000 0.0000 53.5287 0.0000 0.0000
# 5 0.0000 0.0000 0.0000 0.0000 32.8179 0.0000
# 6 0.0000 0.0000 0.0000 0.0000 0.0000 28.2493
#
#
#
# Elastic Compliance Matrix: (Units=1/GPa)
#
#
# Indices 1 2 3 4 5 6 
#
# 1 0.019968 -0.007541 -0.004997 0.000000 0.000000 0.000000
# 2 -0.007541 0.019457 -0.008353 0.000000 0.000000 0.000000
# 3 -0.004997 -0.008353 0.025890 0.000000 0.000000 0.000000
# 4 0.000000 0.000000 0.000000 0.018682 0.000000 0.000000
# 5 0.000000 0.000000 0.000000 0.000000 0.030471 0.000000
# 6 0.000000 0.000000 0.000000 0.000000 0.000000 0.035399
#
#
# Mechanical properties :
#
#
# Convention : Reuss Voigt Hill
#
# Bulk Modulus (GPa) = 42.49235 44.98848 43.74041
# Shear Modulus (GPa) = 25.06366 30.11429 27.58898
#
# Velocity S-wave (km/s) = 3.69097 4.04580 3.87245
# Velocity P-wave (km/s) = 6.42347 6.80280 6.61585
#
# Compressibility (1/GPa) = 0.02353365
#
# Stress axis : x y z
#
# Youngs Moduli (GPa) = 50.08028 51.39649 38.62476
#
# Poissons Ratio (x) = 0.38757 0.19300
# Poissons Ratio (y) = 0.37764 0.32263
# Poissons Ratio (z) = 0.25024 0.42931
#
# Static dielectric constant tensor:
#      x y z
#    x 3.393800 0.000000 0.000000 
#    y 0.000000 3.854650 0.000000 
#    z 0.000000 0.000000 3.327550 
# 
# 
# High freq. dielectric constant tensor:
#      x y z
#    x 1.720650 0.000000 0.000000 
#    y 0.000000 1.709780 0.000000 
#    z 0.000000 0.000000 1.699860 
# 
# From -- ./inp_files/15026.got.cif
#   From: 2010.03.12/outbox.cif.g09.slc.cpg/sg59_8_cif.got.tgz:15026.got - 2010.04.16 16:29:54.
