data_PCOD8241589
_publ_section_title
;
Structure prediction by ZEFSAII (Michael W. Deem and Ramdas Pophale) SiO2 
 PCOD8241589
Probable space group: P M M N
;
_chemical_formula_sum "Si O2"
_cell_formula_units_Z 64
_cell_length_a 22.337439
_cell_length_b 16.266752
_cell_length_c 9.027675
_cell_angle_alpha 90.000000
_cell_angle_beta 90.000000
_cell_angle_gamma 90.000000
_cell_volume 3280.274146
_symmetry_space_group_name_H-M "P M M N"
_symmetry_group_IT_number 59
_space_group.IT_coordinate_system_code '2'
_symmetry_cell_setting 'orthorhombic'
loop_
_space_group_symop_operation_xyz
x,y,z
1/2-x,1/2-y,z
1/2+x,-y,-z
-x,1/2+y,-z
-x,-y,-z
1/2+x,1/2+y,-z
1/2-x,y,z
x,1/2-y,z
loop_
_atom_site_type_symbol
_atom_site_label
_atom_site_fract_x
_atom_site_fract_y
_atom_site_fract_z
Si Si1 0.000373 0.658214 0.011669
Si Si2 0.866345 0.465075 0.598012
Si Si3 0.181283 0.495511 0.079416
Si Si4 0.316243 0.842212 0.614787
Si Si5 0.900992 0.427304 0.164312
Si Si6 0.865026 0.845055 0.074143
Si Si7 0.596417 0.582584 0.356793
Si Si8 0.471476 0.843113 0.345173
O O1 0.000356 0.750000 0.949426
O O2 0.033474 0.653893 0.168478
O O3 0.035715 0.604184 0.894448
O O4 0.932220 0.628105 0.027495
O O5 0.846544 0.492193 0.759484
O O6 0.817445 0.406234 0.521785
O O7 0.872301 0.550622 0.506689
O O8 0.927196 0.411525 0.590285
O O9 0.250000 0.523923 0.080214
O O10 0.178704 0.400249 0.026120
O O11 0.144306 0.551094 0.966817
O O12 0.250000 0.850082 0.686530
O O13 0.326797 0.750000 0.554424
O O14 0.366785 0.860538 0.736445
O O15 0.922012 0.503527 0.261429
O O16 0.850435 0.750000 0.043994
O O17 0.858807 0.863606 0.251527
O O18 0.538454 0.635837 0.399709
O O19 0.456081 0.750000 0.400004
#
# Coordination Sequence:
#
# PCOD8241589 Si02
#       8
#     8   8   8   8   8   8   8   8
#     4   9  17  31  55  84 113 144 179 230 290 340
#     4  11  21  36  54  81 115 151 190 231 280 333
#     4  11  23  37  58  84 114 151 189 235 280 328
#     4  10  21  37  54  74 109 155 197 235 273 324
#     4  10  19  34  57  83 111 140 191 238 280 332
#     4   9  20  39  61  84 111 146 186 233 286 340
#     4   9  20  33  57  81 107 147 184 230 280 338
#     4  10  19  33  53  80 116 151 183 223 281 343
#
# _framework density 19.510563000000001
#
# number of rings (size 3 to 8) (size 9 to 14) (size 15 to 20)
#    0.000    2.125    1.250    3.000    1.750    1.750 
#    0.000    1.875    0.000    3.000    0.000    0.000 
#    0.000    0.000    0.000    0.000    0.000    0.000 
#
# Total GULP energy -793373.952453 kJ/mol
# GULP energy per Si atom -12396.468007 kJ/mol
# Density = 1.946616 g / cm^3
# Si number density = 19.510563 Si / 1000 Ang^3
#
#
#
# Elastic Constant Matrix: (Units=GPa)
#
#
# Indices 1 2 3 4 5 6 
#
# 1 53.1886 17.5774 21.7093 0.0000 0.0000 0.0000
# 2 17.5774 71.9122 25.8001 0.0000 0.0000 0.0000
# 3 21.7093 25.8001 87.8929 0.0000 0.0000 0.0000
# 4 0.0000 0.0000 0.0000 22.0452 0.0000 0.0000
# 5 0.0000 0.0000 0.0000 0.0000 21.6525 0.0000
# 6 0.0000 0.0000 0.0000 0.0000 0.0000 27.0400
#
#
#
# Elastic Compliance Matrix: (Units=1/GPa)
#
#
# Indices 1 2 3 4 5 6 
#
# 1 0.021798 -0.003796 -0.004270 0.000000 0.000000 0.000000
# 2 -0.003796 0.016204 -0.003819 0.000000 0.000000 0.000000
# 3 -0.004270 -0.003819 0.013553 0.000000 0.000000 0.000000
# 4 0.000000 0.000000 0.000000 0.045361 0.000000 0.000000
# 5 0.000000 0.000000 0.000000 0.000000 0.046184 0.000000
# 6 0.000000 0.000000 0.000000 0.000000 0.000000 0.036982
#
#
# Mechanical properties :
#
#
# Convention : Reuss Voigt Hill
#
# Bulk Modulus (GPa) = 35.98990 38.12969 37.05979
# Shear Modulus (GPa) = 23.46156 24.00799 23.73477
#
# Velocity S-wave (km/s) = 3.47148 3.51167 3.49163
# Velocity P-wave (km/s) = 5.87832 6.00233 5.94065
#
# Compressibility (1/GPa) = 0.02778557
#
# Stress axis : x y z
#
# Youngs Moduli (GPa) = 45.87506 61.71377 73.78403
#
# Poissons Ratio (x) = 0.23428 0.31504
# Poissons Ratio (y) = 0.17415 0.28177
# Poissons Ratio (z) = 0.19588 0.23567
#
# Static dielectric constant tensor:
#      x y z
#    x 3.405000 0.000000 0.000000 
#    y 0.000000 3.678500 0.000000 
#    z 0.000000 0.000000 3.558830 
# 
# 
# High freq. dielectric constant tensor:
#      x y z
#    x 1.746430 0.000000 0.000000 
#    y 0.000000 1.765130 0.000000 
#    z 0.000000 0.000000 1.750300 
# 
# From -- ./inp_files/12247.got.cif
#   From: 2010.03.12/outbox.cif.g09.slc.cpg/sg59_7_cif.got.tgz:12247.got - 2010.04.16 16:29:54.
