data_PCOD8241458
_publ_section_title
;
Structure prediction by ZEFSAII (Michael W. Deem and Ramdas Pophale) SiO2 
 PCOD8241458
Probable space group: P M M N
;
_chemical_formula_sum "Si O2"
_cell_formula_units_Z 56
_cell_length_a 9.108895
_cell_length_b 14.832433
_cell_length_c 21.456545
_cell_angle_alpha 90.000000
_cell_angle_beta 90.000000
_cell_angle_gamma 90.000000
_cell_volume 2898.931030
_symmetry_space_group_name_H-M "P M M N"
_symmetry_group_IT_number 59
_space_group.IT_coordinate_system_code '2'
_symmetry_cell_setting 'orthorhombic'
loop_
_space_group_symop_operation_xyz
x,y,z
1/2-x,1/2-y,z
1/2+x,-y,-z
-x,1/2+y,-z
-x,-y,-z
1/2+x,1/2+y,-z
1/2-x,y,z
x,1/2-y,z
loop_
_atom_site_type_symbol
_atom_site_label
_atom_site_fract_x
_atom_site_fract_y
_atom_site_fract_z
Si Si1 0.922153 0.508961 0.090386
Si Si2 0.577452 0.503908 0.232652
Si Si3 0.922897 0.145640 0.995919
Si Si4 0.084575 0.350479 0.301496
Si Si5 0.083565 0.416645 0.434142
Si Si6 0.085218 0.850254 0.312041
Si Si7 0.418999 0.401076 0.570771
O O1 0.750000 0.526821 0.084414
O O2 0.974086 0.498723 0.161310
O O3 0.001709 0.597320 0.062927
O O4 0.965445 0.414926 0.056245
O O5 0.750000 0.514322 0.238120
O O6 0.530633 0.413381 0.267253
O O7 0.506096 0.589558 0.265024
O O8 0.750000 0.144853 0.984489
O O9 0.977310 0.250000 0.003912
O O10 0.250000 0.382024 0.285166
O O11 0.055763 0.250000 0.277180
O O12 0.062608 0.349694 0.376273
O O13 0.250000 0.456416 0.435461
O O14 0.055116 0.365349 0.499966
O O15 0.965484 0.494995 0.425332
O O16 0.250000 0.889355 0.317441
O O17 0.086694 0.750000 0.284111
O O18 0.015406 0.844966 0.380817
O O19 0.250000 0.392052 0.590798
#
# Coordination Sequence:
#
# PCOD8241458 Si02
#       7
#     8   8   8   8   8   8   8
#     4   9  20  37  57  84 117 150 183 225 275 320
#     4  11  23  39  59  83 113 150 191 234 279 328
#     4   9  18  35  60  88 117 149 184 220 262 319
#     4  10  21  37  57  81 111 149 189 229 279 338
#     4   9  18  33  54  79 110 145 180 226 286 345
#     4  11  24  40  57  78 108 148 191 237 290 344
#     4  10  19  32  55  83 108 138 182 234 287 343
#
# _framework density 19.317466
#
# number of rings (size 3 to 8) (size 9 to 14) (size 15 to 20)
#    0.000    2.143    1.429    1.286    0.000    5.143 
#    0.000    5.714    0.000    0.000    0.000    0.000 
#    0.000    0.000    0.000    0.000    0.000    0.000 
#
# Total GULP energy -694270.540287 kJ/mol
# GULP energy per Si atom -12397.688219 kJ/mol
# Density = 1.927350 g / cm^3
# Si number density = 19.317466 Si / 1000 Ang^3
#
#
#
# Elastic Constant Matrix: (Units=GPa)
#
#
# Indices 1 2 3 4 5 6 
#
# 1 79.1395 39.4334 53.8839 0.0000 0.0000 0.0000
# 2 39.4334 117.4670 56.2705 0.0000 0.0000 0.0000
# 3 53.8839 56.2705 141.5713 0.0000 0.0000 0.0000
# 4 0.0000 0.0000 0.0000 -9.3805 0.0000 0.0000
# 5 0.0000 0.0000 0.0000 0.0000 27.8020 0.0000
# 6 0.0000 0.0000 0.0000 0.0000 0.0000 18.5414
#
#
#
# Elastic Compliance Matrix: (Units=1/GPa)
#
#
# Indices 1 2 3 4 5 6 
#
# 1 0.018110 -0.003431 -0.005529 0.000000 0.000000 0.000000
# 2 -0.003431 0.011165 -0.003132 0.000000 0.000000 0.000000
# 3 -0.005529 -0.003132 0.010413 0.000000 0.000000 0.000000
# 4 0.000000 0.000000 0.000000 -0.106604 0.000000 0.000000
# 5 0.000000 0.000000 0.000000 0.000000 0.035969 0.000000
# 6 0.000000 0.000000 0.000000 0.000000 0.000000 0.053933
#
#
# Mechanical properties :
#
#
# Convention : Reuss Voigt Hill
#
# Bulk Modulus (GPa) = 64.49953 70.81704 67.65828
# Shear Modulus (GPa) = 95.53202 19.96524 57.74863
#
# Velocity S-wave (km/s) = 7.03996 3.21835 5.47352
# Velocity P-wave (km/s) = 9.97713 7.10982 8.66293
#
# Compressibility (1/GPa) = 0.01550399
#
# Stress axis : x y z
#
# Youngs Moduli (GPa) = 55.21761 89.56512 96.03400
#
# Poissons Ratio (x) = 0.30728 0.53100
# Poissons Ratio (y) = 0.18944 0.30078
# Poissons Ratio (z) = 0.30532 0.28052
#
# Static dielectric constant tensor:
#      x y z
#    x 3.547550 0.000000 0.000000 
#    y 0.000000 3.400070 0.000000 
#    z 0.000000 0.000000 3.665800 
# 
# 
# High freq. dielectric constant tensor:
#      x y z
#    x 1.752670 0.000000 0.000000 
#    y 0.000000 1.744130 0.000000 
#    z 0.000000 0.000000 1.751530 
# 
# From -- ./inp_files/29030.got.cif
#   From: 2010.03.12/outbox.cif.g09.slc.cpg/sg59_15_cif.got.tgz:29030.got - 2010.04.16 16:29:54.
