data_PCOD8241593
_publ_section_title
;
Structure prediction by ZEFSAII (Michael W. Deem and Ramdas Pophale) SiO2 
 PCOD8241593
Probable space group: P M M N
;
_chemical_formula_sum "Si O2"
_cell_formula_units_Z 56
_cell_length_a 23.123146
_cell_length_b 8.417058
_cell_length_c 15.449090
_cell_angle_alpha 90.000000
_cell_angle_beta 90.000000
_cell_angle_gamma 90.000000
_cell_volume 3006.838791
_symmetry_space_group_name_H-M "P M M N"
_symmetry_group_IT_number 59
_space_group.IT_coordinate_system_code '2'
_symmetry_cell_setting 'orthorhombic'
loop_
_space_group_symop_operation_xyz
x,y,z
1/2-x,1/2-y,z
1/2+x,-y,-z
-x,1/2+y,-z
-x,-y,-z
1/2+x,1/2+y,-z
1/2-x,y,z
x,1/2-y,z
loop_
_atom_site_type_symbol
_atom_site_label
_atom_site_fract_x
_atom_site_fract_y
_atom_site_fract_z
Si Si1 0.559178 0.563856 0.697390
Si Si2 0.063013 0.064870 0.983739
Si Si3 0.866988 0.065919 0.169868
Si Si4 0.750000 0.563429 0.887341
Si Si5 0.567697 0.565118 0.324198
Si Si6 0.628411 0.434267 0.855491
Si Si7 0.937099 0.935053 0.510886
Si Si8 0.750000 0.062204 0.079478
O O1 0.569585 0.750000 0.715677
O O2 0.490208 0.532420 0.699257
O O3 0.591404 0.462166 0.769590
O O4 0.586954 0.505316 0.604341
O O5 0.061535 0.250000 0.960759
O O6 0.085090 0.967850 0.901764
O O7 0.103419 0.037746 0.066194
O O8 0.000000 0.000000 0.000000
O O9 0.866034 0.250000 0.192945
O O10 0.805220 0.008129 0.134669
O O11 0.881461 0.971320 0.257087
O O12 0.750000 0.750000 0.870436
O O13 0.694452 0.486390 0.840878
O O14 0.750000 0.529772 0.989432
O O15 0.551029 0.750000 0.321904
O O16 0.594426 0.519977 0.420113
O O17 0.625266 0.250000 0.881406
O O18 0.941560 0.750000 0.522944
O O19 0.000000 0.000000 0.500000
O O20 0.750000 0.250000 0.059769
#
# Coordination Sequence:
#
# PCOD8241593 Si02
#       8
#     8   8   8   4   8   8   8   4
#     4  10  19  34  55  82 112 145 185 227 273 327
#     4  12  24  38  55  79 109 144 180 221 272 328
#     4  11  22  37  56  79 107 142 181 226 274 322
#     4  12  24  40  62  83 104 139 188 231 272 324
#     4  10  19  33  53  82 115 147 181 222 275 331
#     4  12  24  39  57  80 111 145 181 227 276 325
#     4   8  16  30  51  77 109 144 180 222 269 323
#     4  10  22  40  60  77 104 141 184 229 274 318
#
# _framework density 18.624209
#
# number of rings (size 3 to 8) (size 9 to 14) (size 15 to 20)
#    0.000    1.429    1.429    5.357    0.000    1.714 
#    0.000    0.000    0.000    0.857    0.000    5.000 
#    0.000    0.000    0.000    0.000    0.000    0.000 
#
# Total GULP energy -694168.259828 kJ/mol
# GULP energy per Si atom -12395.861783 kJ/mol
# Density = 1.858182 g / cm^3
# Si number density = 18.624209 Si / 1000 Ang^3
#
#
#
# Elastic Constant Matrix: (Units=GPa)
#
#
# Indices 1 2 3 4 5 6 
#
# 1 51.9443 19.5767 1.0745 0.0000 0.0000 0.0000
# 2 19.5767 39.8766 17.8033 0.0000 0.0000 0.0000
# 3 1.0745 17.8033 101.8014 0.0000 0.0000 0.0000
# 4 0.0000 0.0000 0.0000 21.4382 0.0000 0.0000
# 5 0.0000 0.0000 0.0000 0.0000 10.5863 0.0000
# 6 0.0000 0.0000 0.0000 0.0000 0.0000 26.6354
#
#
#
# Elastic Compliance Matrix: (Units=1/GPa)
#
#
# Indices 1 2 3 4 5 6 
#
# 1 0.023977 -0.012645 0.001958 0.000000 0.000000 0.000000
# 2 -0.012645 0.033870 -0.005790 0.000000 0.000000 0.000000
# 3 0.001958 -0.005790 0.010815 0.000000 0.000000 0.000000
# 4 0.000000 0.000000 0.000000 0.046646 0.000000 0.000000
# 5 0.000000 0.000000 0.000000 0.000000 0.094462 0.000000
# 6 0.000000 0.000000 0.000000 0.000000 0.000000 0.037544
#
#
# Mechanical properties :
#
#
# Convention : Reuss Voigt Hill
#
# Bulk Modulus (GPa) = 28.00465 30.05904 29.03184
# Shear Modulus (GPa) = 17.11334 22.07649 19.59491
#
# Velocity S-wave (km/s) = 3.03459 3.44665 3.24716
# Velocity P-wave (km/s) = 5.22949 5.65809 5.44801
#
# Compressibility (1/GPa) = 0.03570835
#
# Stress axis : x y z
#
# Youngs Moduli (GPa) = 41.70735 29.52443 92.46491
#
# Poissons Ratio (x) = 0.37334 -0.18108
# Poissons Ratio (y) = 0.52740 0.53536
# Poissons Ratio (z) = -0.08168 0.17094
#
# Static dielectric constant tensor:
#      x y z
#    x 3.180540 0.000000 0.000000 
#    y 0.000000 3.542620 0.000000 
#    z 0.000000 0.000000 4.032230 
# 
# 
# High freq. dielectric constant tensor:
#      x y z
#    x 1.693280 0.000000 0.000000 
#    y 0.000000 1.733340 0.000000 
#    z 0.000000 0.000000 1.736780 
# 
# From -- ./inp_files/24337.got.cif
#   From: 2010.03.12/outbox.cif.g09.slc.cpg/sg59_13_cif.got.tgz:24337.got - 2010.04.16 16:29:54.
