data_PCOD8241051
_publ_section_title
;
Structure prediction by ZEFSAII (Michael W. Deem and Ramdas Pophale) SiO2 
 PCOD8241051
Probable space group: P M M N
;
_chemical_formula_sum "Si O2"
_cell_formula_units_Z 64
_cell_length_a 13.450047
_cell_length_b 20.654599
_cell_length_c 15.445961
_cell_angle_alpha 90.000000
_cell_angle_beta 90.000000
_cell_angle_gamma 90.000000
_cell_volume 4290.970251
_symmetry_space_group_name_H-M "P M M N"
_symmetry_group_IT_number 59
_space_group.IT_coordinate_system_code '2'
_symmetry_cell_setting 'orthorhombic'
loop_
_space_group_symop_operation_xyz
x,y,z
1/2-x,1/2-y,z
1/2+x,-y,-z
-x,1/2+y,-z
-x,-y,-z
1/2+x,1/2+y,-z
1/2-x,y,z
x,1/2-y,z
loop_
_atom_site_type_symbol
_atom_site_label
_atom_site_fract_x
_atom_site_fract_y
_atom_site_fract_z
Si Si1 0.450484 0.905125 0.845406
Si Si2 0.365311 0.673156 0.316561
Si Si3 0.362351 0.824908 0.998484
Si Si4 0.632928 0.320382 0.495850
Si Si5 0.865334 0.173185 0.308057
Si Si6 0.137100 0.025603 0.099180
Si Si7 0.050404 0.891970 0.154494
Si Si8 0.136882 0.036224 0.896695
O O1 0.423672 0.860931 0.925877
O O2 0.434403 0.865794 0.757524
O O3 0.566917 0.922647 0.853018
O O4 0.384120 0.969943 0.845250
O O5 0.250000 0.658839 0.295192
O O6 0.385280 0.750000 0.311055
O O7 0.395215 0.645482 0.412839
O O8 0.434960 0.633780 0.251399
O O9 0.250000 0.852216 0.000893
O O10 0.362263 0.750000 0.975243
O O11 0.414431 0.835197 0.090650
O O12 0.750000 0.309816 0.495967
O O13 0.581361 0.250000 0.495621
O O14 0.605190 0.354412 0.404350
O O15 0.750000 0.159305 0.286146
O O16 0.885889 0.250000 0.301713
O O17 0.250000 0.046411 0.117278
O O18 0.117407 0.954805 0.137258
O O19 0.112768 0.023791 0.997273
O O20 0.933995 0.907347 0.139917
O O21 0.250000 0.058277 0.881688
#
# Coordination Sequence:
#
# PCOD8241051 Si02
#       8
#     8   8   8   8   8   8   8   8
#     4  11  18  29  44  66  86 111 144 177 213 254
#     4   9  16  26  43  67  93 116 138 171 216 263
#     4  11  20  27  39  63  93 113 129 168 222 263
#     4   7  12  24  40  61  89 117 141 165 203 260
#     4   9  16  26  43  67  93 116 138 171 216 263
#     4  10  19  32  47  59  80 117 155 184 205 240
#     4  11  18  29  44  66  86 111 144 177 213 254
#     4  10  19  32  47  59  80 117 155 184 205 240
#
# _framework density 14.915042
#
# number of rings (size 3 to 8) (size 9 to 14) (size 15 to 20)
#    0.000    2.250    2.500    5.250    0.000    2.000 
#    0.000    0.000    0.000    6.750    0.000    2.625 
#    0.000    3.000    0.000    0.000    0.000    0.000 
#
# Total GULP energy -793197.551546 kJ/mol
# GULP energy per Si atom -12393.711743 kJ/mol
# Density = 1.488109 g / cm^3
# Si number density = 14.915042 Si / 1000 Ang^3
#
#
#
# Elastic Constant Matrix: (Units=GPa)
#
#
# Indices 1 2 3 4 5 6 
#
# 1 91.7462 32.5423 39.4960 0.0000 0.0000 0.0000
# 2 32.5423 45.7276 27.4112 0.0000 0.0000 0.0000
# 3 39.4960 27.4112 103.4569 0.0000 0.0000 0.0000
# 4 0.0000 0.0000 0.0000 9.3470 0.0000 0.0000
# 5 0.0000 0.0000 0.0000 0.0000 16.6536 0.0000
# 6 0.0000 0.0000 0.0000 0.0000 0.0000 21.0761
#
#
#
# Elastic Compliance Matrix: (Units=1/GPa)
#
#
# Indices 1 2 3 4 5 6 
#
# 1 0.015626 -0.008969 -0.003589 0.000000 0.000000 0.000000
# 2 -0.008969 0.031146 -0.004828 0.000000 0.000000 0.000000
# 3 -0.003589 -0.004828 0.012315 0.000000 0.000000 0.000000
# 4 0.000000 0.000000 0.000000 0.106986 0.000000 0.000000
# 5 0.000000 0.000000 0.000000 0.000000 0.060047 0.000000
# 6 0.000000 0.000000 0.000000 0.000000 0.000000 0.047447
#
#
# Mechanical properties :
#
#
# Convention : Reuss Voigt Hill
#
# Bulk Modulus (GPa) = 41.12745 48.86995 44.99870
# Shear Modulus (GPa) = 15.80057 18.84742 17.32399
#
# Velocity S-wave (km/s) = 3.25833 3.55864 3.41179
# Velocity P-wave (km/s) = 6.46452 7.05138 6.76431
#
# Compressibility (1/GPa) = 0.02431466
#
# Stress axis : x y z
#
# Youngs Moduli (GPa) = 63.99613 32.10733 81.19999
#
# Poissons Ratio (x) = 0.28796 0.29143
# Poissons Ratio (y) = 0.57397 0.39204
# Poissons Ratio (z) = 0.22969 0.15502
#
# Static dielectric constant tensor:
#      x y z
#    x 2.743740 0.000000 0.000000 
#    y 0.000000 2.743720 0.000000 
#    z 0.000000 0.000000 3.096850 
# 
# 
# High freq. dielectric constant tensor:
#      x y z
#    x 1.546190 0.000000 0.000000 
#    y 0.000000 1.549880 0.000000 
#    z 0.000000 0.000000 1.573230 
# 
# From -- ./inp_files/23470.got.cif
#   From: 2010.03.12/outbox.cif.g09.slc.cpg/sg59_12_cif.got.tgz:23470.got - 2010.04.16 16:29:54.
