data_PCOD8241303
_publ_section_title
;
Structure prediction by ZEFSAII (Michael W. Deem and Ramdas Pophale) SiO2 
 PCOD8241303
Probable space group: P M M N
;
_chemical_formula_sum "Si O2"
_cell_formula_units_Z 56
_cell_length_a 21.390932
_cell_length_b 8.732189
_cell_length_c 16.677112
_cell_angle_alpha 90.000000
_cell_angle_beta 90.000000
_cell_angle_gamma 90.000000
_cell_volume 3115.112099
_symmetry_space_group_name_H-M "P M M N"
_symmetry_group_IT_number 59
_space_group.IT_coordinate_system_code '2'
_symmetry_cell_setting 'orthorhombic'
loop_
_space_group_symop_operation_xyz
x,y,z
1/2-x,1/2-y,z
1/2+x,-y,-z
-x,1/2+y,-z
-x,-y,-z
1/2+x,1/2+y,-z
1/2-x,y,z
x,1/2-y,z
loop_
_atom_site_type_symbol
_atom_site_label
_atom_site_fract_x
_atom_site_fract_y
_atom_site_fract_z
Si Si1 0.941181 0.569480 0.452680
Si Si2 0.473637 0.426238 0.871496
Si Si3 0.320501 0.428508 0.447627
Si Si4 0.679730 0.574865 0.845002
Si Si5 0.581025 0.576633 0.967500
Si Si6 0.015806 0.570285 0.702938
Si Si7 0.382299 0.928315 0.301881
O O1 0.949542 0.750000 0.453993
O O2 0.874163 0.520112 0.489881
O O3 0.939019 0.509483 0.361596
O O4 0.000000 0.500000 0.500000
O O5 0.474478 0.250000 0.844587
O O6 0.538592 0.464055 0.915083
O O7 0.462723 0.525700 0.792298
O O8 0.419574 0.462710 0.937436
O O9 0.250000 0.464731 0.479892
O O10 0.327032 0.250000 0.427612
O O11 0.330118 0.521885 0.365671
O O12 0.750000 0.516346 0.850686
O O13 0.675374 0.750000 0.813711
O O14 0.651213 0.561376 0.934353
O O15 0.642184 0.464494 0.786373
O O16 0.555390 0.750000 0.955669
O O17 0.021343 0.750000 0.692691
O O18 0.945458 0.521139 0.682603
O O19 0.397388 0.750000 0.309257
#
# Coordination Sequence:
#
# PCOD8241303 Si02
#       7
#     8   8   8   8   8   8   8
#     4  11  22  37  59  85 113 145 183 228 276 331
#     4  10  19  32  52  78 104 135 175 222 268 318
#     4  10  22  40  60  81 110 149 186 222 272 336
#     4  10  20  34  52  75 108 148 182 214 261 325
#     4   9  18  32  51  75 105 139 175 214 261 317
#     4  12  23  36  55  79 111 147 183 229 280 328
#     4  12  23  34  52  80 112 146 184 225 272 328
#
# _framework density 17.976882
#
# number of rings (size 3 to 8) (size 9 to 14) (size 15 to 20)
#    0.000    1.429    2.857    3.857    0.000    3.429 
#    0.000    0.000    0.000    0.857    0.000    4.000 
#    0.000    0.000    0.000    0.000    0.000    0.000 
#
# Total GULP energy -694385.620996 kJ/mol
# GULP energy per Si atom -12399.743232 kJ/mol
# Density = 1.793597 g / cm^3
# Si number density = 17.976882 Si / 1000 Ang^3
#
#
#
# Elastic Constant Matrix: (Units=GPa)
#
#
# Indices 1 2 3 4 5 6 
#
# 1 100.2084 31.6711 51.6475 0.0000 0.0000 0.0000
# 2 31.6711 70.6250 32.5840 0.0000 0.0000 0.0000
# 3 51.6475 32.5840 109.0172 0.0000 0.0000 0.0000
# 4 0.0000 0.0000 0.0000 30.4070 0.0000 0.0000
# 5 0.0000 0.0000 0.0000 0.0000 23.5532 0.0000
# 6 0.0000 0.0000 0.0000 0.0000 0.0000 18.9961
#
#
#
# Elastic Compliance Matrix: (Units=1/GPa)
#
#
# Indices 1 2 3 4 5 6 
#
# 1 0.014003 -0.003734 -0.005518 0.000000 0.000000 0.000000
# 2 -0.003734 0.017420 -0.003438 0.000000 0.000000 0.000000
# 3 -0.005518 -0.003438 0.012815 0.000000 0.000000 0.000000
# 4 0.000000 0.000000 0.000000 0.032887 0.000000 0.000000
# 5 0.000000 0.000000 0.000000 0.000000 0.042457 0.000000
# 6 0.000000 0.000000 0.000000 0.000000 0.000000 0.052642
#
#
# Mechanical properties :
#
#
# Convention : Reuss Voigt Hill
#
# Bulk Modulus (GPa) = 53.02668 56.85066 54.93867
# Shear Modulus (GPa) = 24.52308 25.52113 25.02210
#
# Velocity S-wave (km/s) = 3.69744 3.77193 3.73487
# Velocity P-wave (km/s) = 6.91298 7.11779 7.01613
#
# Compressibility (1/GPa) = 0.01885843
#
# Stress axis : x y z
#
# Youngs Moduli (GPa) = 71.41146 57.40638 78.03587
#
# Poissons Ratio (x) = 0.21434 0.43062
# Poissons Ratio (y) = 0.26663 0.26826
# Poissons Ratio (z) = 0.39406 0.19734
#
# Static dielectric constant tensor:
#      x y z
#    x 3.335360 0.000000 0.000000 
#    y 0.000000 3.369360 0.000000 
#    z 0.000000 0.000000 3.518470 
# 
# 
# High freq. dielectric constant tensor:
#      x y z
#    x 1.671900 0.000000 0.000000 
#    y 0.000000 1.702500 0.000000 
#    z 0.000000 0.000000 1.696940 
# 
# From -- ./inp_files/28030.got.cif
#   From: 2010.03.12/outbox.cif.g09.slc.cpg/sg59_15_cif.got.tgz:28030.got - 2010.04.16 16:29:54.
