data_PCOD8241336
_publ_section_title
;
Structure prediction by ZEFSAII (Michael W. Deem and Ramdas Pophale) SiO2 
 PCOD8241336
Probable space group: P M M N
;
_chemical_formula_sum "Si O2"
_cell_formula_units_Z 56
_cell_length_a 15.852606
_cell_length_b 8.952481
_cell_length_c 19.671837
_cell_angle_alpha 90.000000
_cell_angle_beta 90.000000
_cell_angle_gamma 90.000000
_cell_volume 2791.830137
_symmetry_space_group_name_H-M "P M M N"
_symmetry_group_IT_number 59
_space_group.IT_coordinate_system_code '2'
_symmetry_cell_setting 'orthorhombic'
loop_
_space_group_symop_operation_xyz
x,y,z
1/2-x,1/2-y,z
1/2+x,-y,-z
-x,1/2+y,-z
-x,-y,-z
1/2+x,1/2+y,-z
1/2-x,y,z
x,1/2-y,z
loop_
_atom_site_type_symbol
_atom_site_label
_atom_site_fract_x
_atom_site_fract_y
_atom_site_fract_z
Si Si1 0.597056 0.919274 0.714681
Si Si2 0.155539 0.427175 0.427967
Si Si3 0.406253 0.582506 0.704631
Si Si4 0.653497 0.574242 0.424408
Si Si5 0.653759 0.423695 0.844093
Si Si6 0.004062 0.071433 0.073409
Si Si7 0.342513 0.927521 0.843759
O O1 0.633467 0.750000 0.718651
O O2 0.603354 0.983316 0.637434
O O3 0.499866 0.920315 0.735630
O O4 0.648600 0.023540 0.765906
O O5 0.250000 0.486996 0.418316
O O6 0.154671 0.250000 0.431175
O O7 0.120741 0.484884 0.501413
O O8 0.377991 0.750000 0.686435
O O9 0.402956 0.490490 0.635515
O O10 0.349694 0.514714 0.765627
O O11 0.750000 0.523524 0.413780
O O12 0.645644 0.750000 0.420726
O O13 0.750000 0.449288 0.869644
O O14 0.629409 0.250000 0.848910
O O15 0.589254 0.518366 0.889593
O O16 0.005598 0.250000 0.068943
O O17 0.919274 0.010774 0.110772
O O18 0.000000 0.000000 0.000000
O O19 0.250000 0.978169 0.871860
O O20 0.349535 0.750000 0.842503
#
# Coordination Sequence:
#
# PCOD8241336 Si02
#       7
#     8   8   8   8   8   8   8
#     4  10  19  34  57  83 109 146 197 246 292 350
#     4   8  15  29  49  72 102 142 188 238 291 348
#     4  10  19  32  52  80 110 143 189 240 290 345
#     4   9  18  32  48  70 103 145 191 237 290 350
#     4  11  24  41  62  90 124 161 199 244 299 352
#     4  11  23  42  66  94 125 159 197 238 288 349
#     4   9  18  35  59  85 116 153 190 231 285 346
#
# _framework density 20.058527000000002
#
# number of rings (size 3 to 8) (size 9 to 14) (size 15 to 20)
#    0.000    2.286    1.429    2.571    0.000    4.286 
#    0.000    2.143    0.000    3.000    0.000    0.000 
#    0.000    0.000    0.000    0.000    0.000    0.000 
#
# Total GULP energy -694020.294487 kJ/mol
# GULP energy per Si atom -12393.219544 kJ/mol
# Density = 2.001287 g / cm^3
# Si number density = 20.058527 Si / 1000 Ang^3
#
#
#
# Elastic Constant Matrix: (Units=GPa)
#
#
# Indices 1 2 3 4 5 6 
#
# 1 107.4989 30.3006 56.1969 0.0000 0.0000 0.0000
# 2 30.3006 45.8234 35.7673 0.0000 0.0000 0.0000
# 3 56.1969 35.7673 143.0158 0.0000 0.0000 0.0000
# 4 0.0000 0.0000 0.0000 33.1068 0.0000 0.0000
# 5 0.0000 0.0000 0.0000 0.0000 28.5083 0.0000
# 6 0.0000 0.0000 0.0000 0.0000 0.0000 21.0469
#
#
#
# Elastic Compliance Matrix: (Units=1/GPa)
#
#
# Indices 1 2 3 4 5 6 
#
# 1 0.012778 -0.005629 -0.003613 0.000000 0.000000 0.000000
# 2 -0.005629 0.029596 -0.005190 0.000000 0.000000 0.000000
# 3 -0.003613 -0.005190 0.009710 0.000000 0.000000 0.000000
# 4 0.000000 0.000000 0.000000 0.030205 0.000000 0.000000
# 5 0.000000 0.000000 0.000000 0.000000 0.035078 0.000000
# 6 0.000000 0.000000 0.000000 0.000000 0.000000 0.047513
#
#
# Mechanical properties :
#
#
# Convention : Reuss Voigt Hill
#
# Bulk Modulus (GPa) = 43.06702 60.09641 51.58171
# Shear Modulus (GPa) = 24.81587 28.13728 26.47657
#
# Velocity S-wave (km/s) = 3.52116 3.74941 3.63707
# Velocity P-wave (km/s) = 6.16837 6.98353 6.58856
#
# Compressibility (1/GPa) = 0.02321963
#
# Stress axis : x y z
#
# Youngs Moduli (GPa) = 78.25981 33.78830 102.98709
#
# Poissons Ratio (x) = 0.19020 0.37211
# Poissons Ratio (y) = 0.44053 0.53449
# Poissons Ratio (z) = 0.28277 0.17536
#
# Static dielectric constant tensor:
#      x y z
#    x 3.709300 0.000000 0.000000 
#    y 0.000000 3.283960 0.000000 
#    z 0.000000 0.000000 3.890070 
# 
# 
# High freq. dielectric constant tensor:
#      x y z
#    x 1.784220 0.000000 0.000000 
#    y 0.000000 1.742050 0.000000 
#    z 0.000000 0.000000 1.793430 
# 
# From -- ./inp_files/30380.got.cif
#   From: 2010.03.12/outbox.cif.g09.slc.cpg/sg59_16_cif.got.tgz:30380.got - 2010.04.16 16:29:54.
