data_PCOD8241421
_publ_section_title
;
Structure prediction by ZEFSAII (Michael W. Deem and Ramdas Pophale) SiO2 
 PCOD8241421
Probable space group: P M M N
;
_chemical_formula_sum "Si O2"
_cell_formula_units_Z 56
_cell_length_a 14.285846
_cell_length_b 8.765443
_cell_length_c 22.690795
_cell_angle_alpha 90.000000
_cell_angle_beta 90.000000
_cell_angle_gamma 90.000000
_cell_volume 2841.381486
_symmetry_space_group_name_H-M "P M M N"
_symmetry_group_IT_number 59
_space_group.IT_coordinate_system_code '2'
_symmetry_cell_setting 'orthorhombic'
loop_
_space_group_symop_operation_xyz
x,y,z
1/2-x,1/2-y,z
1/2+x,-y,-z
-x,1/2+y,-z
-x,-y,-z
1/2+x,1/2+y,-z
1/2-x,y,z
x,1/2-y,z
loop_
_atom_site_type_symbol
_atom_site_label
_atom_site_fract_x
_atom_site_fract_y
_atom_site_fract_z
Si Si1 0.144579 0.427560 0.906094
Si Si2 0.145903 0.931448 0.466075
Si Si3 0.142710 0.926222 0.032111
Si Si4 0.141317 0.929346 0.242240
Si Si5 0.469379 0.569505 0.356736
Si Si6 0.143868 0.570262 0.597611
Si Si7 0.032204 0.070964 0.135499
O O1 0.250000 0.456041 0.882050
O O2 0.127892 0.250000 0.918708
O O3 0.069472 0.489400 0.858586
O O4 0.127716 0.520812 0.965641
O O5 0.250000 0.991084 0.451954
O O6 0.145443 0.750000 0.464412
O O7 0.078256 0.999130 0.415892
O O8 0.116525 0.986333 0.531532
O O9 0.250000 0.949327 0.051712
O O10 0.112954 0.750000 0.037796
O O11 0.077568 0.028297 0.073132
O O12 0.250000 0.970628 0.249951
O O13 0.127269 0.750000 0.232394
O O14 0.086640 0.988956 0.299849
O O15 0.100820 0.016341 0.186498
O O16 0.468225 0.750000 0.357891
O O17 0.575890 0.509926 0.355222
O O18 0.250000 0.521497 0.612391
O O19 0.132381 0.750000 0.602979
O O20 0.017380 0.250000 0.139992
#
# Coordination Sequence:
#
# PCOD8241421 Si02
#       7
#     8   8   8   8   8   8   8
#     4  10  21  38  60  85 113 144 180 223 269 319
#     4   8  14  27  49  77 107 138 172 211 260 319
#     4  10  20  35  57  85 117 150 183 222 268 318
#     4  10  22  40  59  79 105 138 178 223 269 319
#     4  10  19  32  54  80 103 133 176 224 269 311
#     4   9  18  32  50  74 107 144 176 209 257 318
#     4  12  24  37  56  81 111 146 183 224 270 321
#
# _framework density 19.708722999999999
#
# number of rings (size 3 to 8) (size 9 to 14) (size 15 to 20)
#    0.000    2.143    0.000    4.714    0.000    6.286 
#    0.000    0.714    0.000    3.000    0.000    0.000 
#    0.000    0.000    0.000    0.000    0.000    0.000 
#
# Total GULP energy -694419.109724 kJ/mol
# GULP energy per Si atom -12400.341245 kJ/mol
# Density = 1.966387 g / cm^3
# Si number density = 19.708723 Si / 1000 Ang^3
#
#
#
# Elastic Constant Matrix: (Units=GPa)
#
#
# Indices 1 2 3 4 5 6 
#
# 1 120.3497 33.6512 46.6710 0.0000 0.0000 0.0000
# 2 33.6512 45.4794 20.7675 0.0000 0.0000 0.0000
# 3 46.6710 20.7675 57.8761 0.0000 0.0000 0.0000
# 4 0.0000 0.0000 0.0000 17.7299 0.0000 0.0000
# 5 0.0000 0.0000 0.0000 0.0000 35.9040 0.0000
# 6 0.0000 0.0000 0.0000 0.0000 0.0000 30.8070
#
#
#
# Elastic Compliance Matrix: (Units=1/GPa)
#
#
# Indices 1 2 3 4 5 6 
#
# 1 0.013298 -0.005911 -0.008602 0.000000 0.000000 0.000000
# 2 -0.005911 0.028925 -0.005612 0.000000 0.000000 0.000000
# 3 -0.008602 -0.005612 0.026229 0.000000 0.000000 0.000000
# 4 0.000000 0.000000 0.000000 0.056402 0.000000 0.000000
# 5 0.000000 0.000000 0.000000 0.000000 0.027852 0.000000
# 6 0.000000 0.000000 0.000000 0.000000 0.000000 0.032460
#
#
# Mechanical properties :
#
#
# Convention : Reuss Voigt Hill
#
# Bulk Modulus (GPa) = 35.46086 47.32052 41.39069
# Shear Modulus (GPa) = 21.29320 25.06254 23.17787
#
# Velocity S-wave (km/s) = 3.29050 3.56988 3.43304
# Velocity P-wave (km/s) = 5.69808 6.40735 6.06309
#
# Compressibility (1/GPa) = 0.02820011
#
# Stress axis : x y z
#
# Youngs Moduli (GPa) = 75.19993 34.57267 38.12600
#
# Poissons Ratio (x) = 0.20437 0.32797
# Poissons Ratio (y) = 0.44453 0.21397
# Poissons Ratio (z) = 0.64689 0.19402
#
# Static dielectric constant tensor:
#      x y z
#    x 3.911480 0.000000 0.000000 
#    y 0.000000 3.338480 0.000000 
#    z 0.000000 0.000000 3.539160 
# 
# 
# High freq. dielectric constant tensor:
#      x y z
#    x 1.786760 0.000000 0.000000 
#    y 0.000000 1.749860 0.000000 
#    z 0.000000 0.000000 1.747670 
# 
# From -- ./inp_files/30285.got.cif
#   From: 2010.03.12/outbox.cif.g09.slc.cpg/sg59_16_cif.got.tgz:30285.got - 2010.04.16 16:29:54.
