data_PCOD8241707
_publ_section_title
;
Structure prediction by ZEFSAII (Michael W. Deem and Ramdas Pophale) SiO2 
 PCOD8241707
Probable space group: P M M N
;
_chemical_formula_sum "Si O2"
_cell_formula_units_Z 64
_cell_length_a 9.096593
_cell_length_b 16.008679
_cell_length_c 23.068916
_cell_angle_alpha 90.000000
_cell_angle_beta 90.000000
_cell_angle_gamma 90.000000
_cell_volume 3359.397912
_symmetry_space_group_name_H-M "P M M N"
_symmetry_group_IT_number 59
_space_group.IT_coordinate_system_code '2'
_symmetry_cell_setting 'orthorhombic'
loop_
_space_group_symop_operation_xyz
x,y,z
1/2-x,1/2-y,z
1/2+x,-y,-z
-x,1/2+y,-z
-x,-y,-z
1/2+x,1/2+y,-z
1/2-x,y,z
x,1/2-y,z
loop_
_atom_site_type_symbol
_atom_site_label
_atom_site_fract_x
_atom_site_fract_y
_atom_site_fract_z
Si Si1 0.420095 0.915123 0.567433
Si Si2 0.577658 0.155893 0.068323
Si Si3 0.421973 0.155707 0.947419
Si Si4 0.580829 0.508553 0.745595
Si Si5 0.084044 0.344043 0.540233
Si Si6 0.423560 0.492387 0.863311
Si Si7 0.082882 0.843941 0.687560
Si Si8 0.420076 0.934224 0.374200
O O1 0.250000 0.918932 0.548985
O O2 0.516455 0.897862 0.511405
O O3 0.446068 0.847546 0.618516
O O4 0.473212 0.002276 0.592845
O O5 0.750000 0.147772 0.057514
O O6 0.538692 0.250000 0.091566
O O7 0.524960 0.083226 0.112419
O O8 0.500735 0.138507 0.007719
O O9 0.250000 0.145460 0.958545
O O10 0.458162 0.250000 0.924614
O O11 0.478138 0.084986 0.902888
O O12 0.750000 0.517909 0.762571
O O13 0.493097 0.476951 0.800908
O O14 0.526260 0.598300 0.723693
O O15 0.557308 0.439768 0.694947
O O16 0.250000 0.374365 0.553098
O O17 0.082738 0.250000 0.518366
O O18 0.982599 0.348358 0.598768
O O19 0.250000 0.490186 0.856451
O O20 0.250000 0.872354 0.701021
O O21 0.055175 0.750000 0.708858
O O22 0.250000 0.949614 0.389853
#
# Coordination Sequence:
#
# PCOD8241707 Si02
#       8
#     8   8   8   8   8   8   8   8
#     4  10  19  33  55  80 105 133 167 206 252 311
#     4   9  18  32  51  78 110 141 172 206 249 304
#     4   9  18  33  53  78 106 136 173 216 262 310
#     4  10  22  37  53  75 101 133 176 220 259 302
#     4  11  23  36  52  77 105 131 164 209 260 313
#     4  10  20  34  53  76 105 141 176 214 260 310
#     4   9  18  33  53  76 103 137 173 208 252 308
#     4  10  21  38  56  73  99 135 172 212 259 308
#
# _framework density 19.051034000000001
#
# number of rings (size 3 to 8) (size 9 to 14) (size 15 to 20)
#    0.000    2.250    0.000    2.625    0.000    5.250 
#    0.000    1.875    0.000    2.250    0.000    0.000 
#    0.000    0.000    0.000    0.000    0.000    0.000 
#
# Total GULP energy -793392.545479 kJ/mol
# GULP energy per Si atom -12396.758523 kJ/mol
# Density = 1.900767 g / cm^3
# Si number density = 19.051034 Si / 1000 Ang^3
#
#
#
# Elastic Constant Matrix: (Units=GPa)
#
#
# Indices 1 2 3 4 5 6 
#
# 1 58.1701 26.0611 41.9482 0.0000 0.0000 0.0000
# 2 26.0611 74.8237 40.4934 0.0000 0.0000 0.0000
# 3 41.9482 40.4934 107.0244 0.0000 0.0000 0.0000
# 4 0.0000 0.0000 0.0000 18.5407 0.0000 0.0000
# 5 0.0000 0.0000 0.0000 0.0000 36.5575 0.0000
# 6 0.0000 0.0000 0.0000 0.0000 0.0000 23.0780
#
#
#
# Elastic Compliance Matrix: (Units=1/GPa)
#
#
# Indices 1 2 3 4 5 6 
#
# 1 0.025010 -0.004283 -0.008182 0.000000 0.000000 0.000000
# 2 -0.004283 0.017539 -0.004957 0.000000 0.000000 0.000000
# 3 -0.008182 -0.004957 0.014426 0.000000 0.000000 0.000000
# 4 0.000000 0.000000 0.000000 0.053935 0.000000 0.000000
# 5 0.000000 0.000000 0.000000 0.000000 0.027354 0.000000
# 6 0.000000 0.000000 0.000000 0.000000 0.000000 0.043331
#
#
# Mechanical properties :
#
#
# Convention : Reuss Voigt Hill
#
# Bulk Modulus (GPa) = 45.18613 50.78041 47.98327
# Shear Modulus (GPa) = 22.33944 24.40293 23.37119
#
# Velocity S-wave (km/s) = 3.42805 3.58288 3.50632
# Velocity P-wave (km/s) = 6.28002 6.62034 6.45242
#
# Compressibility (1/GPa) = 0.02213069
#
# Stress axis : x y z
#
# Youngs Moduli (GPa) = 39.98349 57.01446 69.31742
#
# Poissons Ratio (x) = 0.24419 0.56718
# Poissons Ratio (y) = 0.17125 0.34364
# Poissons Ratio (z) = 0.32716 0.28265
#
# Static dielectric constant tensor:
#      x y z
#    x 3.505220 0.000000 0.000000 
#    y 0.000000 3.733070 0.000000 
#    z 0.000000 0.000000 3.466640 
# 
# 
# High freq. dielectric constant tensor:
#      x y z
#    x 1.744180 0.000000 0.000000 
#    y 0.000000 1.737860 0.000000 
#    z 0.000000 0.000000 1.731240 
# 
# From -- ./inp_files/29564.got.cif
#   From: 2010.03.12/outbox.cif.g09.slc.cpg/sg59_15_cif.got.tgz:29564.got - 2010.04.16 16:29:54.
