data_PCOD8241048
_publ_section_title
;
Structure prediction by ZEFSAII (Michael W. Deem and Ramdas Pophale) SiO2 
 PCOD8241048
Probable space group: P M M N
;
_chemical_formula_sum "Si O2"
_cell_formula_units_Z 48
_cell_length_a 16.504846
_cell_length_b 17.627179
_cell_length_c 9.242461
_cell_angle_alpha 90.000000
_cell_angle_beta 90.000000
_cell_angle_gamma 90.000000
_cell_volume 2688.944992
_symmetry_space_group_name_H-M "P M M N"
_symmetry_group_IT_number 59
_space_group.IT_coordinate_system_code '2'
_symmetry_cell_setting 'orthorhombic'
loop_
_space_group_symop_operation_xyz
x,y,z
1/2-x,1/2-y,z
1/2+x,-y,-z
-x,1/2+y,-z
-x,-y,-z
1/2+x,1/2+y,-z
1/2-x,y,z
x,1/2-y,z
loop_
_atom_site_type_symbol
_atom_site_label
_atom_site_fract_x
_atom_site_fract_y
_atom_site_fract_z
Si Si1 0.841160 0.661496 0.994649
Si Si2 0.519972 0.575799 0.832685
Si Si3 0.158048 0.660391 0.343995
Si Si4 0.491014 0.588567 0.512345
Si Si5 0.061374 0.905680 0.117425
Si Si6 0.920010 0.835161 0.274606
O O1 0.750000 0.645790 0.944075
O O2 0.864626 0.750000 0.980449
O O3 0.897724 0.612075 0.891917
O O4 0.849474 0.636409 0.164504
O O5 0.497331 0.613317 0.679909
O O6 0.534068 0.486117 0.814791
O O7 0.444468 0.591091 0.943038
O O8 0.250000 0.644064 0.395312
O O9 0.141276 0.750000 0.338746
O O10 0.094272 0.620749 0.452917
O O11 0.147536 0.621739 0.183256
O O12 0.500000 0.500000 0.500000
O O13 0.569221 0.619196 0.423768
O O14 0.001243 0.841453 0.178651
O O15 0.903495 0.750000 0.323177
#
# Coordination Sequence:
#
# PCOD8241048 Si02
#       6
#     8   8   8   8   8   8
#     4   9  19  35  52  74 106 140 176 218 263 313
#     4  10  19  31  55  81 108 136 176 225 272 319
#     4  10  21  38  58  79 108 148 188 225 272 328
#     4  11  19  34  55  79 112 140 177 223 270 327
#     4   9  17  33  54  76 103 133 177 218 262 317
#     4   9  17  32  54  74  98 140 180 207 250 318
#
# _framework density 17.850867000000001
#
# number of rings (size 3 to 8) (size 9 to 14) (size 15 to 20)
#    0.000    2.333    3.333    2.000    0.000    2.667 
#    0.000    2.500    0.000    4.000    0.000    0.000 
#    0.000    0.000    0.000    0.000    0.000    0.000 
#
# Total GULP energy -594638.360514 kJ/mol
# GULP energy per Si atom -12388.299177 kJ/mol
# Density = 1.781024 g / cm^3
# Si number density = 17.850867 Si / 1000 Ang^3
#
#
#
# Elastic Constant Matrix: (Units=GPa)
#
#
# Indices 1 2 3 4 5 6 
#
# 1 85.7521 42.3121 44.6653 0.0000 0.0000 0.0000
# 2 42.3121 76.1755 48.0024 0.0000 0.0000 0.0000
# 3 44.6653 48.0024 139.4764 0.0000 0.0000 0.0000
# 4 0.0000 0.0000 0.0000 27.0924 0.0000 0.0000
# 5 0.0000 0.0000 0.0000 0.0000 23.2237 0.0000
# 6 0.0000 0.0000 0.0000 0.0000 0.0000 19.6000
#
#
#
# Elastic Compliance Matrix: (Units=1/GPa)
#
#
# Indices 1 2 3 4 5 6 
#
# 1 0.016868 -0.007618 -0.002780 0.000000 0.000000 0.000000
# 2 -0.007618 0.020203 -0.004514 0.000000 0.000000 0.000000
# 3 -0.002780 -0.004514 0.009613 0.000000 0.000000 0.000000
# 4 0.000000 0.000000 0.000000 0.036911 0.000000 0.000000
# 5 0.000000 0.000000 0.000000 0.000000 0.043060 0.000000
# 6 0.000000 0.000000 0.000000 0.000000 0.000000 0.051020
#
#
# Mechanical properties :
#
#
# Convention : Reuss Voigt Hill
#
# Bulk Modulus (GPa) = 59.30529 63.48483 61.39506
# Shear Modulus (GPa) = 23.46104 25.07817 24.26961
#
# Velocity S-wave (km/s) = 3.62923 3.75223 3.69124
# Velocity P-wave (km/s) = 7.13138 7.37655 7.25500
#
# Compressibility (1/GPa) = 0.01686190
#
# Stress axis : x y z
#
# Youngs Moduli (GPa) = 59.28266 49.49705 104.02144
#
# Poissons Ratio (x) = 0.37705 0.28919
# Poissons Ratio (y) = 0.45160 0.46952
# Poissons Ratio (z) = 0.16481 0.22342
#
# Static dielectric constant tensor:
#      x y z
#    x 3.271010 0.000000 0.000000 
#    y 0.000000 3.321800 0.000000 
#    z 0.000000 0.000000 3.573180 
# 
# 
# High freq. dielectric constant tensor:
#      x y z
#    x 1.662070 0.000000 0.000000 
#    y 0.000000 1.697810 0.000000 
#    z 0.000000 0.000000 1.689160 
# 
# From -- ./inp_files/10401.got.cif
#   From: 2010.03.12/outbox.cif.g09.slc.cpg/sg59_6_cif.got.tgz:10401.got - 2010.04.16 16:29:54.
