data_PCOD8241737
_publ_section_title
;
Structure prediction by ZEFSAII (Michael W. Deem and Ramdas Pophale) SiO2 
 PCOD8241737
Probable space group: P M M N
;
_chemical_formula_sum "Si O2"
_cell_formula_units_Z 64
_cell_length_a 9.170461
_cell_length_b 18.169581
_cell_length_c 19.703480
_cell_angle_alpha 90.000000
_cell_angle_beta 90.000000
_cell_angle_gamma 90.000000
_cell_volume 3283.061498
_symmetry_space_group_name_H-M "P M M N"
_symmetry_group_IT_number 59
_space_group.IT_coordinate_system_code '2'
_symmetry_cell_setting 'orthorhombic'
loop_
_space_group_symop_operation_xyz
x,y,z
1/2-x,1/2-y,z
1/2+x,-y,-z
-x,1/2+y,-z
-x,-y,-z
1/2+x,1/2+y,-z
1/2-x,y,z
x,1/2-y,z
loop_
_atom_site_type_symbol
_atom_site_label
_atom_site_fract_x
_atom_site_fract_y
_atom_site_fract_z
Si Si1 0.918577 0.397133 0.035627
Si Si2 0.916787 0.073917 0.519777
Si Si3 0.585222 0.667697 0.848904
Si Si4 0.920920 0.165297 0.649595
Si Si5 0.077252 0.426939 0.277578
Si Si6 0.076805 0.073783 0.754392
Si Si7 0.584058 0.164653 0.387066
Si Si8 0.918498 0.558496 0.090312
O O1 0.750000 0.381075 0.026400
O O2 0.951743 0.474058 0.072761
O O3 0.987103 0.335635 0.083980
O O4 0.990057 0.391324 0.961346
O O5 0.750000 0.050529 0.529196
O O6 0.974836 0.111716 0.588913
O O7 0.935067 0.135789 0.462956
O O8 0.000000 0.000000 0.500000
O O9 0.750000 0.646527 0.869061
O O10 0.576651 0.750000 0.819308
O O11 0.526563 0.613253 0.791184
O O12 0.750000 0.153977 0.664127
O O13 0.953594 0.250000 0.630537
O O14 0.012640 0.145530 0.717189
O O15 0.250000 0.439180 0.280374
O O16 0.995236 0.504068 0.282361
O O17 0.029866 0.377775 0.340517
O O18 0.250000 0.069503 0.746381
O O19 0.030766 0.076067 0.833382
O O20 0.750000 0.151989 0.361427
O O21 0.542829 0.250000 0.386423
O O22 0.750000 0.577457 0.079902
#
# Coordination Sequence:
#
# PCOD8241737 Si02
#       8
#     8   8   8   8   8   8   8   8
#     4  10  19  33  55  82 109 141 187 236 283 337
#     4  10  21  38  60  86 115 150 191 237 288 342
#     4  10  21  36  53  76 112 155 192 230 284 344
#     4  10  22  41  63  87 118 155 195 240 292 347
#     4  11  22  36  56  83 116 152 193 237 283 338
#     4  11  22  38  60  87 117 149 191 238 287 343
#     4  10  21  37  57  81 112 151 191 233 284 339
#     4   9  19  35  55  80 111 144 182 231 286 340
#
# _framework density 19.494001000000001
#
# number of rings (size 3 to 8) (size 9 to 14) (size 15 to 20)
#    0.000    1.875    1.250    2.625    0.000    7.750 
#    0.000    0.625    0.000    3.000    0.000    0.000 
#    0.000    0.000    0.000    0.000    0.000    0.000 
#
# Total GULP energy -793790.225401 kJ/mol
# GULP energy per Si atom -12402.972272 kJ/mol
# Density = 1.944963 g / cm^3
# Si number density = 19.494001 Si / 1000 Ang^3
#
#
#
# Elastic Constant Matrix: (Units=GPa)
#
#
# Indices 1 2 3 4 5 6 
#
# 1 70.2747 33.7908 50.2246 0.0000 0.0000 0.0000
# 2 33.7908 80.2387 41.7150 0.0000 0.0000 0.0000
# 3 50.2246 41.7150 122.6055 0.0000 0.0000 0.0000
# 4 0.0000 0.0000 0.0000 25.2697 0.0000 0.0000
# 5 0.0000 0.0000 0.0000 0.0000 34.9659 0.0000
# 6 0.0000 0.0000 0.0000 0.0000 0.0000 24.9914
#
#
#
# Elastic Compliance Matrix: (Units=1/GPa)
#
#
# Indices 1 2 3 4 5 6 
#
# 1 0.021989 -0.005561 -0.007116 0.000000 0.000000 0.000000
# 2 -0.005561 0.016547 -0.003352 0.000000 0.000000 0.000000
# 3 -0.007116 -0.003352 0.012212 0.000000 0.000000 0.000000
# 4 0.000000 0.000000 0.000000 0.039573 0.000000 0.000000
# 5 0.000000 0.000000 0.000000 0.000000 0.028599 0.000000
# 6 0.000000 0.000000 0.000000 0.000000 0.000000 0.040014
#
#
# Mechanical properties :
#
#
# Convention : Reuss Voigt Hill
#
# Bulk Modulus (GPa) = 53.50200 58.28663 55.89432
# Shear Modulus (GPa) = 25.35212 26.87132 26.11172
#
# Velocity S-wave (km/s) = 3.61017 3.71676 3.66385
# Velocity P-wave (km/s) = 6.69946 6.95585 6.82885
#
# Compressibility (1/GPa) = 0.01869089
#
# Stress axis : x y z
#
# Youngs Moduli (GPa) = 45.47652 60.43267 81.88893
#
# Poissons Ratio (x) = 0.33606 0.58270
# Poissons Ratio (y) = 0.25289 0.27449
# Poissons Ratio (z) = 0.32360 0.20257
#
# Static dielectric constant tensor:
#      x y z
#    x 3.530020 0.000000 0.000000 
#    y 0.000000 3.448810 0.000000 
#    z 0.000000 0.000000 3.652450 
# 
# 
# High freq. dielectric constant tensor:
#      x y z
#    x 1.756570 0.000000 0.000000 
#    y 0.000000 1.750140 0.000000 
#    z 0.000000 0.000000 1.767230 
# 
# From -- ./inp_files/29512.got.cif
#   From: 2010.03.12/outbox.cif.g09.slc.cpg/sg59_15_cif.got.tgz:29512.got - 2010.04.16 16:29:54.
