data_PCOD8241213
_publ_section_title
;
Structure prediction by ZEFSAII (Michael W. Deem and Ramdas Pophale) SiO2 
 PCOD8241213
Probable space group: P M M N
;
_chemical_formula_sum "Si O2"
_cell_formula_units_Z 64
_cell_length_a 19.805556
_cell_length_b 8.814778
_cell_length_c 19.307492
_cell_angle_alpha 90.000000
_cell_angle_beta 90.000000
_cell_angle_gamma 90.000000
_cell_volume 3370.732446
_symmetry_space_group_name_H-M "P M M N"
_symmetry_group_IT_number 59
_space_group.IT_coordinate_system_code '2'
_symmetry_cell_setting 'orthorhombic'
loop_
_space_group_symop_operation_xyz
x,y,z
1/2-x,1/2-y,z
1/2+x,-y,-z
-x,1/2+y,-z
-x,-y,-z
1/2+x,1/2+y,-z
1/2-x,y,z
x,1/2-y,z
loop_
_atom_site_type_symbol
_atom_site_label
_atom_site_fract_x
_atom_site_fract_y
_atom_site_fract_z
Si Si1 0.172360 0.929865 0.187761
Si Si2 0.590275 0.571426 0.935976
Si Si3 0.556622 0.070298 0.710772
Si Si4 0.823012 0.429439 0.473173
Si Si5 0.829320 0.078015 0.319597
Si Si6 0.449229 0.570080 0.444906
Si Si7 0.064837 0.572372 0.925036
Si Si8 0.922232 0.926931 0.214099
O O1 0.250000 0.983978 0.198582
O O2 0.168751 0.750000 0.181218
O O3 0.126607 0.985427 0.253212
O O4 0.142633 0.997222 0.117060
O O5 0.600508 0.750000 0.932982
O O6 0.513516 0.522330 0.919404
O O7 0.604829 0.511566 0.013350
O O8 0.557688 0.250000 0.704476
O O9 0.545013 0.004199 0.633189
O O10 0.494578 0.014769 0.757841
O O11 0.750000 0.501531 0.491202
O O12 0.815911 0.250000 0.471233
O O13 0.847203 0.479748 0.396842
O O14 0.875005 0.482093 0.531239
O O15 0.750000 0.070928 0.306438
O O16 0.855651 0.250000 0.306961
O O17 0.865155 0.958702 0.270131
O O18 0.500000 0.500000 0.500000
O O19 0.458894 0.750000 0.446754
O O20 0.072649 0.750000 0.936967
O O21 0.098803 0.520593 0.853723
O O22 0.924884 0.750000 0.196342
#
# Coordination Sequence:
#
# PCOD8241213 Si02
#       8
#     8   8   8   8   8   8   8   8
#     4  10  20  36  57  79 110 152 191 227 269 320
#     4  10  20  35  56  82 109 138 174 220 267 312
#     4   9  19  33  50  77 110 141 179 224 271 318
#     4   8  15  29  50  73  96 130 177 222 262 311
#     4   9  18  33  51  72 101 135 173 219 270 326
#     4  10  19  32  51  76 106 138 175 225 275 321
#     4  10  20  34  56  82 107 138 176 215 260 316
#     4  11  20  32  52  77 109 142 174 220 266 315
#
# _framework density 18.986971
#
# number of rings (size 3 to 8) (size 9 to 14) (size 15 to 20)
#    0.000    2.375    1.250    2.625    0.000    2.000 
#    0.000    4.375    0.000    4.875    0.000    0.000 
#    0.000    0.000    0.000    0.000    0.000    0.000 
#
# Total GULP energy -793417.839361 kJ/mol
# GULP energy per Si atom -12397.153740 kJ/mol
# Density = 1.894376 g / cm^3
# Si number density = 18.986971 Si / 1000 Ang^3
#
#
#
# Elastic Constant Matrix: (Units=GPa)
#
#
# Indices 1 2 3 4 5 6 
#
# 1 71.0497 21.2670 53.7202 0.0000 0.0000 0.0000
# 2 21.2670 27.5357 20.4262 0.0000 0.0000 0.0000
# 3 53.7202 20.4262 143.2469 0.0000 0.0000 0.0000
# 4 0.0000 0.0000 0.0000 24.4544 0.0000 0.0000
# 5 0.0000 0.0000 0.0000 0.0000 24.6568 0.0000
# 6 0.0000 0.0000 0.0000 0.0000 0.0000 22.9858
#
#
#
# Elastic Compliance Matrix: (Units=1/GPa)
#
#
# Indices 1 2 3 4 5 6 
#
# 1 0.023050 -0.012737 -0.006828 0.000000 0.000000 0.000000
# 2 -0.012737 0.047651 -0.002018 0.000000 0.000000 0.000000
# 3 -0.006828 -0.002018 0.009829 0.000000 0.000000 0.000000
# 4 0.000000 0.000000 0.000000 0.040893 0.000000 0.000000
# 5 0.000000 0.000000 0.000000 0.000000 0.040557 0.000000
# 6 0.000000 0.000000 0.000000 0.000000 0.000000 0.043505
#
#
# Mechanical properties :
#
#
# Convention : Reuss Voigt Hill
#
# Bulk Modulus (GPa) = 26.76393 48.07324 37.41859
# Shear Modulus (GPa) = 19.14934 24.18065 21.66500
#
# Velocity S-wave (km/s) = 3.17922 3.57254 3.38160
# Velocity P-wave (km/s) = 5.25387 6.51087 5.91585
#
# Compressibility (1/GPa) = 0.03736371
#
# Stress axis : x y z
#
# Youngs Moduli (GPa) = 43.38442 20.98585 101.73701
#
# Poissons Ratio (x) = 0.26730 0.69464
# Poissons Ratio (y) = 0.55260 0.20531
# Poissons Ratio (z) = 0.29622 0.04235
#
# Static dielectric constant tensor:
#      x y z
#    x 3.289000 0.000000 0.000000 
#    y 0.000000 3.189200 0.000000 
#    z 0.000000 0.000000 3.704580 
# 
# 
# High freq. dielectric constant tensor:
#      x y z
#    x 1.727710 0.000000 0.000000 
#    y 0.000000 1.710560 0.000000 
#    z 0.000000 0.000000 1.749300 
# 
# From -- ./inp_files/28137.got.cif
#   From: 2010.03.12/outbox.cif.g09.slc.cpg/sg59_15_cif.got.tgz:28137.got - 2010.04.16 16:29:54.
