data_PCOD8241233
_publ_section_title
;
Structure prediction by ZEFSAII (Michael W. Deem and Ramdas Pophale) SiO2 
 PCOD8241233
Probable space group: P M M N
;
_chemical_formula_sum "Si O2"
_cell_formula_units_Z 64
_cell_length_a 9.452787
_cell_length_b 23.846264
_cell_length_c 16.566218
_cell_angle_alpha 90.000000
_cell_angle_beta 90.000000
_cell_angle_gamma 90.000000
_cell_volume 3734.251738
_symmetry_space_group_name_H-M "P M M N"
_symmetry_group_IT_number 59
_space_group.IT_coordinate_system_code '2'
_symmetry_cell_setting 'orthorhombic'
loop_
_space_group_symop_operation_xyz
x,y,z
1/2-x,1/2-y,z
1/2+x,-y,-z
-x,1/2+y,-z
-x,-y,-z
1/2+x,1/2+y,-z
1/2-x,y,z
x,1/2-y,z
loop_
_atom_site_type_symbol
_atom_site_label
_atom_site_fract_x
_atom_site_fract_y
_atom_site_fract_z
Si Si1 0.583473 0.025270 0.809521
Si Si2 0.415350 0.920338 0.852682
Si Si3 0.915283 0.685560 0.431540
Si Si4 0.906568 0.316379 0.418726
Si Si5 0.914018 0.617962 0.273789
Si Si6 0.413362 0.313141 0.884467
Si Si7 0.417679 0.687960 0.758623
Si Si8 0.587942 0.403235 0.964867
O O1 0.750000 0.019821 0.792545
O O2 0.512958 0.064150 0.741036
O O3 0.550967 0.050132 0.898218
O O4 0.509654 0.964871 0.804308
O O5 0.250000 0.930850 0.833633
O O6 0.463673 0.858195 0.824394
O O7 0.447374 0.927577 0.947344
O O8 0.750000 0.681235 0.448046
O O9 0.958497 0.750000 0.413289
O O10 0.960919 0.647027 0.356702
O O11 0.992582 0.660792 0.510538
O O12 0.750000 0.342609 0.430569
O O13 0.897061 0.250000 0.424429
O O14 0.970127 0.331833 0.330442
O O15 0.750000 0.599122 0.275133
O O16 0.941453 0.663384 0.204486
O O17 0.250000 0.316532 0.907668
O O18 0.470197 0.250000 0.886168
O O19 0.496528 0.347752 0.951737
O O20 0.250000 0.692918 0.754201
O O21 0.479346 0.750000 0.781426
O O22 0.750000 0.384618 0.958621
#
# Coordination Sequence:
#
# PCOD8241233 Si02
#       8
#     8   8   8   8   8   8   8   8
#     4  10  20  33  47  66  94 122 151 192 237 273
#     4  10  19  32  52  72  88 115 156 193 226 270
#     4   9  16  26  44  71  98 122 151 187 224 264
#     4   8  14  26  44  66  93 122 148 177 219 269
#     4   9  17  30  47  66  91 124 159 190 220 263
#     4   9  17  29  45  65  92 126 157 185 224 272
#     4   8  15  29  49  72  95 118 147 184 224 269
#     4   9  19  32  46  67  92 120 155 194 233 271
#
# _framework density 17.138642000000001
#
# number of rings (size 3 to 8) (size 9 to 14) (size 15 to 20)
#    0.000    3.000    0.000    1.875    0.000    3.750 
#    0.000    1.875    0.000    4.125    0.000    0.000 
#    0.000    0.000    0.000    0.000    0.000    0.000 
#
# Total GULP energy -793426.359642 kJ/mol
# GULP energy per Si atom -12397.286869 kJ/mol
# Density = 1.709963 g / cm^3
# Si number density = 17.138642 Si / 1000 Ang^3
#
#
#
# Elastic Constant Matrix: (Units=GPa)
#
#
# Indices 1 2 3 4 5 6 
#
# 1 48.4122 37.1378 26.2445 0.0000 0.0000 0.0000
# 2 37.1378 94.4471 29.3050 0.0000 0.0000 0.0000
# 3 26.2445 29.3050 73.2012 0.0000 0.0000 0.0000
# 4 0.0000 0.0000 0.0000 17.7191 0.0000 0.0000
# 5 0.0000 0.0000 0.0000 0.0000 22.2934 0.0000
# 6 0.0000 0.0000 0.0000 0.0000 0.0000 24.3607
#
#
#
# Elastic Compliance Matrix: (Units=1/GPa)
#
#
# Indices 1 2 3 4 5 6 
#
# 1 0.032864 -0.010581 -0.007547 0.000000 0.000000 0.000000
# 2 -0.010581 0.015496 -0.002410 0.000000 0.000000 0.000000
# 3 -0.007547 -0.002410 0.017332 0.000000 0.000000 0.000000
# 4 0.000000 0.000000 0.000000 0.056436 0.000000 0.000000
# 5 0.000000 0.000000 0.000000 0.000000 0.044856 0.000000
# 6 0.000000 0.000000 0.000000 0.000000 0.000000 0.041050
#
#
# Mechanical properties :
#
#
# Convention : Reuss Voigt Hill
#
# Bulk Modulus (GPa) = 40.62363 44.60390 42.61376
# Shear Modulus (GPa) = 19.43145 21.09951 20.26548
#
# Velocity S-wave (km/s) = 3.37082 3.51252 3.44240
# Velocity P-wave (km/s) = 6.23733 6.52167 6.38109
#
# Compressibility (1/GPa) = 0.02461622
#
# Stress axis : x y z
#
# Youngs Moduli (GPa) = 30.42863 64.53143 57.69839
#
# Poissons Ratio (x) = 0.68280 0.43543
# Poissons Ratio (y) = 0.32196 0.13906
# Poissons Ratio (z) = 0.22963 0.15553
#
# Static dielectric constant tensor:
#      x y z
#    x 3.120900 0.000000 0.000000 
#    y 0.000000 3.112610 0.000000 
#    z 0.000000 0.000000 3.282000 
# 
# 
# High freq. dielectric constant tensor:
#      x y z
#    x 1.646860 0.000000 0.000000 
#    y 0.000000 1.643860 0.000000 
#    z 0.000000 0.000000 1.654600 
# 
# From -- ./inp_files/26471.got.cif
#   From: 2010.03.12/outbox.cif.g09.slc.cpg/sg59_14_cif.got.tgz:26471.got - 2010.04.16 16:29:54.
